
  SciTegic09261414462D

 31 34  0  0  0  0            999 V2000
    5.7496  -13.0911    0.0000 C   0  0
    4.3215  -12.2480    0.0000 N   0  0
    5.7675  -12.2633    0.0000 C   0  0
    5.0344  -13.4853    0.0000 C   0  0
    5.0431  -11.8430    0.0000 C   0  0
    4.3208  -13.0713    0.0000 C   0  0
    6.4633  -13.5050    0.0000 N   0  0
    6.4797  -11.8576    0.0000 C   0  0
    5.0315  -14.3122    0.0000 C   0  0
    5.0588  -11.0187    0.0000 C   0  0
    3.6044  -13.4842    0.0000 C   0  0
    6.4826  -11.0306    0.0000 C   0  0
    4.3172  -14.7215    0.0000 C   0  0
    5.7753  -10.6059    0.0000 C   0  0
    3.6037  -14.3075    0.0000 C   0  0
    5.7609  -17.2164    0.0000 C   0  0
    5.7598  -18.0437    0.0000 C   0  0
    6.4746  -18.4566    0.0000 N   0  0
    7.1911  -18.0432    0.0000 C   0  0
    7.1882  -17.2128    0.0000 C   0  0
    6.4729  -16.8036    0.0000 C   0  0
    7.9011  -16.7975    0.0000 O   0  0
    7.9062  -18.4546    0.0000 C   0  0
    7.9074  -19.2796    0.0000 N   0  0
    8.6200  -18.0410    0.0000 N   0  0
    9.3351  -18.4524    0.0000 O   0  0
    6.4703  -15.9786    0.0000 C   0  0
    5.7547  -15.5682    0.0000 N   0  0
    5.7522  -14.7433    0.0000 C   0  0
    5.0414  -15.9828    0.0000 C   0  0
    6.4654  -14.3286    0.0000 C   0  0
  2  6  1  0
  3  1  2  0
  4  1  1  0
  5  3  1  0
  6  4  1  0
  7  1  1  0
  8  3  1  0
  9  4  2  0
 10  5  1  0
 11  6  2  0
 12  8  1  0
 13  9  1  0
 14 12  1  0
 15 13  2  0
  2  5  2  0
 11 15  1  0
 10 14  1  0
 16 17  2  0
 17 18  1  0
 18 19  2  0
 19 20  1  0
 20 21  2  0
 21 16  1  0
 20 22  1  0
 19 23  1  0
 23 24  1  0
 23 25  2  0
 25 26  1  0
 21 27  1  0
 27 28  1  0
 28 29  1  0
 28 30  1  0
 29 31  1  0
 31  7  1  0
M  END