
  SciTegic04091415032D

 23 24  0  0  0  0            999 V2000
   14.1936  -11.6770    0.0000 C   0  0
   14.9069  -12.0915    0.0000 C   0  0
   15.6225  -11.6811    0.0000 C   0  0
   16.3359  -12.0957    0.0000 C   0  0
   15.6250  -10.8561    0.0000 C   0  0
   16.3335  -12.9207    0.0000 C   0  0
   17.0467  -13.3352    0.0000 C   0  0
   17.0443  -14.1602    0.0000 C   0  0
   17.7575  -14.5748    0.0000 C   0  0
   16.3286  -14.5706    0.0000 C   0  0
   17.7551  -15.3998    0.0000 C   0  0
   17.0394  -15.8102    0.0000 O   0  0
   18.4683  -15.8143    0.0000 O   0  0
   14.2005  -10.8487    0.0000 C   0  0
   13.4914  -10.4342    0.0000 C   0  0
   12.7733  -10.8412    0.0000 C   0  0  2  0  0  0
   13.4825  -12.0861    0.0000 C   0  0
   12.7678  -11.6654    0.0000 C   0  0
   12.0482  -12.0741    0.0000 C   0  0
   12.0422  -12.9032    0.0000 C   0  0
   12.7617  -13.3220    0.0000 C   0  0
   13.4784  -12.9110    0.0000 C   0  0
   12.0619  -10.4234    0.0000 C   0  0
  1  2  2  0
  2  3  1  0
  3  4  2  0
  3  5  1  0
  4  6  1  0
  6  7  2  0
  7  8  1  0
  8  9  2  0
  8 10  1  0
  9 11  1  0
 11 12  1  0
 11 13  2  0
  1 14  1  0
  1 17  1  0
 14 15  1  0
 15 16  1  0
 16 18  1  0
 17 18  2  0
 18 19  1  0
 19 20  2  0
 20 21  1  0
 21 22  2  0
 22 17  1  0
 16 23  1  6
M  END