
  Mrv0541 04051115152D          

 26 26  0  0  0  0            999 V2000
   -4.9212    1.0766    0.0000 S   0  0  0  0  0  0  0  0  0  0  0  0
   -5.6357    1.4891    0.0000 O   0  0  0  0  0  0  0  0  0  0  0  0
   -5.3337    0.3621    0.0000 O   0  0  0  0  0  0  0  0  0  0  0  0
   -4.5087    1.7911    0.0000 N   0  0  0  0  0  0  0  0  0  0  0  0
   -2.7778   -0.1609    0.0000 C   0  0  0  0  0  0  0  0  0  0  0  0
   -3.4923   -0.5734    0.0000 C   0  0  0  0  0  0  0  0  0  0  0  0
   -4.2067   -0.1609    0.0000 C   0  0  0  0  0  0  0  0  0  0  0  0
   -4.2067    0.6641    0.0000 C   0  0  0  0  0  0  0  0  0  0  0  0
   -3.4923    1.0766    0.0000 C   0  0  0  0  0  0  0  0  0  0  0  0
   -2.7778    0.6641    0.0000 C   0  0  0  0  0  0  0  0  0  0  0  0
   -2.0633   -0.5734    0.0000 C   0  0  0  0  0  0  0  0  0  0  0  0
   -2.0633   -1.3984    0.0000 O   0  0  0  0  0  0  0  0  0  0  0  0
   -1.3488   -0.1609    0.0000 N   0  0  0  0  0  0  0  0  0  0  0  0
   -0.6344   -0.5734    0.0000 C   0  0  0  0  0  0  0  0  0  0  0  0
    0.0801   -0.1609    0.0000 C   0  0  0  0  0  0  0  0  0  0  0  0
    0.7946   -0.5734    0.0000 O   0  0  0  0  0  0  0  0  0  0  0  0
    1.5090   -0.1609    0.0000 C   0  0  0  0  0  0  0  0  0  0  0  0
    2.2235   -0.5734    0.0000 C   0  0  0  0  0  0  0  0  0  0  0  0
    2.9380   -0.1609    0.0000 O   0  0  0  0  0  0  0  0  0  0  0  0
    3.6525   -0.5734    0.0000 C   0  0  0  0  0  0  0  0  0  0  0  0
    4.3669   -0.1609    0.0000 C   0  0  0  0  0  0  0  0  0  0  0  0
    5.0814   -0.5734    0.0000 N   0  0  0  0  0  0  0  0  0  0  0  0
    5.7959   -0.1609    0.0000 C   0  0  0  0  0  0  0  0  0  0  0  0
    5.7959    0.6641    0.0000 O   0  0  0  0  0  0  0  0  0  0  0  0
    6.5103   -0.5734    0.0000 C   0  0  0  0  0  0  0  0  0  0  0  0
    7.2248   -0.1609    0.0000 N   0  0  0  0  0  0  0  0  0  0  0  0
  2  1  2  0  0  0  0
  3  1  2  0  0  0  0
  4  1  1  0  0  0  0
  8  1  1  0  0  0  0
  5  6  2  0  0  0  0
  5 10  1  0  0  0  0
  5 11  1  0  0  0  0
  6  7  1  0  0  0  0
  7  8  2  0  0  0  0
  8  9  1  0  0  0  0
  9 10  2  0  0  0  0
 11 12  2  0  0  0  0
 11 13  1  0  0  0  0
 14 13  1  0  0  0  0
 14 15  1  0  0  0  0
 15 16  1  0  0  0  0
 17 16  1  0  0  0  0
 17 18  1  0  0  0  0
 18 19  1  0  0  0  0
 20 19  1  0  0  0  0
 20 21  1  0  0  0  0
 21 22  1  0  0  0  0
 23 22  1  0  0  0  0
 23 24  2  0  0  0  0
 23 25  1  0  0  0  0
 25 26  1  0  0  0  0
M  END