
  SciTegic12231509382D

 19 21  0  0  0  0            999 V2000
    3.3156   -1.3456    0.0000 Cl  0  0
   -1.3348   -1.2351    0.0000 O   0  0
    0.3876    0.1468    0.0000 N   0  0
   -1.3348    0.1938    0.0000 N   0  0
   -2.1598    1.6228    0.0000 N   0  0
   -0.0973   -0.5206    0.0000 C   0  0
    1.1722   -0.9331    0.0000 C   0  0
    1.1722   -0.1081    0.0000 C   0  0
   -0.9223   -0.5206    0.0000 C   0  0
    0.3876   -1.1881    0.0000 C   0  0
    1.8867   -1.3456    0.0000 C   0  0
    1.8867    0.3044    0.0000 C   0  0
    2.6011   -0.9331    0.0000 C   0  0
   -2.1598    0.1938    0.0000 C   0  0
   -0.9223    0.9083    0.0000 C   0  0
    2.6011   -0.1081    0.0000 C   0  0
   -2.5723    0.9083    0.0000 C   0  0
   -1.3348    1.6228    0.0000 C   0  0
   -2.5723    2.3372    0.0000 C   0  0
  1 13  1  0
  2  9  2  0
  3  6  1  0
  3  8  1  0
  4  9  1  0
  4 14  1  0
  4 15  1  0
  5 17  1  0
  5 18  1  0
  5 19  1  0
  6  9  1  0
  6 10  2  0
  7  8  1  0
  7 10  1  0
  7 11  2  0
  8 12  2  0
 11 13  1  0
 12 16  1  0
 13 16  2  0
 14 17  1  0
 15 18  1  0
M  END