
  CDK    9/16/09,9:56

 34 34  0  0  0  0  0  0  0  0999 V2000
   17.9780  -13.7801    0.0000 C   0  0  0  0  0  0  0  0  0  0  0  0
   17.5661  -14.4949    0.0000 C   0  0  0  0  0  0  0  0  0  0  0  0
   16.7422  -14.4949    0.0000 C   0  0  0  0  0  0  0  0  0  0  0  0
   17.9780  -15.2056    0.0000 C   0  0  0  0  0  0  0  0  0  0  0  0
   18.8019  -15.2056    0.0000 C   0  0  0  0  0  0  0  0  0  0  0  0
   19.2138  -14.4949    0.0000 C   0  0  0  0  0  0  0  0  0  0  0  0
   18.8019  -13.7801    0.0000 C   0  0  0  0  0  0  0  0  0  0  0  0
   20.0376  -14.4949    0.0000 C   0  0  0  0  0  0  0  0  0  0  0  0
   20.4496  -15.2056    0.0000 O   0  0  0  0  0  0  0  0  0  0  0  0
   20.4496  -13.7801    0.0000 O   0  0  0  0  0  0  0  0  0  0  0  0
   17.5661  -15.9205    0.0000 N   0  0  0  0  0  0  0  0  0  0  0  0
   17.9780  -16.6354    0.0000 C   0  0  0  0  0  0  0  0  0  0  0  0
   16.7422  -15.9205    0.0000 C   0  0  0  0  0  0  0  0  0  0  0  0
   16.3303  -15.2056    0.0000 O   0  0  0  0  0  0  0  0  0  0  0  0
   16.3303  -16.6354    0.0000 C   0  0  0  0  0  0  0  0  0  0  0  0
   16.7422  -17.3502    0.0000 C   0  0  0  0  0  0  0  0  0  0  0  0
   16.0273  -17.7621    0.0000 C   0  0  0  0  0  0  0  0  0  0  0  0
   17.4529  -16.9383    0.0000 C   0  0  0  0  0  0  0  0  0  0  0  0
   17.1542  -18.0609    0.0000 C   0  0  0  0  0  0  0  0  0  0  0  0
   15.5065  -16.6354    0.0000 N   0  0  0  0  0  0  0  0  0  0  0  0
   15.0945  -15.9205    0.0000 C   0  0  0  0  0  0  0  0  0  0  0  0
   15.5065  -15.2056    0.0000 O   0  0  0  0  0  0  0  0  0  0  0  0
   14.2707  -15.9205    0.0000 C   0  0  0  0  0  0  0  0  0  0  0  0
   13.8588  -16.6354    0.0000 C   0  0  0  0  0  0  0  0  0  0  0  0
   14.5695  -17.0473    0.0000 C   0  0  0  0  0  0  0  0  0  0  0  0
   13.4468  -17.3502    0.0000 C   0  0  0  0  0  0  0  0  0  0  0  0
   13.1439  -16.2235    0.0000 C   0  0  0  0  0  0  0  0  0  0  0  0
   12.4291  -16.6354    0.0000 C   0  0  0  0  0  0  0  0  0  0  0  0
   11.7142  -16.2235    0.0000 C   0  0  0  0  0  0  0  0  0  0  0  0
   11.7142  -15.3996    0.0000 C   0  0  0  0  0  0  0  0  0  0  0  0
   12.4291  -14.9877    0.0000 C   0  0  0  0  0  0  0  0  0  0  0  0
   13.1439  -15.3996    0.0000 C   0  0  0  0  0  0  0  0  0  0  0  0
   13.8588  -15.2056    0.0000 N   0  0  0  0  0  0  0  0  0  0  0  0
   14.2707  -14.4949    0.0000 C   0  0  0  0  0  0  0  0  0  0  0  0
  1  2  1  0  0  0  0 
  2  3  1  0  0  0  0 
  4  2  1  1  0  0  0 
  4  5  1  0  0  0  0 
  5  6  2  0  0  0  0 
  6  7  1  0  0  0  0 
  6  8  1  0  0  0  0 
  8  9  2  0  0  0  0 
  8 10  1  0  0  0  0 
  4 11  1  0  0  0  0 
 11 12  1  0  0  0  0 
 11 13  1  0  0  0  0 
 13 14  2  0  0  0  0 
 13 15  1  0  0  0  0 
 15 16  1  0  0  0  0 
 16 17  1  0  0  0  0 
 16 18  1  0  0  0  0 
 16 19  1  0  0  0  0 
 15 20  1  6  0  0  0 
 20 21  1  0  0  0  0 
 21 22  2  0  0  0  0 
 21 23  1  0  0  0  0 
 23 24  1  0  0  0  0 
 24 25  1  0  0  0  0 
 24 26  1  0  0  0  0 
 24 27  1  0  0  0  0 
 27 28  2  0  0  0  0 
 28 29  1  0  0  0  0 
 29 30  2  0  0  0  0 
 30 31  1  0  0  0  0 
 31 32  2  0  0  0  0 
 27 32  1  0  0  0  0 
 23 33  1  6  0  0  0 
 33 34  1  0  0  0  0 
M  END