
  CDK    9/16/09,9:57

 28 30  0  0  0  0  0  0  0  0999 V2000
    6.9195  -20.1321    0.0000 C   0  0  0  0  0  0  0  0  0  0  0  0
    6.9442  -20.9568    0.0000 C   0  0  0  0  0  0  0  0  0  0  0  0
    7.6707  -21.3477    0.0000 N   0  0  0  0  0  0  0  0  0  0  0  0
    8.3725  -20.9140    0.0000 C   0  0  0  0  0  0  0  0  0  0  0  0
    9.0990  -21.3050    0.0000 N   0  0  0  0  0  0  0  0  0  0  0  0
    8.3478  -20.0894    0.0000 N   0  0  0  0  0  0  0  0  0  0  0  0
    9.8008  -20.8713    0.0000 C   0  0  0  0  0  0  0  0  0  0  0  0
   10.5273  -21.2622    0.0000 C   0  0  0  0  0  0  0  0  0  0  0  0
    9.7761  -20.0467    0.0000 O   0  0  0  0  0  0  0  0  0  0  0  0
   11.2291  -20.8286    0.0000 C   0  0  0  0  0  0  0  0  0  0  0  0
   11.9556  -21.2195    0.0000 C   0  0  0  0  0  0  0  0  0  0  0  0
   11.2044  -20.0039    0.0000 C   0  0  0  0  0  0  0  0  0  0  0  0
   11.9055  -19.5743    0.0000 N   0  0  0  0  0  0  0  0  0  0  0  0
   11.8812  -18.7505    0.0000 C   0  0  0  0  0  0  0  0  0  0  0  0
   11.1541  -18.3587    0.0000 C   0  0  0  0  0  0  0  0  0  0  0  0
   10.4500  -18.7969    0.0000 C   0  0  0  0  0  0  0  0  0  0  0  0
   10.4778  -19.6193    0.0000 C   0  0  0  0  0  0  0  0  0  0  0  0
   11.9760  -22.0425    0.0000 C   0  0  0  0  0  0  0  0  0  0  0  0
   12.7017  -22.4334    0.0000 C   0  0  0  0  0  0  0  0  0  0  0  0
   13.4045  -21.9996    0.0000 C   0  0  0  0  0  0  0  0  0  0  0  0
   13.3770  -21.1708    0.0000 C   0  0  0  0  0  0  0  0  0  0  0  0
   12.6509  -20.7837    0.0000 C   0  0  0  0  0  0  0  0  0  0  0  0
    6.1931  -19.7412    0.0000 C   0  0  0  0  0  0  0  0  0  0  0  0
    6.1684  -18.9165    0.0000 C   0  0  0  0  0  0  0  0  0  0  0  0
    6.5828  -17.6476    0.0000 C   0  0  0  0  0  0  0  0  0  0  0  0
    5.7578  -17.6466    0.0000 N   0  0  0  0  0  0  0  0  0  0  0  0
    5.5000  -18.4304    0.0000 C   0  0  0  0  0  0  0  0  0  0  0  0
    6.8344  -18.4321    0.0000 N   0  0  0  0  0  0  0  0  0  0  0  0
  3  4  1  0  0  0  0 
 14 15  2  0  0  0  0 
  7  8  1  0  0  0  0 
 15 16  1  0  0  0  0 
 16 17  2  0  0  0  0 
 17 12  1  0  0  0  0 
  7  9  2  0  0  0  0 
 11 18  2  0  0  0  0 
  4  5  1  0  0  0  0 
 18 19  1  0  0  0  0 
  8 10  1  0  0  0  0 
 19 20  2  0  0  0  0 
  2  3  1  0  0  0  0 
 20 21  1  0  0  0  0 
 10 11  1  0  0  0  0 
 21 22  2  0  0  0  0 
 22 11  1  0  0  0  0 
  4  6  2  0  0  0  0 
  1 23  1  0  0  0  0 
 10 12  1  0  0  0  0 
 23 24  1  0  0  0  0 
 25 26  1  0  0  0  0 
  1  2  1  0  0  0  0 
 12 13  2  0  0  0  0 
  5  7  1  0  0  0  0 
 13 14  1  0  0  0  0 
 26 27  1  0  0  0  0 
 27 24  2  0  0  0  0 
 24 28  1  0  0  0  0 
 28 25  2  0  0  0  0 
M  END