
  SciTegic11111309142D

 51 55  0  0  1  0            999 V2000
   14.2163    1.8220    0.0000 C   0  0
    9.7580   -5.5850    0.0000 C   0  0
   10.3711   -5.0329    0.0000 C   0  0
   10.0355   -4.2792    0.0000 C   0  0
    9.2150   -4.3655    0.0000 C   0  0
    9.0435   -5.1725    0.0000 C   0  0
   12.0729   -0.2405    0.0000 O   0  0
   11.3585   -0.6530    0.0000 C   0  0
   11.3585   -1.4780    0.0000 C   0  0
   12.0729   -1.8905    0.0000 C   0  0
   12.0729   -2.7155    0.0000 C   0  0
   11.3585   -3.1280    0.0000 C   0  0
   10.6440   -2.7155    0.0000 C   0  0
   10.6440   -1.8905    0.0000 C   0  0
   12.7874   -1.4780    0.0000 Cl  0  0
    9.9295   -1.4780    0.0000 Cl  0  0
    9.9295   -3.1280    0.0000 S   0  0
    9.5170   -2.4135    0.0000 O   0  0
   10.3420   -3.8425    0.0000 O   0  0
    8.3946   -4.2792    0.0000 C   0  0
    7.9096   -4.9467    0.0000 N   0  0
    8.0590   -3.5256    0.0000 O   0  0
    8.2452   -5.7004    0.0000 C   0  0
    7.7603   -6.3678    0.0000 C   0  0
    6.9398   -6.2816    0.0000 N   0  0
    6.6042   -5.5279    0.0000 C   0  0
    7.0892   -4.8604    0.0000 C   0  0
    6.4549   -6.9490    0.0000 C   0  0
    6.7904   -7.7027    0.0000 O   0  0
    5.6344   -6.8628    0.0000 C   0  0
    5.1495   -7.5302    0.0000 C   0  0  2  0  0  0
    4.3290   -7.4440    0.0000 C   0  0
    3.8441   -8.1114    0.0000 C   0  0
    3.0236   -8.0252    0.0000 C   0  0
   12.0729    0.5845    0.0000 C   0  0
   12.0729    2.2345    0.0000 C   0  0
   11.3585    1.8220    0.0000 C   0  0
   11.3585    0.9970    0.0000 C   0  0
   12.7874    1.8220    0.0000 C   0  0
   12.7874    0.9970    0.0000 C   0  0
   13.5019    0.5845    0.0000 N   0  0
   14.2163    0.9970    0.0000 C   0  0
   13.5019    2.2345    0.0000 C   0  0
   14.9308    0.5845    0.0000 C   0  0
   13.5019    3.0595    0.0000 C   0  0
    2.5387   -8.6926    0.0000 N   0  3
    5.4850   -8.2839    0.0000 N   0  0
    2.0537   -9.3600    0.0000 C   0  0
    1.8712   -8.2077    0.0000 C   0  0
    3.2061   -9.1775    0.0000 C   0  0
    9.2150   -3.5405    0.0000 N   0  0
 17 18  2  0
 17 19  2  0
  5 20  1  0
 20 21  1  0
 20 22  2  0
 21 23  1  0
 21 27  1  0
 23 24  1  0
 24 25  1  0
 25 26  1  0
 26 27  1  0
 25 28  1  0
 28 29  2  0
 28 30  1  0
 30 31  1  0
 31 32  1  0
 32 33  1  0
 33 34  1  0
  7 35  1  0
 35 40  2  0
  2  3  1  0
 39 36  2  0
  3  4  1  0
 36 37  1  0
  4  5  1  0
 37 38  2  0
 38 35  1  0
  5  6  1  0
  6  2  1  0
 39 40  1  0
  7  8  1  0
 40 41  1  0
  8  9  1  0
 41 42  2  0
 42  1  1  0
  9 10  2  0
  1 43  2  0
 43 39  1  0
 10 11  1  0
 42 44  1  0
 11 12  2  0
 43 45  1  0
 12 13  1  0
 34 46  1  0
 13 14  2  0
 31 47  1  1
 14  9  1  0
 46 48  1  0
 10 15  1  0
 46 49  1  0
 14 16  1  0
 46 50  1  0
 13 17  1  0
 17 51  1  0
 51  5  1  0
M  CHG  1  46   1
M  END