
  SciTegic05061409282D

 26 29  0  0  0  0            999 V2000
    2.4099  -15.7685    0.0000 N   0  0
    1.7020  -16.1791    0.0000 C   0  0
    1.7044  -16.9963    0.0000 C   0  0
    2.4146  -17.4029    0.0000 C   0  0
    3.1184  -16.9922    0.0000 C   0  0
    3.8287  -17.3988    0.0000 C   0  0
    4.5324  -16.9882    0.0000 N   0  0
    4.5301  -16.1710    0.0000 C   0  0
    3.8240  -15.7644    0.0000 C   0  0
    3.1160  -16.1751    0.0000 C   0  0
    3.8216  -14.9472    0.0000 C   0  0
    4.5254  -14.5366    0.0000 C   0  0
    5.2356  -14.9431    0.0000 C   0  0
    5.2380  -15.7603    0.0000 C   0  0
    4.5230  -13.7194    0.0000 C   0  0
    3.8169  -13.3129    0.0000 O   0  0
    5.2309  -13.3088    0.0000 N   0  0
    3.8310  -18.2160    0.0000 C   0  0
    3.1231  -18.6266    0.0000 C   0  0
    3.1255  -19.4438    0.0000 C   0  0
    3.8357  -19.8504    0.0000 C   0  0
    4.5395  -19.4397    0.0000 C   0  0
    4.5372  -18.6225    0.0000 C   0  0
    3.8381  -20.6675    0.0000 Cl  0  0
    5.2286  -12.4916    0.0000 C   0  0
    5.9365  -12.0809    0.0000 C   0  0
  1  2  1  0
  2  3  1  0
  3  4  1  0
  4  5  1  0
  5  6  1  0
  6  7  2  0
  7  8  1  0
  8  9  1  0
  9 10  1  0
  1 10  1  0
  5 10  2  0
 11 12  1  0
 12 13  2  0
 13 14  1  0
  8 14  2  0
  9 11  2  0
 15 16  2  0
 15 17  1  0
 12 15  1  0
 18 19  1  0
 19 20  2  0
 20 21  1  0
 21 22  2  0
 22 23  1  0
 18 23  2  0
 21 24  1  0
  6 18  1  0
 25 26  1  0
 17 25  1  0
M  END