
  SciTegic09081514162D

 22 24  0  0  0  0            999 V2000
    2.1855   -2.6254    0.0000 N   0  0
    3.3606   -2.8684    0.0000 C   0  0
    1.3877   -3.5218    0.0000 C   0  0
    0.2917   -0.7475    0.0000 C   0  0
    0.2917    0.7475    0.0000 C   0  0
   -1.0028    1.5132    0.0000 C   0  0
   -2.3155    0.7475    0.0000 C   0  0
   -2.3155   -0.7475    0.0000 C   0  0
   -1.0028   -1.5132    0.0000 N   0  0
    2.5889    0.0182    0.0000 S   0  0
    1.7138    1.2033    0.0000 N   0  0
    1.7138   -1.2033    0.0000 C   0  0
   -3.6168    1.4950    0.0000 C   0  0
   -4.9144    0.7421    0.0000 C   0  0
   -6.2151    1.4892    0.0000 C   0  0
   -6.2185    2.9892    0.0000 C   0  0
   -4.9211    3.7421    0.0000 C   0  0
   -3.6204    2.9950    0.0000 C   0  0
   -7.5214    3.7340    0.0000 O   0  0
   -8.5585    3.1302    0.0000 C   0  0
   -4.9214    5.2429    0.0000 O   0  0
   -3.8826    5.8438    0.0000 C   0  0
  1  2  1  0
  1  3  1  0
  4  5  1  0
  5  6  1  0
  6  7  2  0
  7  8  1  0
  8  9  2  0
  4  9  1  0
 10 11  1  0
 10 12  1  0
  4 12  2  0
  5 11  2  0
  7 13  1  0
  1 12  1  0
 13 14  2  0
 14 15  1  0
 15 16  2  0
 16 17  1  0
 17 18  2  0
 18 13  1  0
 16 19  1  0
 19 20  1  0
 17 21  1  0
 21 22  1  0
M  END