
  SciTegic11201309402D

 27 28  0  0  1  0            999 V2000
    4.4042   -6.0917    0.0000 C   0  0
    3.7000   -5.6792    0.0000 N   0  0
    6.5500   -5.6917    0.0000 C   0  0
    5.1167   -5.6875    0.0000 C   0  0  1  0  0  0
    7.9792   -4.8667    0.0000 C   0  0
    8.6917   -6.1125    0.0000 C   0  0
    7.9792   -4.0417    0.0000 C   0  0
    9.4042   -5.7042    0.0000 C   0  0
    7.2625   -6.1042    0.0000 N   0  0
    5.8292   -6.1000    0.0000 C   0  0
    0.1250   -6.9125    0.0000 N   0  0
    0.1292   -6.0875    0.0000 C   0  0
    7.9792   -5.6917    0.0000 C   0  0  2  0  0  0
    4.4042   -6.9167    0.0000 O   0  0
    2.9792   -6.0917    0.0000 C   0  0
    6.5542   -4.8667    0.0000 O   0  0
    9.4125   -4.8792    0.0000 O   0  0
    0.8417   -5.6792    0.0000 C   0  0
   -0.5833   -5.6667    0.0000 N   0  0
   10.1167   -6.1167    0.0000 O   0  0
    2.2667   -5.6792    0.0000 C   0  0
    1.5542   -6.0917    0.0000 C   0  0
    0.8417   -7.3292    0.0000 C   0  0
    3.6917   -4.8542    0.0000 C   0  0
    5.1250   -4.8625    0.0000 C   0  0
    4.4125   -4.4417    0.0000 C   0  0
    1.5542   -6.9167    0.0000 C   0  0
  2  1  1  0
  3 10  1  0
  4  1  1  0
 13  5  1  6
  6 13  1  0
  7  5  3  0
  8  6  1  0
  9  3  1  0
  4 10  1  6
 11 23  1  0
 12 18  1  0
 13  9  1  0
 14  1  2  0
 15  2  1  0
 16  3  2  0
 17  8  2  0
 18 22  2  0
 19 12  1  0
 20  8  1  0
 21 15  1  0
 22 21  1  0
 23 27  2  0
 24  2  1  0
  4 25  1  0
 26 25  1  0
 27 22  1  0
 26 24  1  0
 12 11  2  0
M  END