
  SciTegic02011310402D

 26 29  0  0  0  0            999 V2000
   11.5819  -15.7125    0.0000 C   0  0
   11.5807  -16.5398    0.0000 C   0  0
   12.2956  -16.9527    0.0000 N   0  0
   12.2938  -15.2997    0.0000 N   0  0
   13.0091  -15.7088    0.0000 C   0  0
   13.0079  -16.5419    0.0000 C   0  0
   13.7248  -16.9572    0.0000 C   0  0
   14.4475  -16.5440    0.0000 N   0  0
   14.4487  -15.7109    0.0000 N   0  0
   13.7272  -15.2910    0.0000 C   0  0
   13.7225  -17.7822    0.0000 C   0  0
   13.0069  -18.1927    0.0000 C   0  0
   12.2962  -17.7734    0.0000 C   0  0
   11.5811  -18.1831    0.0000 C   0  0
   11.5783  -19.0090    0.0000 C   0  0
   12.2967  -19.4234    0.0000 C   0  0
   13.0089  -19.0112    0.0000 C   0  0
   10.8632  -19.4205    0.0000 Cl  0  0
   13.7273  -14.4660    0.0000 O   0  0
   15.1642  -15.3001    0.0000 C   0  0
   15.8776  -15.7144    0.0000 C   0  0  1  0  0  0
   15.8905  -16.5366    0.0000 C   0  0
   16.6798  -16.7766    0.0000 C   0  0
   17.1521  -16.1001    0.0000 C   0  0
   16.6545  -15.4420    0.0000 N   0  0
   16.8928  -14.6522    0.0000 C   0  0
  2  3  1  0
 12 13  2  0
  3  6  2  0
 13 14  1  0
  1  2  2  0
 14 15  2  0
  5  4  2  0
 15 16  1  0
  4  1  1  0
 16 17  2  0
 17 12  1  0
  5 10  1  0
 15 18  1  0
  6  7  1  0
 10 19  2  0
  7  8  2  0
  9 20  1  0
  8  9  1  0
 21 20  1  6
 21 22  1  0
  9 10  1  0
  5  6  1  0
  7 11  1  0
 22 23  1  0
 23 24  1  0
 24 25  1  0
 25 21  1  0
 11 12  1  0
 25 26  1  0
M  END