
  SciTegic09291413392D

 30 29  0  0  0  0            999 V2000
    7.7510   -7.7522    0.0000 Br  0  5
    9.3132  -11.7770    0.0000 Br  0  5
    4.1013   -8.9521    0.0000 C   0  0
   13.3517  -10.2061    0.0000 O   0  0
   10.5256  -10.2020    0.0000 C   0  0
    8.3772   -8.9650    0.0000 C   0  0
    9.7857   -8.9651    0.0000 C   0  0
    4.8130   -9.3604    0.0000 N   0  0
   10.5256   -9.3895    0.0000 N   0  3
    2.6945   -8.9521    0.0000 N   0  0
    5.5165   -8.9521    0.0000 C   0  0
   11.9366   -9.3895    0.0000 C   0  0
    9.0834   -9.3735    0.0000 C   0  0
    6.2241   -7.7271    0.0000 C   0  0
    3.4021   -9.3604    0.0000 C   0  0
   14.0510   -8.9769    0.0000 C   0  0
   14.7586   -9.3853    0.0000 N   0  0
    6.9316   -8.9521    0.0000 N   0  3
    5.5165   -8.1355    0.0000 C   0  0
   12.6400   -8.9769    0.0000 N   0  0
   11.2291  -10.6104    0.0000 C   0  0
   11.9366  -10.2020    0.0000 C   0  0
    7.6709   -9.3733    0.0000 C   0  0
    6.9316   -8.1355    0.0000 C   0  0
   13.3517   -9.3853    0.0000 C   0  0
    4.1013   -8.1355    0.0000 O   0  0
    6.2241   -9.3604    0.0000 C   0  0
   11.2291   -8.9812    0.0000 C   0  0
    2.6944   -8.1349    0.0000 O   0  0
   14.7586  -10.2025    0.0000 O   0  0
 12 22  2  0
  6 13  1  0
 21  5  2  0
 22 21  1  0
 13  7  1  0
  9  7  1  0
  3 15  1  0
 27 11  1  0
  5  9  1  0
 25 20  1  0
 25 16  1  0
 11  8  1  0
  3  8  1  0
 28  9  2  0
 14 24  2  0
  3 26  2  0
 19 14  1  0
 25  4  2  0
 11 19  2  0
 27 18  2  0
 18 23  1  0
 24 18  1  0
 16 17  2  0
 23  6  1  0
 28 12  1  0
 12 20  1  0
 15 10  2  0
 10 29  1  0
 17 30  1  0
M  CHG  4   1  -1   2  -1   9   1  18   1
M  END