
          11280715012D 1   1.00000     0.00000     0

 26 28  0     0  0            999 V2000
    4.9750   -6.6167    0.0000 C   0  0  0  0  0  0           0  0  0
    5.6917   -6.2042    0.0000 N   0  0  3  0  0  0           0  0  0
    4.2667   -6.2042    0.0000 C   0  0  0  0  0  0           0  0  0
    3.5542   -6.6250    0.0000 C   0  0  0  0  0  0           0  0  0
    2.1292   -6.6167    0.0000 N   0  0  3  0  0  0           0  0  0
    2.8417   -6.2042    0.0000 C   0  0  0  0  0  0           0  0  0
    6.4042   -6.6250    0.0000 C   0  0  0  0  0  0           0  0  0
    4.2667   -5.3875    0.0000 C   0  0  0  0  0  0           0  0  0
    7.1167   -6.2167    0.0000 C   0  0  0  0  0  0           0  0  0
    9.9750   -6.2292    0.0000 C   0  0  0  0  0  0           0  0  0
    5.6917   -5.3875    0.0000 C   0  0  0  0  0  0           0  0  0
    4.9750   -7.4417    0.0000 O   0  0  0  0  0  0           0  0  0
    0.7000   -7.4417    0.0000 N   0  0  0  0  0  0           0  0  0
    9.2625   -6.6375    0.0000 C   0  0  0  0  0  0           0  0  0
    2.8375   -5.3875    0.0000 C   0  0  0  0  0  0           0  0  0
    7.1167   -5.3917    0.0000 O   0  0  0  0  0  0           0  0  0
    9.9792   -5.4042    0.0000 O   0  0  0  0  0  0           0  0  0
    4.9792   -4.9750    0.0000 C   0  0  0  0  0  0           0  0  0
    3.5500   -4.9750    0.0000 C   0  0  0  0  0  0           0  0  0
    7.8292   -6.6292    0.0000 N   0  0  0  0  0  0           0  0  0
    8.5500   -6.2167    0.0000 C   0  0  0  0  0  0           0  0  0
   10.6917   -6.6417    0.0000 O   0  0  0  0  0  0           0  0  0
    2.1292   -7.4417    0.0000 C   0  0  0  0  0  0           0  0  0
    1.4167   -6.2042    0.0000 C   0  0  0  0  0  0           0  0  0
    0.7042   -6.6167    0.0000 C   0  0  0  0  0  0           0  0  0
    1.4167   -7.8542    0.0000 C   0  0  0  0  0  0           0  0  0
  2  1  1  0     0  0
  3  1  1  0     0  0
  4  3  1  0     0  0
  5  6  1  0     0  0
  6  4  2  0     0  0
  7  2  1  0     0  0
  8  3  2  0     0  0
  9  7  1  0     0  0
 10 14  1  0     0  0
 11  2  1  0     0  0
 12  1  2  0     0  0
 13 25  1  0     0  0
 14 21  1  0     0  0
 15 19  2  0     0  0
 16  9  2  0     0  0
 17 10  2  0     0  0
 18  8  1  0     0  0
 19  8  1  0     0  0
 20  9  1  0     0  0
 21 20  1  0     0  0
 22 10  1  0     0  0
 23  5  1  0     0  0
 24  5  1  0     0  0
 25 24  1  0     0  0
 26 23  1  0     0  0
 11 18  1  0     0  0
 15  6  1  0     0  0
 26 13  1  0     0  0
M  END