
          11280715192D 1   1.00000     0.00000     0

 14 14  0     0  0            999 V2000
    6.5917   -5.2167    0.0000 N   0  0  3  0  0  0           0  0  0
    7.4167   -5.1292    0.0000 C   0  0  0  0  0  0           0  0  0
    6.8542   -7.4500    0.0000 C   0  0  0  0  0  0           0  0  0
    6.5167   -6.6917    0.0000 C   0  0  0  0  0  0           0  0  0
    6.1875   -5.9292    0.0000 C   0  0  3  0  0  0           0  0  0
    7.9042   -5.8042    0.0000 O   0  0  0  0  0  0           0  0  0
    8.0167   -8.2917    0.0000 N   0  0  3  0  0  0           0  0  0
    6.0375   -4.6000    0.0000 C   0  0  0  0  0  0           0  0  0
    7.1917   -8.2042    0.0000 C   0  0  0  0  0  0           0  0  0
    7.7542   -4.3750    0.0000 C   0  0  0  0  0  0           0  0  0
    5.2875   -4.9292    0.0000 C   0  0  0  0  0  0           0  0  0
    5.3750   -5.7542    0.0000 C   0  0  0  0  0  0           0  0  0
    8.3542   -9.0500    0.0000 C   0  0  0  0  0  0           0  0  0
    8.5042   -7.6250    0.0000 C   0  0  0  0  0  0           0  0  0
  2  1  1  0     0  0
  3  4  3  0     0  0
  4  5  1  0     0  0
  5  1  1  0     0  0
  6  2  2  0     0  0
  7  9  1  0     0  0
  8  1  1  0     0  0
  9  3  1  0     0  0
 10  2  1  0     0  0
 11  8  1  0     0  0
 12  5  1  0     0  0
 13  7  1  0     0  0
 14  7  1  0     0  0
 11 12  1  0     0  0
M  END