
  SciTegic08141214002D

 24 27  0  0  1  0            999 V2000
    7.0749   -5.5822    0.0000 C   0  0  2  0  0  0
    7.0749   -6.4171    0.0000 C   0  0  2  0  0  0
    6.3657   -6.8289    0.0000 C   0  0  1  0  0  0
    5.6450   -6.4058    0.0000 C   0  0  1  0  0  0
    4.9302   -6.8176    0.0000 C   0  0  2  0  0  0
    4.9302   -7.6525    0.0000 C   0  0
    6.3543   -5.1704    0.0000 C   0  0
    5.6450   -5.5822    0.0000 C   0  0
    6.3657   -7.6411    0.0000 C   0  0
    7.8642   -6.6631    0.0000 C   0  0
    4.2209   -6.4058    0.0000 C   0  0
    7.8642   -5.3362    0.0000 C   0  0  2  0  0  0
    4.2209   -8.0643    0.0000 C   0  0
    5.6450   -8.0643    0.0000 C   0  0
    3.5060   -7.6411    0.0000 C   0  0
    8.3275   -5.9940    0.0000 C   0  0
    2.7682   -8.0358    0.0000 O   0  0
    3.5060   -6.8289    0.0000 C   0  0
    7.0749   -4.7586    0.0000 C   0  0
    8.1330   -4.5469    0.0000 O   0  0
    5.6450   -7.2293    0.0000 H   0  0
    7.0749   -7.2293    0.0000 H   0  0
    6.3657   -6.0039    0.0000 H   0  0
    4.9302   -5.9926    0.0000 H   0  0
  2  1  1  0
  3  2  1  0
  4  8  1  0
  5  4  1  0
  6  5  1  0
  7  1  1  0
  8  7  1  0
  9  3  1  0
 10  2  1  0
 11  5  1  0
 12  1  1  0
 13  6  1  0
 14  9  1  0
 15 18  1  0
 16 12  1  0
 17 15  2  0
 18 11  1  0
  1 19  1  1
 12 20  1  1
  4 21  1  6
  2 22  1  6
 10 16  1  0
  3  4  1  0
  6 14  1  0
 13 15  1  0
  3 23  1  1
  5 24  1  1
M  END