
  SciTegic12231509382D

 15 16  0  0  1  0            999 V2000
   -1.2135    0.3943    0.0000 O   0  0
   -1.4553   -2.0031    0.0000 O   0  0
    5.2054    0.1699    0.0000 N   0  0
    4.9433   -2.2430    0.0000 N   0  0
    1.2135    0.3943    0.0000 C   0  0  1  0  0  0
    0.7500   -1.0323    0.0000 C   0  0  1  0  0  0
   -0.7500   -1.0323    0.0000 C   0  0
    3.7533   -0.1515    0.0000 C   0  0
    2.6394    0.8543    0.0000 C   0  0
    0.0000    1.2760    0.0000 C   0  0
    3.5751   -1.6281    0.0000 C   0  0
    1.6281   -2.2462    0.0000 C   0  0
    5.9509   -1.1317    0.0000 C   0  0
    5.6908    1.2674    0.0000 C   0  0
    1.1385   -3.3418    0.0000 C   0  0
  1  7  1  0
  1 10  1  0
  2  7  2  0
  3  8  1  0
  3 13  1  0
  3 14  1  0
  4 11  1  0
  4 13  2  0
  5  6  1  0
  5  9  1  6
  5 10  1  0
  6  7  1  0
  6 12  1  6
  8  9  1  0
  8 11  2  0
 12 15  1  0
M  END