
  CDK    9/16/09,9:20

 37 41  0  0  0  0  0  0  0  0999 V2000
   11.7585   -2.4953    0.0000 O   0  0  0  0  0  0  0  0  0  0  0  0
   18.1919   -1.2559    0.0000 O   0  0  0  0  0  0  0  0  0  0  0  0
   12.4782   -1.2440    0.0000 C   0  0  0  0  0  0  0  0  0  0  0  0
   12.4790   -2.0725    0.0000 C   0  0  0  0  0  0  0  0  0  0  0  0
   13.1950   -2.4838    0.0000 C   0  0  0  0  0  0  0  0  0  0  0  0
   13.1933   -0.8270    0.0000 C   0  0  0  0  0  0  0  0  0  0  0  0
   13.9092   -1.2426    0.0000 C   0  0  0  0  0  0  0  0  0  0  0  0
   13.9111   -2.0710    0.0000 C   0  0  0  0  0  0  0  0  0  0  0  0
   14.6220   -2.4834    0.0000 C   0  0  0  0  0  0  0  0  0  0  0  0
   15.3397   -2.0677    0.0000 C   0  0  0  0  0  0  0  0  0  0  0  0
   14.6182   -0.8265    0.0000 C   0  0  0  0  0  0  0  0  0  0  0  0
   15.3335   -1.2416    0.0000 C   0  0  0  0  0  0  0  0  0  0  0  0
   15.3396    0.4106    0.0000 C   0  0  0  0  0  0  0  0  0  0  0  0
   14.6181   -0.0012    0.0000 C   0  0  0  0  0  0  0  0  0  0  0  0
   16.0548   -0.0086    0.0000 C   0  0  0  0  0  0  0  0  0  0  0  0
   16.0451   -0.8321    0.0000 C   0  0  0  0  0  0  0  0  0  0  0  0
   16.7501   -1.2478    0.0000 C   0  0  0  0  0  0  0  0  0  0  0  0
   17.4692   -0.8487    0.0000 C   0  0  0  0  0  0  0  0  0  0  0  0
   16.7695    0.3991    0.0000 C   0  0  0  0  0  0  0  0  0  0  0  0
   17.4758   -0.0263    0.0000 C   0  0  0  0  0  0  0  0  0  0  0  0
   18.1917    0.3731    0.0000 C   0  0  0  0  0  0  0  0  0  0  0  0
   18.2078    1.1952    0.0000 C   0  0  0  0  0  0  0  0  0  0  0  0
   17.5015    1.6165    0.0000 C   0  0  0  0  0  0  0  0  0  0  0  0
   16.7793    1.2197    0.0000 C   0  0  0  0  0  0  0  0  0  0  0  0
   16.9082    2.2074    0.0000 C   0  0  0  0  0  0  0  0  0  0  0  0
   17.9072    2.3375    0.0000 C   0  0  0  0  0  0  0  0  0  0  0  0
   12.7716   -3.2003    0.0000 C   0  0  0  0  0  0  0  0  0  0  0  0
   13.9010   -0.4141    0.0000 C   0  0  0  0  0  0  0  0  0  0  0  0
   15.3248   -0.4126    0.0000 C   0  0  0  0  0  0  0  0  0  0  0  0
   16.0379   -1.6566    0.0000 C   0  0  0  0  0  0  0  0  0  0  0  0
   18.1889   -0.4347    0.0000 C   0  0  0  0  0  0  0  0  0  0  0  0
   18.9035   -0.0236    0.0000 O   0  0  0  0  0  0  0  0  0  0  0  0
   17.4659   -1.6760    0.0000 O   0  0  0  0  0  0  0  0  0  0  0  0
   14.6108   -1.6514    0.0000 H   0  0  0  0  0  0  0  0  0  0  0  0
   16.7630   -0.4275    0.0000 H   0  0  0  0  0  0  0  0  0  0  0  0
   13.4035   -3.2791    0.0000 C   0  0  0  0  0  0  0  0  0  0  0  0
   14.1196   -2.8670    0.0000 H   0  0  0  0  0  0  0  0  0  0  0  0
  3  4  1  0  0  0  0 
  3  6  1  0  0  0  0 
  4  5  1  0  0  0  0 
  5  8  1  0  0  0  0 
  7  6  1  0  0  0  0 
  7  8  1  0  0  0  0 
  7 11  1  0  0  0  0 
  8  9  1  0  0  0  0 
  9 10  1  0  0  0  0 
 10 12  1  0  0  0  0 
 11 12  1  0  0  0  0 
 11 14  1  0  0  0  0 
 12 16  1  0  0  0  0 
 15 13  2  0  0  0  0 
 13 14  1  0  0  0  0 
 15 16  1  0  0  0  0 
 15 19  1  0  0  0  0 
 16 17  1  0  0  0  0 
 17 18  1  0  0  0  0 
 18 20  1  0  0  0  0 
 19 20  1  0  0  0  0 
 19 24  1  0  0  0  0 
 20 21  1  0  0  0  0 
 21 22  1  0  0  0  0 
 22 23  1  0  0  0  0 
 23 24  1  0  0  0  0 
 23 25  1  0  0  0  0 
 23 26  1  0  0  0  0 
  5 27  1  0  0  0  0 
  7 28  1  1  0  0  0 
 12 29  1  1  0  0  0 
 16 30  1  6  0  0  0 
 20 31  1  1  0  0  0 
 31  2  1  0  0  0  0 
 31 32  2  0  0  0  0 
 18 33  1  6  0  0  0 
 11 34  1  6  0  0  0 
 19 35  1  6  0  0  0 
  5 36  1  0  0  0  0 
  8 37  1  6  0  0  0 
  4  1  1  1  0  0  0 
M  END