
          11280715372D 1   1.00000     0.00000     0

 26 29  0     0  0            999 V2000
   -0.4958   -1.6917    0.0000 C   0  0  0  0  0  0           0  0  0
    0.0250   -1.9917    0.0000 C   0  0  0  0  0  0           0  0  0
    0.5500   -1.6917    0.0000 C   0  0  0  0  0  0           0  0  0
    0.5500   -1.1042    0.0000 C   0  0  0  0  0  0           0  0  0
   -0.4958   -1.0917    0.0000 C   0  0  0  0  0  0           0  0  0
    0.0250   -0.7917    0.0000 O   0  0  0  0  0  0           0  0  0
   -1.0125   -1.9917    0.0000 C   0  0  0  0  0  0           0  0  0
   -1.0125   -0.7917    0.0000 C   0  0  0  0  0  0           0  0  0
   -1.5375   -1.6917    0.0000 C   0  0  0  0  0  0           0  0  0
   -1.5375   -1.1042    0.0000 C   0  0  0  0  0  0           0  0  0
    0.0167   -2.5917    0.0000 O   0  0  0  0  0  0           0  0  0
    1.0750   -0.7917    0.0000 C   0  0  0  0  0  0           0  0  0
   -2.0750   -0.8167    0.0000 O   0  0  0  0  0  0           0  0  0
   -1.0083   -2.5917    0.0000 O   0  0  0  0  0  0           0  0  0
   -2.5958   -1.1042    0.0000 C   0  0  0  0  0  0           0  0  0
   -2.6000   -1.7042    0.0000 C   0  0  0  0  0  0           0  0  0
    1.5875   -1.0917    0.0000 C   0  0  0  0  0  0           0  0  0
    1.0750   -0.1917    0.0000 C   0  0  0  0  0  0           0  0  0
   -3.1250   -2.0042    0.0000 C   0  0  0  0  0  0           0  0  0
   -2.0833   -2.0042    0.0000 C   0  0  0  0  0  0           0  0  0
    1.5875    0.1083    0.0000 C   0  0  0  0  0  0           0  0  0
    2.1125   -0.7917    0.0000 C   0  0  0  0  0  0           0  0  0
   -3.1208   -2.6167    0.0000 C   0  0  0  0  0  0           0  0  0
   -2.0750   -2.6042    0.0000 C   0  0  0  0  0  0           0  0  0
   -2.6000   -2.9042    0.0000 C   0  0  0  0  0  0           0  0  0
    2.1125   -0.2042    0.0000 C   0  0  0  0  0  0           0  0  0
  2  1  1  0     0  0
  3  2  1  0     0  0
  4  6  1  0     0  0
  5  1  2  0     0  0
  6  5  1  0     0  0
  7  1  1  0     0  0
  8  5  1  0     0  0
  9  7  2  0     0  0
 10  9  1  0     0  0
 11  2  2  0     0  0
 12  4  1  0     0  0
 13 10  1  0     0  0
 14  7  1  0     0  0
 15 13  1  0     0  0
 16 15  1  0     0  0
 17 12  2  0     0  0
 18 12  1  0     0  0
 19 16  2  0     0  0
 20 16  1  0     0  0
 21 18  2  0     0  0
 22 17  1  0     0  0
 23 19  1  0     0  0
 24 20  2  0     0  0
 25 24  1  0     0  0
 26 21  1  0     0  0
 10  8  2  0     0  0
  4  3  2  0     0  0
 26 22  2  0     0  0
 25 23  2  0     0  0
M  END