
  SciTegic01311317052D

 27 30  0  0  1  0            999 V2000
   -4.7726   -9.9965    0.0000 C   0  0  1  0  0  0
   -4.7726   -9.1715    0.0000 C   0  0
   -4.0579   -8.7568    0.0000 C   0  0
   -5.4919  -10.4067    0.0000 O   0  0
   -4.0579  -10.4067    0.0000 C   0  0
   -3.3432   -9.9965    0.0000 C   0  0
   -2.6331  -10.4067    0.0000 C   0  0
   -1.9183   -9.9965    0.0000 C   0  0
   -1.9183   -9.1715    0.0000 C   0  0  1  0  0  0
   -1.2037   -8.7568    0.0000 C   0  0  2  0  0  0
   -0.4183   -9.0107    0.0000 C   0  0
    0.0664   -8.3466    0.0000 C   0  0
   -0.4183   -7.6779    0.0000 C   0  0  2  0  0  0
   -0.1644   -6.8925    0.0000 O   0  0
   -1.2037   -7.9318    0.0000 C   0  0  2  0  0  0
   -1.2037   -7.1068    0.0000 C   0  0
   -1.9183   -7.5216    0.0000 C   0  0
   -2.6331   -7.9318    0.0000 C   0  0
   -2.6331   -8.7568    0.0000 C   0  0
   -3.3432   -9.1715    0.0000 C   0  0  1  0  0  0
   -3.3432   -8.3466    0.0000 C   0  0
   -1.9183   -8.3466    0.0000 H   0  0
   -1.2037   -9.5817    0.0000 H   0  0
   -1.9188   -6.6966    0.0000 C   0  0
    0.3738   -7.8850    0.0000 C   0  0
    1.1668   -8.0947    0.0000 C   0  0
   -3.3470   -7.5184    0.0000 C   0  0
  1  4  1  6
  1  5  1  0
  5  6  2  0
  6  7  1  0
  7  8  1  0
  8  9  1  0
  9 10  1  0
 10 11  1  0
 11 12  1  0
 12 13  1  0
 13 14  1  1
 13 15  1  0
 10 15  1  0
 15 16  1  1
 15 17  1  0
 17 18  1  0
 19 18  1  0
  9 19  1  0
 19 20  1  0
  3 20  1  0
  6 20  1  0
 20 21  1  1
  9 22  1  1
 10 23  1  6
 16 24  1  0
  1  2  1  0
 13 25  1  0
  2  3  1  0
 25 26  3  0
 18 27  2  0
M  END