
          03140815522D 1   1.00000     0.00000     0

 35 37  0     1  0            999 V2000
   -0.6125    0.7875    0.0000 N   0  0  3  0  0  0           0  0  0
   -0.6125   -0.0375    0.0000 C   0  0  0  0  0  0           0  0  0
    0.0995   -0.4458    0.0000 C   0  0  0  0  0  0           0  0  0
    0.8115   -0.0375    0.0000 N   0  0  3  0  0  0           0  0  0
    0.8115    0.7875    0.0000 C   0  0  0  0  0  0           0  0  0
    0.0995    1.2042    0.0000 C   0  0  0  0  0  0           0  0  0
    1.5236   -0.4500    0.0000 C   0  0  0  0  0  0           0  0  0
    1.5210   -1.2761    0.0000 C   0  0  0  0  0  0           0  0  0
    2.2341   -1.6895    0.0000 C   0  0  0  0  0  0           0  0  0
    2.9501   -1.2780    0.0000 C   0  0  0  0  0  0           0  0  0
    2.9487   -0.4487    0.0000 C   0  0  0  0  0  0           0  0  0
    2.2350   -0.0390    0.0000 C   0  0  0  0  0  0           0  0  0
    3.6645   -1.6906    0.0000 O   0  0  0  0  0  0           0  0  0
    4.3791   -1.2782    0.0000 C   0  0  0  0  0  0           0  0  0
    5.0935   -1.6908    0.0000 C   0  0  0  0  0  0           0  0  0
    5.8080   -1.2784    0.0000 C   0  0  0  0  0  0           0  0  0
    6.5224   -1.6909    0.0000 N   0  0  3  0  0  0           0  0  0
    1.5272    1.1979    0.0000 O   0  0  0  0  0  0           0  0  0
   -1.3282    1.1979    0.0000 C   0  0  0  0  0  0           0  0  0
   -1.3306    2.0229    0.0000 O   0  0  0  0  0  0           0  0  0
    6.6121   -2.5093    0.0000 C   0  0  0  0  0  0           0  0  0
    7.4191   -2.6809    0.0000 C   0  0  0  0  0  0           0  0  0
    7.8317   -1.9664    0.0000 C   0  0  0  0  0  0           0  0  0
    7.2797   -1.3534    0.0000 C   0  0  1  0  0  0           0  0  0
   -2.0414    0.7833    0.0000 C   0  0  0  0  0  0           0  0  0
   -2.7565    1.1969    0.0000 C   0  0  0  0  0  0           0  0  0
   -3.4693    0.7830    0.0000 C   0  0  0  0  0  0           0  0  0
   -3.4673   -0.0429    0.0000 C   0  0  0  0  0  0           0  0  0
   -2.7466   -0.4532    0.0000 C   0  0  0  0  0  0           0  0  0
   -2.0368   -0.0369    0.0000 C   0  0  0  0  0  0           0  0  0
   -4.1800   -0.4585    0.0000 F   0  0  0  0  0  0           0  0  0
    7.4510   -0.5464    0.0000 C   0  0  0  0  0  0           0  0  0
    4.4287    0.8125    0.0000 C   0  0  0  0  0  0           0  0  0
    5.0812    0.4395    0.0000 O   0  0  0  0  0  0           0  0  0
    4.4317    1.5645    0.0000 O   0  0  0  0  0  0           0  0  0
 16 17  1  0     0  0
  1  2  1  0     0  0
  5 18  2  0     0  0
  8  9  1  0     0  0
  1 19  1  0     0  0
  1  6  1  0     0  0
 19 20  2  0     0  0
 17 21  1  0     0  0
  9 10  2  0     0  0
  2  3  1  0     0  0
 10 11  1  0     0  0
  3  4  1  0     0  0
 21 22  1  0     0  0
 22 23  1  0     0  0
 23 24  1  0     0  0
 24 17  1  0     0  0
 11 12  2  0     0  0
 19 25  1  0     0  0
 12  7  1  0     0  0
 25 26  2  0     0  0
  4  7  1  0     0  0
 26 27  1  0     0  0
  4  5  1  0     0  0
 27 28  2  0     0  0
 10 13  1  0     0  0
 28 29  1  0     0  0
  5  6  1  0     0  0
 29 30  2  0     0  0
 30 25  1  0     0  0
 13 14  1  0     0  0
 28 31  1  0     0  0
 24 32  1  6     0  0
 14 15  1  0     0  0
 15 16  1  0     0  0
  7  8  2  0     0  0
 33 34  1  0     0  0
 33 35  2  0     0  0
M  END