
  SciTegic01161211252D

 33 35  0  0  0  0            999 V2000
   12.5216   -7.2050    0.0000 C   0  0  2  0  0  0
   12.5216   -8.0346    0.0000 C   0  0  1  0  0  0
   13.2362   -8.4471    0.0000 C   0  0  2  0  0  0
   13.9551   -8.0346    0.0000 C   0  0  1  0  0  0
   13.9551   -7.2050    0.0000 O   0  0
   13.2362   -6.7879    0.0000 C   0  0  2  0  0  0
   11.8072   -8.4471    0.0000 N   0  0
   11.8062   -6.7942    0.0000 O   0  0
   14.6690   -8.4481    0.0000 S   0  0
   15.3841   -8.0366    0.0000 C   0  0
   11.0927   -8.0346    0.0000 C   0  0
   10.3783   -8.4471    0.0000 C   0  0
   11.0927   -7.2096    0.0000 O   0  0
    9.6649   -8.0304    0.0000 C   0  0
    8.9510   -8.4422    0.0000 C   0  0
    8.9505   -9.2680    0.0000 C   0  0
    9.6700   -9.6804    0.0000 C   0  0
   10.3810   -9.2663    0.0000 C   0  0
    8.2366   -9.6815    0.0000 C   0  0
   13.2350   -9.2721    0.0000 O   0  0
   13.2350   -5.9629    0.0000 C   0  0
   13.9489   -5.5494    0.0000 O   0  0
   13.9489   -9.6856    0.0000 P   0  0
   14.6575  -10.0971    0.0000 O   0  0
   14.6554  -10.9221    0.0000 C   0  0
   15.3688  -11.3364    0.0000 C   0  0
   15.3631  -12.1608    0.0000 C   0  0
   16.0757  -12.5751    0.0000 C   0  0
   16.7921  -12.1643    0.0000 C   0  0
   16.7916  -11.3350    0.0000 C   0  0
   16.0785  -10.9245    0.0000 C   0  0
   14.3550   -8.9696    0.0000 O   0  0
   13.5300  -10.3950    0.0000 O   0  0
  1  8  1  1
 16 17  1  0
  1  6  1  0
 17 18  2  0
 18 12  1  0
  4  9  1  1
 16 19  1  0
  2  3  1  0
  3 20  1  6
  9 10  1  0
  6 21  1  1
  3  4  1  0
 21 22  1  0
  7 11  1  0
 20 23  1  0
  4  5  1  0
 23 24  1  0
 11 12  1  0
 24 25  1  0
  5  6  1  0
 25 26  1  0
 11 13  2  0
 26 27  2  0
 27 28  1  0
 12 14  2  0
 28 29  2  0
  2  7  1  1
 29 30  1  0
 14 15  1  0
 30 31  2  0
 31 26  1  0
  1  2  1  0
 23 32  2  0
 15 16  2  0
 23 33  1  0
M  END