
  SciTegic03161210572D

 36 37  0  0  0  0            999 V2000
   11.2042  -25.5208    0.0000 F   0  0
   11.6208  -26.2375    0.0000 C   0  0
   12.0332  -25.5183    0.0000 F   0  0
   11.3125  -27.3625    0.0000 F   0  0
   10.9042  -26.6500    0.0000 C   0  0
   10.4913  -27.3599    0.0000 F   0  0
    9.7750  -25.5208    0.0000 F   0  0
   10.1917  -26.2375    0.0000 C   0  0
   10.6040  -25.5183    0.0000 F   0  0
    9.8833  -27.3625    0.0000 F   0  0
    9.4750  -26.6500    0.0000 C   0  0
    9.0621  -27.3599    0.0000 F   0  0
    8.3458  -25.5208    0.0000 F   0  0
    8.7625  -26.2375    0.0000 C   0  0
    9.1748  -25.5183    0.0000 F   0  0
    8.4542  -27.3625    0.0000 F   0  0
    8.0458  -26.6500    0.0000 C   0  0
    7.6330  -27.3599    0.0000 F   0  0
    6.6208  -26.6542    0.0000 N   0  0
    7.3353  -26.2417    0.0000 C   0  0
    7.3353  -25.4167    0.0000 O   0  0
   12.3366  -26.6542    0.0000 C   0  0
   13.0511  -26.2417    0.0000 N   0  0
   12.3366  -27.4792    0.0000 O   0  0
    5.9064  -26.2417    0.0000 C   0  0
    5.9113  -25.4156    0.0000 C   0  0
    5.1977  -25.0032    0.0000 C   0  0
    4.4822  -25.4157    0.0000 C   0  0
    4.4849  -26.2450    0.0000 C   0  0
    5.1991  -26.6537    0.0000 C   0  0
   13.7655  -26.6542    0.0000 C   0  0
   13.7639  -27.4802    0.0000 C   0  0
   14.4775  -27.8927    0.0000 C   0  0
   15.1930  -27.4801    0.0000 C   0  0
   15.1903  -26.6508    0.0000 C   0  0
   14.4761  -26.2422    0.0000 C   0  0
 20 21  2  0
 17 14  1  0
 14 11  1  0
 11  8  1  0
  8  5  1  0
  5  2  1  0
 14 13  1  0
  2 22  1  0
 15 14  1  0
 22 23  1  0
  9  8  1  0
 22 24  2  0
  5  4  1  0
 19 25  1  0
  6  5  1  0
 25 26  2  0
 17 16  1  0
 26 27  1  0
 18 17  1  0
 27 28  2  0
 28 29  1  0
 11 10  1  0
 29 30  2  0
 30 25  1  0
 12 11  1  0
 23 31  1  0
  2  1  1  0
 31 32  2  0
  3  2  1  0
 32 33  1  0
 19 20  1  0
 33 34  2  0
 20 17  1  0
 34 35  1  0
  8  7  1  0
 35 36  2  0
 36 31  1  0
M  END