
  SciTegic09261414532D

 47 54  0  0  0  0            999 V2000
   24.7078  -13.8520    0.0000 C   0  0
   24.7066  -14.6802    0.0000 C   0  0
   25.4222  -15.0935    0.0000 C   0  0
   25.4204  -13.4388    0.0000 C   0  0
   26.1365  -13.8484    0.0000 C   0  0
   26.1368  -14.6803    0.0000 C   0  0
   26.9280  -14.9371    0.0000 N   0  0
   27.4170  -14.2639    0.0000 C   0  0
   26.9276  -13.5911    0.0000 N   0  0
   27.1835  -15.7225    0.0000 C   0  0
   28.2395  -14.2622    0.0000 C   0  0
   28.6520  -14.9789    0.0000 C   0  0
   29.4772  -14.9789    0.0000 C   0  0
   29.8906  -14.2631    0.0000 C   0  0
   29.4731  -13.5457    0.0000 C   0  0
   28.6493  -13.5491    0.0000 C   0  0
   30.7165  -14.2617    0.0000 O   0  0
   31.1307  -14.9762    0.0000 C   0  0
   31.9565  -14.9748    0.0000 C   0  0
   32.3707  -15.6894    0.0000 N   0  0
   32.0360  -16.4393    0.0000 C   0  0
   32.6501  -16.9916    0.0000 N   0  0
   33.1915  -15.7699    0.0000 C   0  0
   33.3609  -16.5746    0.0000 C   0  0
   34.1410  -16.8288    0.0000 C   0  0
   34.7524  -16.2793    0.0000 C   0  0
   34.5786  -15.4723    0.0000 C   0  0
   33.7987  -15.2219    0.0000 C   0  0
   31.3222  -16.8508    0.0000 C   0  0
   30.6080  -16.4337    0.0000 C   0  0
   29.8920  -16.8435    0.0000 C   0  0
   29.8887  -17.6703    0.0000 C   0  0
   30.6076  -18.0855    0.0000 C   0  0
   31.3208  -17.6732    0.0000 C   0  0
   26.6310  -16.3364    0.0000 C   0  0
   25.8250  -16.1635    0.0000 C   0  0
   25.2728  -16.7766    0.0000 C   0  0
   25.5281  -17.5630    0.0000 C   0  0
   26.3407  -17.7328    0.0000 C   0  0
   26.8893  -17.1183    0.0000 C   0  0
   32.3683  -14.2590    0.0000 C   0  0
   33.1926  -14.2607    0.0000 C   0  0
   33.5964  -14.9753    0.0000 C   0  0
   34.4171  -14.9790    0.0000 C   0  0
   34.8346  -14.2679    0.0000 N   0  0
   34.4252  -13.5513    0.0000 C   0  0
   33.5982  -13.5460    0.0000 C   0  0
  1  2  2  0
  2  3  1  0
  3  6  2  0
  5  4  2  0
  4  1  1  0
  5  6  1  0
  6  7  1  0
  7  8  1  0
  8  9  2  0
  9  5  1  0
  7 10  1  0
 11 12  2  0
 12 13  1  0
 13 14  2  0
 14 15  1  0
 15 16  2  0
 16 11  1  0
  8 11  1  0
 14 17  1  0
 17 18  1  0
 18 19  1  0
 19 20  1  0
 20 21  1  0
 21 22  2  0
 22 24  1  0
 23 20  1  0
 23 24  2  0
 24 25  1  0
 25 26  2  0
 26 27  1  0
 27 28  2  0
 28 23  1  0
 29 30  2  0
 30 31  1  0
 31 32  2  0
 32 33  1  0
 33 34  2  0
 34 29  1  0
 21 29  1  0
 10 35  1  0
 35 36  2  0
 36 37  1  0
 37 38  2  0
 38 39  1  0
 39 40  2  0
 40 35  1  0
 19 41  1  0
 41 42  1  0
 42 43  1  0
 42 47  1  0
 43 44  1  0
 44 45  1  0
 45 46  1  0
 46 47  1  0
M  END