
          11280715062D 1   1.00000     0.00000     0

 25 27  0     1  0            999 V2000
    0.1625   -3.0667    0.0000 O   0  0  0  0  0  0           0  0  0
    3.8042   -2.7750    0.0000 C   0  0  0  0  0  0           0  0  0
   -0.3583   -2.7667    0.0000 C   0  0  0  0  0  0           0  0  0
   -0.3583   -2.1625    0.0000 C   0  0  0  0  0  0           0  0  0
    4.3250   -3.0750    0.0000 C   0  0  0  0  0  0           0  0  0
    3.8042   -2.1792    0.0000 C   0  0  0  0  0  0           0  0  0
    0.1625   -1.8542    0.0000 C   0  0  0  0  0  0           0  0  0
    0.6917   -2.7667    0.0000 C   0  0  1  0  0  0           0  0  0
    3.2875   -3.0667    0.0000 O   0  0  0  0  0  0           0  0  0
    1.7292   -2.7667    0.0000 N   0  0  0  0  0  0           0  0  0
    0.6917   -2.1625    0.0000 C   0  0  0  0  0  0           0  0  0
    3.2875   -1.8792    0.0000 O   0  0  0  0  0  0           0  0  0
    4.3250   -3.6750    0.0000 O   0  0  0  0  0  0           0  0  0
    4.8417   -2.1792    0.0000 C   0  0  0  0  0  0           0  0  0
   -0.8833   -3.0667    0.0000 C   0  0  0  0  0  0           0  0  0
    4.3250   -1.8750    0.0000 C   0  0  0  0  0  0           0  0  0
    4.8417   -2.7792    0.0000 C   0  0  0  0  0  0           0  0  0
    1.2042   -3.0667    0.0000 C   0  0  0  0  0  0           0  0  0
   -0.8833   -1.8625    0.0000 C   0  0  0  0  0  0           0  0  0
    2.2500   -3.0667    0.0000 C   0  0  0  0  0  0           0  0  0
    2.7667   -2.7667    0.0000 C   0  0  0  0  0  0           0  0  0
    2.7667   -2.1792    0.0000 C   0  0  0  0  0  0           0  0  0
    4.8417   -3.9750    0.0000 C   0  0  0  0  0  0           0  0  0
   -1.3958   -2.7667    0.0000 C   0  0  0  0  0  0           0  0  0
   -1.3958   -2.1667    0.0000 C   0  0  0  0  0  0           0  0  0
  2  9  1  0     0  0
  3  1  1  0     0  0
  4  3  2  0     0  0
  5  2  2  0     0  0
  6  2  1  0     0  0
  7 11  1  0     0  0
  8  1  1  0     0  0
  9 21  1  0     0  0
 10 18  1  0     0  0
 11  8  1  0     0  0
 12  6  1  0     0  0
 13  5  1  0     0  0
 14 16  1  0     0  0
 15  3  1  0     0  0
 16  6  2  0     0  0
 17  5  1  0     0  0
  8 18  1  1     0  0
 19  4  1  0     0  0
 20 10  1  0     0  0
 21 20  1  0     0  0
 22 12  1  0     0  0
 23 13  1  0     0  0
 24 15  2  0     0  0
 25 24  1  0     0  0
  4  7  1  0     0  0
 19 25  2  0     0  0
 17 14  2  0     0  0
M  END