
          11280715052D 1   1.00000     0.00000     0

 26 28  0     0  0            999 V2000
   -0.8625   -0.4417    0.0000 N   0  0  3  0  0  0           0  0  0
   -0.3833   -0.0875    0.0000 C   0  0  0  0  0  0           0  0  0
   -1.1708    0.4833    0.0000 N   0  0  0  0  0  0           0  0  0
   -1.3500   -0.0917    0.0000 C   0  0  0  0  0  0           0  0  0
   -0.5708    0.4833    0.0000 N   0  0  0  0  0  0           0  0  0
    1.7292   -1.9375    0.0000 C   0  0  0  0  0  0           0  0  0
    1.2167   -2.2375    0.0000 C   0  0  0  0  0  0           0  0  0
    1.7292   -1.3375    0.0000 C   0  0  0  0  0  0           0  0  0
   -0.8625   -1.0417    0.0000 C   0  0  0  0  0  0           0  0  0
    0.6917   -1.9417    0.0000 C   0  0  0  0  0  0           0  0  0
    0.1917   -0.2667    0.0000 O   0  0  0  0  0  0           0  0  0
    1.2042   -1.0417    0.0000 O   0  0  0  0  0  0           0  0  0
    0.1792   -2.2417    0.0000 C   0  0  0  0  0  0           0  0  0
    0.7000   -1.3375    0.0000 C   0  0  0  0  0  0           0  0  0
   -0.3458   -1.3417    0.0000 C   0  0  0  0  0  0           0  0  0
    2.2500   -1.0375    0.0000 O   0  0  0  0  0  0           0  0  0
   -0.3375   -1.9417    0.0000 C   0  0  0  0  0  0           0  0  0
    0.1792   -1.0417    0.0000 C   0  0  0  0  0  0           0  0  0
   -1.9208   -0.2792    0.0000 C   0  0  0  0  0  0           0  0  0
    2.2542   -2.2375    0.0000 C   0  0  0  0  0  0           0  0  0
    1.2167   -2.8417    0.0000 C   0  0  0  0  0  0           0  0  0
   -2.3708    0.1208    0.0000 C   0  0  0  0  0  0           0  0  0
   -2.9333   -0.0667    0.0000 C   0  0  0  0  0  0           0  0  0
    2.2542   -2.8417    0.0000 C   0  0  0  0  0  0           0  0  0
    1.7292   -3.1417    0.0000 C   0  0  0  0  0  0           0  0  0
   -3.3833    0.3333    0.0000 C   0  0  0  0  0  0           0  0  0
  2  1  1  0     0  0
  3  4  2  0     0  0
  4  1  1  0     0  0
  5  2  2  0     0  0
  6  7  1  0     0  0
  7 10  1  0     0  0
  8  6  1  0     0  0
  9  1  1  0     0  0
 10 14  2  0     0  0
 11  2  1  0     0  0
 12  8  2  0     0  0
 13 17  2  0     0  0
 14 18  1  0     0  0
 15  9  1  0     0  0
 16  8  1  0     0  0
 17 15  1  0     0  0
 18 15  2  0     0  0
 19  4  1  0     0  0
 20  6  2  0     0  0
 21  7  2  0     0  0
 22 19  1  0     0  0
 23 22  1  0     0  0
 24 25  2  0     0  0
 25 21  1  0     0  0
 26 23  1  0     0  0
  5  3  1  0     0  0
 13 10  1  0     0  0
 20 24  1  0     0  0
M  END