
  Mrv0541 04051115152D          

 14 14  0  0  0  0            999 V2000
   -0.8795    0.8751    0.0000 O   0  0  0  0  0  0  0  0  0  0  0  0
   -0.7080    0.0682    0.0000 C   0  0  0  0  0  0  0  0  0  0  0  0
   -1.3211   -0.4839    0.0000 C   0  0  1  0  0  0  0  0  0  0  0  0
   -2.1057   -0.2289    0.0000 C   0  0  0  0  0  0  0  0  0  0  0  0
   -2.7188   -0.7810    0.0000 S   0  0  0  0  0  0  0  0  0  0  0  0
   -1.1495   -1.2908    0.0000 C   0  0  0  0  0  0  0  0  0  0  0  0
    0.0767   -0.1868    0.0000 N   0  0  0  0  0  0  0  0  0  0  0  0
    0.7441    0.2981    0.0000 C   0  0  2  0  0  0  0  0  0  0  0  0
    0.7441    1.1231    0.0000 C   0  0  0  0  0  0  0  0  0  0  0  0
    0.0296    1.5356    0.0000 O   0  0  0  0  0  0  0  0  0  0  0  0
    1.4586    1.5356    0.0000 O   0  0  0  0  0  0  0  0  0  0  0  0
    0.3316   -0.9714    0.0000 C   0  0  0  0  0  0  0  0  0  0  0  0
    1.1566   -0.9714    0.0000 C   0  0  0  0  0  0  0  0  0  0  0  0
    1.4115   -0.1868    0.0000 C   0  0  0  0  0  0  0  0  0  0  0  0
  2  1  2  0  0  0  0
  3  2  1  0  0  0  0
  2  7  1  0  0  0  0
  4  3  1  0  0  0  0
  3  6  1  6  0  0  0
  4  5  1  0  0  0  0
  8  7  1  0  0  0  0
 12  7  1  0  0  0  0
  8  9  1  6  0  0  0
 14  8  1  0  0  0  0
  9 10  2  0  0  0  0
  9 11  1  0  0  0  0
 12 13  1  0  0  0  0
 13 14  1  0  0  0  0
M  END