
  SciTegic12231509382D

 32 35  0  0  0  0            999 V2000
    2.2692   -8.0415    0.0000 C   0  0
    2.6811   -7.3268    0.0000 O   0  0
    2.2692   -6.6162    0.0000 C   0  0
    1.4454   -6.6162    0.0000 C   0  0
    1.0335   -5.9013    0.0000 C   0  0
    1.4454   -5.1865    0.0000 C   0  0
    2.2692   -5.1865    0.0000 C   0  0
    2.6811   -5.9013    0.0000 C   0  0
    3.5048   -5.9013    0.0000 N   0  0
    3.9167   -5.1865    0.0000 C   0  0
    4.7405   -5.1865    0.0000 C   0  0
    5.1524   -5.9013    0.0000 N   0  0
    4.7405   -6.6162    0.0000 C   0  0
    3.9167   -6.6162    0.0000 C   0  0
    5.9761   -5.9013    0.0000 C   0  0
    6.3880   -5.1865    0.0000 C   0  0
    7.2118   -5.1865    0.0000 N   0  0
    7.6237   -4.4759    0.0000 C   0  0
    7.2118   -3.7612    0.0000 C   0  0
    7.6237   -3.0463    0.0000 C   0  0
    8.4474   -3.0463    0.0000 C   0  0
    8.8593   -3.7612    0.0000 C   0  0
    8.4474   -4.4759    0.0000 N   0  0
    7.6237   -5.9013    0.0000 C   0  0
    7.2118   -6.6162    0.0000 O   0  0
    8.4474   -5.9013    0.0000 C   0  0
    8.8593   -5.1865    0.0000 C   0  0
    9.6831   -5.1865    0.0000 C   0  0
   10.0950   -5.9013    0.0000 C   0  0
    9.6831   -6.6162    0.0000 C   0  0
    8.8593   -6.6162    0.0000 C   0  0
   10.9187   -5.9013    0.0000 I   0  0
  1  2  1  0
  2  3  1  0
  3  4  2  0
  4  5  1  0
  5  6  2  0
  6  7  1  0
  7  8  2  0
  3  8  1  0
  8  9  1  0
  9 10  1  0
 10 11  1  0
 11 12  1  0
 12 13  1  0
 13 14  1  0
  9 14  1  0
 12 15  1  0
 15 16  1  0
 16 17  1  0
 17 18  1  0
 18 19  2  0
 19 20  1  0
 20 21  2  0
 21 22  1  0
 22 23  2  0
 18 23  1  0
 17 24  1  0
 24 25  2  0
 24 26  1  0
 26 27  2  0
 27 28  1  0
 28 29  2  0
 29 30  1  0
 30 31  2  0
 26 31  1  0
 29 32  1  0
M  END