
          11290714372D 1   1.00000     0.00000     0

 27 29  0     1  0            999 V2000
   12.0740   -4.4289    0.0000 C   0  0  0  0  0  0           0  0  0
   11.3326   -4.0660    0.0000 C   0  0  0  0  0  0           0  0  0
   10.7569   -4.6577    0.0000 C   0  0  0  0  0  0           0  0  0
   11.1442   -5.3896    0.0000 N   0  3  3  0  0  0           0  0  0
   11.9560   -5.2447    0.0000 C   0  0  2  0  0  0           0  0  0
   12.7816   -5.2220    0.0000 C   0  0  1  0  0  0           0  0  0
   13.2881   -5.8802    0.0000 C   0  0  0  0  0  0           0  0  0
   14.0663   -5.6036    0.0000 S   0  0  0  0  0  0           0  0  0
   14.0437   -4.7778    0.0000 C   0  0  2  0  0  0           0  0  0
   13.2514   -4.5444    0.0000 O   0  0  0  0  0  0           0  0  0
   12.5507   -4.4234    0.0000 H   0  0  0  0  0  0           0  0  0
   14.7652   -5.1730    0.0000 C   0  0  0  0  0  0           0  0  0
   14.7810   -5.9967    0.0000 C   0  0  0  0  0  0           0  0  0
   15.5017   -6.3919    0.0000 C   0  0  0  0  0  0           0  0  0
   16.2058   -5.9646    0.0000 C   0  0  0  0  0  0           0  0  0
   16.1846   -5.1378    0.0000 C   0  0  0  0  0  0           0  0  0
   15.4633   -4.7464    0.0000 C   0  0  0  0  0  0           0  0  0
   14.0838   -3.9534    0.0000 C   0  0  3  0  0  0           0  0  0
   14.8195   -3.5793    0.0000 C   0  0  0  0  0  0           0  0  0
   14.8599   -2.7556    0.0000 C   0  0  0  0  0  0           0  0  0
   14.1655   -2.3078    0.0000 C   0  0  0  0  0  0           0  0  0
   13.4289   -2.6896    0.0000 C   0  0  0  0  0  0           0  0  0
   13.3920   -3.5120    0.0000 C   0  0  0  0  0  0           0  0  0
   10.3182   -5.3822    0.0000 C   0  0  0  0  0  0           0  0  0
   11.4856   -6.1411    0.0000 C   0  0  0  0  0  0           0  0  0
   12.1650   -6.0408    0.0000 H   0  0  0  0  0  0           0  0  0
   10.6726   -6.8370    0.0000 I   0  5  0  0  0  0           0  0  0
  1  2  1  0     0  0
 12 13  2  0     0  0
  5  6  1  0     0  0
 13 14  1  0     0  0
  6  7  1  0     0  0
 14 15  2  0     0  0
 15 16  1  0     0  0
 16 17  2  0     0  0
 17 12  1  0     0  0
  2  3  1  0     0  0
  9 18  1  0     0  0
  3  4  1  0     0  0
 18 19  1  0     0  0
  7  8  1  0     0  0
 19 20  1  0     0  0
  8  9  1  0     0  0
 20 21  1  0     0  0
  9 10  1  0     0  0
 21 22  1  0     0  0
 10  6  1  0     0  0
 22 23  1  0     0  0
 23 18  1  0     0  0
  4  5  1  0     0  0
  4 24  1  0     0  0
  6 11  1  1     0  0
  4 25  1  0     0  0
  5  1  1  0     0  0
  5 26  1  6     0  0
  9 12  1  6     0  0
M  CHG  2   4   1  27  -1
M  END