
  SciTegic05281317142D

 32 35  0  0  0  0            999 V2000
   -2.6111    0.7486    0.0000 C   0  0
   -2.6111   -0.7486    0.0000 N   0  0
    0.0000   -0.7486    0.0000 C   0  0
   -1.2964    1.4973    0.0000 N   0  0
   -1.2964   -1.4973    0.0000 C   0  0
   -7.8030    3.7716    0.0000 C   0  0
    0.0000    0.7486    0.0000 C   0  0
   -6.5071    3.0146    0.0000 N   0  0
   -3.9091    1.5019    0.0000 N   0  0
   -5.2030    3.7575    0.0000 C   0  0
   -3.9067    3.0027    0.0000 C   0  0  1  0  0  0
    1.2964   -1.4973    0.0000 C   0  0
   -9.1070    3.0286    0.0000 C   0  0
    1.2964    1.4973    0.0000 C   0  0
    2.5929   -0.7486    0.0000 C   0  0
    2.5929    0.7486    0.0000 C   0  0
  -10.4561    3.6546    0.0000 O   0  0
   -7.7965    4.9716    0.0000 O   0  0
   -9.2503    1.5483    0.0000 C   0  0
  -11.4639    2.5436    0.0000 C   0  0
  -10.7187    1.2418    0.0000 C   0  0
   -1.2928   -2.6973    0.0000 N   0  0
    3.8911   -1.5017    0.0000 O   0  0
    3.8911    1.5017    0.0000 O   0  0
   -6.5136    1.8146    0.0000 C   0  0
   -4.9494    0.9039    0.0000 C   0  0
   -5.1976    5.2575    0.0000 C   0  0
   -2.6050    3.7481    0.0000 C   0  0
    3.8894   -2.7017    0.0000 C   0  0
    3.8894    2.7017    0.0000 C   0  0
   -3.8958    6.0028    0.0000 C   0  0
   -2.5995    5.2481    0.0000 C   0  0
  2  1  1  0
  3  7  1  0
  4  1  2  0
  5  2  2  0
  6  8  1  0
  7  4  1  0
  8 10  1  0
  9  1  1  0
 10 11  1  0
 11  9  1  1
 12  3  2  0
 13  6  1  0
 14  7  2  0
 15 16  2  0
 16 14  1  0
 17 13  1  0
 18  6  2  0
 19 13  2  0
 20 17  1  0
 21 19  1  0
 22  5  1  0
 23 15  1  0
 24 16  1  0
 25  8  1  0
 26  9  1  0
 27 10  1  0
 28 11  1  0
 29 23  1  0
 30 24  1  0
 31 32  1  0
 32 28  1  0
  5  3  1  0
 27 31  1  0
 15 12  1  0
 20 21  2  0
M  END