
          11280715492D 1   1.00000     0.00000     0

 23 25  0     0  0            999 V2000
   12.3489  -17.8418    0.0000 C   0  0  0  0  0  0           0  0  0
   13.0684  -18.2517    0.0000 C   0  0  0  0  0  0           0  0  0
    8.7875  -15.7750    0.0000 C   0  0  3  0  0  0           0  0  0
    8.7875  -16.6000    0.0000 C   0  0  0  0  0  0           0  0  0
    9.4995  -17.0083    0.0000 C   0  0  0  0  0  0           0  0  0
   10.2115  -16.6000    0.0000 N   0  0  3  0  0  0           0  0  0
   10.2115  -15.7750    0.0000 C   0  0  0  0  0  0           0  0  0
    9.4995  -15.3583    0.0000 C   0  0  0  0  0  0           0  0  0
    8.0718  -15.3646    0.0000 C   0  0  0  0  0  0           0  0  0
    7.3586  -15.7792    0.0000 C   0  0  0  0  0  0           0  0  0
    6.6042  -15.4460    0.0000 C   0  0  0  0  0  0           0  0  0
    6.0539  -16.0607    0.0000 N   0  0  0  0  0  0           0  0  0
    6.4686  -16.7740    0.0000 C   0  0  0  0  0  0           0  0  0
    7.2750  -16.6000    0.0000 N   0  0  0  0  0  0           0  0  0
   10.9254  -17.0135    0.0000 C   0  0  0  0  0  0           0  0  0
   10.9242  -17.8385    0.0000 C   0  0  0  0  0  0           0  0  0
   11.6381  -18.2521    0.0000 C   0  0  0  0  0  0           0  0  0
   13.0680  -19.0758    0.0000 C   0  0  0  0  0  0           0  0  0
   13.7824  -19.4869    0.0000 C   0  0  0  0  0  0           0  0  0
   14.4971  -19.0730    0.0000 C   0  0  0  0  0  0           0  0  0
   14.4929  -18.2437    0.0000 C   0  0  0  0  0  0           0  0  0
   13.7779  -17.8364    0.0000 C   0  0  0  0  0  0           0  0  0
   15.2129  -19.4832    0.0000 Cl  0  0  0  0  0  0           0  0  0
  4  5  1  0     0  0
  5  6  1  0     0  0
 11 12  1  0     0  0
 12 13  1  0     0  0
 13 14  2  0     0  0
 14 10  1  0     0  0
  6  7  1  0     0  0
  6 15  1  0     0  0
  7  8  1  0     0  0
 15 16  1  0     0  0
 16 17  1  0     0  0
 17  1  1  0     0  0
  3  9  1  0     0  0
  2 18  2  0     0  0
  1  2  1  0     0  0
 18 19  1  0     0  0
  9 10  1  0     0  0
 19 20  2  0     0  0
 10 11  2  0     0  0
 20 21  1  0     0  0
  3  4  1  0     0  0
 21 22  2  0     0  0
 22  2  1  0     0  0
  3  8  1  0     0  0
 20 23  1  0     0  0
M  END