
  SciTegic09081514182D

 69 76  0  0  0  0            999 V2000
   13.0507  -11.8656    0.0000 C   0  0
   11.7633  -12.6356    0.0000 C   0  0
   10.4529  -11.9055    0.0000 C   0  0
   10.4299  -10.4057    0.0000 C   0  0
   11.7172   -9.6358    0.0000 C   0  0
   13.0276  -10.3658    0.0000 C   0  0
   14.3141   -9.5928    0.0000 N   0  0
   14.2889   -8.0922    0.0000 C   0  0
   14.0991  -12.4495    0.0000 C   0  0
   15.5753   -7.3192    0.0000 C   0  0
   13.2395   -7.5101    0.0000 O   0  0
   15.5523   -5.8194    0.0000 C   0  0
   16.8397   -5.0494    0.0000 C   0  0
   18.1501   -5.7793    0.0000 C   0  0
   18.1732   -7.2792    0.0000 C   0  0
   16.8859   -8.0491    0.0000 C   0  0
   11.7840  -14.1362    0.0000 C   0  0
   13.0933  -14.8682    0.0000 C   0  0
   13.1140  -16.3681    0.0000 N   0  0
   11.8254  -17.1359    0.0000 C   0  0
   10.5161  -16.4040    0.0000 C   0  0
   10.4955  -14.9041    0.0000 N   0  0
   19.4381   -5.0090    0.0000 C   0  0
   19.4204   -3.8091    0.0000 C   0  0
   20.4863   -5.5932    0.0000 C   0  0
   20.4683   -4.3935    0.0000 C   0  0
   14.1614  -16.9537    0.0000 C   0  0
   11.8420  -18.3358    0.0000 O   0  0
    9.2253  -17.1696    0.0000 N   0  0
    7.9163  -16.4354    0.0000 C   0  0
    6.6251  -17.1988    0.0000 C   0  0
    5.3184  -16.4622    0.0000 C   0  0
    5.3028  -14.9623    0.0000 C   0  0
    6.5941  -14.1989    0.0000 C   0  0
    7.9008  -14.9355    0.0000 C   0  0
    3.9968  -14.2227    0.0000 C   0  0
    2.9628  -14.8316    0.0000 O   0  0
    3.9834  -12.7219    0.0000 N   0  0
    2.6775  -11.9823    0.0000 C   0  0
    2.6641  -10.4816    0.0000 C   0  0
    1.3581   -9.7420    0.0000 N   0  0
    1.3447   -8.2412    0.0000 C   0  0
    0.0388   -7.5016    0.0000 N   0  0
    2.3787   -7.6323    0.0000 S   0  0
    0.0254   -6.0008    0.0000 C   0  0
   -1.2788   -5.2598    0.0000 C   0  0
   -1.2891   -3.7598    0.0000 C   0  0
    0.0046   -3.0009    0.0000 C   0  0
    1.3089   -3.7420    0.0000 C   0  0
    1.3192   -5.2419    0.0000 C   0  0
    0.0000   -1.5002    0.0000 C   0  0
    0.0000    1.5002    0.0000 O   0  0
   -1.2989   -0.7501    0.0000 C   0  0
   -1.2989    0.7501    0.0000 C   0  0
   -2.5978    1.5002    0.0000 C   0  0
   -3.8968    0.7501    0.0000 C   0  0
   -3.8968   -0.7501    0.0000 C   0  0
   -2.5978   -1.5002    0.0000 C   0  0
    1.2806    0.7501    0.0000 C   0  0
    1.2806   -0.7501    0.0000 C   0  0
    2.5978   -1.5002    0.0000 C   0  0
    3.8968   -0.7501    0.0000 C   0  0
    3.8968    0.7501    0.0000 C   0  0
    2.5978    1.5002    0.0000 C   0  0
   -4.9360    1.3500    0.0000 O   0  0
   -2.5955   -3.0210    0.0000 C   0  0
   -3.6297   -3.6296    0.0000 O   0  0
   -2.6041   -2.0211    0.0000 O   0  0
    4.9360    1.3500    0.0000 O   0  0
  1  2  2  0
  2  3  1  0
  3  4  2  0
  4  5  1  0
  5  6  2  0
  6  1  1  0
  6  7  1  0
  7  8  1  0
  1  9  1  0
  8 10  1  0
  8 11  2  0
 10 12  2  0
 12 13  1  0
 13 14  2  0
 14 15  1  0
 15 16  2  0
 16 10  1  0
 17 18  2  0
 18 19  1  0
 19 20  1  0
 20 21  1  0
 21 22  2  0
 22 17  1  0
  2 17  1  0
 14 23  1  0
 23 24  1  0
 23 25  1  0
 23 26  1  0
 19 27  1  0
 20 28  2  0
 21 29  1  0
 29 30  1  0
 30 31  2  0
 31 32  1  0
 32 33  2  0
 33 34  1  0
 34 35  2  0
 35 30  1  0
 33 36  1  0
 36 37  2  0
 36 38  1  0
 38 39  1  0
 39 40  1  0
 40 41  1  0
 41 42  1  0
 42 43  1  0
 42 44  2  0
 43 45  1  0
 45 46  2  0
 46 47  1  0
 47 48  2  0
 48 49  1  0
 49 50  2  0
 50 45  1  0
 51 60  1  0
 51 53  2  0
 59 52  1  0
 52 54  1  0
 48 51  1  0
 53 54  1  0
 53 58  1  0
 54 55  2  0
 55 56  1  0
 56 57  1  0
 57 58  2  0
 59 60  2  0
 60 61  1  0
 61 62  2  0
 62 63  1  0
 63 64  2  0
 64 59  1  0
 56 65  2  0
 47 66  1  0
 66 67  2  0
 66 68  1  0
 63 69  1  0
M  END