
          11280715232D 1   1.00000     0.00000     0

 54 57  0     1  0            999 V2000
    2.6250   -7.8750    0.0000 N   0  0  0  0  0  0           0  0  0
    4.3375   -6.2042    0.0000 N   0  0  0  0  0  0           0  0  0
    0.2875   -7.3500    0.0000 N   0  0  0  0  0  0           0  0  0
    3.9625   -6.9417    0.0000 C   0  0  0  0  0  0           0  0  0
    4.6667   -8.1292    0.0000 C   0  0  0  0  0  0           0  0  0
    1.8042   -7.9625    0.0000 C   0  0  0  0  0  0           0  0  0
   -0.2333   -6.7125    0.0000 C   0  0  0  0  0  0           0  0  0
    3.3667   -7.5167    0.0000 C   0  0  2  0  0  0           0  0  0
    4.4500   -5.3875    0.0000 C   0  0  1  0  0  0           0  0  0
    5.9667   -8.4375    0.0000 N   0  0  0  0  0  0           0  0  0
    4.2917   -4.5750    0.0000 C   0  0  0  0  0  0           0  0  0
    5.2042   -8.7542    0.0000 C   0  0  0  0  0  0           0  0  0
    0.9917   -7.7792    0.0000 C   0  0  1  0  0  0           0  0  0
   -0.5500   -5.1125    0.0000 N   0  0  0  0  0  0           0  0  0
    0.8667   -3.1792    0.0000 N   0  0  0  0  0  0           0  0  0
   -0.5250   -5.9375    0.0000 C   0  0  1  0  0  0           0  0  0
    1.6625   -2.9542    0.0000 C   0  0  0  0  0  0           0  0  0
    3.8417   -8.2000    0.0000 C   0  0  0  0  0  0           0  0  0
    5.0917   -7.4250    0.0000 C   0  0  0  0  0  0           0  0  0
    3.8792   -3.8542    0.0000 N   0  0  0  0  0  0           0  0  0
    5.9000   -7.6125    0.0000 C   0  0  0  0  0  0           0  0  0
    0.8792   -9.9667    0.0000 C   0  0  0  0  0  0           0  0  0
    4.6292   -7.4292    0.0000 O   0  0  0  0  0  0           0  0  0
   -0.9500   -7.1250    0.0000 O   0  0  0  0  0  0           0  0  0
    1.7542   -8.7875    0.0000 O   0  0  0  0  0  0           0  0  0
    5.2792   -5.3625    0.0000 C   0  0  0  0  0  0           0  0  0
    2.4875   -3.0042    0.0000 C   0  0  0  0  0  0           0  0  0
    0.1917   -3.6542    0.0000 C   0  0  1  0  0  0           0  0  0
    4.8875   -4.3417    0.0000 O   0  0  0  0  0  0           0  0  0
    1.5667   -2.1292    0.0000 O   0  0  0  0  0  0           0  0  0
   -1.3375   -6.0917    0.0000 C   0  0  0  0  0  0           0  0  0
    0.0625  -10.0792    0.0000 O   0  0  0  0  0  0           0  0  0
    0.6792   -8.5500    0.0000 C   0  0  0  0  0  0           0  0  0
   -0.3000   -4.3167    0.0000 C   0  0  0  0  0  0           0  0  0
    3.2542   -3.3167    0.0000 C   0  0  0  0  0  0           0  0  0
    1.1917   -9.2042    0.0000 C   0  0  0  0  0  0           0  0  0
    1.3875  -10.6167    0.0000 N   0  0  0  0  0  0           0  0  0
   -0.3875   -3.0625    0.0000 C   0  0  0  0  0  0           0  0  0
    5.6750   -4.6375    0.0000 C   0  0  0  0  0  0           0  0  0
    4.8542   -6.6292    0.0000 C   0  0  0  0  0  0           0  0  0
   -1.9250   -6.6792    0.0000 C   0  0  3  0  0  0           0  0  0
    6.4667   -7.0125    0.0000 C   0  0  0  0  0  0           0  0  0
   -1.1875   -3.2667    0.0000 C   0  0  3  0  0  0           0  0  0
    5.2375   -3.9292    0.0000 C   0  0  0  0  0  0           0  0  0
    6.5000   -4.6125    0.0000 C   0  0  0  0  0  0           0  0  0
   -1.7208   -7.4750    0.0000 C   0  0  0  0  0  0           0  0  0
   -2.7208   -6.4542    0.0000 C   0  0  0  0  0  0           0  0  0
   -1.7708   -2.6667    0.0000 C   0  0  0  0  0  0           0  0  0
   -1.4125   -4.0542    0.0000 C   0  0  0  0  0  0           0  0  0
    5.4250   -6.0292    0.0000 C   0  0  0  0  0  0           0  0  0
    6.2292   -6.2167    0.0000 C   0  0  0  0  0  0           0  0  0
    5.6292   -3.2000    0.0000 C   0  0  0  0  0  0           0  0  0
    6.8917   -3.8792    0.0000 C   0  0  0  0  0  0           0  0  0
    6.4542   -3.1792    0.0000 C   0  0  0  0  0  0           0  0  0
  2  4  1  0     0  0
  3 13  1  0     0  0
  4  8  1  0     0  0
  5 18  1  0     0  0
  6  1  1  0     0  0
  7  3  1  0     0  0
  8  1  1  0     0  0
  9  2  1  0     0  0
 10 12  1  0     0  0
 11  9  1  0     0  0
 12  5  2  0     0  0
 13  6  1  0     0  0
 14 16  1  0     0  0
 15 28  1  0     0  0
 16  7  1  0     0  0
 17 27  1  0     0  0
  8 18  1  6     0  0
 19  5  1  0     0  0
 20 11  1  0     0  0
 21 19  2  0     0  0
 22 36  1  0     0  0
 23  4  2  0     0  0
 24  7  2  0     0  0
 25  6  2  0     0  0
  9 26  1  1     0  0
 27 35  1  0     0  0
 28 34  1  0     0  0
 29 11  2  0     0  0
 30 17  2  0     0  0
 16 31  1  6     0  0
 32 22  2  0     0  0
 13 33  1  1     0  0
 34 14  1  0     0  0
 35 20  1  0     0  0
 36 33  1  0     0  0
 37 22  1  0     0  0
 28 38  1  1     0  0
 39 26  1  0     0  0
 40 19  1  0     0  0
 41 31  1  0     0  0
 42 21  1  0     0  0
 43 38  1  0     0  0
 44 39  2  0     0  0
 45 39  1  0     0  0
 46 41  1  0     0  0
 47 41  1  0     0  0
 48 43  1  0     0  0
 49 43  1  0     0  0
 50 40  2  0     0  0
 51 50  1  0     0  0
 52 44  1  0     0  0
 53 45  2  0     0  0
 54 53  1  0     0  0
 10 21  1  0     0  0
 51 42  2  0     0  0
 54 52  2  0     0  0
 17 15  1  0     0  0
M  END