
  SciTegic09261415472D

  7  7  0  0  0  0            999 V2000
    6.0006   -9.9587    0.0000 N   0  0
    6.4998  -10.6179    0.0000 N   0  0
    6.0296  -11.2959    0.0000 C   0  0
    5.2387  -11.0611    0.0000 C   0  0
    5.2197  -10.2331    0.0000 C   0  0
    4.5842  -11.5609    0.0000 C   0  0
    3.8242  -11.2442    0.0000 Cl  0  0
  1  2  1  0
  2  3  2  0
  3  4  1  0
  4  5  2  0
  1  5  1  0
  4  6  1  0
  6  7  1  0
M  END