
          11280715352D 1   1.00000     0.00000     0

 41 45  0     0  0            999 V2000
    5.8125    0.9333    0.0000 C   0  0  0  0  0  0           0  0  0
    5.0917   -0.3042    0.0000 N   0  0  3  0  0  0           0  0  0
    5.8125    0.1083    0.0000 C   0  0  0  0  0  0           0  0  0
    4.3792    0.1083    0.0000 C   0  0  0  0  0  0           0  0  0
    4.3792    0.9333    0.0000 C   0  0  0  0  0  0           0  0  0
    5.0917    1.3458    0.0000 C   0  0  0  0  0  0           0  0  0
    0.8042   -1.1542    0.0000 S   0  0  3  0  0  0           0  0  0
    3.6000    1.1833    0.0000 O   0  0  0  0  0  0           0  0  0
    3.6000   -0.1500    0.0000 C   0  0  0  0  0  0           0  0  0
    3.1167    0.5208    0.0000 C   0  0  0  0  0  0           0  0  0
    5.0917   -1.1292    0.0000 C   0  0  0  0  0  0           0  0  0
    6.5250    1.3500    0.0000 C   0  0  0  0  0  0           0  0  0
    1.1417   -0.4000    0.0000 N   0  0  3  0  0  0           0  0  0
    2.3042    0.4333    0.0000 C   0  0  0  0  0  0           0  0  0
    1.9667   -0.3125    0.0000 C   0  0  0  0  0  0           0  0  0
    5.8125   -1.5417    0.0000 C   0  0  0  0  0  0           0  0  0
    5.0917    2.1625    0.0000 C   0  0  0  0  0  0           0  0  0
    3.2667   -0.8917    0.0000 C   0  0  0  0  0  0           0  0  0
    6.5292   -0.3042    0.0000 O   0  0  0  0  0  0           0  0  0
    1.5167   -1.5667    0.0000 O   0  0  0  0  0  0           0  0  0
    0.0917   -0.7417    0.0000 O   0  0  0  0  0  0           0  0  0
    2.4417   -0.9792    0.0000 C   0  0  0  0  0  0           0  0  0
    6.5167    2.1750    0.0000 O   0  0  0  0  0  0           0  0  0
    5.8042   -2.3667    0.0000 C   0  0  0  0  0  0           0  0  0
    5.8042    2.5833    0.0000 C   0  0  0  0  0  0           0  0  0
    4.3750    2.5708    0.0000 C   0  0  0  0  0  0           0  0  0
    0.4792   -1.9125    0.0000 C   0  0  0  0  0  0           0  0  0
    7.2417    0.9458    0.0000 O   0  0  0  0  0  0           0  0  0
    5.0875    3.8125    0.0000 C   0  0  0  0  0  0           0  0  0
    5.8000    3.4083    0.0000 C   0  0  0  0  0  0           0  0  0
    4.3667    3.3958    0.0000 C   0  0  0  0  0  0           0  0  0
    5.0917   -2.7792    0.0000 O   0  0  0  0  0  0           0  0  0
    0.6625    0.2708    0.0000 C   0  0  0  0  0  0           0  0  0
    5.0875    4.6375    0.0000 O   0  0  0  0  0  0           0  0  0
    6.5167   -1.1292    0.0000 C   0  0  0  0  0  0           0  0  0
    6.5167   -2.7792    0.0000 C   0  0  0  0  0  0           0  0  0
    5.0917   -3.6042    0.0000 C   0  0  0  0  0  0           0  0  0
    4.3667    5.0417    0.0000 C   0  0  0  0  0  0           0  0  0
    1.0000    1.0208    0.0000 C   0  0  0  0  0  0           0  0  0
    7.2292   -1.5417    0.0000 C   0  0  0  0  0  0           0  0  0
    7.2375   -2.3667    0.0000 C   0  0  0  0  0  0           0  0  0
  2  3  1  0     0  0
  3  1  1  0     0  0
  4  5  2  0     0  0
  5  6  1  0     0  0
  6  1  2  0     0  0
  7 13  1  0     0  0
  8  5  1  0     0  0
  9  4  1  0     0  0
 10  8  1  0     0  0
 11  2  1  0     0  0
 12  1  1  0     0  0
 13 15  1  0     0  0
 14 10  1  0     0  0
 15 14  2  0     0  0
 16 11  1  0     0  0
 17  6  1  0     0  0
 18  9  1  0     0  0
 19  3  2  0     0  0
 20  7  2  0     0  0
 21  7  2  0     0  0
 22 18  2  0     0  0
 23 12  2  0     0  0
 24 16  2  0     0  0
 25 17  2  0     0  0
 26 17  1  0     0  0
 27  7  1  0     0  0
 28 12  1  0     0  0
 29 31  1  0     0  0
 30 25  1  0     0  0
 31 26  2  0     0  0
 32 24  1  0     0  0
 33 13  1  0     0  0
 34 29  1  0     0  0
 35 16  1  0     0  0
 36 24  1  0     0  0
 37 32  1  0     0  0
 38 34  1  0     0  0
 39 33  1  0     0  0
 40 35  2  0     0  0
 41 40  1  0     0  0
  4  2  1  0     0  0
 30 29  2  0     0  0
  9 10  2  0     0  0
 15 22  1  0     0  0
 36 41  2  0     0  0
M  END