
          11280715462D 1   1.00000     0.00000     0

 28 31  0     0  0            999 V2000
   -0.8458    0.4208    0.0000 C   0  0  0  0  0  0           0  0  0
   -0.1833    0.9125    0.0000 N   0  0  3  0  0  0           0  0  0
   -0.5958   -0.3542    0.0000 N   0  0  3  0  0  0           0  0  0
    0.4917    0.4333    0.0000 C   0  0  0  0  0  0           0  0  0
    0.2292   -0.3542    0.0000 C   0  0  3  0  0  0           0  0  0
   -1.6708    0.4375    0.0000 N   0  0  0  0  0  0           0  0  0
   -0.1833    1.7458    0.0000 C   0  0  0  0  0  0           0  0  0
   -1.2583   -0.8375    0.0000 C   0  0  0  0  0  0           0  0  0
   -1.9333   -0.3500    0.0000 C   0  0  0  0  0  0           0  0  0
   -1.2708   -1.6625    0.0000 C   0  0  0  0  0  0           0  0  0
   -1.2708   -2.4875    0.0000 N   0  0  0  0  0  0           0  0  0
   -0.8958    2.1500    0.0000 C   0  0  0  0  0  0           0  0  0
    0.5417    2.1583    0.0000 C   0  0  0  0  0  0           0  0  0
    1.0292   -0.5667    0.0000 C   0  0  0  0  0  0           0  0  0
    1.2792    0.6875    0.0000 O   0  0  0  0  0  0           0  0  0
   -0.8958    2.9833    0.0000 C   0  0  0  0  0  0           0  0  0
    0.5417    2.9833    0.0000 C   0  0  0  0  0  0           0  0  0
   -0.1833    3.3833    0.0000 C   0  0  0  0  0  0           0  0  0
    0.2292   -1.1792    0.0000 C   0  0  0  0  0  0           0  0  0
    1.0167   -1.4000    0.0000 C   0  0  0  0  0  0           0  0  0
    1.0042   -3.0375    0.0000 C   0  0  0  0  0  0           0  0  0
    1.2542    3.3833    0.0000 Cl  0  0  0  0  0  0           0  0  0
   -1.6083    3.3833    0.0000 Cl  0  0  0  0  0  0           0  0  0
    1.0042   -3.8625    0.0000 Br  0  0  0  0  0  0           0  0  0
    1.7292   -1.8000    0.0000 C   0  0  0  0  0  0           0  0  0
    0.3042   -1.8000    0.0000 C   0  0  0  0  0  0           0  0  0
    1.7292   -2.6250    0.0000 C   0  0  0  0  0  0           0  0  0
    0.2917   -2.6250    0.0000 C   0  0  0  0  0  0           0  0  0
  2  1  1  0     0  0
  3  1  1  0     0  0
  4  2  1  0     0  0
  5  3  1  0     0  0
  6  1  2  0     0  0
  7  2  1  0     0  0
  8  3  1  0     0  0
  9  6  1  0     0  0
 10  8  1  0     0  0
 11 10  3  0     0  0
 12  7  1  0     0  0
 13  7  2  0     0  0
 14  5  1  0     0  0
 15  4  2  0     0  0
 16 12  2  0     0  0
 17 13  1  0     0  0
 18 17  2  0     0  0
 19  5  1  0     0  0
 20 14  1  0     0  0
 21 28  2  0     0  0
 22 17  1  0     0  0
 23 16  1  0     0  0
 24 21  1  0     0  0
 25 20  1  0     0  0
 26 20  2  0     0  0
 27 25  2  0     0  0
 28 26  1  0     0  0
  8  9  2  0     0  0
  5  4  1  0     0  0
 16 18  1  0     0  0
 27 21  1  0     0  0
M  END