
          11280715482D 1   1.00000     0.00000     0

 34 33  0     1  0            999 V2000
   -0.6500    1.0833    0.0000 C   0  0  0  0  0  0           0  0  0
   -1.3708   -2.6417    0.0000 C   0  0  0  0  0  0           0  0  0
    0.0667    0.6708    0.0000 N   0  0  3  0  0  0           0  0  0
    5.0792    1.0833    0.0000 C   0  0  0  0  0  0           0  0  0
    1.5000    0.6708    0.0000 C   0  0  0  0  0  0           0  0  0
   -1.3625    0.6708    0.0000 O   0  0  0  0  0  0           0  0  0
    0.7792    1.0833    0.0000 C   0  0  0  0  0  0           0  0  0
   -2.0833   -3.0542    0.0000 N   0  0  0  0  0  0           0  0  0
    2.2167    1.0833    0.0000 N   0  0  0  0  0  0           0  0  0
   -0.6500    1.9125    0.0000 O   0  0  0  0  0  0           0  0  0
    5.0792    1.9125    0.0000 O   0  0  0  0  0  0           0  0  0
    1.5000   -0.1542    0.0000 O   0  0  0  0  0  0           0  0  0
    4.3667    0.6708    0.0000 O   0  0  0  0  0  0           0  0  0
   -1.3708   -1.8125    0.0000 N   0  0  0  0  0  0           0  0  0
   -0.6583   -3.0542    0.0000 N   0  0  0  0  0  0           0  0  0
    5.7917    0.6750    0.0000 N   0  0  0  0  0  0           0  0  0
   -2.0833    1.0833    0.0000 C   0  0  0  0  0  0           0  0  0
    3.6500    1.0833    0.0000 C   0  0  0  0  0  0           0  0  0
   -3.5125    1.0875    0.0000 N   0  0  0  0  0  0           0  0  0
    1.4917   -2.6417    0.0000 N   0  0  0  0  0  0           0  0  0
    4.3542   -2.6417    0.0000 N   0  0  0  0  0  0           0  0  0
    2.9292    0.6708    0.0000 C   0  0  1  0  0  0           0  0  0
    0.0667   -0.1542    0.0000 C   0  0  0  0  0  0           0  0  0
   -2.7958    0.6708    0.0000 C   0  0  1  0  0  0           0  0  0
   -2.0833   -1.4000    0.0000 C   0  0  0  0  0  0           0  0  0
    1.4917   -1.8125    0.0000 C   0  0  0  0  0  0           0  0  0
    4.3542   -1.8125    0.0000 C   0  0  0  0  0  0           0  0  0
    2.9292   -0.1542    0.0000 C   0  0  0  0  0  0           0  0  0
   -2.7958   -0.1542    0.0000 C   0  0  0  0  0  0           0  0  0
    0.7792   -0.5667    0.0000 C   0  0  0  0  0  0           0  0  0
   -2.0833   -0.5667    0.0000 C   0  0  0  0  0  0           0  0  0
    3.6417   -1.4000    0.0000 C   0  0  0  0  0  0           0  0  0
    0.7792   -1.4000    0.0000 C   0  0  0  0  0  0           0  0  0
    3.6417   -0.5667    0.0000 C   0  0  0  0  0  0           0  0  0
  2 14  2  0     0  0
  3  1  1  0     0  0
  4 13  1  0     0  0
  5  7  1  0     0  0
  6  1  1  0     0  0
  7  3  1  0     0  0
  8  2  1  0     0  0
  9  5  1  0     0  0
 10  1  2  0     0  0
 11  4  2  0     0  0
 12  5  2  0     0  0
 13 18  1  0     0  0
 14 25  1  0     0  0
 15  2  1  0     0  0
 16  4  1  0     0  0
 17  6  1  0     0  0
 18 22  1  0     0  0
 19 24  1  0     0  0
 20 26  1  0     0  0
 21 27  1  0     0  0
 22  9  1  0     0  0
 23  3  1  0     0  0
 24 17  1  0     0  0
 25 31  1  0     0  0
 26 33  1  0     0  0
 27 32  1  0     0  0
 22 28  1  1     0  0
 24 29  1  6     0  0
 30 23  1  0     0  0
 31 29  1  0     0  0
 32 34  1  0     0  0
 33 30  1  0     0  0
 34 28  1  0     0  0
M  END