
  SciTegic05221516342D

 19 21  0  0  0  0            999 V2000
   -2.5751    0.7911    0.0000 C   0  0
   -3.2895    0.3786    0.0000 C   0  0
   -3.2895   -0.4464    0.0000 C   0  0
   -2.5751   -0.8589    0.0000 C   0  0
   -1.0904    0.6743    0.0000 C   0  0
   -1.8606    0.3786    0.0000 C   0  0
   -1.8606   -0.4464    0.0000 C   0  0
   -1.0205   -0.6587    0.0000 O   0  0
   -0.5712    0.0331    0.0000 C   0  0
   -0.8769    1.4712    0.0000 O   0  0
    0.2526    0.0763    0.0000 C   0  0
    0.6272    0.8114    0.0000 C   0  0
    1.4522    2.2404    0.0000 C   0  0
    0.6272    2.2403    0.0000 C   0  0
    0.2147    1.5259    0.0000 C   0  0
    1.4522    0.8114    0.0000 C   0  0
    1.8647    1.5259    0.0000 C   0  0
    1.8647    2.9548    0.0000 O   0  0
    0.2147    2.9548    0.0000 O   0  0
  1  2  2  0
  2  3  1  0
  3  4  2  0
  4  7  1  0
  1  6  1  0
  5  6  1  0
  7  8  1  0
  8  9  1  0
  5  9  1  0
  6  7  2  0
  5 10  2  0
  9 11  2  0
 11 12  1  0
 15 12  2  0
 12 16  1  0
 13 14  2  0
 14 15  1  0
 16 17  2  0
 13 17  1  0
 13 18  1  0
 14 19  1  0
M  END