
  SciTegic12171313022D

 14 15  0  0  0  0            999 V2000
   22.9093   -7.3924    0.0000 C   0  0
   23.6213   -6.9841    0.0000 C   0  0
   23.6213   -6.1591    0.0000 C   0  0
   22.9093   -5.7424    0.0000 N   0  0
   22.1973   -6.9841    0.0000 N   0  0
   22.1927   -6.1592    0.0000 C   0  0
   21.4068   -5.9085    0.0000 C   0  0
   20.9255   -6.5786    0.0000 C   0  0
   21.4141   -7.2433    0.0000 N   0  0
   24.3370   -5.7487    0.0000 C   0  0
   22.9093   -8.2174    0.0000 O   0  0
   21.1475   -5.1253    0.0000 C   0  0
   20.1005   -6.5832    0.0000 C   0  0
   20.8845   -4.3436    0.0000 N   0  0
  6  4  1  0
  5  1  1  0
  1  2  1  0
  2  3  2  0
  3  4  1  0
  5  6  1  0
  6  7  2  0
  7  8  1  0
  8  9  2  0
  9  5  1  0
  3 10  1  0
  1 11  2  0
  7 12  1  0
  8 13  1  0
 12 14  3  0
M  END