
  Mrv0541 04051115152D          

 26 28  0  0  0  0            999 V2000
    2.5756   -0.0935    0.0000 C   0  0  0  0  0  0  0  0  0  0  0  0
    3.3961   -0.0073    0.0000 C   0  0  0  0  0  0  0  0  0  0  0  0
    3.8810   -0.6747    0.0000 C   0  0  0  0  0  0  0  0  0  0  0  0
    3.5454   -1.4284    0.0000 C   0  0  0  0  0  0  0  0  0  0  0  0
    2.7250   -1.5146    0.0000 C   0  0  0  0  0  0  0  0  0  0  0  0
    2.2400   -0.8472    0.0000 C   0  0  0  0  0  0  0  0  0  0  0  0
    1.4196   -0.9334    0.0000 N   0  0  0  0  0  0  0  0  0  0  0  0
    0.9346   -0.2660    0.0000 C   0  0  0  0  0  0  0  0  0  0  0  0
    1.2702    0.4877    0.0000 O   0  0  0  0  0  0  0  0  0  0  0  0
    0.1142   -0.3522    0.0000 N   0  0  0  0  0  0  0  0  0  0  0  0
   -0.3708    0.3152    0.0000 C   0  0  0  0  0  0  0  0  0  0  0  0
   -0.1158    1.0998    0.0000 C   0  0  0  0  0  0  0  0  0  0  0  0
   -0.7833    1.5847    0.0000 C   0  0  0  0  0  0  0  0  0  0  0  0
   -0.7833    2.4097    0.0000 C   0  0  0  0  0  0  0  0  0  0  0  0
   -0.7833    3.2347    0.0000 C   0  0  0  0  0  0  0  0  0  0  0  0
    0.0417    2.4097    0.0000 C   0  0  0  0  0  0  0  0  0  0  0  0
   -1.6083    2.4097    0.0000 C   0  0  0  0  0  0  0  0  0  0  0  0
   -1.4507    1.0998    0.0000 N   0  0  0  0  0  0  0  0  0  0  0  0
   -1.1958    0.3152    0.0000 N   0  0  0  0  0  0  0  0  0  0  0  0
   -1.6807   -0.3522    0.0000 C   0  0  0  0  0  0  0  0  0  0  0  0
   -1.3451   -1.1059    0.0000 C   0  0  0  0  0  0  0  0  0  0  0  0
   -2.5012   -0.2660    0.0000 C   0  0  0  0  0  0  0  0  0  0  0  0
   -2.9861   -0.9334    0.0000 C   0  0  0  0  0  0  0  0  0  0  0  0
   -2.6505   -1.6871    0.0000 C   0  0  0  0  0  0  0  0  0  0  0  0
   -1.8301   -1.7734    0.0000 C   0  0  0  0  0  0  0  0  0  0  0  0
   -1.4945   -2.5270    0.0000 N   0  0  0  0  0  0  0  0  0  0  0  0
  6  1  2  0  0  0  0
  2  1  1  0  0  0  0
  3  2  2  0  0  0  0
  4  3  1  0  0  0  0
  4  5  2  0  0  0  0
  5  6  1  0  0  0  0
  6  7  1  0  0  0  0
  8  7  1  0  0  0  0
  8  9  2  0  0  0  0
  8 10  1  0  0  0  0
 11 10  1  0  0  0  0
 12 11  2  0  0  0  0
 11 19  1  0  0  0  0
 12 13  1  0  0  0  0
 13 14  1  0  0  0  0
 13 18  2  0  0  0  0
 15 14  1  0  0  0  0
 17 14  1  0  0  0  0
 16 14  1  0  0  0  0
 18 19  1  0  0  0  0
 20 19  1  0  0  0  0
 22 20  2  0  0  0  0
 21 20  1  0  0  0  0
 21 25  2  0  0  0  0
 23 22  1  0  0  0  0
 23 24  2  0  0  0  0
 24 25  1  0  0  0  0
 25 26  1  0  0  0  0
M  END