
  CDK    9/16/09,9:50

 36 39  0  0  0  0  0  0  0  0999 V2000
   -2.4719   -9.7432    0.0000 C   0  0  0  0  0  0  0  0  0  0  0  0
   -2.4403   -7.2636    0.0000 C   0  0  0  0  0  0  0  0  0  0  0  0
   -3.1531   -6.8404    0.0000 C   0  0  0  0  0  0  0  0  0  0  0  0
   -3.8698   -7.2423    0.0000 C   0  0  0  0  0  0  0  0  0  0  0  0
   -3.8845   -8.0676    0.0000 C   0  0  0  0  0  0  0  0  0  0  0  0
   -3.1767   -8.4910    0.0000 C   0  0  0  0  0  0  0  0  0  0  0  0
   -2.4510   -8.0950    0.0000 O   0  0  0  0  0  0  0  0  0  0  0  0
   -3.1883   -9.3262    0.0000 O   0  0  0  0  0  0  0  0  0  0  0  0
   -4.5797   -6.8127    0.0000 O   0  0  0  0  0  0  0  0  0  0  0  0
   -3.1354   -6.0200    0.0000 O   0  0  0  0  0  0  0  0  0  0  0  0
   -1.7162   -6.8644    0.0000 C   0  0  0  0  0  0  0  0  0  0  0  0
   -4.6121   -8.4645    0.0000 O   0  0  0  0  0  0  0  0  0  0  0  0
   -2.4776  -10.5746    0.0000 C   0  0  0  0  0  0  0  0  0  0  0  0
   -1.7654  -10.9914    0.0000 O   0  0  0  0  0  0  0  0  0  0  0  0
   -1.0437  -10.5831    0.0000 C   0  0  0  0  0  0  0  0  0  0  0  0
   -1.0388   -9.7532    0.0000 C   0  0  0  0  0  0  0  0  0  0  0  0
   -1.7556   -9.3317    0.0000 C   0  0  0  0  0  0  0  0  0  0  0  0
   -1.7514   -8.5062    0.0000 O   0  0  0  0  0  0  0  0  0  0  0  0
   -0.3209   -9.3454    0.0000 O   0  0  0  0  0  0  0  0  0  0  0  0
   -0.3316  -11.0011    0.0000 S   0  0  0  0  0  0  0  0  0  0  0  0
   -3.1898  -10.1491    0.0000 H   0  0  0  0  0  0  0  0  0  0  0  0
   -3.1952  -10.9828    0.0000 C   0  0  0  0  0  0  0  0  0  0  0  0
   -3.2005  -11.8084    0.0000 O   0  0  0  0  0  0  0  0  0  0  0  0
   -1.0095   -7.2912    0.0000 O   0  0  0  0  0  0  0  0  0  0  0  0
    0.3795  -11.4125    0.0000 C   0  0  0  0  0  0  0  0  0  0  0  0
   -0.7473  -11.7143    0.0000 O   0  0  0  0  0  0  0  0  0  0  0  0
    0.0876  -10.2899    0.0000 O   0  0  0  0  0  0  0  0  0  0  0  0
    0.3760  -12.2351    0.0000 C   0  0  0  0  0  0  0  0  0  0  0  0
    1.7971  -11.4104    0.0000 C   0  0  0  0  0  0  0  0  0  0  0  0
    1.0863  -11.0028    0.0000 C   0  0  0  0  0  0  0  0  0  0  0  0
    1.7990  -12.2362    0.0000 C   0  0  0  0  0  0  0  0  0  0  0  0
    1.0873  -12.6452    0.0000 C   0  0  0  0  0  0  0  0  0  0  0  0
    1.0866  -13.4642    0.0000 C   0  0  0  0  0  0  0  0  0  0  0  0
    1.7969  -13.8752    0.0000 C   0  0  0  0  0  0  0  0  0  0  0  0
    2.5094  -13.4612    0.0000 C   0  0  0  0  0  0  0  0  0  0  0  0
    2.5066  -12.6436    0.0000 C   0  0  0  0  0  0  0  0  0  0  0  0
  5  6  1  0  0  0  0 
 17 18  1  6  0  0  0 
  6  7  1  0  0  0  0 
 16 19  1  1  0  0  0 
  6  8  1  1  0  0  0 
 15 20  1  6  0  0  0 
  4  9  1  1  0  0  0 
  1 21  1  6  0  0  0 
  3 10  1  1  0  0  0 
 13 22  1  6  0  0  0 
  2 11  1  1  0  0  0 
 22 23  1  0  0  0  0 
  8  1  1  0  0  0  0 
 11 24  1  0  0  0  0 
  5 12  1  6  0  0  0 
 20 25  1  0  0  0  0 
  1 13  1  0  0  0  0 
 20 26  2  0  0  0  0 
 20 27  2  0  0  0  0 
  2  3  1  0  0  0  0 
 25 28  2  0  0  0  0 
 28 32  1  0  0  0  0 
  2  7  1  0  0  0  0 
 31 29  1  0  0  0  0 
  3  4  1  0  0  0  0 
 29 30  2  0  0  0  0 
 30 25  1  0  0  0  0 
  4  5  1  0  0  0  0 
  1 17  1  0  0  0  0 
 31 32  1  0  0  0  0 
 13 14  1  0  0  0  0 
 32 33  2  0  0  0  0 
 14 15  1  0  0  0  0 
 33 34  1  0  0  0  0 
 15 16  1  0  0  0  0 
 34 35  2  0  0  0  0 
 16 17  1  0  0  0  0 
 35 36  1  0  0  0  0 
 36 31  2  0  0  0  0 
M  END