
  CDK    9/16/09,10:6

 46 48  0  0  0  0  0  0  0  0999 V2000
    7.3762  -25.4327    0.0000 C   0  0  0  0  0  0  0  0  0  0  0  0
    7.3762  -26.2611    0.0000 C   0  0  0  0  0  0  0  0  0  0  0  0
    8.0924  -26.6752    0.0000 C   0  0  0  0  0  0  0  0  0  0  0  0
    8.8084  -26.2611    0.0000 C   0  0  0  0  0  0  0  0  0  0  0  0
    8.8084  -25.4327    0.0000 C   0  0  0  0  0  0  0  0  0  0  0  0
    8.0924  -25.0186    0.0000 C   0  0  0  0  0  0  0  0  0  0  0  0
    8.0912  -24.1948    0.0000 O   0  0  0  0  0  0  0  0  0  0  0  0
    8.0912  -27.4990    0.0000 O   0  0  0  0  0  0  0  0  0  0  0  0
    6.6636  -25.0249    0.0000 C   0  0  0  0  0  0  0  0  0  0  0  0
    6.6617  -24.2012    0.0000 C   0  0  0  0  0  0  0  0  0  0  0  0
    5.9446  -23.7888    0.0000 C   0  0  0  0  0  0  0  0  0  0  0  0
    7.3722  -23.7853    0.0000 C   0  0  0  0  0  0  0  0  0  0  0  0
    7.3702  -22.9616    0.0000 C   0  0  0  0  0  0  0  0  0  0  0  0
    8.0853  -22.5503    0.0000 C   0  0  0  0  0  0  0  0  0  0  0  0
    6.6577  -22.5538    0.0000 O   0  0  0  0  0  0  0  0  0  0  0  0
    6.6557  -21.7301    0.0000 C   0  0  0  0  0  0  0  0  0  0  0  0
    8.0833  -21.7266    0.0000 C   0  0  0  0  0  0  0  0  0  0  0  0
    8.7978  -22.9581    0.0000 O   0  0  0  0  0  0  0  0  0  0  0  0
    8.7938  -21.3107    0.0000 C   0  0  0  0  0  0  0  0  0  0  0  0
    7.3662  -21.3141    0.0000 C   0  0  0  0  0  0  0  0  0  0  0  0
    9.5110  -21.7231    0.0000 C   0  0  0  0  0  0  0  0  0  0  0  0
   10.2214  -21.3072    0.0000 C   0  0  0  0  0  0  0  0  0  0  0  0
    9.5130  -22.5469    0.0000 C   0  0  0  0  0  0  0  0  0  0  0  0
   11.0433  -21.3049    0.0000 C   0  0  0  0  0  0  0  0  0  0  0  0
   11.7554  -21.7190    0.0000 C   0  0  0  0  0  0  0  0  0  0  0  0
   11.2553  -20.5096    0.0000 O   0  0  0  0  0  0  0  0  0  0  0  0
   10.0883  -20.4952    0.0000 O   0  0  0  0  0  0  0  0  0  0  0  0
    9.3180  -20.2057    0.0000 C   0  0  0  0  0  0  0  0  0  0  0  0
    9.1809  -19.3885    0.0000 O   0  0  0  0  0  0  0  0  0  0  0  0
    8.6803  -20.7285    0.0000 N   0  0  0  0  0  0  0  0  0  0  0  0
   12.0551  -20.2973    0.0000 C   0  0  0  0  0  0  0  0  0  0  0  0
   11.7532  -22.5427    0.0000 C   0  0  0  0  0  0  0  0  0  0  0  0
   11.0361  -22.9505    0.0000 C   0  0  0  0  0  0  0  0  0  0  0  0
   11.0341  -23.7742    0.0000 C   0  0  0  0  0  0  0  0  0  0  0  0
   11.7491  -24.1901    0.0000 C   0  0  0  0  0  0  0  0  0  0  0  0
    9.5250  -25.0239    0.0000 N   0  0  0  0  0  0  0  0  0  0  0  0
    9.5259  -24.2002    0.0000 C   0  0  0  0  0  0  0  0  0  0  0  0
    8.8102  -23.7853    0.0000 O   0  0  0  0  0  0  0  0  0  0  0  0
    6.6647  -26.6752    0.0000 N   0  0  0  0  0  0  0  0  0  0  0  0
    5.9378  -26.2591    0.0000 C   0  0  0  0  0  0  0  0  0  0  0  0
    5.2138  -26.6805    0.0000 C   0  0  0  0  0  0  0  0  0  0  0  0
    4.4869  -26.2642    0.0000 N   0  0  0  0  0  0  0  0  0  0  0  0
    4.3933  -25.4326    0.0000 C   0  0  0  0  0  0  0  0  0  0  0  0
    3.5733  -25.2613    0.0000 C   0  0  0  0  0  0  0  0  0  0  0  0
    3.1570  -25.9884    0.0000 C   0  0  0  0  0  0  0  0  0  0  0  0
    3.7198  -26.6087    0.0000 C   0  0  0  0  0  0  0  0  0  0  0  0
 21 23  1  0  0  0  0 
  4  5  2  0  0  0  0 
 22 24  1  0  0  0  0 
 10 12  1  0  0  0  0 
 24 25  1  0  0  0  0 
  5  6  1  0  0  0  0 
 24 26  1  1  0  0  0 
 12 13  1  0  0  0  0 
 22 27  1  6  0  0  0 
 27 28  1  0  0  0  0 
 13 14  1  0  0  0  0 
 28 29  2  0  0  0  0 
  6  7  2  0  0  0  0 
 28 30  1  0  0  0  0 
 13 15  1  6  0  0  0 
 26 31  1  0  0  0  0 
  1  2  2  0  0  0  0 
 25 32  2  0  0  0  0 
 15 16  1  0  0  0  0 
 32 33  1  0  0  0  0 
  3  8  2  0  0  0  0 
 33 34  2  0  0  0  0 
 14 17  1  0  0  0  0 
 34 35  1  0  0  0  0 
  1  6  1  0  0  0  0 
  5 36  1  0  0  0  0 
 14 18  1  1  0  0  0 
 36 37  1  0  0  0  0 
  1  9  1  0  0  0  0 
 37 38  2  0  0  0  0 
 37 34  1  0  0  0  0 
 17 19  1  0  0  0  0 
  2 39  1  0  0  0  0 
  2  3  1  0  0  0  0 
 39 40  1  0  0  0  0 
 17 20  1  1  0  0  0 
 40 41  1  0  0  0  0 
  9 10  1  0  0  0  0 
 41 42  1  0  0  0  0 
 42 43  1  0  0  0  0 
 19 21  2  0  0  0  0 
  3  4  1  0  0  0  0 
 21 22  1  0  0  0  0 
 10 11  1  1  0  0  0 
 43 44  1  0  0  0  0 
 44 45  1  0  0  0  0 
 45 46  1  0  0  0  0 
 46 42  1  0  0  0  0 
M  END