
  SciTegic09261414482D

 28 32  0  0  0  0            999 V2000
   10.0353  -19.3131    0.0000 N   0  0
   10.0353  -20.1381    0.0000 C   0  0
    9.3209  -20.5485    0.0000 C   0  0
    8.6087  -20.1381    0.0000 N   0  0
    8.6087  -19.3131    0.0000 C   0  0
    9.3209  -18.8985    0.0000 C   0  0
    7.8943  -20.5485    0.0000 C   0  0
    6.4677  -20.5485    0.0000 O   0  0
    7.1800  -20.1381    0.0000 C   0  0  1  0  0  0
    7.1800  -19.3131    0.0000 C   0  0
    6.4677  -18.8985    0.0000 O   0  0
    5.7534  -19.3131    0.0000 C   0  0
    5.7534  -20.1381    0.0000 C   0  0
    5.0389  -18.8985    0.0000 C   0  0
    4.3245  -19.3131    0.0000 C   0  0
    4.3245  -20.1381    0.0000 C   0  0
    5.0389  -20.5485    0.0000 C   0  0
   10.7497  -18.8985    0.0000 C   0  0
   12.1763  -18.8985    0.0000 O   0  0
   11.4619  -19.3131    0.0000 C   0  0  1  0  0  0
   11.4619  -20.1381    0.0000 C   0  0
   12.1763  -20.5485    0.0000 O   0  0
   12.8949  -20.1381    0.0000 C   0  0
   12.8949  -19.3131    0.0000 C   0  0
   13.6029  -20.5485    0.0000 C   0  0
   14.3215  -20.1381    0.0000 C   0  0
   14.3215  -19.3131    0.0000 C   0  0
   13.6029  -18.8985    0.0000 C   0  0
 21 22  1  0
 22 23  1  0
 23 24  1  0
 19 24  1  0
 25 26  1  0
 26 27  2  0
 27 28  1  0
 24 28  2  0
 23 25  2  0
 20 18  1  1
  1 18  1  0
  1  2  1  0
  2  3  1  0
  3  4  1  0
  4  5  1  0
  5  6  1  0
  1  6  1  0
  8  9  1  0
  9 10  1  0
 10 11  1  0
 11 12  1  0
 12 13  1  0
  8 13  1  0
 14 15  1  0
 15 16  2  0
 16 17  1  0
 13 17  2  0
 12 14  2  0
  9  7  1  1
  4  7  1  0
 19 20  1  0
 20 21  1  0
M  END