
          11280714452D 1   1.00000     0.00000     0

 33 36  0     0  0            999 V2000
    7.4292   -2.9167    0.0000 C   0  0  0  0  0  0           0  0  0
    7.4292   -2.0917    0.0000 C   0  0  0  0  0  0           0  0  0
    0.3042   -2.1042    0.0000 N   0  0  0  0  0  0           0  0  0
    8.1417   -1.6792    0.0000 C   0  0  0  0  0  0           0  0  0
    8.1417   -0.8542    0.0000 C   0  0  0  0  0  0           0  0  0
    6.7167   -3.3292    0.0000 C   0  0  0  0  0  0           0  0  0
    6.0042   -2.9167    0.0000 C   0  0  0  0  0  0           0  0  0
   -0.4125   -1.6917    0.0000 C   0  0  0  0  0  0           0  0  0
    5.2875   -3.3292    0.0000 C   0  0  0  0  0  0           0  0  0
    8.1417   -3.3292    0.0000 C   0  0  0  0  0  0           0  0  0
    7.4250   -0.4417    0.0000 O   0  0  0  0  0  0           0  0  0
    8.8625   -2.0917    0.0000 C   0  0  0  0  0  0           0  0  0
    1.0042   -1.6875    0.0000 C   0  0  0  0  0  0           0  0  0
    6.7167   -4.1542    0.0000 O   0  0  0  0  0  0           0  0  0
    8.8625   -2.9167    0.0000 C   0  0  0  0  0  0           0  0  0
   -0.4208   -0.8667    0.0000 C   0  0  0  0  0  0           0  0  0
    0.3000   -0.4542    0.0000 C   0  0  0  0  0  0           0  0  0
    4.5750   -2.9167    0.0000 C   0  0  0  0  0  0           0  0  0
    2.4375   -1.6792    0.0000 O   0  0  0  0  0  0           0  0  0
    8.8542   -0.4375    0.0000 O   0  0  0  0  0  0           0  0  0
    3.1542   -2.0917    0.0000 C   0  0  0  0  0  0           0  0  0
    1.7250   -2.1000    0.0000 C   0  0  0  0  0  0           0  0  0
    1.0125   -0.8625    0.0000 C   0  0  0  0  0  0           0  0  0
    8.1417   -4.1542    0.0000 O   0  0  0  0  0  0           0  0  0
    4.5792   -2.0917    0.0000 C   0  0  0  0  0  0           0  0  0
    3.8667   -3.3292    0.0000 C   0  0  0  0  0  0           0  0  0
    3.1542   -2.9167    0.0000 C   0  0  0  0  0  0           0  0  0
    3.8667   -1.6792    0.0000 C   0  0  0  0  0  0           0  0  0
   -1.1208   -2.1125    0.0000 C   0  0  0  0  0  0           0  0  0
   -1.1333   -0.4542    0.0000 C   0  0  0  0  0  0           0  0  0
    8.8625   -4.5667    0.0000 C   0  0  0  0  0  0           0  0  0
   -1.8458   -1.7042    0.0000 C   0  0  0  0  0  0           0  0  0
   -1.8500   -0.8750    0.0000 C   0  0  0  0  0  0           0  0  0
  2  1  2  0     0  0
  3 13  1  0     0  0
  4  2  1  0     0  0
  5  4  1  0     0  0
  6  1  1  0     0  0
  7  6  1  0     0  0
  8  3  2  0     0  0
  9  7  2  0     0  0
 10  1  1  0     0  0
 11  5  2  0     0  0
 12 15  1  0     0  0
 13 22  1  0     0  0
 14  6  2  0     0  0
 15 10  2  0     0  0
 16 17  2  0     0  0
 17 23  1  0     0  0
 18  9  1  0     0  0
 19 21  1  0     0  0
 20  5  1  0     0  0
 21 27  1  0     0  0
 22 19  1  0     0  0
 23 13  2  0     0  0
 24 10  1  0     0  0
 25 18  2  0     0  0
 26 18  1  0     0  0
 27 26  2  0     0  0
 28 25  1  0     0  0
 29  8  1  0     0  0
 30 16  1  0     0  0
 31 24  1  0     0  0
 32 29  2  0     0  0
 33 30  2  0     0  0
 12  4  2  0     0  0
 21 28  2  0     0  0
 16  8  1  0     0  0
 33 32  1  0     0  0
M  END