
  SciTegic06051313552D

 59 65  0  0  0  0            999 V2000
   24.6602  -11.3994    0.0000 O   0  0
   24.2557  -10.6936    0.0000 S   0  0
   23.8468  -11.3968    0.0000 O   0  0
   24.1278   -7.5033    0.0000 O   0  0
   24.5405   -8.2132    0.0000 S   0  0
   24.9489   -7.5008    0.0000 O   0  0
   23.8346   -8.6232    0.0000 N   0  0
   25.2500   -8.6224    0.0000 C   0  0
   25.2481   -9.4400    0.0000 C   0  0
   25.9552   -9.8482    0.0000 C   0  0
   26.6636   -9.4392    0.0000 C   0  0
   26.6606   -8.6177    0.0000 C   0  0
   25.9529   -8.2133    0.0000 C   0  0
   25.9579  -10.6677    0.0000 N   0  3
   26.6656  -11.0763    0.0000 O   0  0
   25.2502  -11.0763    0.0000 O   0  5
   27.3721   -9.8464    0.0000 N   0  0
   28.0790   -9.4365    0.0000 C   0  0  2  0  0  0
   28.7875   -9.8438    0.0000 C   0  0
   29.4945   -9.4339    0.0000 C   0  0
   30.2029   -9.8412    0.0000 N   0  0
   28.0775   -8.6193    0.0000 C   0  0
   28.7845   -8.2094    0.0000 S   0  0
   30.1981  -10.6618    0.0000 C   0  0
   30.9034   -9.4327    0.0000 C   0  0
   28.7829   -7.3922    0.0000 C   0  0
   29.4917   -6.9840    0.0000 C   0  0
   29.4905   -6.1676    0.0000 C   0  0
   28.7815   -5.7595    0.0000 C   0  0
   28.0722   -6.1738    0.0000 C   0  0
   28.0769   -6.9889    0.0000 C   0  0
   23.8438   -9.4405    0.0000 C   0  0
   24.5078   -9.9185    0.0000 N   0  0
   23.4417  -10.7006    0.0000 C   0  0
   23.1885   -9.9271    0.0000 C   0  0
   22.3936   -9.7610    0.0000 C   0  0
   21.8512  -10.3675    0.0000 C   0  0
   22.1091  -11.1427    0.0000 C   0  0
   22.9034  -11.3052    0.0000 C   0  0
   21.5668  -11.7540    0.0000 N   0  0
   20.7663  -11.5875    0.0000 C   0  0
   20.2249  -12.1949    0.0000 C   0  0
   20.4792  -12.9718    0.0000 N   0  0
   21.2803  -13.1379    0.0000 C   0  0
   21.8271  -12.5271    0.0000 C   0  0
   19.9346  -13.5811    0.0000 C   0  0
   20.1899  -14.3574    0.0000 C   0  0
   19.6429  -14.9652    0.0000 C   0  0
   19.8976  -15.7409    0.0000 C   0  0
   20.6983  -15.9085    0.0000 C   0  0
   21.2438  -15.2944    0.0000 C   0  0
   20.9861  -14.5211    0.0000 C   0  0
   18.8455  -14.7969    0.0000 C   0  0
   18.5926  -14.0187    0.0000 C   0  0
   17.7938  -13.8500    0.0000 C   0  0
   17.2471  -14.4585    0.0000 C   0  0
   17.5047  -15.2385    0.0000 C   0  0
   18.3029  -15.4035    0.0000 C   0  0
   16.4472  -14.2910    0.0000 Cl  0  0
  2  1  2  0
  3  2  2  0
  5  4  2  0
  6  5  2  0
  7  5  1  0
  5  8  1  0
  8  9  2  0
  9 10  1  0
 10 11  2  0
 11 12  1  0
 12 13  2  0
 13  8  1  0
 14 15  2  0
 14 16  1  0
 10 14  1  0
 11 17  1  0
 17 18  1  0
 18 19  1  0
 19 20  1  0
 20 21  1  0
 18 22  1  1
 22 23  1  0
 21 24  1  0
 21 25  1  0
 23 26  1  0
 26 27  2  0
 27 28  1  0
 28 29  2  0
 29 30  1  0
 30 31  2  0
 31 26  1  0
 32 35  1  0
 34  2  1  0
  2 33  1  0
 33 32  2  0
 34 35  2  0
 35 36  1  0
 36 37  2  0
 37 38  1  0
 38 39  2  0
 39 34  1  0
 38 40  1  0
 40 41  1  0
 40 45  1  0
 41 42  1  0
 42 43  1  0
 43 44  1  0
 44 45  1  0
 43 46  1  0
 46 47  1  0
 47 48  2  0
 48 49  1  0
 49 50  2  0
 50 51  1  0
 51 52  2  0
 52 47  1  0
 53 54  2  0
 54 55  1  0
 55 56  2  0
 56 57  1  0
 57 58  2  0
 58 53  1  0
 48 53  1  0
 56 59  1  0
 32  7  1  0
M  CHG  2  14   1  16  -1
M  END