
          11280715092D 1   1.00000     0.00000     0

 14 14  0     0  0            999 V2000
   -2.6375    1.3083    0.0000 C   0  0  0  0  0  0           0  0  0
   -2.6375    0.4833    0.0000 C   0  0  0  0  0  0           0  0  0
   -1.9250    1.7208    0.0000 C   0  0  0  0  0  0           0  0  0
    0.9375    0.0708    0.0000 C   0  0  0  0  0  0           0  0  0
   -1.9250    0.0708    0.0000 C   0  0  0  0  0  0           0  0  0
   -1.2083    1.3083    0.0000 C   0  0  0  0  0  0           0  0  0
   -1.2083    0.4833    0.0000 C   0  0  0  0  0  0           0  0  0
    0.9375   -0.7542    0.0000 O   0  0  0  0  0  0           0  0  0
   -3.3583    0.0583    0.0000 I   0  0  0  0  0  0           0  0  0
   -1.9250    2.5458    0.0000 I   0  0  0  0  0  0           0  0  0
   -3.3583    1.7333    0.0000 O   0  0  0  0  0  0           0  0  0
    0.2167    0.4833    0.0000 C   0  0  0  0  0  0           0  0  0
   -0.4958    0.0708    0.0000 C   0  0  0  0  0  0           0  0  0
    1.6500    0.4833    0.0000 O   0  0  0  0  0  0           0  0  0
  2  1  2  0     0  0
  3  1  1  0     0  0
  4 12  1  0     0  0
  5  2  1  0     0  0
  6  3  2  0     0  0
  7  6  1  0     0  0
  8  4  2  0     0  0
  9  2  1  0     0  0
 10  3  1  0     0  0
 11  1  1  0     0  0
 12 13  1  0     0  0
 13  7  1  0     0  0
 14  4  1  0     0  0
  7  5  2  0     0  0
M  END