
  SciTegic08041117222D

 25 24  0  0  0  0            999 V2000
   -3.3623   -6.3928    0.0000 C   0  0
   -2.6497   -6.7991    0.0000 C   0  0
   -1.9412   -6.3928    0.0000 C   0  0
   -4.0785   -6.8035    0.0000 C   0  0
   -4.8330   -6.4707    0.0000 N   0  0
   -5.3855   -7.0815    0.0000 C   0  0
   -4.9699   -7.7960    0.0000 N   0  0
   -4.1630   -7.6242    0.0000 C   0  0
   -1.2273   -6.8053    0.0000 O   0  0
   -0.5111   -6.3969    0.0000 C   0  0
    0.2027   -6.8094    0.0000 N   0  0
   -0.5087   -5.5719    0.0000 O   0  0
    0.9190   -6.4011    0.0000 C   0  0
    1.6328   -6.8136    0.0000 C   0  0
    2.3482   -6.3969    0.0000 C   0  0
    2.3576   -5.5719    0.0000 C   0  0
    1.6474   -5.1492    0.0000 C   0  0
   -0.4625   -7.8168    0.0000 O   0  0
   -0.0500   -8.5313    0.0000 C   0  0
    0.7749   -8.5313    0.0000 O   0  0
   -0.4625   -9.2457    0.0000 C   0  0
   -1.2875   -9.2457    0.0000 C   0  0
   -1.7000   -8.5313    0.0000 C   0  0
   -2.5249   -8.5313    0.0000 O   0  0
   -1.2875   -7.8168    0.0000 O   0  0
  1  2  1  0
  3  9  1  0
  5  6  2  0
  9 10  1  0
  2  3  1  0
 10 11  1  0
  7  8  1  0
 10 12  2  0
 11 13  1  0
  4  5  1  0
 13 14  1  0
  6  7  1  0
 14 15  2  0
  8  4  2  0
 15 16  1  0
  1  4  1  0
 16 17  1  0
 18 19  1  0
 19 20  2  0
 19 21  1  0
 21 22  2  0
 22 23  1  0
 23 24  2  0
 23 25  1  0
M  END