
          11280714452D 1   1.00000     0.00000     0

 40 44  0     0  0            999 V2000
   -2.7500   -1.3250    0.0000 N   0  0  3  0  0  0           0  0  0
   -1.9833   -1.0250    0.0000 C   0  0  0  0  0  0           0  0  0
   -1.4583   -1.6542    0.0000 N   0  0  3  0  0  0           0  0  0
   -3.4625   -0.9125    0.0000 C   0  0  0  0  0  0           0  0  0
   -2.7000   -2.1417    0.0000 C   0  0  0  0  0  0           0  0  0
   -1.9083   -2.3542    0.0000 C   0  0  0  0  0  0           0  0  0
   -0.4083    1.9875    0.0000 C   0  0  0  0  0  0           0  0  0
   -1.6333    1.4708    0.0000 N   0  0  0  0  0  0           0  0  0
   -0.8250    1.2833    0.0000 N   0  0  0  0  0  0           0  0  0
   -1.7083    2.2750    0.0000 N   0  0  0  0  0  0           0  0  0
   -0.9583    2.6083    0.0000 N   0  0  0  0  0  0           0  0  0
    0.4167    2.0333    0.0000 C   0  0  0  0  0  0           0  0  0
   -3.4625   -0.0792    0.0000 C   0  0  0  0  0  0           0  0  0
   -4.1833   -1.3250    0.0000 C   0  0  0  0  0  0           0  0  0
    0.8667    1.3375    0.0000 C   0  0  0  0  0  0           0  0  0
   -0.3333    0.5583    0.0000 N   0  0  0  0  0  0           0  0  0
   -0.6333   -1.6125    0.0000 C   0  0  0  0  0  0           0  0  0
    0.4917    0.6083    0.0000 C   0  0  0  0  0  0           0  0  0
   -1.7708   -0.2167    0.0000 O   0  0  0  0  0  0           0  0  0
   -0.2583   -0.8792    0.0000 C   0  0  0  0  0  0           0  0  0
   -0.7083   -0.1792    0.0000 C   0  0  0  0  0  0           0  0  0
    0.9417   -0.0917    0.0000 C   0  0  0  0  0  0           0  0  0
   -4.1833   -2.1500    0.0000 C   0  0  3  0  0  0           0  0  0
   -2.7500    0.3333    0.0000 C   0  0  3  0  0  0           0  0  0
    0.5667   -0.8292    0.0000 C   0  0  0  0  0  0           0  0  0
   -1.6083   -3.1292    0.0000 C   0  0  0  0  0  0           0  0  0
   -4.1833    0.3333    0.0000 C   0  0  0  0  0  0           0  0  0
   -4.8958   -0.9125    0.0000 C   0  0  0  0  0  0           0  0  0
    0.7917    2.7708    0.0000 C   0  0  0  0  0  0           0  0  0
    1.6917    1.3833    0.0000 C   0  0  0  0  0  0           0  0  0
   -4.8958   -0.0875    0.0000 C   0  0  0  0  0  0           0  0  0
   -4.8958   -2.5625    0.0000 C   0  0  0  0  0  0           0  0  0
   -3.4625   -2.5625    0.0000 C   0  0  0  0  0  0           0  0  0
   -2.7583    1.1583    0.0000 C   0  0  0  0  0  0           0  0  0
   -3.4708    0.7458    0.0000 C   0  0  0  0  0  0           0  0  0
   -0.7833   -3.2625    0.0000 C   0  0  0  0  0  0           0  0  0
   -0.4833   -4.0292    0.0000 C   0  0  0  0  0  0           0  0  0
    1.6167    2.8208    0.0000 C   0  0  0  0  0  0           0  0  0
    2.0667    2.1208    0.0000 C   0  0  0  0  0  0           0  0  0
    0.3375   -4.1500    0.0000 C   0  0  0  0  0  0           0  0  0
  2  1  1  0     0  0
  3  2  1  0     0  0
  4  1  1  0     0  0
  5  1  1  0     0  0
  6  5  2  0     0  0
  7 12  1  0     0  0
  8  9  2  0     0  0
  9  7  1  0     0  0
 10 11  1  0     0  0
 11  7  2  0     0  0
 12 15  2  0     0  0
 13  4  2  0     0  0
 14  4  1  0     0  0
 15 18  1  0     0  0
 16 21  2  0     0  0
 17  3  1  0     0  0
 18 22  2  0     0  0
 19  2  2  0     0  0
 20 17  1  0     0  0
 21 20  1  0     0  0
 22 25  1  0     0  0
 23 14  1  0     0  0
 24 13  1  0     0  0
 25 20  2  0     0  0
 26  6  1  0     0  0
 27 13  1  0     0  0
 28 14  2  0     0  0
 29 12  1  0     0  0
 30 15  1  0     0  0
 31 28  1  0     0  0
 32 23  1  0     0  0
 33 23  1  0     0  0
 34 24  1  0     0  0
 35 24  1  0     0  0
 36 26  1  0     0  0
 37 36  1  0     0  0
 38 39  1  0     0  0
 39 30  2  0     0  0
 40 37  1  0     0  0
  6  3  1  0     0  0
 27 31  2  0     0  0
 18 16  1  0     0  0
 29 38  2  0     0  0
 10  8  1  0     0  0
M  END