
          11280715412D 1   1.00000     0.00000     0

 21 22  0     0  0            999 V2000
    3.4875   -2.6542    0.0000 C   0  0  0  0  0  0           0  0  0
    2.7667   -2.2417    0.0000 C   0  0  0  0  0  0           0  0  0
    2.7667   -1.4167    0.0000 O   0  0  0  0  0  0           0  0  0
    3.4875   -3.4792    0.0000 C   0  0  0  0  0  0           0  0  0
    4.2000   -2.2375    0.0000 C   0  0  0  0  0  0           0  0  0
    2.0542   -2.6542    0.0000 C   0  0  0  0  0  0           0  0  0
    2.7667   -3.8917    0.0000 C   0  0  0  0  0  0           0  0  0
    5.6292   -2.2292    0.0000 N   0  0  3  0  0  0           0  0  0
    4.9167   -2.6417    0.0000 C   0  0  0  0  0  0           0  0  0
    3.4792   -1.0042    0.0000 C   0  0  0  0  0  0           0  0  0
    2.0542   -3.4792    0.0000 C   0  0  0  0  0  0           0  0  0
    3.4792   -0.1792    0.0000 C   0  0  0  0  0  0           0  0  0
    2.7667   -4.7167    0.0000 O   0  0  0  0  0  0           0  0  0
    6.3417   -2.6417    0.0000 C   0  0  0  0  0  0           0  0  0
    5.6250   -1.4042    0.0000 C   0  0  0  0  0  0           0  0  0
    4.1917    0.2333    0.0000 C   0  0  0  0  0  0           0  0  0
    2.7667    0.2250    0.0000 C   0  0  0  0  0  0           0  0  0
    2.0542   -5.1292    0.0000 C   0  0  0  0  0  0           0  0  0
    2.7542    1.0458    0.0000 C   0  0  0  0  0  0           0  0  0
    4.1917    1.0583    0.0000 C   0  0  0  0  0  0           0  0  0
    3.4750    1.4708    0.0000 C   0  0  0  0  0  0           0  0  0
  2  1  2  0     0  0
  3  2  1  0     0  0
  4  1  1  0     0  0
  5  1  1  0     0  0
  6  2  1  0     0  0
  7  4  2  0     0  0
  8  9  1  0     0  0
  9  5  1  0     0  0
 10  3  1  0     0  0
 11  7  1  0     0  0
 12 10  1  0     0  0
 13  7  1  0     0  0
 14  8  1  0     0  0
 15  8  1  0     0  0
 16 12  2  0     0  0
 17 12  1  0     0  0
 18 13  1  0     0  0
 19 17  2  0     0  0
 20 16  1  0     0  0
 21 19  1  0     0  0
 11  6  2  0     0  0
 21 20  2  0     0  0
M  END