
  SciTegic01161211252D

 34 37  0  0  0  0            999 V2000
    4.6833   -4.1500    0.0000 N   0  0
    5.4750   -3.9125    0.0000 C   0  0
    4.7125   -2.8125    0.0000 N   0  3
    5.4917   -3.0833    0.0000 C   0  0
    4.4125   -4.9250    0.0000 C   0  0  1  0  0  0
    6.1792   -4.3417    0.0000 N   0  0
    4.2167   -3.4708    0.0000 C   0  0
    6.2167   -2.6833    0.0000 C   0  0
    6.9250   -3.1167    0.0000 N   0  0
    4.8792   -5.6083    0.0000 C   0  0  1  0  0  0
    6.9083   -3.9458    0.0000 C   0  0
    3.6208   -5.1667    0.0000 O   0  0
    1.5000   -6.5792    0.0000 P   0  0
    3.6000   -5.9917    0.0000 C   0  0  1  0  0  0
    4.3792   -6.2667    0.0000 C   0  0  1  0  0  0
    4.4708   -2.0250    0.0000 C   0  0
    6.7208    0.3875    0.0000 C   0  0
    2.9208   -6.4625    0.0000 C   0  0
    2.1792   -6.1083    0.0000 O   0  0
    6.2333   -1.8583    0.0000 O   0  0
    0.9083   -7.1583    0.0000 O   0  0
    2.0292   -7.2125    0.0000 O   0  5
    6.1583   -0.2167    0.0000 C   0  0
    0.9708   -5.9417    0.0000 O   0  0
    7.5250    0.2000    0.0000 O   0  0
    7.6125   -4.3708    0.0000 N   0  0
    5.7042   -5.6292    0.0000 O   0  0
    6.4000   -1.0083    0.0000 C   0  0
    5.3500   -0.0333    0.0000 C   0  0
    4.6167   -7.0542    0.0000 O   0  0
    5.0333   -1.4208    0.0000 C   0  0
    6.4792    1.1750    0.0000 O   0  0
    4.7917   -0.6375    0.0000 C   0  0
    5.8375   -1.6083    0.0000 C   0  0
  2  1  1  0
  3  7  2  0
  4  2  2  0
  5  1  1  1
  6  2  1  0
  7  1  1  0
  8  4  1  0
  9  8  1  0
 10  5  1  0
 11  6  2  0
 12  5  1  0
 13 19  1  0
 14 12  1  0
 15 10  1  0
 16  3  1  0
 17 23  1  0
 14 18  1  1
 19 18  1  0
 20  8  2  0
 21 13  1  0
 22 13  1  0
 23 29  1  0
 24 13  2  0
 25 17  2  0
 26 11  1  0
 10 27  1  6
 28 34  1  0
 29 33  2  0
 15 30  1  6
 31 16  1  0
 32 17  1  0
 33 31  1  0
 34 31  2  0
  3  4  1  0
 15 14  1  0
  9 11  1  0
 23 28  2  0
M  CHG  2   3   1  22  -1
M  END