
          11280715112D 1   1.00000     0.00000     0

 29 32  0     0  0            999 V2000
    1.5667   -1.3000    0.0000 S   0  0  3  0  0  0           0  0  0
   -1.5208   -0.4042    0.0000 N   0  0  0  0  0  0           0  0  0
   -1.8208    0.1083    0.0000 C   0  0  0  0  0  0           0  0  0
   -1.4208    0.5500    0.0000 N   0  0  0  0  0  0           0  0  0
   -0.9375   -0.2875    0.0000 C   0  0  0  0  0  0           0  0  0
   -0.8750    0.3083    0.0000 C   0  0  0  0  0  0           0  0  0
   -3.7875   -0.7667    0.0000 N   0  0  0  0  0  0           0  0  0
    1.0500   -1.5917    0.0000 O   0  0  0  0  0  0           0  0  0
   -3.9708   -0.1917    0.0000 C   0  0  0  0  0  0           0  0  0
    1.0542   -0.6667    0.0000 O   0  0  0  0  0  0           0  0  0
    1.9917   -0.5625    0.0000 O   0  0  0  0  0  0           0  0  0
   -4.7583   -0.7542    0.0000 N   0  0  0  0  0  0           0  0  0
    2.0875   -1.6042    0.0000 C   0  0  0  0  0  0           0  0  0
   -4.2833   -1.1167    0.0000 C   0  0  0  0  0  0           0  0  0
   -0.4958   -0.6917    0.0000 C   0  0  0  0  0  0           0  0  0
   -4.5708   -0.1875    0.0000 C   0  0  0  0  0  0           0  0  0
   -2.4208    0.1125    0.0000 S   0  0  0  0  0  0           0  0  0
    0.0167   -0.3917    0.0000 C   0  0  0  0  0  0           0  0  0
   -0.5000   -1.2917    0.0000 C   0  0  0  0  0  0           0  0  0
    0.5292   -1.3000    0.0000 C   0  0  0  0  0  0           0  0  0
   -3.4500    0.1083    0.0000 C   0  0  0  0  0  0           0  0  0
   -2.9375   -0.1917    0.0000 C   0  0  0  0  0  0           0  0  0
    0.0125   -1.5917    0.0000 C   0  0  0  0  0  0           0  0  0
    0.5375   -0.6917    0.0000 C   0  0  0  0  0  0           0  0  0
    2.6042   -1.3042    0.0000 C   0  0  0  0  0  0           0  0  0
    2.0792   -2.2042    0.0000 C   0  0  0  0  0  0           0  0  0
    2.5917   -2.5042    0.0000 C   0  0  0  0  0  0           0  0  0
    3.1167   -1.6042    0.0000 C   0  0  0  0  0  0           0  0  0
    3.1167   -2.2125    0.0000 C   0  0  0  0  0  0           0  0  0
  2  5  1  0     0  0
  3  2  2  0     0  0
  4  6  1  0     0  0
  5 15  1  0     0  0
  6  5  2  0     0  0
  7  9  1  0     0  0
  8  1  1  0     0  0
  9 21  1  0     0  0
 10  1  2  0     0  0
 11  1  2  0     0  0
 12 16  1  0     0  0
 13  1  1  0     0  0
 14  7  2  0     0  0
 15 18  2  0     0  0
 16  9  2  0     0  0
 17  3  1  0     0  0
 18 24  1  0     0  0
 19 23  2  0     0  0
 20  8  1  0     0  0
 21 22  1  0     0  0
 22 17  1  0     0  0
 23 20  1  0     0  0
 24 20  2  0     0  0
 25 13  1  0     0  0
 26 13  2  0     0  0
 27 26  1  0     0  0
 28 25  2  0     0  0
 29 27  2  0     0  0
 28 29  1  0     0  0
 19 15  1  0     0  0
  3  4  1  0     0  0
 14 12  1  0     0  0
M  END