
          11280715492D 1   1.00000     0.00000     0

 69 75  0     1  0            999 V2000
   12.0774  -20.3357    0.0000 N   0  0  0  0  0  0           0  0  0
   12.0495  -17.8599    0.0000 C   0  0  0  0  0  0           0  0  0
   11.3201  -16.6328    0.0000 N   0  0  0  0  0  0           0  0  0
   12.0390  -17.0374    0.0000 C   0  0  1  0  0  0           0  0  0
   12.7496  -16.6159    0.0000 C   0  0  0  0  0  0           0  0  0
   12.7412  -15.7897    0.0000 C   0  0  0  0  0  0           0  0  0
   12.0223  -15.3851    0.0000 C   0  0  0  0  0  0           0  0  0
   12.0118  -14.5625    0.0000 C   0  0  0  0  0  0           0  0  0
   12.7224  -14.1410    0.0000 C   0  0  0  0  0  0           0  0  0
   12.7140  -13.3148    0.0000 O   0  0  0  0  0  0           0  0  0
   13.4414  -14.5456    0.0000 C   0  0  0  0  0  0           0  0  0
   13.4498  -15.3718    0.0000 C   0  0  0  0  0  0           0  0  0
   12.7684  -18.2646    0.0000 O   0  0  0  0  0  0           0  0  0
   11.3389  -18.2815    0.0000 N   0  0  3  0  0  0           0  0  0
   14.1687  -15.7764    0.0000 C   0  0  0  0  0  0           0  0  0
   11.3110  -15.8078    0.0000 C   0  0  0  0  0  0           0  0  0
   10.6210  -17.8729    0.0000 C   0  0  0  0  0  0           0  0  0
   10.6382  -19.5243    0.0000 C   0  0  0  0  0  0           0  0  0
   11.3529  -19.1046    0.0000 C   0  0  3  0  0  0           0  0  0
    9.9180  -19.1175    0.0000 C   0  0  0  0  0  0           0  0  0
    9.9128  -18.2947    0.0000 C   0  0  0  0  0  0           0  0  0
    9.1989  -17.8896    0.0000 C   0  0  0  0  0  0           0  0  0
    8.4896  -18.3061    0.0000 C   0  0  0  0  0  0           0  0  0
    8.4988  -19.1320    0.0000 C   0  0  0  0  0  0           0  0  0
    9.2133  -19.5334    0.0000 C   0  0  0  0  0  0           0  0  0
   12.0724  -19.5083    0.0000 C   0  0  0  0  0  0           0  0  0
   12.7818  -19.0871    0.0000 O   0  0  0  0  0  0           0  0  0
    7.0715  -20.7306    0.0000 C   0  0  0  0  0  0           0  0  0
    7.0715  -21.5597    0.0000 C   0  0  0  0  0  0           0  0  0
    7.7877  -21.9722    0.0000 N   0  0  0  0  0  0           0  0  0
    8.4998  -21.5597    0.0000 C   0  0  0  0  0  0           0  0  0
    8.4998  -20.7306    0.0000 C   0  0  0  0  0  0           0  0  0
    7.7877  -20.3139    0.0000 N   0  0  0  0  0  0           0  0  0
    9.2178  -21.9774    0.0000 O   0  0  0  0  0  0           0  0  0
    6.3517  -20.3202    0.0000 C   0  0  0  0  0  0           0  0  0
    9.2196  -20.3202    0.0000 C   0  0  0  0  0  0           0  0  0
    6.3535  -21.9774    0.0000 C   0  0  0  0  0  0           0  0  0
    5.6377  -21.5673    0.0000 C   0  0  0  0  0  0           0  0  0
    9.9318  -20.7365    0.0000 C   0  0  0  0  0  0           0  0  0
   10.6485  -20.3279    0.0000 C   0  0  0  0  0  0           0  0  0
   11.3607  -20.7443    0.0000 C   0  0  0  0  0  0           0  0  0
    4.9246  -21.9821    0.0000 C   0  0  0  0  0  0           0  0  0
    4.2088  -21.5720    0.0000 N   0  0  0  0  0  0           0  0  0
    2.0564  -22.7968    0.0000 C   0  0  0  0  0  0           0  0  0
    1.3352  -24.0288    0.0000 N   0  0  0  0  0  0           0  0  0
    1.3415  -23.2038    0.0000 C   0  0  1  0  0  0           0  0  0
    0.6288  -22.7858    0.0000 C   0  0  0  0  0  0           0  0  0
   -0.0902  -23.1928    0.0000 C   0  0  0  0  0  0           0  0  0
   -0.0965  -24.0178    0.0000 C   0  0  0  0  0  0           0  0  0
   -0.8114  -24.4248    0.0000 C   0  0  0  0  0  0           0  0  0
   -1.5300  -24.0068    0.0000 C   0  0  0  0  0  0           0  0  0
   -2.2490  -24.4138    0.0000 O   0  0  0  0  0  0           0  0  0
   -1.5236  -23.1818    0.0000 C   0  0  0  0  0  0           0  0  0
   -0.7987  -22.7749    0.0000 C   0  0  0  0  0  0           0  0  0
    2.0627  -21.9718    0.0000 O   0  0  0  0  0  0           0  0  0
    2.7690  -23.2148    0.0000 N   0  0  3  0  0  0           0  0  0
   -0.7924  -21.9499    0.0000 C   0  0  0  0  0  0           0  0  0
    0.6176  -24.4358    0.0000 C   0  0  0  0  0  0           0  0  0
    2.7588  -24.0407    0.0000 C   0  0  0  0  0  0           0  0  0
    4.1957  -23.2268    0.0000 C   0  0  0  0  0  0           0  0  0
    3.4826  -22.8043    0.0000 C   0  0  3  0  0  0           0  0  0
    4.1881  -24.0539    0.0000 C   0  0  0  0  0  0           0  0  0
    3.4705  -24.4564    0.0000 C   0  0  0  0  0  0           0  0  0
    3.4613  -25.2773    0.0000 C   0  0  0  0  0  0           0  0  0
    4.1690  -25.6966    0.0000 C   0  0  0  0  0  0           0  0  0
    4.8873  -25.2890    0.0000 C   0  0  0  0  0  0           0  0  0
    4.8930  -24.4695    0.0000 C   0  0  0  0  0  0           0  0  0
    3.4879  -21.9793    0.0000 C   0  0  0  0  0  0           0  0  0
    2.7761  -21.5622    0.0000 O   0  0  0  0  0  0           0  0  0
  4  3  1  1     0  0
 31 34  1  0     0  0
  2  4  1  0     0  0
 28 35  1  0     0  0
  4  5  1  0     0  0
 32 36  1  0     0  0
 14 19  1  0     0  0
 29 37  1  0     0  0
 17 21  1  0     0  0
 37 38  1  0     0  0
 20 18  1  0     0  0
 36 39  1  0     0  0
 18 19  1  0     0  0
 39 40  1  0     0  0
  5  6  1  0     0  0
 40 41  1  0     0  0
 41  1  1  0     0  0
  6  7  2  0     0  0
 38 42  1  0     0  0
 20 21  2  0     0  0
 42 43  1  0     0  0
  7  8  1  0     0  0
 21 22  1  0     0  0
  8  9  2  0     0  0
 22 23  2  0     0  0
  9 10  1  0     0  0
 23 24  1  0     0  0
  9 11  1  0     0  0
 24 25  2  0     0  0
 25 20  1  0     0  0
 11 12  2  0     0  0
 19 26  1  0     0  0
  6 12  1  0     0  0
 26 27  2  0     0  0
  1 26  1  0     0  0
 46 45  1  1     0  0
 44 46  1  0     0  0
 46 47  1  0     0  0
 47 48  1  0     0  0
 48 49  2  0     0  0
 49 50  1  0     0  0
 50 51  2  0     0  0
 51 52  1  0     0  0
 51 53  1  0     0  0
 53 54  2  0     0  0
 48 54  1  0     0  0
 44 55  2  0     0  0
 44 56  1  0     0  0
 54 57  1  0     0  0
 49 58  1  0     0  0
 28 29  1  0     0  0
 56 59  1  0     0  0
  2 13  2  0     0  0
  2 14  1  0     0  0
 12 15  1  0     0  0
 56 61  1  0     0  0
 59 63  1  0     0  0
 62 60  1  0     0  0
 60 61  1  0     0  0
  7 16  1  0     0  0
 62 63  2  0     0  0
 14 17  1  0     0  0
 63 64  1  0     0  0
 28 33  2  0     0  0
 64 65  2  0     0  0
 29 30  2  0     0  0
 65 66  1  0     0  0
 30 31  1  0     0  0
 66 67  2  0     0  0
 67 62  1  0     0  0
 31 32  2  0     0  0
 61 68  1  0     0  0
 32 33  1  0     0  0
 68 69  2  0     0  0
 43 68  1  0     0  0
M  END