
          11280715102D 1   1.00000     0.00000     0

 32 34  0     0  0            999 V2000
    3.5125   -7.0000    0.0000 C   0  0  0  0  0  0           0  0  0
    3.5125   -7.6000    0.0000 C   0  0  0  0  0  0           0  0  0
    2.9917   -7.9000    0.0000 N   0  0  0  0  0  0           0  0  0
    2.4750   -7.0000    0.0000 N   0  0  0  0  0  0           0  0  0
    2.9917   -6.7000    0.0000 C   0  0  0  0  0  0           0  0  0
    2.4750   -7.6000    0.0000 C   0  0  0  0  0  0           0  0  0
    4.0292   -6.7000    0.0000 S   0  0  0  0  0  0           0  0  0
    4.0250   -7.9000    0.0000 N   0  0  0  0  0  0           0  0  0
    7.6750   -5.8167    0.0000 C   0  0  0  0  0  0           0  0  0
    8.1917   -6.1167    0.0000 N   0  0  0  0  0  0           0  0  0
    8.7167   -5.2250    0.0000 C   0  0  0  0  0  0           0  0  0
    8.7125   -5.8250    0.0000 C   0  0  3  0  0  0           0  0  0
    7.1542   -6.1167    0.0000 C   0  0  0  0  0  0           0  0  0
    2.9917   -6.1000    0.0000 O   0  0  0  0  0  0           0  0  0
   10.2667   -6.1292    0.0000 C   0  0  0  0  0  0           0  0  0
    7.6750   -5.2167    0.0000 O   0  0  0  0  0  0           0  0  0
    9.2375   -4.9250    0.0000 O   0  0  0  0  0  0           0  0  0
    1.9542   -7.8917    0.0000 N   0  0  0  0  0  0           0  0  0
   10.7917   -5.8292    0.0000 O   0  0  0  0  0  0           0  0  0
    4.5500   -7.0042    0.0000 C   0  0  3  0  0  0           0  0  0
    9.2292   -6.1250    0.0000 C   0  0  0  0  0  0           0  0  0
    6.6292   -5.8167    0.0000 C   0  0  0  0  0  0           0  0  0
    7.1500   -6.7167    0.0000 C   0  0  0  0  0  0           0  0  0
    4.5417   -7.6042    0.0000 C   0  0  0  0  0  0           0  0  0
    9.7500   -5.8292    0.0000 C   0  0  0  0  0  0           0  0  0
    8.1917   -4.9167    0.0000 O   0  0  0  0  0  0           0  0  0
    6.1125   -6.7125    0.0000 C   0  0  0  0  0  0           0  0  0
   10.2667   -6.7292    0.0000 O   0  0  0  0  0  0           0  0  0
    6.6292   -7.0167    0.0000 C   0  0  0  0  0  0           0  0  0
    6.1125   -6.1125    0.0000 C   0  0  0  0  0  0           0  0  0
    5.5917   -7.0042    0.0000 C   0  0  0  0  0  0           0  0  0
    5.0667   -6.7042    0.0000 C   0  0  0  0  0  0           0  0  0
  2  1  1  0     0  0
  3  2  2  0     0  0
  4  5  1  0     0  0
  5  1  2  0     0  0
  6  4  2  0     0  0
  7  1  1  0     0  0
  8  2  1  0     0  0
  9 13  1  0     0  0
 10  9  1  0     0  0
 11 12  1  0     0  0
 12 10  1  0     0  0
 13 22  1  0     0  0
 14  5  1  0     0  0
 15 25  1  0     0  0
 16  9  2  0     0  0
 17 11  2  0     0  0
 18  6  1  0     0  0
 19 15  2  0     0  0
 20  7  1  0     0  0
 21 12  1  0     0  0
 22 30  2  0     0  0
 23 29  1  0     0  0
 24 20  1  0     0  0
 25 21  1  0     0  0
 26 11  1  0     0  0
 27 31  1  0     0  0
 28 15  1  0     0  0
 29 27  2  0     0  0
 30 27  1  0     0  0
 31 32  1  0     0  0
 32 20  1  0     0  0
  8 24  1  0     0  0
  6  3  1  0     0  0
 23 13  2  0     0  0
M  END