
  SciTegic10311316242D

 30 33  0  0  0  0            999 V2000
    5.4703   -5.0095    0.0000 C   0  0  1  0  0  0
    5.1096   -5.7516    0.0000 C   0  0
    5.7040   -6.3238    0.0000 C   0  0
    6.4319   -5.9354    0.0000 C   0  0
    6.2873   -5.1232    0.0000 O   0  0
    2.8311   -7.7227    0.0000 C   0  0
    3.3456   -7.0830    0.0000 C   0  0
    4.1720   -7.0837    0.0000 O   0  0
    3.0136   -8.5287    0.0000 C   0  0  2  0  0  0
    4.6872   -7.7259    0.0000 C   0  0
    3.7576   -8.8876    0.0000 C   0  0
    4.5007   -8.5279    0.0000 C   0  0
    3.3400   -6.2552    0.0000 C   0  0
    4.0513   -5.8381    0.0000 C   0  0
    4.0458   -5.0136    0.0000 C   0  0
    4.7682   -6.2456    0.0000 C   0  0
    4.7571   -4.5964    0.0000 C   0  0  1  0  0  0
    6.1836   -4.5943    0.0000 C   0  0
    6.1822   -3.7693    0.0000 C   0  0  1  0  0  0
    5.4655   -3.3596    0.0000 C   0  0
    4.7501   -3.7750    0.0000 C   0  0
    5.4628   -2.5351    0.0000 C   0  0
    6.8951   -3.3549    0.0000 C   0  0
    4.0396   -4.1812    0.0000 C   0  0
    4.5185   -5.1641    0.0000 O   0  0
    7.1735   -6.2959    0.0000 O   0  0
    5.5903   -7.1405    0.0000 C   0  0
    5.5888   -8.7081    0.0000 C   0  0
    5.8388   -7.8669    0.0000 C   0  0
    2.3683   -9.0421    0.0000 O   0  0
  1  2  1  0
  2  3  1  0
  3  4  1  0
  4  5  1  0
  1  5  1  6
  6  7  1  0
  6  9  1  0
  8 10  1  0
  9 11  1  0
 10 12  1  0
 11 12  2  0
  7 13  2  0
 13 14  1  0
 14 15  2  0
 14 16  1  0
 15 17  1  0
 17  1  1  0
 17 21  1  0
  1 18  1  0
 18 19  1  0
 19 20  1  0
 20 21  2  0
 20 22  1  0
 19 23  1  1
 17 24  1  6
  2 25  2  0
  4 26  2  0
  3 27  2  0
 27  8  1  0
 12 28  1  0
 27 29  1  0
 29 28  2  0
  9 30  1  6
M  END