
  CDK    9/16/09,9:58

 21 24  0  0  0  0  0  0  0  0999 V2000
   -5.7170    2.2687    0.0000 C   0  0  0  0  0  0  0  0  0  0  0  0
   -5.7182    1.4412    0.0000 C   0  0  0  0  0  0  0  0  0  0  0  0
   -5.0053    1.0283    0.0000 C   0  0  0  0  0  0  0  0  0  0  0  0
   -5.0073    2.6816    0.0000 C   0  0  0  0  0  0  0  0  0  0  0  0
   -4.2891    2.2728    0.0000 C   0  0  0  0  0  0  0  0  0  0  0  0
   -4.2886    1.4458    0.0000 C   0  0  0  0  0  0  0  0  0  0  0  0
   -3.5018    1.1907    0.0000 N   0  0  0  0  0  0  0  0  0  0  0  0
   -3.0161    1.8601    0.0000 C   0  0  0  0  0  0  0  0  0  0  0  0
   -3.5027    2.5288    0.0000 N   0  0  0  0  0  0  0  0  0  0  0  0
   -2.1911    1.8608    0.0000 N   0  0  0  0  0  0  0  0  0  0  0  0
   -1.7781    1.1465    0.0000 C   0  0  0  0  0  0  0  0  0  0  0  0
   -2.1905    0.4354    0.0000 C   0  0  0  0  0  0  0  0  0  0  0  0
   -1.7811   -0.2766    0.0000 C   0  0  0  0  0  0  0  0  0  0  0  0
   -0.9557   -0.2804    0.0000 C   0  0  0  0  0  0  0  0  0  0  0  0
   -0.9527    1.1526    0.0000 C   0  0  0  0  0  0  0  0  0  0  0  0
   -0.5446    0.4358    0.0000 C   0  0  0  0  0  0  0  0  0  0  0  0
    0.2782    0.4317    0.0000 C   0  0  0  0  0  0  0  0  0  0  0  0
    0.6940    1.1438    0.0000 C   0  0  0  0  0  0  0  0  0  0  0  0
    0.2809    1.8613    0.0000 C   0  0  0  0  0  0  0  0  0  0  0  0
   -0.5405    1.8617    0.0000 C   0  0  0  0  0  0  0  0  0  0  0  0
   -3.0155    0.4369    0.0000 C   0  0  0  0  0  0  0  0  0  0  0  0
  8 10  1  0  0  0  0 
  5  6  1  0  0  0  0 
 10 11  1  0  0  0  0 
 11 12  1  0  0  0  0 
  2  3  1  0  0  0  0 
  3  6  2  0  0  0  0 
 11 15  1  0  0  0  0 
 12 13  1  0  0  0  0 
 13 14  1  0  0  0  0 
 14 16  1  0  0  0  0 
  1  2  2  0  0  0  0 
  5  4  2  0  0  0  0 
 15 16  2  0  0  0  0 
  6  7  1  0  0  0  0 
 16 17  1  0  0  0  0 
  7  8  1  0  0  0  0 
 17 18  2  0  0  0  0 
  8  9  2  0  0  0  0 
 18 19  1  0  0  0  0 
  9  5  1  0  0  0  0 
 19 20  2  0  0  0  0 
 20 15  1  0  0  0  0 
  4  1  1  0  0  0  0 
 12 21  1  0  0  0  0 
M  END