
  SciTegic11041415542D

 23 24  0  0  0  0            999 V2000
    9.9770    1.5575    0.0000 S   0  0
   12.1299    1.1544    0.0000 C   0  0
   12.8354    1.5712    0.0000 C   0  0
   10.6916    1.1452    0.0000 C   0  0
   11.4062    1.5666    0.0000 C   0  0
   15.6526    1.6628    0.0000 N   0  0
   13.5591    1.1681    0.0000 N   0  0
   10.3892    2.2721    0.0000 O   0  0
    9.5601    2.2721    0.0000 O   0  0
   12.1299    0.3207    0.0000 C   0  0
    9.2577    1.1452    0.0000 N   0  0
   14.9883    1.1681    0.0000 C   0  0
   12.8354    2.3958    0.0000 O   0  0
   14.2737    1.5804    0.0000 C   0  0
   10.6916    0.3207    0.0000 C   0  0
   11.4062   -0.0962    0.0000 C   0  0
   16.3259    1.1681    0.0000 C   0  0
   12.8445   -0.0916    0.0000 O   0  0
   15.6526    2.4874    0.0000 C   0  0
   16.0740    0.3848    0.0000 C   0  0
   15.2403    0.3848    0.0000 C   0  0
   12.8445   -0.9161    0.0000 C   0  0
   16.3672    2.8996    0.0000 C   0  0
  2  5  2  0
  3  2  1  0
  4  1  1  0
  5  4  1  0
  6 12  1  0
  7  3  1  0
  8  1  2  0
  9  1  2  0
 10 16  2  0
 11  1  1  0
 12 14  1  0
 13  3  2  0
 14  7  1  0
 15  4  2  0
 16 15  1  0
 17  6  1  0
 18 10  1  0
 19  6  1  0
 20 21  1  0
 21 12  1  0
 22 18  1  0
 23 19  1  0
 10  2  1  0
 20 17  1  0
M  END