
          11280715262D 1   1.00000     0.00000     0

 17 18  0     0  0            999 V2000
    1.7917   -2.3167    0.0000 N   0  0  0  0  0  0           0  0  0
    6.1167   -2.2542    0.0000 C   0  0  0  0  0  0           0  0  0
    8.2625   -2.6667    0.0000 C   0  0  3  0  0  0           0  0  0
    6.8292   -2.6667    0.0000 N   0  0  0  0  0  0           0  0  0
    9.0917   -2.6667    0.0000 C   0  0  0  0  0  0           0  0  0
    8.6750   -3.3792    0.0000 C   0  0  0  0  0  0           0  0  0
    1.6542   -3.6292    0.0000 N   0  0  0  0  0  0           0  0  0
    1.2417   -2.9167    0.0000 C   0  0  0  0  0  0           0  0  0
    2.5417   -2.6542    0.0000 C   0  0  0  0  0  0           0  0  0
    7.5500   -2.2542    0.0000 C   0  0  3  0  0  0           0  0  0
    2.4542   -3.4667    0.0000 C   0  0  0  0  0  0           0  0  0
    6.1167   -1.4292    0.0000 O   0  0  0  0  0  0           0  0  0
    5.4042   -2.6542    0.0000 O   0  0  0  0  0  0           0  0  0
    3.2625   -2.2417    0.0000 C   0  0  0  0  0  0           0  0  0
    7.5500   -1.4292    0.0000 C   0  0  0  0  0  0           0  0  0
    4.6917   -2.2417    0.0000 C   0  0  0  0  0  0           0  0  0
    3.9750   -2.6542    0.0000 C   0  0  0  0  0  0           0  0  0
  2 13  1  0     0  0
  3 10  1  0     0  0
  4  2  1  0     0  0
  5  3  1  0     0  0
  6  3  1  0     0  0
  7  8  1  0     0  0
  8  1  2  0     0  0
  9  1  1  0     0  0
 10  4  1  0     0  0
 11  9  2  0     0  0
 12  2  2  0     0  0
 13 16  1  0     0  0
 14  9  1  0     0  0
 15 10  1  0     0  0
 16 17  1  0     0  0
 17 14  1  0     0  0
  7 11  1  0     0  0
  6  5  1  0     0  0
M  END