
          11280714462D 1   1.00000     0.00000     0

  7  7  0     0  0            999 V2000
    0.7917   -0.9292    0.0000 N   0  0  0  0  0  0           0  0  0
    1.5125   -1.3417    0.0000 C   0  0  0  0  0  0           0  0  0
    0.0792   -1.3500    0.0000 C   0  0  0  0  0  0           0  0  0
    2.2250   -0.9292    0.0000 C   0  0  0  0  0  0           0  0  0
    1.5125   -2.1750    0.0000 C   0  0  0  0  0  0           0  0  0
    0.0792   -2.1750    0.0000 C   0  0  0  0  0  0           0  0  0
    0.7917   -2.5875    0.0000 C   0  0  0  0  0  0           0  0  0
  2  1  2  0     0  0
  3  1  1  0     0  0
  4  2  1  0     0  0
  5  2  1  0     0  0
  6  3  2  0     0  0
  7  6  1  0     0  0
  7  5  2  0     0  0
M  END