
  Mrv0541 04051115152D          

 27 30  0  0  0  0            999 V2000
   -2.6667    2.4255    0.0000 N   0  0  0  0  0  0  0  0  0  0  0  0
    2.1752    1.6005    0.0000 N   0  0  0  0  0  0  0  0  0  0  0  0
   -1.3971    2.8380    0.0000 C   0  0  0  0  0  0  0  0  0  0  0  0
   -0.6826    3.2505    0.0000 C   0  0  0  0  0  0  0  0  0  0  0  0
    0.0318    2.8380    0.0000 C   0  0  0  0  0  0  0  0  0  0  0  0
   -2.1817    1.7581    0.0000 C   0  0  0  0  0  0  0  0  0  0  0  0
   -0.6826   -3.3495    0.0000 C   0  0  0  0  0  0  0  0  0  0  0  0
    0.0318   -4.5870    0.0000 C   0  0  0  0  0  0  0  0  0  0  0  0
   -2.4367    0.9734    0.0000 C   0  0  0  0  0  0  0  0  0  0  0  0
    0.0318   -2.9370    0.0000 C   0  0  0  0  0  0  0  0  0  0  0  0
    0.7463    1.6005    0.0000 C   0  0  0  0  0  0  0  0  0  0  0  0
    0.7463    0.7755    0.0000 C   0  0  0  0  0  0  0  0  0  0  0  0
    1.4608    0.3630    0.0000 C   0  0  0  0  0  0  0  0  0  0  0  0
    0.7463   -0.8745    0.0000 C   0  0  0  0  0  0  0  0  0  0  0  0
    0.0318    2.0130    0.0000 C   0  0  0  0  0  0  0  0  0  0  0  0
   -0.6826    1.6005    0.0000 C   0  0  0  0  0  0  0  0  0  0  0  0
   -1.3971    2.0130    0.0000 C   0  0  0  0  0  0  0  0  0  0  0  0
   -2.1817    3.0929    0.0000 N   0  0  0  0  0  0  0  0  0  0  0  0
   -0.6826   -4.1745    0.0000 C   0  0  0  0  0  0  0  0  0  0  0  0
    0.7463   -3.3495    0.0000 C   0  0  0  0  0  0  0  0  0  0  0  0
    2.1752    0.7755    0.0000 C   0  0  0  0  0  0  0  0  0  0  0  0
    1.4608    2.0130    0.0000 C   0  0  0  0  0  0  0  0  0  0  0  0
    0.7463   -4.1745    0.0000 C   0  0  0  0  0  0  0  0  0  0  0  0
    1.4608   -0.4620    0.0000 O   0  0  0  0  0  0  0  0  0  0  0  0
    0.7463   -1.6995    0.0000 C   0  0  2  0  0  0  0  0  0  0  0  0
    0.0318   -2.1120    0.0000 C   0  0  0  0  0  0  0  0  0  0  0  0
    1.4608   -2.1120    0.0000 N   0  0  0  0  0  0  0  0  0  0  0  0
  6  1  2  0  0  0  0
  1 18  1  0  0  0  0
 22  2  1  0  0  0  0
 17  3  1  0  0  0  0
  3  4  2  0  0  0  0
  4  5  1  0  0  0  0
 15  5  2  0  0  0  0
 17  6  1  0  0  0  0
  7 10  1  0  0  0  0
 19  8  1  0  0  0  0
  8 23  2  0  0  0  0
  6  9  1  0  0  0  0
 10 26  1  0  0  0  0
 15 11  1  0  0  0  0
 11 12  1  0  0  0  0
 12 13  2  0  0  0  0
 14 24  1  0  0  0  0
 15 16  1  0  0  0  0
 16 17  2  0  0  0  0
  3 18  1  0  0  0  0
  7 19  2  0  0  0  0
 20 10  2  0  0  0  0
 21 13  1  0  0  0  0
 21  2  2  0  0  0  0
 22 11  2  0  0  0  0
 20 23  1  0  0  0  0
 13 24  1  0  0  0  0
 25 14  1  0  0  0  0
 25 26  1  0  0  0  0
 25 27  1  1  0  0  0
M  END