
  SciTegic01161211252D

 29 29  0  0  0  0            999 V2000
    1.9417   -0.5292    0.0000 C   0  0
    1.3000   -0.8667    0.0000 C   0  0
    1.8417   -1.3792    0.0000 C   0  0
    0.4667   -1.3792    0.0000 C   0  0
    1.2042   -1.8042    0.0000 C   0  0
    1.1667   -0.1292    0.0000 C   0  0
    4.9000   -2.4917    0.0000 C   0  0
    4.8917   -4.1417    0.0000 C   0  0
    2.5292   -1.7917    0.0000 N   0  0
    4.1875   -2.9042    0.0000 C   0  0
    4.1792   -3.7292    0.0000 C   0  0
    0.4667   -0.5542    0.0000 C   0  0
    5.6125   -2.9042    0.0000 O   0  0
    5.6042   -3.7292    0.0000 O   0  0
    2.5042   -5.5042    0.0000 N   0  0
    4.8875   -4.9667    0.0000 O   0  0
    4.9000   -1.6667    0.0000 O   0  0
    2.9000   -6.2292    0.0000 C   0  0
    2.5292   -2.6292    0.0000 O   0  0
    2.5250   -4.0667    0.0000 C   0  0
    2.9125   -4.7917    0.0000 C   0  0
    2.9250   -3.3542    0.0000 C   0  0
    2.6750   -0.0917    0.0000 C   0  0
    1.2917   -1.6917    0.0000 C   0  0
    0.4750   -0.8667    0.0000 C   0  0
    1.7292   -4.0542    0.0000 O   0  0
    3.3125   -6.9417    0.0000 C   0  0
    2.5000   -6.9542    0.0000 C   0  0
    3.6917   -6.2417    0.0000 C   0  0
  2  1  1  0
  3  1  1  0
  4  2  1  0
  5  3  1  0
  6  1  1  0
  8 11  1  0
  9  3  2  0
 10  7  1  0
 11 10  2  0
 12  6  1  0
 13  7  1  0
 14  8  1  0
 15 21  1  0
 16  8  2  0
 17  7  2  0
 18 15  1  0
 19  9  1  0
 20 22  1  0
 21 20  1  0
 22 19  1  0
 23  1  1  0
 24  2  1  0
 25  2  1  0
 26 20  1  0
 27 18  1  0
 28 18  1  0
 29 18  1  0
 12  4  1  0
  4  5  1  0
M  END