
  SciTegic01091216402D

 23 24  0  0  0  0            999 V2000
    9.4373   -2.9990    0.0000 N   0  0
    9.4559   -3.8253    0.0000 N   0  0
   10.2444   -4.0586    0.0000 C   0  0
   10.7142   -3.3790    0.0000 C   0  0
   10.2128   -2.7248    0.0000 C   0  0
    8.7580   -2.5289    0.0000 C   0  0
    8.0405   -2.9362    0.0000 N   0  0
    8.7654   -1.7064    0.0000 N   0  0
   11.5405   -3.3605    0.0000 C   0  0
   11.9680   -4.0632    0.0000 C   0  0
    9.4829   -1.2991    0.0000 C   0  0
   10.1929   -1.7144    0.0000 C   0  0
    7.3298   -2.5197    0.0000 S   0  0
    7.7458   -1.8108    0.0000 O   0  0
    6.6274   -2.9547    0.0000 C   0  0
    6.6535   -3.7793    0.0000 C   0  0
    5.9511   -4.2142    0.0000 C   0  0
    5.2225   -3.8246    0.0000 C   0  0
    5.1964   -3.0000    0.0000 C   0  0
    5.8988   -2.5650    0.0000 C   0  0
    6.7417   -1.9292    0.0000 O   0  0
    4.4694   -2.6100    0.0000 Cl  0  0
    4.5216   -4.2598    0.0000 Cl  0  0
  3  4  1  0
  4  5  1  0
  1  5  1  0
  6  7  2  0
  6  8  1  0
  1  6  1  0
  9 10  1  0
  4  9  1  0
 11 12  1  0
  8 11  1  0
 13 14  2  0
 15 16  1  0
 16 17  2  0
 17 18  1  0
 18 19  2  0
 19 20  1  0
 15 20  2  0
 13 15  1  0
  7 13  1  0
 13 21  2  0
  1  2  1  0
 19 22  1  0
  2  3  2  0
 18 23  1  0
M  END