
  Mrv0541 05211314572D          

 20 22  0  0  0  0            999 V2000
   -2.2208   -2.1209    0.0000 C   0  0  0  0  0  0  0  0  0  0  0  0
   -2.3071   -1.3004    0.0000 C   0  0  0  0  0  0  0  0  0  0  0  0
   -3.1141   -1.1289    0.0000 C   0  0  0  0  0  0  0  0  0  0  0  0
   -3.5266   -1.8434    0.0000 C   0  0  0  0  0  0  0  0  0  0  0  0
   -2.9745   -2.4565    0.0000 S   0  0  0  0  0  0  0  0  0  0  0  0
   -1.5064   -3.3584    0.0000 N   0  0  0  0  0  0  0  0  0  0  0  0
   -1.5064   -2.5334    0.0000 C   0  0  0  0  0  0  0  0  0  0  0  0
   -0.7919   -2.1209    0.0000 N   0  0  0  0  0  0  0  0  0  0  0  0
   -0.7919   -3.7709    0.0000 N   0  0  0  0  0  0  0  0  0  0  0  0
   -0.0774   -3.3584    0.0000 C   0  0  0  0  0  0  0  0  0  0  0  0
   -0.0774   -2.5334    0.0000 C   0  0  0  0  0  0  0  0  0  0  0  0
    0.6370   -2.1209    0.0000 C   0  0  0  0  0  0  0  0  0  0  0  0
    1.3515   -2.5334    0.0000 N   0  0  0  0  0  0  0  0  0  0  0  0
    1.3515   -3.3584    0.0000 C   0  0  0  0  0  0  0  0  0  0  0  0
    0.6370   -3.7709    0.0000 N   0  0  0  0  0  0  0  0  0  0  0  0
    2.0660   -3.7709    0.0000 O   0  0  0  0  0  0  0  0  0  0  0  0
    2.0660   -2.1209    0.0000 C   0  0  0  0  0  0  0  0  0  0  0  0
    0.6370   -1.2959    0.0000 O   0  0  0  0  0  0  0  0  0  0  0  0
   -0.7919   -4.5959    0.0000 C   0  0  0  0  0  0  0  0  0  0  0  0
   -1.5064   -5.0084    0.0000 C   0  0  0  0  0  0  0  0  0  0  0  0
  4  5  1  0  0  0  0
  1  5  1  0  0  0  0
 10 11  1  0  0  0  0
 11 12  1  0  0  0  0
  1  2  2  0  0  0  0
 12 13  1  0  0  0  0
  6  7  2  0  0  0  0
 13 14  1  0  0  0  0
  2  3  1  0  0  0  0
 14 15  1  0  0  0  0
 15 10  2  0  0  0  0
  7  8  1  0  0  0  0
 14 16  2  0  0  0  0
  8 11  2  0  0  0  0
 13 17  1  0  0  0  0
  3  4  2  0  0  0  0
 12 18  2  0  0  0  0
  7  1  1  0  0  0  0
 10  9  1  0  0  0  0
  9 19  1  0  0  0  0
  9  6  1  0  0  0  0
 19 20  1  0  0  0  0
M  END