
  SciTegic04201614442D

 31 34  0  0  0  0            999 V2000
   -2.3155    0.7475    0.0000 C   0  0
   -2.3155   -0.7475    0.0000 C   0  0
   -1.0028   -1.5132    0.0000 N   0  0
   -1.0028    1.5132    0.0000 C   0  0
    0.2917    0.7475    0.0000 C   0  0
    0.2917   -0.7475    0.0000 C   0  0
    1.7138   -1.2033    0.0000 N   0  0
    2.5889    0.0182    0.0000 N   0  0
    1.7138    1.2033    0.0000 C   0  0
   -3.6187   -1.4919    0.0000 O   0  0
   -3.6267   -2.9927    0.0000 C   0  0
   -4.9300   -3.7369    0.0000 C   0  0
   -4.9380   -5.2378    0.0000 N   0  0
   -5.9662   -3.1317    0.0000 O   0  0
   -6.2413   -5.9820    0.0000 C   0  0  2  0  0  0
   -6.2494   -7.4828    0.0000 C   0  0
   -7.2775   -5.3768    0.0000 C   0  0
   -7.5509   -8.2286    0.0000 C   0  0
   -7.5559   -9.7286    0.0000 C   0  0
   -6.2593  -10.4829    0.0000 C   0  0
   -4.9578   -9.7372    0.0000 C   0  0
   -4.9528   -8.2372    0.0000 C   0  0
    2.0907   -2.3426    0.0000 C   0  0
   -0.9991    2.7132    0.0000 C   0  0
    2.1749    2.6315    0.0000 C   0  0
    1.2517    3.8078    0.0000 C   0  0
    1.8114    5.1995    0.0000 N   0  0
    3.2965    5.4106    0.0000 C   0  0
    4.2218    4.2301    0.0000 C   0  0
    3.6621    2.8384    0.0000 N   0  0
   -6.2633  -11.6829    0.0000 C   0  0
  1  2  2  0
  2  3  1  0
  3  6  2  0
  5  4  2  0
  4  1  1  0
  5  6  1  0
  6  7  1  0
  7  8  1  0
  8  9  2  0
  9  5  1  0
  2 10  1  0
 10 11  1  0
 11 12  1  0
 12 13  1  0
 12 14  2  0
 13 15  1  0
 15 16  1  0
 15 17  1  6
 16 18  2  0
 18 19  1  0
 19 20  2  0
 20 21  1  0
 21 22  2  0
 22 16  1  0
  7 23  1  0
  4 24  1  0
 25 26  2  0
 26 27  1  0
 27 28  2  0
 28 29  1  0
 29 30  2  0
 30 25  1  0
  9 25  1  0
 20 31  1  0
M  END