
  Mrv0541 04051115152D          

 24 25  0  0  0  0            999 V2000
   -1.9234    4.2085    0.0000 O   0  0  0  0  0  0  0  0  0  0  0  0
   -1.2090    3.7960    0.0000 C   0  0  0  0  0  0  0  0  0  0  0  0
   -0.4945    4.2085    0.0000 O   0  0  0  0  0  0  0  0  0  0  0  0
   -1.2090    2.9710    0.0000 C   0  0  0  0  0  0  0  0  0  0  0  0
   -0.4945    2.5585    0.0000 O   0  0  0  0  0  0  0  0  0  0  0  0
   -0.4945    1.7335    0.0000 C   0  0  0  0  0  0  0  0  0  0  0  0
    0.2200    1.3210    0.0000 C   0  0  0  0  0  0  0  0  0  0  0  0
    0.2200    0.4960    0.0000 C   0  0  0  0  0  0  0  0  0  0  0  0
    0.9345    0.0835    0.0000 C   0  0  0  0  0  0  0  0  0  0  0  0
   -0.4945    0.0835    0.0000 C   0  0  0  0  0  0  0  0  0  0  0  0
   -1.2090    0.4960    0.0000 C   0  0  0  0  0  0  0  0  0  0  0  0
   -1.2090    1.3210    0.0000 C   0  0  0  0  0  0  0  0  0  0  0  0
   -1.9234    0.0835    0.0000 C   0  0  0  0  0  0  0  0  0  0  0  0
   -0.4945   -0.7415    0.0000 C   0  0  0  0  0  0  0  0  0  0  0  0
    0.2200   -1.1540    0.0000 C   0  0  0  0  0  0  0  0  0  0  0  0
    0.2200   -1.9790    0.0000 C   0  0  0  0  0  0  0  0  0  0  0  0
    0.9345   -2.3915    0.0000 C   0  0  0  0  0  0  0  0  0  0  0  0
    0.9345   -3.2165    0.0000 C   0  0  0  0  0  0  0  0  0  0  0  0
    1.6489   -3.6290    0.0000 C   0  0  0  0  0  0  0  0  0  0  0  0
    0.2200   -3.6290    0.0000 C   0  0  0  0  0  0  0  0  0  0  0  0
    1.6489   -1.9790    0.0000 C   0  0  0  0  0  0  0  0  0  0  0  0
    2.3634   -2.3915    0.0000 O   0  0  0  0  0  0  0  0  0  0  0  0
    1.6489   -1.1540    0.0000 C   0  0  0  0  0  0  0  0  0  0  0  0
    0.9345   -0.7415    0.0000 C   0  0  0  0  0  0  0  0  0  0  0  0
  2  3  2  0  0  0  0
  2  1  1  0  0  0  0
  4  2  1  0  0  0  0
  4  5  1  0  0  0  0
  6  5  1  0  0  0  0
  6  7  1  0  0  0  0
  7  8  2  0  0  0  0
  9  8  1  0  0  0  0
 10 11  2  0  0  0  0
  8 10  1  0  0  0  0
 11 12  1  0  0  0  0
  6 12  2  0  0  0  0
 13 11  1  0  0  0  0
 10 14  1  0  0  0  0
 15 24  1  0  0  0  0
 14 15  1  0  0  0  0
 16 15  2  0  0  0  0
 21 17  2  0  0  0  0
 17 16  1  0  0  0  0
 17 18  1  0  0  0  0
 18 20  1  0  0  0  0
 18 19  1  0  0  0  0
 23 21  1  0  0  0  0
 21 22  1  0  0  0  0
 23 24  2  0  0  0  0
M  END