
  SciTegic09251318272D

 73 80  0  0  0  0            999 V2000
    4.8277    3.4050    0.0000 C   0  0
    4.7335   -4.6144    0.0000 C   0  0  2  0  0  0
    5.5422    3.8175    0.0000 C   0  0
    4.8277    2.5800    0.0000 C   0  0
    3.5775   -3.7745    0.0000 C   0  0  2  0  0  0
    1.9698   -1.5450    0.0000 C   0  0  2  0  0  0
    4.9197   -6.7892    0.0000 C   0  0  2  0  0  0
    2.6843   -2.7825    0.0000 C   0  0  2  0  0  0
    5.0691   -5.3681    0.0000 C   0  0  2  0  0  0
    4.4348   -7.4567    0.0000 C   0  0  2  0  0  0
    1.2553   -1.1325    0.0000 C   0  0  1  0  0  0
    2.7705   -3.6030    0.0000 C   0  0  1  0  0  0
    5.5422    4.6425    0.0000 C   0  0
    4.7703   -8.2103    0.0000 C   0  0  2  0  0  0
    1.2553   -0.3075    0.0000 C   0  0  1  0  0  0
    4.1132    4.6425    0.0000 C   0  0
    4.1132    2.1675    0.0000 C   0  0
    4.1132    3.8175    0.0000 C   0  0
    6.2566    5.0550    0.0000 C   0  0
    3.9130   -4.5282    0.0000 O   0  0
    2.6843   -1.1325    0.0000 O   0  0
    3.9900   -3.0601    0.0000 O   0  0
    5.7402   -6.8755    0.0000 O   0  0
    4.8277    5.0550    0.0000 O   0  0
    1.9698   -2.3700    0.0000 O   0  0
    4.5842   -6.0356    0.0000 O   0  0
    5.2184   -3.9470    0.0000 C   0  0  1  0  0  0
    1.9698    0.1050    0.0000 C   0  0  1  0  0  0
    5.5908   -8.2966    0.0000 C   0  0  1  0  0  0
    6.9711    4.6425    0.0000 C   0  0
    2.6843   -0.3075    0.0000 C   0  0  2  0  0  0
    3.4379   -2.4470    0.0000 C   0  0  2  0  0  0
    6.2566    3.4050    0.0000 C   0  0
    6.0758   -7.6291    0.0000 C   0  0  2  0  0  0
    5.8896   -5.4544    0.0000 C   0  0  1  0  0  0
    4.1132    1.3425    0.0000 C   0  0
    3.3987    2.5800    0.0000 C   0  0
    3.3987    5.0550    0.0000 C   0  0
    6.9711    3.8175    0.0000 C   0  0
    6.0389   -4.0332    0.0000 C   0  0  1  0  0  0
    4.8277    0.1050    0.0000 C   0  0
    6.3745   -4.7869    0.0000 C   0  0
    4.8277    0.9300    0.0000 C   0  0
    2.6843    4.6425    0.0000 C   0  0
    5.5422    2.1675    0.0000 C   0  0
    4.1132   -0.3075    0.0000 N   0  0
    3.3987    3.4050    0.0000 C   0  0
    7.6856    5.0550    0.0000 N   0  0
    3.3987    0.1050    0.0000 C   0  0
    1.9698    5.0550    0.0000 N   0  0
    2.6843    2.1675    0.0000 O   0  0
    5.5422    1.3425    0.0000 C   0  0
    2.6843    3.8175    0.0000 C   0  0
    2.9138    3.2474    0.0000 O   0  0
    5.5422   -0.3075    0.0000 O   0  0
    0.5409   -1.5450    0.0000 N   0  0
    3.6143   -7.3704    0.0000 N   0  0
    2.1574   -4.1550    0.0000 O   0  0
    4.2854   -8.8778    0.0000 O   0  0
    0.5409    0.1050    0.0000 O   0  0
    6.2251   -6.2080    0.0000 N   0  0
    6.5238   -3.3658    0.0000 N   0  0
    4.8829   -3.1933    0.0000 O   0  0
    1.9698    0.9300    0.0000 O   0  0
    5.9264   -9.0503    0.0000 O   0  0
    3.6095   -1.6400    0.0000 C   0  0
    6.8962   -7.7154    0.0000 C   0  0
    7.3812   -7.0479    0.0000 O   0  0
    4.3941   -1.3851    0.0000 O   0  0
    7.6856    5.8800    0.0000 C   0  0
    8.4000    4.6425    0.0000 C   0  0
    1.9698    5.8800    0.0000 C   0  0
    1.2553    4.6425    0.0000 C   0  0
  2 20  1  6
  3  1  2  0
  4  1  1  0
  5 12  1  0
  6 21  1  0
  7 26  1  1
  8 25  1  6
  9  2  1  0
 10  7  1  0
 11 15  1  0
 12  8  1  0
 13  3  1  0
 14 10  1  0
 15 28  1  0
 16 18  1  0
 17  4  2  0
 18  1  1  0
 19 13  1  0
  5 20  1  1
 21 31  1  0
 22 32  1  0
 23  7  1  0
 24 16  1  0
  6 25  1  6
  9 26  1  1
 27  2  1  0
 28 31  1  0
 29 34  1  0
 30 39  1  0
 31 49  1  6
 32  8  1  0
 33  3  1  0
 34 23  1  0
 35  9  1  0
 36 17  1  0
 37 17  1  0
 38 16  2  0
 39 33  2  0
 40 27  1  0
 41 43  1  0
 42 40  1  0
 43 52  1  0
 44 53  2  0
 45  4  1  0
 46 41  1  0
 47 18  2  0
 48 30  1  0
 49 46  1  0
 50 44  1  0
 51 37  1  0
 52 45  2  0
 53 47  1  0
 54 37  2  0
 55 41  2  0
 11 56  1  6
 10 57  1  6
 12 58  1  6
 14 59  1  6
 15 60  1  6
 35 61  1  1
 40 62  1  6
 27 63  1  6
 28 64  1  6
 29 65  1  1
 32 66  1  1
 34 67  1  1
 68 67  1  0
 69 66  1  0
 70 48  1  0
 71 48  1  0
 72 50  1  0
 73 50  1  0
 24 13  1  0
 44 38  1  0
 36 43  2  0
 19 30  2  0
 11  6  1  0
 22  5  1  0
 42 35  1  0
 14 29  1  0
M  END