
  SciTegic10311316212D

 26 29  0  0  0  0            999 V2000
    4.8935  -26.6206    0.0000 C   0  0
    4.8923  -27.4401    0.0000 C   0  0
    5.6004  -27.8491    0.0000 C   0  0
    5.5986  -26.2117    0.0000 C   0  0
    6.3072  -26.6170    0.0000 C   0  0
    6.3075  -27.4356    0.0000 C   0  0
    7.0861  -27.6884    0.0000 S   0  0
    7.5671  -27.0259    0.0000 C   0  0
    7.0857  -26.3638    0.0000 C   0  0
    4.1888  -27.8473    0.0000 N   0  0
    3.4426  -27.5143    0.0000 C   0  0
    2.8953  -28.1212    0.0000 N   0  0
    3.3033  -28.8293    0.0000 N   0  0
    4.1028  -28.6599    0.0000 C   0  0
    4.7084  -29.2039    0.0000 C   0  0
    4.5364  -30.0039    0.0000 C   0  0
    5.1425  -30.5509    0.0000 C   0  0
    5.9208  -30.2991    0.0000 C   0  0
    6.0896  -29.4952    0.0000 C   0  0
    5.4822  -28.9517    0.0000 C   0  0
    3.2733  -26.7149    0.0000 S   0  0
    8.3823  -27.0235    0.0000 C   0  0
    8.7911  -27.7310    0.0000 O   0  0
    8.7906  -26.3156    0.0000 O   0  0
    7.3380  -25.5866    0.0000 Cl  0  0
    6.5284  -30.8456    0.0000 Br  0  0
  1  2  2  0
  2  3  1  0
  3  6  2  0
  5  4  2  0
  4  1  1  0
  5  6  1  0
  6  7  1  0
  7  8  1  0
  8  9  2  0
  9  5  1  0
 10 11  1  0
 11 12  2  0
 12 13  1  0
 13 14  2  0
 14 10  1  0
  2 10  1  0
 15 16  2  0
 16 17  1  0
 17 18  2  0
 18 19  1  0
 19 20  2  0
 20 15  1  0
 14 15  1  0
 11 21  1  0
 22 23  1  0
 22 24  2  0
  8 22  1  0
  9 25  1  0
 18 26  1  0
M  END