
  SciTegic08171211382D

147136  0  0  0  0            999 V2000
   -5.9455    1.8415    0.0000 O   0  0
   -5.9455    1.0165    0.0000 C   0  0  2  0  0  0
   -5.2311    0.6040    0.0000 C   0  0  2  0  0  0
   -5.2311   -0.2210    0.0000 C   0  0  1  0  0  0
   -4.5166   -0.6335    0.0000 O   0  0
   -5.9455   -0.6335    0.0000 C   0  0  2  0  0  0
   -5.9455   -1.4585    0.0000 O   0  0
   -6.6600   -0.2210    0.0000 C   0  0  2  0  0  0
   -6.6600    0.6040    0.0000 O   0  0
   -7.3745   -0.6335    0.0000 C   0  0
   -8.0889   -0.2210    0.0000 O   0  0
   -8.8034   -0.6335    0.0000 S   0  0
   -8.3909   -1.3480    0.0000 O   0  0
   -9.2159    0.0810    0.0000 O   0  0
   -9.5179   -1.0460    0.0000 O   0  5
   -6.6600   -1.8710    0.0000 S   0  0
   -7.0725   -1.1565    0.0000 O   0  0
   -6.2475   -2.5855    0.0000 O   0  0
   -7.3745   -2.2835    0.0000 O   0  5
   -4.5166   -1.4585    0.0000 S   0  0
   -3.6916   -1.4585    0.0000 O   0  0
   -4.5166   -2.2835    0.0000 O   0  0
   -5.3416   -1.4585    0.0000 O   0  5
   -6.6600    2.2540    0.0000 C   0  0
   -6.6600    3.0790    0.0000 C   0  0
   -7.3745    3.4915    0.0000 C   0  0
   -7.3745    4.3165    0.0000 C   0  0
   -6.6600    4.7290    0.0000 C   0  0
   -5.9455    4.3165    0.0000 C   0  0
   -5.9455    3.4915    0.0000 C   0  0
   -4.5166    1.0165    0.0000 O   0  0
   -1.6587    1.0165    0.0000 O   0  0
   -0.9442    0.6040    0.0000 C   0  0  2  0  0  0
   -0.2298    1.0165    0.0000 C   0  0  1  0  0  0
   -0.2298    1.8415    0.0000 O   0  0
    0.4847    0.6040    0.0000 C   0  0  1  0  0  0
    1.1992    1.0165    0.0000 O   0  0
    0.4847   -0.2210    0.0000 C   0  0  2  0  0  0
    1.1992   -0.6335    0.0000 O   0  0
   -0.2298   -0.6335    0.0000 C   0  0  2  0  0  0
   -0.9442   -0.2210    0.0000 O   0  0
   -0.2298   -1.4585    0.0000 C   0  0
    0.4847   -1.8710    0.0000 O   0  0
    0.4847   -2.6960    0.0000 S   0  0
   -0.3403   -2.6960    0.0000 O   0  0
    1.3097   -2.6960    0.0000 O   0  0
    0.4847   -3.5210    0.0000 O   0  5
    2.0042   -0.5591    0.0000 S   0  0
    2.6281    0.1915    0.0000 O   0  0
    2.3262   -0.9355    0.0000 O   0  0
    1.5012    0.4935    0.0000 O   0  5
    0.4847    2.2540    0.0000 S   0  0
    1.1992    2.6665    0.0000 O   0  0
    0.8972    1.5395    0.0000 O   0  0
    0.0722    2.9685    0.0000 O   0  5
    1.9137    0.6040    0.0000 C   0  0  2  0  0  0
    2.6281    1.0165    0.0000 C   0  0  1  0  0  0
    2.6281    1.8415    0.0000 O   0  0
    3.3426    0.6040    0.0000 C   0  0  1  0  0  0
    4.0571    1.0165    0.0000 O   0  0
    3.3426   -0.2210    0.0000 C   0  0  2  0  0  0
    4.0571   -0.6335    0.0000 O   0  0
    2.6281   -0.6335    0.0000 C   0  0  2  0  0  0
    1.9137   -0.2210    0.0000 O   0  0
    2.6281   -1.4585    0.0000 C   0  0
    3.3426   -1.8710    0.0000 O   0  0
    3.3426   -2.6960    0.0000 S   0  0
    2.5176   -2.6960    0.0000 O   0  0
    4.1676   -2.6960    0.0000 O   0  0
    3.3426   -3.5210    0.0000 O   0  5
    4.6809    0.1171    0.0000 S   0  0
    5.1840   -0.9355    0.0000 O   0  0
    4.3590    0.4935    0.0000 O   0  0
    5.4860    0.1915    0.0000 O   0  5
    3.3426    2.2540    0.0000 S   0  0
    4.0571    2.6665    0.0000 O   0  0
    3.7551    1.5395    0.0000 O   0  0
    2.9301    2.9685    0.0000 O   0  5
    4.7715    0.6040    0.0000 C   0  0  2  0  0  0
    5.4860    1.0165    0.0000 C   0  0  1  0  0  0
    5.4860    1.8415    0.0000 O   0  0
    6.2005    0.6040    0.0000 C   0  0  1  0  0  0
    6.9150    1.0165    0.0000 O   0  0
    6.2005   -0.2210    0.0000 C   0  0  2  0  0  0
    6.9150   -0.6335    0.0000 O   0  0
    5.4860   -0.6335    0.0000 C   0  0  2  0  0  0
    4.7715   -0.2210    0.0000 O   0  0
    5.4860   -1.4585    0.0000 C   0  0
    6.2005   -1.8710    0.0000 O   0  0
    6.2005   -2.6960    0.0000 S   0  0
    5.3755   -2.6960    0.0000 O   0  0
    7.0255   -2.6960    0.0000 O   0  0
    6.2005   -3.5210    0.0000 O   0  5
    7.6294   -0.2210    0.0000 S   0  0
    8.0419   -0.9355    0.0000 O   0  0
    7.2169    0.4935    0.0000 O   0  0
    8.4345   -0.1466    0.0000 O   0  5
    7.6294    0.6040    0.0000 S   0  0
    7.2169   -0.1105    0.0000 O   0  0
    8.0419    1.3185    0.0000 O   0  0
    8.3439    0.1915    0.0000 O   0  5
    6.2005    2.2540    0.0000 S   0  0
    6.9150    2.6665    0.0000 O   0  0
    6.6130    1.5395    0.0000 O   0  0
    5.7880    2.9685    0.0000 O   0  5
    0.4847    1.4290    0.0000 H   0  0
    4.7715    1.4290    0.0000 H   0  0
   -3.8021    0.6040    0.0000 C   0  0  2  0  0  0
   -3.0876    1.0165    0.0000 C   0  0  1  0  0  0
   -3.0876    1.8415    0.0000 O   0  0
   -2.3732    0.6040    0.0000 C   0  0  2  0  0  0
   -2.3732   -0.2210    0.0000 C   0  0  2  0  0  0
   -1.6587   -0.6335    0.0000 O   0  0
   -3.0876   -0.6335    0.0000 C   0  0  2  0  0  0
   -3.8021   -0.2210    0.0000 O   0  0
   -3.0876   -1.4585    0.0000 C   0  0
   -3.8021   -1.8710    0.0000 O   0  0
   -3.8021   -2.6960    0.0000 S   0  0
   -4.6271   -2.6960    0.0000 O   0  0
   -2.9771   -2.6960    0.0000 O   0  0
   -3.8021   -3.5210    0.0000 O   0  5
   -1.6587   -1.4585    0.0000 S   0  0
   -2.4837   -1.4585    0.0000 O   0  0
   -0.8337   -1.4585    0.0000 O   0  0
   -1.6587   -2.2835    0.0000 O   0  5
   -3.8021    2.2540    0.0000 S   0  0
   -4.2146    1.5395    0.0000 O   0  0
   -4.5166    2.6665    0.0000 O   0  0
   -3.3896    2.9685    0.0000 O   0  5
   -3.8021    1.4290    0.0000 H   0  0
   -2.3732    1.4290    0.0000 H   0  0
   10.6738    0.0000    0.0000 Na  0  3
   11.6756    0.0000    0.0000 Na  0  3
   12.6773    0.0000    0.0000 Na  0  3
   13.6791    0.0000    0.0000 Na  0  3
    0.0000   -5.1710    0.0000 Na  0  3
    1.0018   -5.1710    0.0000 Na  0  3
    2.0036   -5.1710    0.0000 Na  0  3
    3.0054   -5.1710    0.0000 Na  0  3
    4.0071   -5.1710    0.0000 Na  0  3
    0.0000   -6.8210    0.0000 Na  0  3
    1.0018   -6.8210    0.0000 Na  0  3
    2.0036   -6.8210    0.0000 Na  0  3
    3.0054   -6.8210    0.0000 Na  0  3
    4.0071   -6.8210    0.0000 Na  0  3
    0.0000   -8.4710    0.0000 Na  0  3
    1.0018   -8.4710    0.0000 Na  0  3
  2  3  1  0
  3  4  1  0
  4  5  1  1
  4  6  1  0
  6  7  1  6
  6  8  1  0
  8  9  1  0
  8 10  1  1
 10 11  1  0
 33 34  1  0
 34 35  1  1
 34 36  1  0
 36 37  1  0
 36 38  1  0
 38 39  1  6
 38 40  1  0
 40 41  1  0
 40 42  1  1
 42 43  1  0
 33 41  1  0
 44 45  2  0
 44 46  2  0
 44 47  1  0
 43 44  1  0
 48 49  2  0
 48 50  2  0
 48 51  1  0
 39 48  1  0
 52 53  2  0
 52 54  2  0
 52 55  1  0
 35 52  1  0
 56 57  1  0
 57 58  1  1
 57 59  1  0
 59 60  1  1
 59 61  1  0
 61 62  1  6
 61 63  1  0
 63 64  1  0
 63 65  1  1
 65 66  1  0
 56 64  1  0
 67 68  2  0
 67 69  2  0
 67 70  1  0
 66 67  1  0
 71 72  2  0
 71 73  2  0
 71 74  1  0
 62 71  1  0
 75 76  2  0
 75 77  2  0
 75 78  1  0
 58 75  1  0
 79 80  1  0
 80 81  1  1
 80 82  1  0
 82 83  1  1
 82 84  1  0
 84 85  1  6
 84 86  1  0
 86 87  1  0
 86 88  1  1
 88 89  1  0
 79 87  1  0
 90 91  2  0
 90 92  2  0
 90 93  1  0
 89 90  1  0
 94 95  2  0
 94 96  2  0
 94 97  1  0
 85 94  1  0
 98 99  2  0
 98100  2  0
 98101  1  0
 83 98  1  0
102103  2  0
102104  2  0
102105  1  0
 81102  1  0
 79 60  1  6
 56 37  1  6
 33 32  1  6
 36106  1  6
 79107  1  1
  2  9  1  0
 12 13  2  0
 12 14  2  0
 12 15  1  0
 11 12  1  0
 16 17  2  0
 16 18  2  0
 16 19  1  0
  7 16  1  0
 20 21  2  0
 20 22  2  0
 20 23  1  0
  5 20  1  0
 24 25  1  0
 25 26  1  0
 26 27  2  0
 27 28  1  0
 28 29  2  0
 29 30  1  0
 25 30  2  0
  1 24  1  0
  3 31  1  1
  2  1  1  6
108109  1  0
109110  1  1
109111  1  0
111 32  1  0
111112  1  0
112113  1  6
112114  1  0
114115  1  0
114116  1  1
116117  1  0
108115  1  0
118119  2  0
118120  2  0
118121  1  0
117118  1  0
122123  2  0
122124  2  0
122125  1  0
113122  1  0
126127  2  0
126128  2  0
126129  1  0
110126  1  0
 31108  1  0
108130  1  1
111131  1  6
M  CHG  8  15  -1  19  -1  23  -1  47  -1  51  -1  55  -1  70  -1  74  -1
M  CHG  8  78  -1  93  -1  97  -1 101  -1 105  -1 121  -1 125  -1 129  -1
M  CHG  8 132   1 133   1 134   1 135   1 136   1 137   1 138   1 139   1
M  CHG  8 140   1 141   1 142   1 143   1 144   1 145   1 146   1 147   1
M  END