
          01230816052D 1   1.00000     0.00000     0

 53 54  0     1  0            999 V2000
   -1.4211   -6.0277    0.0000 C   0  0  0  0  0  0           0  0  0
   -0.7047   -5.6144    0.0000 C   0  0  0  0  0  0           0  0  0
   -0.7076   -4.7839    0.0000 C   0  0  0  0  0  0           0  0  0
   -1.4240   -4.3759    0.0000 C   0  0  0  0  0  0           0  0  0
    0.0050   -4.3680    0.0000 O   0  0  0  0  0  0           0  0  0
    0.7214   -4.7771    0.0000 C   0  0  0  0  0  0           0  0  0
    1.4339   -4.3613    0.0000 C   0  0  0  0  0  0           0  0  0
    2.1503   -4.7704    0.0000 N   0  0  0  0  0  0           0  0  0
    1.4300   -3.5363    0.0000 O   0  0  0  0  0  0           0  0  0
    2.8628   -4.3545    0.0000 C   0  0  2  0  0  0           0  0  0
    3.5792   -4.7636    0.0000 C   0  0  0  0  0  0           0  0  0
    4.2917   -4.3478    0.0000 N   0  0  0  0  0  0           0  0  0
    3.5831   -5.5886    0.0000 O   0  0  0  0  0  0           0  0  0
    2.8589   -3.5295    0.0000 C   0  0  0  0  0  0           0  0  0
    3.5714   -3.1137    0.0000 C   0  0  0  0  0  0           0  0  0
    3.5675   -2.2887    0.0000 C   0  0  0  0  0  0           0  0  0
    4.2801   -1.8728    0.0000 C   0  0  0  0  0  0           0  0  0
    4.2762   -1.0478    0.0000 N   0  0  0  0  0  0           0  0  0
    5.0081   -4.7569    0.0000 C   0  0  2  0  0  0           0  0  0
    5.7207   -4.3410    0.0000 C   0  0  0  0  0  0           0  0  0
    5.0120   -5.5819    0.0000 C   0  0  3  0  0  0           0  0  0
    4.2995   -5.9978    0.0000 C   0  0  0  0  0  0           0  0  0
    5.7284   -5.9910    0.0000 C   0  0  0  0  0  0           0  0  0
    6.4371   -4.7502    0.0000 N   0  0  0  0  0  0           0  0  0
    5.7168   -3.5160    0.0000 O   0  0  0  0  0  0           0  0  0
    7.1496   -4.3343    0.0000 C   0  0  0  0  0  0           0  0  0
    7.8660   -4.7434    0.0000 C   0  0  0  0  0  0           0  0  0
    8.5785   -4.3275    0.0000 N   0  0  0  0  0  0           0  0  0
    7.8699   -5.5684    0.0000 O   0  0  0  0  0  0           0  0  0
    9.2949   -4.7367    0.0000 C   0  0  2  0  0  0           0  0  0
   10.0074   -4.3208    0.0000 C   0  0  0  0  0  0           0  0  0
    9.2988   -5.5617    0.0000 C   0  0  1  0  0  0           0  0  0
    8.5863   -5.9775    0.0000 C   0  0  0  0  0  0           0  0  0
   10.0152   -5.9708    0.0000 O   0  0  0  0  0  0           0  0  0
   10.7239   -4.7299    0.0000 N   0  0  0  0  0  0           0  0  0
   10.0035   -3.4958    0.0000 O   0  0  0  0  0  0           0  0  0
   11.4364   -4.3141    0.0000 C   0  0  2  0  0  0           0  0  0
   12.1528   -4.7232    0.0000 C   0  0  0  0  0  0           0  0  0
   11.4325   -3.4891    0.0000 C   0  0  0  0  0  0           0  0  0
   12.8653   -4.3073    0.0000 O   0  0  0  0  0  0           0  0  0
   13.5817   -4.7164    0.0000 C   0  0  0  0  0  0           0  0  0
   14.2942   -4.3006    0.0000 N   0  0  0  0  0  0           0  0  0
   13.5856   -5.5414    0.0000 O   0  0  0  0  0  0           0  0  0
   15.0106   -4.7097    0.0000 C   0  0  3  0  0  0           0  0  0
   15.7208   -5.1209    0.0000 C   0  0  0  0  0  0           0  0  0
   15.4219   -3.9945    0.0000 C   0  0  0  0  0  0           0  0  0
   14.6032   -5.4271    0.0000 C   0  0  0  0  0  0           0  0  0
   -2.1360   -5.6149    0.0000 C   0  0  0  0  0  0           0  0  0
   -2.1336   -4.7893    0.0000 C   0  0  0  0  0  0           0  0  0
   -2.8463   -4.3762    0.0000 C   0  0  0  0  0  0           0  0  0
   -3.5618   -4.7877    0.0000 C   0  0  0  0  0  0           0  0  0
   -3.5602   -5.6164    0.0000 C   0  0  0  0  0  0           0  0  0
   -2.8469   -6.0257    0.0000 C   0  0  0  0  0  0           0  0  0
 21 23  1  0     0  0
  7  8  1  0     0  0
 20 24  1  0     0  0
 20 25  2  0     0  0
  7  9  2  0     0  0
 24 26  1  0     0  0
 26 27  1  0     0  0
  8 10  1  0     0  0
 27 28  1  0     0  0
 27 29  2  0     0  0
 10 11  1  0     0  0
 30 28  1  6     0  0
  2  3  1  0     0  0
 30 31  1  0     0  0
 11 12  1  0     0  0
 30 32  1  0     0  0
 32 33  1  0     0  0
 11 13  2  0     0  0
 32 34  1  6     0  0
  3  4  2  0     0  0
 31 35  1  0     0  0
 10 14  1  1     0  0
 31 36  2  0     0  0
 14 15  1  0     0  0
 35 37  1  0     0  0
 37 38  1  0     0  0
 15 16  1  0     0  0
 37 39  1  1     0  0
 48  1  1  0     0  0
 38 40  1  0     0  0
 16 17  1  0     0  0
 40 41  1  0     0  0
  3  5  1  0     0  0
 41 42  1  0     0  0
 17 18  1  0     0  0
 41 43  2  0     0  0
 42 44  1  0     0  0
 12 19  1  0     0  0
 44 45  1  0     0  0
  5  6  1  0     0  0
 44 46  1  0     0  0
 19 20  1  0     0  0
 44 47  1  0     0  0
 49  4  1  0     0  0
 48 49  1  0     0  0
 19 21  1  6     0  0
 49 50  2  0     0  0
  6  7  1  0     0  0
 50 51  1  0     0  0
 21 22  1  0     0  0
 51 52  2  0     0  0
  1  2  2  0     0  0
 52 53  1  0     0  0
 53 48  2  0     0  0
M  END