
          11280715342D 1   1.00000     0.00000     0

 29 32  0     1  0            999 V2000
    7.5042   -2.2750    0.0000 C   0  0  3  0  0  0           0  0  0
    7.0917   -1.0000    0.0000 C   0  0  0  0  0  0           0  0  0
    7.9250   -1.0042    0.0000 C   0  0  0  0  0  0           0  0  0
    6.8417   -1.7875    0.0000 C   0  0  0  0  0  0           0  0  0
    8.1750   -1.7875    0.0000 C   0  0  0  0  0  0           0  0  0
    6.7917   -4.3375    0.0000 C   0  0  0  0  0  0           0  0  0
    6.0792   -4.7500    0.0000 N   0  0  0  0  0  0           0  0  0
    6.0792   -5.5750    0.0000 C   0  0  1  0  0  0           0  0  0
    6.7917   -5.9875    0.0000 C   0  0  0  0  0  0           0  0  0
    7.5042   -3.1000    0.0000 C   0  0  0  0  0  0           0  0  0
    6.7917   -3.5125    0.0000 O   0  0  0  0  0  0           0  0  0
    7.5125   -4.7500    0.0000 O   0  0  0  0  0  0           0  0  0
    5.3667   -5.9875    0.0000 C   0  0  0  0  0  0           0  0  0
    6.8000   -6.8125    0.0000 O   0  0  0  0  0  0           0  0  0
    7.5125   -5.5750    0.0000 O   0  0  0  0  0  0           0  0  0
    4.6542   -5.5750    0.0000 C   0  0  0  0  0  0           0  0  0
    8.4667   -0.3917    0.0000 C   0  0  0  0  0  0           0  0  0
    6.5500   -0.3875    0.0000 C   0  0  0  0  0  0           0  0  0
    6.0250   -1.9542    0.0000 C   0  0  0  0  0  0           0  0  0
    8.9750   -1.9542    0.0000 C   0  0  0  0  0  0           0  0  0
    4.6542   -4.7542    0.0000 C   0  0  0  0  0  0           0  0  0
    3.9417   -5.9917    0.0000 C   0  0  0  0  0  0           0  0  0
    9.5292   -1.3500    0.0000 C   0  0  0  0  0  0           0  0  0
    9.2750   -0.5667    0.0000 C   0  0  0  0  0  0           0  0  0
    5.7417   -0.5542    0.0000 C   0  0  0  0  0  0           0  0  0
    5.4792   -1.3375    0.0000 C   0  0  0  0  0  0           0  0  0
    3.2292   -5.5792    0.0000 C   0  0  0  0  0  0           0  0  0
    3.9417   -4.3417    0.0000 C   0  0  0  0  0  0           0  0  0
    3.2292   -4.7542    0.0000 C   0  0  0  0  0  0           0  0  0
  2  4  1  0     0  0
  3  5  2  0     0  0
  4  1  1  0     0  0
  5  1  1  0     0  0
  6 11  1  0     0  0
  7  6  1  0     0  0
  8  7  1  1     0  0
  9  8  1  0     0  0
 10  1  1  0     0  0
 11 10  1  0     0  0
 12  6  2  0     0  0
 13  8  1  0     0  0
 14  9  2  0     0  0
 15  9  1  0     0  0
 16 13  1  0     0  0
 17  3  1  0     0  0
 18  2  2  0     0  0
 19  4  2  0     0  0
 20  5  1  0     0  0
 21 16  2  0     0  0
 22 16  1  0     0  0
 23 20  2  0     0  0
 24 23  1  0     0  0
 25 26  2  0     0  0
 26 19  1  0     0  0
 27 22  2  0     0  0
 28 21  1  0     0  0
 29 27  1  0     0  0
  3  2  1  0     0  0
 24 17  2  0     0  0
 18 25  1  0     0  0
 28 29  2  0     0  0
M  END