
          11280715482D 1   1.00000     0.00000     0

 37 42  0     0  0            999 V2000
    4.1375   -0.9792    0.0000 C   0  0  0  0  0  0           0  0  0
    3.3792   -0.6375    0.0000 N   0  0  0  0  0  0           0  0  0
    2.8292   -1.2500    0.0000 C   0  0  0  0  0  0           0  0  0
    4.0417   -1.8000    0.0000 C   0  0  0  0  0  0           0  0  0
    3.2292   -1.9667    0.0000 N   0  0  0  0  0  0           0  0  0
    4.8542   -0.5667    0.0000 C   0  0  0  0  0  0           0  0  0
    7.7042   -0.5917    0.0000 C   0  0  0  0  0  0           0  0  0
    5.0792   -3.7167    0.0000 C   0  0  3  0  0  0           0  0  0
    8.4167   -1.0125    0.0000 C   0  0  0  0  0  0           0  0  0
    2.0042   -1.1542    0.0000 C   0  0  0  0  0  0           0  0  0
    5.5667   -0.9875    0.0000 N   0  0  0  0  0  0           0  0  0
    7.7125    0.2333    0.0000 C   0  0  0  0  0  0           0  0  0
    6.9917   -1.0042    0.0000 C   0  0  0  0  0  0           0  0  0
    5.6875   -5.2042    0.0000 C   0  0  3  0  0  0           0  0  0
    6.3917   -4.0542    0.0000 C   0  0  3  0  0  0           0  0  0
    5.2625   -4.9750    0.0000 C   0  0  3  0  0  0           0  0  0
    6.2792   -0.5792    0.0000 C   0  0  0  0  0  0           0  0  0
    4.8542    0.2583    0.0000 O   0  0  0  0  0  0           0  0  0
    4.6500   -2.3542    0.0000 C   0  0  0  0  0  0           0  0  0
    5.1125   -4.5792    0.0000 C   0  0  0  0  0  0           0  0  0
    4.7167   -4.3917    0.0000 C   0  0  0  0  0  0           0  0  0
    5.8417   -3.4417    0.0000 C   0  0  0  0  0  0           0  0  0
    8.4125   -1.8375    0.0000 O   0  0  0  0  0  0           0  0  0
    1.5250   -1.8167    0.0000 C   0  0  0  0  0  0           0  0  0
    4.4750   -3.1625    0.0000 C   0  0  0  0  0  0           0  0  0
    6.4500   -4.9250    0.0000 C   0  0  0  0  0  0           0  0  0
    5.2417   -5.9125    0.0000 C   0  0  0  0  0  0           0  0  0
    5.9625   -4.6917    0.0000 C   0  0  0  0  0  0           0  0  0
    6.9917    0.6458    0.0000 C   0  0  0  0  0  0           0  0  0
    9.1375   -0.6042    0.0000 O   0  0  0  0  0  0           0  0  0
    6.2792    0.2375    0.0000 C   0  0  0  0  0  0           0  0  0
    8.4292    0.6375    0.0000 F   0  0  0  0  0  0           0  0  0
    1.6792   -0.4000    0.0000 C   0  0  0  0  0  0           0  0  0
    1.8542   -2.5750    0.0000 C   0  0  0  0  0  0           0  0  0
    0.7042   -1.7292    0.0000 C   0  0  0  0  0  0           0  0  0
    0.8542   -0.3042    0.0000 C   0  0  0  0  0  0           0  0  0
    0.3667   -0.9750    0.0000 C   0  0  0  0  0  0           0  0  0
  2  1  1  0     0  0
  3  2  2  0     0  0
  4  1  2  0     0  0
  5  4  1  0     0  0
  6  1  1  0     0  0
  7 13  1  0     0  0
  8 25  1  0     0  0
  9  7  1  0     0  0
 10  3  1  0     0  0
 11  6  1  0     0  0
 12 29  1  0     0  0
 13 17  2  0     0  0
 14 20  1  0     0  0
 15 22  1  0     0  0
 16 21  1  0     0  0
 17 11  1  0     0  0
 18  6  2  0     0  0
 19  4  1  0     0  0
 20  8  1  0     0  0
 21  8  1  0     0  0
 22  8  1  0     0  0
 23  9  2  0     0  0
 24 10  1  0     0  0
 25 19  1  0     0  0
 26 15  1  0     0  0
 27 16  1  0     0  0
 28 15  1  0     0  0
 29 31  2  0     0  0
 30  9  1  0     0  0
 31 17  1  0     0  0
 32 12  1  0     0  0
 33 10  2  0     0  0
 34 24  1  0     0  0
 35 24  2  0     0  0
 36 33  1  0     0  0
 37 36  2  0     0  0
  3  5  1  0     0  0
  7 12  2  0     0  0
 35 37  1  0     0  0
 16 28  1  0     0  0
 14 26  1  0     0  0
 14 27  1  0     0  0
M  END