
  SciTegic12231509382D

 17 17  0  0  0  0            999 V2000
    3.0643    1.2132    0.0000 O   0  0
    5.9222   -1.2618    0.0000 O   0  0
    3.0643   -1.2618    0.0000 O   0  0
    7.3511   -0.4368    0.0000 N   0  0
    5.2077   -0.0243    0.0000 C   0  0
    3.7788   -0.0243    0.0000 C   0  0
    3.7788    0.8007    0.0000 C   0  0
    4.4932   -0.4368    0.0000 C   0  0
    5.9222   -0.4368    0.0000 C   0  0
    5.2077    0.8007    0.0000 C   0  0
    4.4932    1.2132    0.0000 C   0  0
    6.6366   -0.0243    0.0000 C   0  0
    3.0643   -0.4368    0.0000 C   0  0
    8.0656   -0.0243    0.0000 C   0  0
    8.7801    0.3882    0.0000 C   0  0
    8.4781   -0.7387    0.0000 C   0  0
    7.6531    0.6902    0.0000 C   0  0
  1  7  1  0
  2  9  1  0
  3 13  1  0
  4 12  1  0
  4 14  1  0
  5  8  2  0
  5  9  1  0
  5 10  1  0
  6  7  2  0
  6  8  1  0
  6 13  1  0
  7 11  1  0
  9 12  1  0
 10 11  2  0
 14 15  1  0
 14 16  1  0
 14 17  1  0
M  END