
  SciTegic01161211212D

 29 31  0  0  0  0            999 V2000
    5.3292    1.3750    0.0000 C   0  0
    5.3292    0.5500    0.0000 N   0  0
    6.0412    0.1417    0.0000 C   0  0
    6.7532    0.5500    0.0000 C   0  0
    6.7532    1.3750    0.0000 N   0  0
    6.0412    1.7917    0.0000 C   0  0
    4.6163    0.1360    0.0000 C   0  0
    3.9009    0.5492    0.0000 C   0  0
    3.1875    0.1363    0.0000 C   0  0
    3.1883   -0.6896    0.0000 C   0  0
    3.9084   -1.1009    0.0000 C   0  0
    4.6188   -0.6856    0.0000 C   0  0
    3.9005    1.3742    0.0000 O   0  0
    3.1859    1.7864    0.0000 C   0  0
    7.4689    1.7854    0.0000 C   0  0
    8.1821    1.3708    0.0000 C   0  0  1  0  0  0
    8.8978    1.7812    0.0000 C   0  0
    8.1797    0.5458    0.0000 C   0  0
    7.4615    0.1378    0.0000 C   0  0
    7.4587   -0.6864    0.0000 C   0  0
    8.1725   -1.1019    0.0000 C   0  0
    8.8906   -0.6870    0.0000 C   0  0
    8.8898    0.1358    0.0000 C   0  0
    9.6111    1.3666    0.0000 N   0  0
    8.9002    2.6062    0.0000 O   0  0
   10.3268    1.7770    0.0000 C   0  0
   11.0400    1.3624    0.0000 C   0  0
   10.3292    2.6020    0.0000 C   0  0
   11.0375    2.1958    0.0000 C   0  0
 13 14  1  0
  1  2  1  0
  5 15  1  0
  7  8  2  0
 15 16  1  0
  1  6  1  0
 16 17  1  1
  8  9  1  0
 16 18  1  0
  2  3  1  0
 18 19  2  0
  9 10  2  0
 19 20  1  0
  3  4  1  0
 20 21  2  0
 10 11  1  0
 21 22  1  0
  4  5  1  0
 22 23  2  0
 23 18  1  0
 11 12  2  0
 17 24  1  0
 12  7  1  0
 17 25  2  0
  2  7  1  0
 24 26  1  0
  5  6  1  0
 26 27  1  0
  8 13  1  0
 26 28  1  0
 26 29  1  0
M  END