
  Mrv0541 05211314572D          

 36 40  0  0  0  0            999 V2000
   -0.6572    0.5805    0.0000 C   0  0  0  0  0  0  0  0  0  0  0  0
    0.0573    0.1680    0.0000 C   0  0  0  0  0  0  0  0  0  0  0  0
    0.7718    0.5805    0.0000 C   0  0  0  0  0  0  0  0  0  0  0  0
    1.4862    0.1680    0.0000 N   0  0  0  0  0  0  0  0  0  0  0  0
    0.7718    1.4055    0.0000 O   0  0  0  0  0  0  0  0  0  0  0  0
    2.2007    0.5805    0.0000 C   0  0  0  0  0  0  0  0  0  0  0  0
    2.9152    0.1680    0.0000 C   0  0  0  0  0  0  0  0  0  0  0  0
    2.9152   -0.6570    0.0000 N   0  0  0  0  0  0  0  0  0  0  0  0
    2.2007   -1.0695    0.0000 C   0  0  0  0  0  0  0  0  0  0  0  0
    1.4862   -0.6570    0.0000 C   0  0  0  0  0  0  0  0  0  0  0  0
    3.6296   -1.0695    0.0000 C   0  0  0  0  0  0  0  0  0  0  0  0
    4.3441   -0.6570    0.0000 C   0  0  0  0  0  0  0  0  0  0  0  0
    5.0586   -1.0695    0.0000 C   0  0  0  0  0  0  0  0  0  0  0  0
    5.0586   -1.8945    0.0000 C   0  0  0  0  0  0  0  0  0  0  0  0
    4.3441   -2.3070    0.0000 C   0  0  0  0  0  0  0  0  0  0  0  0
    3.6296   -1.8945    0.0000 C   0  0  0  0  0  0  0  0  0  0  0  0
    5.7730   -2.3070    0.0000 N   0  3  0  0  0  0  0  0  0  0  0  0
    5.7730   -3.1320    0.0000 O   0  0  0  0  0  0  0  0  0  0  0  0
    6.4875   -1.8945    0.0000 O   0  5  0  0  0  0  0  0  0  0  0  0
   -1.3717    0.1680    0.0000 N   0  0  0  0  0  0  0  0  0  0  0  0
   -1.3717   -0.6570    0.0000 C   0  0  0  0  0  0  0  0  0  0  0  0
   -2.0861    0.5805    0.0000 C   0  0  0  0  0  0  0  0  0  0  0  0
   -2.8006    0.1680    0.0000 C   0  0  0  0  0  0  0  0  0  0  0  0
   -3.5151    0.5805    0.0000 N   0  0  0  0  0  0  0  0  0  0  0  0
   -4.8208    0.8580    0.0000 C   0  0  0  0  0  0  0  0  0  0  0  0
   -4.2688    0.2449    0.0000 C   0  0  0  0  0  0  0  0  0  0  0  0
   -4.5237   -0.5397    0.0000 C   0  0  0  0  0  0  0  0  0  0  0  0
   -5.3307   -0.7112    0.0000 C   0  0  0  0  0  0  0  0  0  0  0  0
   -5.8827   -0.0981    0.0000 C   0  0  0  0  0  0  0  0  0  0  0  0
   -5.6278    0.6865    0.0000 C   0  0  0  0  0  0  0  0  0  0  0  0
   -3.6013    1.4010    0.0000 C   0  0  0  0  0  0  0  0  0  0  0  0
   -4.4083    1.5725    0.0000 C   0  0  0  0  0  0  0  0  0  0  0  0
   -4.6632    2.3571    0.0000 C   0  0  0  0  0  0  0  0  0  0  0  0
   -4.1112    2.9702    0.0000 C   0  0  0  0  0  0  0  0  0  0  0  0
   -3.3042    2.7987    0.0000 C   0  0  0  0  0  0  0  0  0  0  0  0
   -3.0493    2.0141    0.0000 C   0  0  0  0  0  0  0  0  0  0  0  0
  7  8  1  0  0  0  0
 17 18  2  0  0  0  0
 17 19  1  0  0  0  0
 14 17  1  0  0  0  0
  8  9  1  0  0  0  0
  1 20  1  0  0  0  0
  9 10  1  0  0  0  0
 20 21  1  0  0  0  0
  4  6  1  0  0  0  0
 20 22  1  0  0  0  0
  8 11  1  0  0  0  0
 22 23  1  0  0  0  0
  2  3  1  0  0  0  0
 23 24  1  0  0  0  0
 24 26  1  0  0  0  0
 25 32  1  0  0  0  0
 31 24  1  0  0  0  0
 25 26  2  0  0  0  0
 11 12  2  0  0  0  0
  1  2  1  0  0  0  0
 12 13  1  0  0  0  0
  3  4  1  0  0  0  0
 13 14  2  0  0  0  0
 25 30  1  0  0  0  0
 26 27  1  0  0  0  0
 27 28  2  0  0  0  0
 28 29  1  0  0  0  0
 29 30  2  0  0  0  0
 31 32  2  0  0  0  0
 14 15  1  0  0  0  0
  3  5  2  0  0  0  0
 15 16  2  0  0  0  0
 16 11  1  0  0  0  0
  4 10  1  0  0  0  0
  6  7  1  0  0  0  0
 31 36  1  0  0  0  0
 32 33  1  0  0  0  0
 33 34  2  0  0  0  0
 34 35  1  0  0  0  0
 35 36  2  0  0  0  0
M  CHG  2  17   1  19  -1
M  END