
  SciTegic04021211102D

 35 38  0  0  0  0            999 V2000
   -6.6736  -22.5500    0.0000 C   0  0
   -6.6724  -23.3773    0.0000 C   0  0
   -5.9544  -23.7902    0.0000 C   0  0
   -5.2380  -23.3769    0.0000 C   0  0
   -5.2409  -22.5463    0.0000 C   0  0
   -5.9562  -22.1372    0.0000 C   0  0
   -5.9546  -24.6152    0.0000 C   0  0
   -5.9587  -21.3122    0.0000 N   0  0
   -5.2924  -20.8266    0.0000 C   0  0
   -5.5495  -20.0410    0.0000 C   0  0
   -6.3823  -20.0451    0.0000 C   0  0
   -6.6323  -20.8319    0.0000 N   0  0
   -6.7963  -19.3347    0.0000 C   0  0
   -6.3936  -18.6163    0.0000 C   0  0
   -7.6214  -19.3426    0.0000 C   0  0
   -7.1430  -18.5787    0.0000 C   0  0
   -4.5766  -21.2368    0.0000 N   0  0
   -3.8634  -20.8221    0.0000 C   0  0
   -3.1477  -21.2324    0.0000 N   0  0
   -3.8660  -19.9971    0.0000 O   0  0
   -2.4426  -19.9944    0.0000 N   0  0
   -2.4345  -20.8176    0.0000 C   0  0
   -1.6490  -21.0644    0.0000 S   0  0
   -1.1716  -20.3936    0.0000 C   0  0
   -1.6611  -19.7321    0.0000 C   0  0
   -1.6574  -18.9071    0.0000 C   0  0
   -0.9410  -18.4979    0.0000 C   0  0
   -0.9372  -17.6729    0.0000 O   0  0
   -0.2209  -17.2637    0.0000 C   0  0
    0.4917  -17.6795    0.0000 C   0  0
    0.4842  -18.5027    0.0000 C   0  0
    1.1960  -18.9184    0.0000 N   0  0
    1.9133  -18.5091    0.0000 C   0  0
    1.9145  -17.6799    0.0000 C   0  0
    1.2021  -17.2679    0.0000 C   0  0
  9 17  1  0
  9 10  2  0
 17 18  1  0
 18 19  1  0
  4  5  1  0
 18 20  2  0
 19 22  1  0
 21 22  2  0
  2  3  1  0
  5  6  2  0
  8  9  1  0
 10 11  1  0
 11 12  2  0
 22 23  1  0
 23 24  1  0
 24 25  2  0
 25 21  1  0
 12  8  1  0
 25 26  1  0
  6  1  1  0
 26 27  1  0
 11 13  1  0
 27 28  1  0
  1  2  2  0
 28 29  1  0
 13 14  1  0
 29 30  1  0
  3  7  1  0
 30 31  2  0
 13 15  1  0
 31 32  1  0
  3  4  2  0
 32 33  2  0
 13 16  1  0
 33 34  1  0
  6  8  1  0
 34 35  2  0
 35 30  1  0
M  END