
  SciTegic11201309402D

111120  0  0  0  0            999 V2000
   -5.3994  -16.4460    0.0000 C   0  0
   -5.3529  -18.1001    0.0000 O   0  0
   -1.5867  -14.3289    0.0000 N   0  0
   -2.4097  -14.3419    0.0000 C   0  0
   -2.8101  -15.0632    0.0000 N   0  0
   -2.8342  -13.6344    0.0000 S   0  0
   -3.6350  -15.0771    0.0000 C   0  0
   -4.0537  -14.3691    0.0000 C   0  0
   -4.8779  -14.3826    0.0000 C   0  0
   -4.0274  -15.7972    0.0000 C   0  0
   -4.8501  -15.8142    0.0000 C   0  0
   -5.2808  -15.1001    0.0000 C   0  0
   -6.0987  -15.2890    0.0000 C   0  0
   -6.1689  -16.1199    0.0000 O   0  0
   -6.7168  -14.7488    0.0000 O   0  0
   -4.6700  -16.8348    0.0000 C   0  0
   -4.6507  -17.6641    0.0000 C   0  0
   -3.9240  -18.0603    0.0000 C   0  0
   -3.2161  -17.6283    0.0000 C   0  0
   -3.2394  -16.7959    0.0000 C   0  0
   -3.9666  -16.4034    0.0000 C   0  0
   -6.0859  -17.7050    0.0000 C   0  0
   -6.1061  -16.8829    0.0000 C   0  0
   -6.8263  -16.4921    0.0000 C   0  0
   -7.5257  -16.9223    0.0000 C   0  0
   -7.5011  -17.7475    0.0000 C   0  0
   -6.7814  -18.1345    0.0000 C   0  0
   -2.4910  -18.0219    0.0000 O   0  0
   -8.2081  -18.1820    0.0000 O   0  0
    7.6776  -15.4922    0.0000 C   0  0
    8.5024  -15.4753    0.0000 N   0  0
    7.2798  -16.2149    0.0000 O   0  0
    8.9295  -16.1812    0.0000 C   0  0  2  0  0  0
    9.7543  -16.1643    0.0000 C   0  0
    8.5317  -16.9039    0.0000 C   0  0  1  0  0  0
    7.7068  -16.9208    0.0000 C   0  0
    8.9587  -17.6098    0.0000 O   0  0
   10.1813  -16.8702    0.0000 N   0  0
   10.1521  -15.4415    0.0000 O   0  0
    6.4308  -14.8021    0.0000 N   0  0
    7.2510  -14.7865    0.0000 C   0  0  1  0  0  0
    7.4894  -14.0014    0.0000 C   0  0
    6.8164  -13.5320    0.0000 C   0  0
    6.1622  -14.0271    0.0000 C   0  0
   11.0062  -16.8533    0.0000 C   0  0  2  0  0  0
   11.4332  -17.5592    0.0000 C   0  0
   11.4040  -16.1305    0.0000 C   0  0
   11.0354  -18.2819    0.0000 O   0  0
   12.2555  -17.5423    0.0000 N   0  0
   12.2684  -18.3659    0.0000 C   0  0
   13.0556  -18.6130    0.0000 C   0  0
   13.5338  -17.9406    0.0000 C   0  0
   13.0424  -17.2766    0.0000 C   0  0  1  0  0  0
   13.4136  -16.5398    0.0000 C   0  0
   14.2365  -16.4930    0.0000 N   0  0
   12.9611  -15.8500    0.0000 O   0  0
   14.5349  -17.2615    0.0000 C   0  0
   15.3587  -17.2172    0.0000 C   0  0
   15.5712  -16.4200    0.0000 C   0  0
   14.8790  -15.9704    0.0000 C   0  0  1  0  0  0
   14.5701  -15.2055    0.0000 C   0  0
   15.0765  -14.5469    0.0000 N   0  0
   13.7532  -15.0905    0.0000 O   0  0
    7.9297  -16.2017    0.0000 H   0  0
    6.0388  -15.5280    0.0000 C   0  0
    5.2141  -15.5515    0.0000 C   0  0
    6.4714  -16.2305    0.0000 O   0  0
    4.7815  -14.8490    0.0000 N   0  0
   14.6562  -13.8372    0.0000 C   0  0  2  0  0  0
   13.8313  -13.8458    0.0000 C   0  0
   15.0603  -13.1186    0.0000 C   0  0
   15.8846  -13.0843    0.0000 C   0  0
   16.3264  -13.7810    0.0000 C   0  0
   15.9455  -14.5131    0.0000 O   0  0
   17.1522  -13.7478    0.0000 O   0  0
   13.4109  -13.1358    0.0000 N   0  0
   13.4263  -14.5646    0.0000 O   0  0
    3.9568  -14.8725    0.0000 C   0  0
    3.5244  -14.1698    0.0000 C   0  0  2  0  0  0
    3.5648  -15.5984    0.0000 O   0  0
    3.7908  -13.3935    0.0000 C   0  0
    3.1327  -12.8960    0.0000 C   0  0
    2.4562  -13.3683    0.0000 C   0  0
    2.6951  -14.1575    0.0000 N   0  0
    1.9973  -14.5976    0.0000 C   0  0
    1.2673  -14.2134    0.0000 C   0  0
    2.0296  -15.4220    0.0000 O   0  0
    0.5695  -14.6536    0.0000 C   0  0
   -0.1606  -14.2693    0.0000 C   0  0
   -0.8584  -14.7095    0.0000 C   0  0
    4.7750  -14.0208    0.0000 C   0  0
    5.4862  -13.6027    0.0000 C   0  0
    5.4801  -12.7777    0.0000 C   0  0
    6.1790  -12.4140    0.0000 C   0  0
    6.2150  -11.5898    0.0000 C   0  0
    6.9468  -11.2089    0.0000 C   0  0
    6.9829  -10.3847    0.0000 C   0  0
    7.7147  -10.0038    0.0000 C   0  0
    8.4105  -10.4471    0.0000 C   0  0
    9.1423  -10.0662    0.0000 C   0  0
    9.8380  -10.5095    0.0000 C   0  0
   10.5699  -10.1286    0.0000 C   0  0
   11.2656  -10.5720    0.0000 C   0  0
   11.2296  -11.3962    0.0000 C   0  0
   13.8167  -12.4167    0.0000 C   0  0
   14.5292  -12.0000    0.0000 C   0  0
   15.2459  -12.4085    0.0000 O   0  0
   14.5246  -11.1750    0.0000 N   0  0
   15.6507  -15.3344    0.0000 H   0  0
   14.0388  -17.1915    0.0000 H   0  0
    8.2433  -14.6624    0.0000 H   0  0
 26 27  2  0
 27 22  1  0
 22  2  1  0
 57 58  1  0
 58 59  1  0
 59 60  1  0
 60 55  1  0
 19 28  1  0
 60 61  1  0
  4  6  2  0
 61 62  1  0
 26 29  1  0
 61 63  2  0
 12 13  1  0
 33 64  1  1
 41 30  1  0
 40 65  1  0
 13 14  1  0
 65 66  1  0
 30 31  1  0
 65 67  2  0
 14  1  1  0
 66 68  1  0
 30 32  2  0
 62 69  1  0
  1 11  1  0
 69 70  1  0
 31 33  1  0
 69 71  1  6
  2 17  1  0
 71 72  1  0
 33 34  1  0
 72 73  1  0
 13 15  2  0
 33 35  1  0
 73 74  1  0
 73 75  2  0
  5  7  1  0
 70 76  1  0
 35 36  1  6
 70 77  2  0
 35 37  1  0
 16 17  2  0
 34 38  1  0
  7  8  2  0
 68 78  1  0
 34 39  2  0
 79 78  1  1
 40 41  1  0
 78 80  2  0
 17 18  1  0
  1 23  1  0
 18 19  2  0
  8  9  1  0
 79 81  1  0
 19 20  1  0
 41 42  1  0
 42 43  1  0
 43 44  1  0
 81 82  1  0
 82 83  1  0
 83 84  1  0
 84 79  1  0
 44 40  1  0
 84 85  1  0
  9 12  2  0
 85 86  1  0
 38 45  1  0
 85 87  2  0
 20 21  2  0
 86 88  1  0
 45 46  1  0
 88 89  1  0
 21 16  1  0
 89 90  1  0
 90  3  1  0
 45 47  1  1
  3  4  1  0
 68 91  1  0
 46 48  2  0
 91 92  1  0
 11 10  2  0
 92 93  1  0
 46 49  1  0
 93 94  1  0
 49 50  1  0
 22 23  2  0
 10  7  1  0
 23 24  1  0
 94 95  1  0
 11 12  1  0
 95 96  1  0
 50 51  1  0
 96 97  1  0
 51 52  1  0
 97 98  2  0
 52 53  1  0
 98 99  1  0
 53 49  1  0
 99100  1  0
 24 25  2  0
100101  1  0
 53 54  1  0
101102  1  0
  1 16  1  0
102103  1  0
 54 55  1  0
103104  1  0
104 76  1  0
 25 26  1  0
 76105  1  0
 54 56  2  0
105106  1  0
 55 57  1  0
106107  2  0
  4  5  1  0
106108  1  0
 60109  1  1
 53110  1  1
 41111  1  6
M  END