
  SciTegic06231514002D

 30 27  0  0  0  0            999 V2000
    0.0000    0.0000    0.0000 Na  0  3
    4.3827    1.1000    0.0000 C   0  0  2  0  0  0
    5.0972    0.6875    0.0000 C   0  0  2  0  0  0
    5.0972   -0.1375    0.0000 C   0  0  1  0  0  0
    4.3827   -0.5500    0.0000 C   0  0  1  0  0  0
    3.6682   -0.1375    0.0000 C   0  0  2  0  0  0
    3.6682    0.6875    0.0000 O   0  0
    2.9538   -0.5500    0.0000 O   0  0
    5.8116    1.1000    0.0000 O   0  0
    4.3827   -1.3750    0.0000 O   0  0
    5.8116   -0.5500    0.0000 O   0  0
    4.3827    1.9250    0.0000 C   0  0
    2.2393   -0.1375    0.0000 C   0  0
    3.6682   -1.7875    0.0000 S   0  0
    2.9538   -2.2000    0.0000 O   0  5
    4.0807   -2.5020    0.0000 O   0  0
    3.2557   -1.0730    0.0000 O   0  0
    5.8116   -1.3750    0.0000 S   0  0
    4.9866   -1.3750    0.0000 O   0  5
    6.6366   -1.3750    0.0000 O   0  0
    5.8116   -2.2000    0.0000 O   0  0
    6.5261    0.6875    0.0000 S   0  0
    6.1136   -0.0270    0.0000 O   0  5
    6.9386    1.4020    0.0000 O   0  0
    7.2406    0.2750    0.0000 O   0  0
    5.0972    2.3375    0.0000 N   0  0
    5.0972    3.1625    0.0000 N   0  3
    5.0972    3.9875    0.0000 N   0  5
    0.0000   -4.1520    0.0000 Na  0  3
    1.0018   -4.1520    0.0000 Na  0  3
 14 16  2  0
  2  3  1  0
 14 17  2  0
  3  9  1  1
  2  7  1  0
 11 18  1  0
  5 10  1  6
 18 19  1  0
  3  4  1  0
 18 20  2  0
  4 11  1  6
 18 21  2  0
  4  5  1  0
  2 12  1  6
  9 22  1  0
  5  6  1  0
 22 23  1  0
  8 13  1  0
 22 24  2  0
  6  7  1  0
 22 25  2  0
 10 14  1  0
 12 26  1  0
 14 15  1  0
 26 27  2  0
  6  8  1  1
 27 28  2  0
M  CHG  8   1   1  15  -1  19  -1  23  -1  27   1  28  -1  29   1  30   1
M  END