
          11280715272D 1   1.00000     0.00000     0

 50 52  0     0  0            999 V2000
    1.7500   -8.5292    0.0000 N   0  0  3  0  0  0           0  0  0
    1.6042   -9.3417    0.0000 C   0  0  0  0  0  0           0  0  0
    2.9625   -9.9292    0.0000 C   0  0  0  0  0  0           0  0  0
    2.1292   -9.9667    0.0000 C   0  0  0  0  0  0           0  0  0
    2.4667   -8.1417    0.0000 C   0  0  0  0  0  0           0  0  0
    3.4500   -9.2625    0.0000 N   0  0  0  0  0  0           0  0  0
    3.2292   -8.4667    0.0000 C   0  0  0  0  0  0           0  0  0
    1.0292   -8.1250    0.0000 C   0  0  0  0  0  0           0  0  0
    3.1750   -3.5792    0.0000 C   0  0  0  0  0  0           0  0  0
   11.0167   -3.1542    0.0000 C   0  0  0  0  0  0           0  0  0
    2.3750   -7.3292    0.0000 N   0  0  0  0  0  0           0  0  0
    3.3542  -10.6542    0.0000 O   0  0  0  0  0  0           0  0  0
    3.8875   -3.1667    0.0000 N   0  0  3  0  0  0           0  0  0
   10.3042   -3.5667    0.0000 N   0  0  3  0  0  0           0  0  0
    0.3167   -8.5375    0.0000 O   0  0  0  0  0  0           0  0  0
    3.1750   -4.4042    0.0000 O   0  0  0  0  0  0           0  0  0
   11.0167   -2.3292    0.0000 O   0  0  0  0  0  0           0  0  0
    1.8667  -10.7375    0.0000 C   0  0  0  0  0  0           0  0  0
    0.8000   -9.4917    0.0000 C   0  0  0  0  0  0           0  0  0
    1.0292   -4.8250    0.0000 N   0  0  0  0  0  0           0  0  0
   12.4542   -5.6250    0.0000 N   0  0  0  0  0  0           0  0  0
    1.0292   -7.3000    0.0000 C   0  0  0  0  0  0           0  0  0
    3.8917   -7.9792    0.0000 C   0  0  0  0  0  0           0  0  0
    2.4542   -3.1667    0.0000 C   0  0  0  0  0  0           0  0  0
   11.7292   -3.5667    0.0000 C   0  0  0  0  0  0           0  0  0
    3.0292   -6.8292    0.0000 C   0  0  0  0  0  0           0  0  0
    9.5917   -3.1542    0.0000 C   0  0  0  0  0  0           0  0  0
    4.6042   -3.5792    0.0000 C   0  0  0  0  0  0           0  0  0
   10.3042   -4.3917    0.0000 C   0  0  0  0  0  0           0  0  0
    3.8875   -2.3417    0.0000 C   0  0  0  0  0  0           0  0  0
    1.0292   -5.6500    0.0000 C   0  0  0  0  0  0           0  0  0
    0.3167   -4.4125    0.0000 C   0  0  0  0  0  0           0  0  0
   12.4500   -4.8000    0.0000 C   0  0  0  0  0  0           0  0  0
    0.3167   -6.8875    0.0000 C   0  0  0  0  0  0           0  0  0
    1.7417   -3.5792    0.0000 C   0  0  0  0  0  0           0  0  0
   12.4417   -3.1500    0.0000 C   0  0  0  0  0  0           0  0  0
    5.3167   -3.1667    0.0000 C   0  0  0  0  0  0           0  0  0
    8.8792   -3.5667    0.0000 C   0  0  0  0  0  0           0  0  0
    0.3167   -3.5875    0.0000 C   0  0  0  0  0  0           0  0  0
    0.3167   -6.0625    0.0000 C   0  0  0  0  0  0           0  0  0
   13.1625   -4.3792    0.0000 C   0  0  0  0  0  0           0  0  0
    3.7917   -7.1625    0.0000 C   0  0  0  0  0  0           0  0  0
    1.0625  -10.8917    0.0000 C   0  0  0  0  0  0           0  0  0
    0.5250  -10.2625    0.0000 C   0  0  0  0  0  0           0  0  0
    7.4542   -3.5750    0.0000 C   0  0  0  0  0  0           0  0  0
    8.1667   -3.1625    0.0000 C   0  0  0  0  0  0           0  0  0
    1.0292   -3.1750    0.0000 C   0  0  0  0  0  0           0  0  0
   13.1542   -3.5625    0.0000 C   0  0  0  0  0  0           0  0  0
    6.0292   -3.5750    0.0000 C   0  0  0  0  0  0           0  0  0
    6.7417   -3.1625    0.0000 C   0  0  0  0  0  0           0  0  0
  2  1  1  0     0  0
  3  4  1  0     0  0
  4  2  2  0     0  0
  5  1  1  0     0  0
  6  7  1  0     0  0
  7  5  2  0     0  0
  8  1  1  0     0  0
  9 24  1  0     0  0
 10 14  1  0     0  0
 11  5  1  0     0  0
 12  3  2  0     0  0
 13  9  1  0     0  0
 14 27  1  0     0  0
 15  8  2  0     0  0
 16  9  2  0     0  0
 17 10  2  0     0  0
 18  4  1  0     0  0
 19  2  1  0     0  0
 20 31  1  0     0  0
 21 33  1  0     0  0
 22  8  1  0     0  0
 23  7  1  0     0  0
 24 35  1  0     0  0
 25 10  1  0     0  0
 26 11  2  0     0  0
 27 38  1  0     0  0
 28 13  1  0     0  0
 29 14  1  0     0  0
 30 13  1  0     0  0
 31 40  1  0     0  0
 32 20  1  0     0  0
 33 41  1  0     0  0
 34 22  1  0     0  0
 35 47  1  0     0  0
 36 25  1  0     0  0
 37 28  1  0     0  0
 38 46  1  0     0  0
 39 32  1  0     0  0
 40 34  1  0     0  0
 41 48  1  0     0  0
 42 26  1  0     0  0
 43 44  1  0     0  0
 44 19  2  0     0  0
 45 50  1  0     0  0
 46 45  1  0     0  0
 47 39  1  0     0  0
 48 36  1  0     0  0
 49 37  1  0     0  0
 50 49  1  0     0  0
  3  6  1  0     0  0
 42 23  2  0     0  0
 18 43  2  0     0  0
M  END