
          05080814042D 1   1.00000     0.00000     0

 39 44  0     1  0            999 V2000
    8.1577  -15.3909    0.0000 C   0  0  0  0  0  0           0  0  0
    8.1565  -16.2167    0.0000 C   0  0  0  0  0  0           0  0  0
    8.8700  -16.6287    0.0000 C   0  0  0  0  0  0           0  0  0
    8.8682  -14.9789    0.0000 C   0  0  0  0  0  0           0  0  0
    9.5822  -15.3873    0.0000 C   0  0  0  0  0  0           0  0  0
    9.5856  -16.2187    0.0000 C   0  0  0  0  0  0           0  0  0
   10.3034  -16.6292    0.0000 C   0  0  0  0  0  0           0  0  0
   10.2966  -14.9663    0.0000 C   0  0  0  0  0  0           0  0  0
   11.0190  -15.3814    0.0000 C   0  0  2  0  0  0           0  0  0
   11.0200  -16.2145    0.0000 C   0  0  2  0  0  0           0  0  0
   11.7381  -16.6278    0.0000 N   0  0  3  0  0  0           0  0  0
   12.4597  -16.2127    0.0000 C   0  0  0  0  0  0           0  0  0
   12.4586  -15.3795    0.0000 C   0  0  1  0  0  0           0  0  0
   11.7360  -14.9616    0.0000 C   0  0  0  0  0  0           0  0  0
   11.7380  -17.4512    0.0000 C   0  0  0  0  0  0           0  0  0
   13.1716  -14.9676    0.0000 C   0  0  0  0  0  0           0  0  0
   13.8848  -15.3791    0.0000 N   0  0  3  0  0  0           0  0  0
   13.1714  -14.1442    0.0000 O   0  0  0  0  0  0           0  0  0
   13.8792  -16.2073    0.0000 C   0  0  0  0  0  0           0  0  0
   14.5883  -16.6187    0.0000 C   0  0  0  0  0  0           0  0  0
   15.3038  -16.2103    0.0000 N   0  0  3  0  0  0           0  0  0
   15.3056  -15.3860    0.0000 C   0  0  0  0  0  0           0  0  0
   14.5918  -14.9700    0.0000 C   0  0  0  0  0  0           0  0  0
   11.0119  -17.0377    0.0000 H   0  0  0  0  0  0           0  0  0
   11.0119  -14.5550    0.0000 H   0  0  0  0  0  0           0  0  0
   16.0154  -16.6245    0.0000 C   0  0  0  0  0  0           0  0  0
   16.0091  -17.4463    0.0000 C   0  0  0  0  0  0           0  0  0
   16.7198  -17.8605    0.0000 C   0  0  0  0  0  0           0  0  0
   16.7242  -16.2131    0.0000 N   0  0  0  0  0  0           0  0  0
    8.8656  -14.1550    0.0000 O   0  0  0  0  0  0           0  0  0
    8.1513  -13.7455    0.0000 S   0  0  3  0  0  0           0  0  0
   18.2207  -16.3721    0.0000 N   0  0  0  0  0  0           0  0  0
   17.4356  -16.6235    0.0000 C   0  0  0  0  0  0           0  0  0
   17.4332  -17.4485    0.0000 C   0  0  0  0  0  0           0  0  0
   18.2178  -17.7044    0.0000 N   0  0  0  0  0  0           0  0  0
   18.7023  -17.0367    0.0000 S   0  0  0  0  0  0           0  0  0
    7.4355  -13.3324    0.0000 C   0  0  0  0  0  0           0  0  0
    7.7407  -14.4592    0.0000 O   0  0  0  0  0  0           0  0  0
    8.5644  -13.0332    0.0000 O   0  0  0  0  0  0           0  0  0
 17 19  1  0     0  0
  9  8  1  0     0  0
  9 10  1  0     0  0
  5  4  2  0     0  0
  4  1  1  0     0  0
  5  6  1  0     0  0
 17 23  1  0     0  0
 19 20  1  0     0  0
 20 21  1  0     0  0
 21 22  1  0     0  0
 22 23  1  0     0  0
 10 24  1  1     0  0
  2  3  1  0     0  0
  9 25  1  6     0  0
  3  6  2  0     0  0
 21 26  1  0     0  0
  9 14  1  0     0  0
 26 27  1  0     0  0
 10 11  1  0     0  0
 27 28  2  0     0  0
 28 34  1  0     0  0
 11 12  1  0     0  0
 33 29  1  0     0  0
 29 26  2  0     0  0
 12 13  1  0     0  0
 13 14  1  0     0  0
 30 31  1  0     0  0
  4 30  1  0     0  0
 33 34  1  0     0  0
  1  2  2  0     0  0
 11 15  1  0     0  0
  5  8  1  0     0  0
 13 16  1  1     0  0
  6  7  1  0     0  0
 32 33  2  0     0  0
 34 35  2  0     0  0
 35 36  1  0     0  0
 36 32  1  0     0  0
 16 17  1  0     0  0
 31 37  1  0     0  0
  7 10  1  0     0  0
 31 38  2  0     0  0
 16 18  2  0     0  0
 31 39  2  0     0  0
M  END