
          11280714512D 1   1.00000     0.00000     0

 24 24  0     0  0            999 V2000
    4.7417   -2.3542    0.0000 C   0  0  3  0  0  0           0  0  0
    4.0250   -1.9417    0.0000 N   0  0  0  0  0  0           0  0  0
    5.4542   -1.9375    0.0000 C   0  0  0  0  0  0           0  0  0
    4.7417   -3.1792    0.0000 C   0  0  0  0  0  0           0  0  0
    1.1667   -1.9542    0.0000 O   0  0  0  0  0  0           0  0  0
    6.1917   -2.3042    0.0000 O   0  0  0  0  0  0           0  0  0
    5.4542   -3.5875    0.0000 O   0  0  0  0  0  0           0  0  0
    0.4542   -2.3667    0.0000 C   0  0  0  0  0  0           0  0  0
    0.4542   -3.2000    0.0000 C   0  0  0  0  0  0           0  0  0
    3.3125   -2.3542    0.0000 C   0  0  0  0  0  0           0  0  0
    2.5917   -1.9500    0.0000 C   0  0  3  0  0  0           0  0  0
    1.8792   -2.3625    0.0000 C   0  0  0  0  0  0           0  0  0
    4.0292   -3.5917    0.0000 O   0  0  0  0  0  0           0  0  0
    5.4000   -1.1125    0.0000 O   0  0  0  0  0  0           0  0  0
    2.5917   -1.1250    0.0000 O   0  0  0  0  0  0           0  0  0
   -0.2625   -1.9542    0.0000 C   0  0  0  0  0  0           0  0  0
    1.1667   -3.6125    0.0000 C   0  0  0  0  0  0           0  0  0
   -0.2625   -3.6125    0.0000 C   0  0  0  0  0  0           0  0  0
    6.0875   -0.6542    0.0000 C   0  0  0  0  0  0           0  0  0
    3.3125   -3.1792    0.0000 C   0  0  0  0  0  0           0  0  0
    6.0375    0.1708    0.0000 C   0  0  0  0  0  0           0  0  0
    2.6000   -3.6000    0.0000 C   0  0  0  0  0  0           0  0  0
   -0.9750   -3.2000    0.0000 C   0  0  0  0  0  0           0  0  0
   -0.9750   -2.3750    0.0000 C   0  0  0  0  0  0           0  0  0
  2  1  1  0     0  0
  3  1  1  0     0  0
  4  1  1  0     0  0
  5 12  1  0     0  0
  6  3  2  0     0  0
  7  4  2  0     0  0
  8  5  1  0     0  0
  9  8  1  0     0  0
 10  2  1  0     0  0
 11 10  1  0     0  0
 12 11  1  0     0  0
 13  4  1  0     0  0
 14  3  1  0     0  0
 15 11  1  0     0  0
 16  8  2  0     0  0
 17  9  1  0     0  0
 18  9  2  0     0  0
 19 14  1  0     0  0
 20 13  1  0     0  0
 21 19  1  0     0  0
 22 20  1  0     0  0
 23 24  2  0     0  0
 24 16  1  0     0  0
 23 18  1  0     0  0
M  END