
  SciTegic07101214422D

131136  0  0  0  0            999 V2000
   14.5516    3.4435    0.0000 C   0  0
   14.3306    2.6462    0.0000 C   0  0
   14.9099    2.0582    0.0000 C   0  0
   15.3476    3.6522    0.0000 C   0  0
   15.9285    3.0676    0.0000 C   0  0
   15.7071    2.2693    0.0000 C   0  0
   16.2846    1.6816    0.0000 C   0  0
   16.7274    3.2784    0.0000 O   0  0
   17.3081    2.6851    0.0000 C   0  0
   17.0872    1.8904    0.0000 C   0  0
   17.6644    1.3038    0.0000 C   0  0
   18.4626    1.5107    0.0000 C   0  0
   18.6805    2.3095    0.0000 C   0  0
   18.1017    2.8927    0.0000 C   0  0
   19.4782    2.5197    0.0000 N   0  0
   16.0648    0.8875    0.0000 C   0  0
   15.2648    0.6813    0.0000 C   0  0
   15.0448   -0.1130    0.0000 C   0  0
   15.6238   -0.7019    0.0000 C   0  0
   16.4259   -0.4911    0.0000 C   0  0
   16.6421    0.3028    0.0000 C   0  0
   13.9724    4.0357    0.0000 N   0  0
   14.1915    4.8320    0.0000 C   0  0
   13.1740    3.8230    0.0000 C   0  0
   20.0592    1.9340    0.0000 C   0  0
   19.6950    3.3157    0.0000 C   0  0
   14.5535    1.1075    0.0000 C   0  0
   14.5679    1.9324    0.0000 O   0  0
   13.8320    0.7075    0.0000 N   0  0
   15.4050   -1.4974    0.0000 C   0  0
   14.6067   -1.7056    0.0000 O   0  0
   15.9845   -2.0846    0.0000 O   0  0
   10.2718   -3.8377    0.0000 N   0  0
   10.9872   -4.2484    0.0000 C   0  0  1  0  0  0
   11.7007   -3.8342    0.0000 C   0  0
   10.9892   -5.0734    0.0000 C   0  0
   11.7047   -5.4842    0.0000 C   0  0
   11.7067   -6.3092    0.0000 C   0  0
   10.9932   -6.7234    0.0000 N   0  0
   10.9952   -7.5484    0.0000 C   0  0
   10.2817   -7.9626    0.0000 N   0  0
   11.7106   -7.9592    0.0000 N   0  0
   11.6987   -3.0092    0.0000 O   0  0
   12.4162   -4.2450    0.0000 N   0  0
   13.1296   -3.8308    0.0000 C   0  0  1  0  0  0
   13.8451   -4.2415    0.0000 C   0  0
   14.5586   -3.8273    0.0000 N   0  0
   13.8471   -5.0665    0.0000 O   0  0
   13.1277   -3.0058    0.0000 C   0  0
   12.4122   -2.5950    0.0000 C   0  0
   12.4102   -1.7700    0.0000 C   0  0
   11.6947   -1.3592    0.0000 N   0  0
   11.6928   -0.5342    0.0000 C   0  0
   10.9773   -0.1234    0.0000 N   0  0
   12.4062   -0.1200    0.0000 N   0  0
    5.9850   -3.8480    0.0000 N   0  0
    6.7004   -4.2588    0.0000 C   0  0  1  0  0  0
    7.4139   -3.8445    0.0000 C   0  0
    6.7024   -5.0838    0.0000 C   0  0
    7.4179   -5.4945    0.0000 C   0  0
    7.4199   -6.3195    0.0000 C   0  0
    6.7064   -6.7337    0.0000 N   0  0
    6.7084   -7.5587    0.0000 C   0  0
    5.9949   -7.9730    0.0000 N   0  0
    7.4238   -7.9695    0.0000 N   0  0
    7.4119   -3.0195    0.0000 O   0  0
    8.1294   -4.2553    0.0000 N   0  0
    8.8428   -3.8411    0.0000 C   0  0  1  0  0  0
    9.5583   -4.2519    0.0000 C   0  0
    9.5603   -5.0769    0.0000 O   0  0
    8.8408   -3.0161    0.0000 C   0  0
    8.1254   -2.6053    0.0000 C   0  0
    8.1234   -1.7803    0.0000 C   0  0
    7.4079   -1.3695    0.0000 N   0  0
    7.4059   -0.5445    0.0000 C   0  0
    6.6905   -0.1338    0.0000 N   0  0
    8.1194   -0.1303    0.0000 N   0  0
   -3.3028   -4.2809    0.0000 N   0  0
   -2.5894   -3.8666    0.0000 C   0  0
   -1.8739   -4.2774    0.0000 C   0  0
   -1.1604   -3.8632    0.0000 C   0  0
   -0.4450   -4.2740    0.0000 C   0  0
    0.2685   -3.8598    0.0000 C   0  0
    0.9840   -4.2705    0.0000 C   0  0
    1.6975   -3.8563    0.0000 N   0  0
    0.9860   -5.0955    0.0000 O   0  0
    2.4129   -4.2671    0.0000 C   0  0  1  0  0  0
    3.1264   -3.8529    0.0000 C   0  0
    2.4149   -5.0921    0.0000 C   0  0
    3.1304   -5.5029    0.0000 C   0  0
    3.1324   -6.3279    0.0000 C   0  0
    2.4189   -6.7421    0.0000 N   0  0
    2.4209   -7.5671    0.0000 C   0  0
    1.7074   -7.9813    0.0000 N   0  0
    3.1363   -7.9779    0.0000 N   0  0
    3.1244   -3.0279    0.0000 O   0  0
    3.8419   -4.2636    0.0000 N   0  0
    4.5553   -3.8494    0.0000 C   0  0  1  0  0  0
    5.2708   -4.2602    0.0000 C   0  0
    5.2728   -5.0852    0.0000 O   0  0
    4.5533   -3.0244    0.0000 C   0  0
    3.8379   -2.6137    0.0000 C   0  0
    3.8359   -1.7887    0.0000 C   0  0
    3.1204   -1.3779    0.0000 N   0  0
    3.1184   -0.5529    0.0000 C   0  0
    2.4030   -0.1421    0.0000 N   0  0
    3.8319   -0.1387    0.0000 N   0  0
   -6.7500   -3.6917    0.0000 O   0  0
   -6.1625   -4.2750    0.0000 S   0  0
   -6.9636   -4.4921    0.0000 O   0  0
   -8.3111   -6.3334    0.0000 N   0  0
   -8.3099   -5.5060    0.0000 C   0  0
   -7.5997   -5.0931    0.0000 C   0  0
   -7.5979   -6.7461    0.0000 C   0  0
   -6.8800   -6.3370    0.0000 C   0  0
   -6.8807   -5.5102    0.0000 C   0  0
   -6.1627   -5.0992    0.0000 C   0  0
   -5.4473   -5.5140    0.0000 C   0  0
   -5.4520   -6.3439    0.0000 C   0  0
   -6.1737   -6.7512    0.0000 C   0  0
   -5.4452   -3.8632    0.0000 N   0  0
   -4.7318   -4.2774    0.0000 C   0  0
   -4.0163   -3.8666    0.0000 C   0  0
   12.4042    0.7050    0.0000 C   0  0
   13.1177    1.1192    0.0000 C   0  0  1  0  0  0
   11.6888    1.1158    0.0000 O   0  0
   13.1157    1.9442    0.0000 C   0  0
   12.4003    2.3550    0.0000 C   0  0
   12.3983    3.1800    0.0000 C   0  0
   11.6828    3.5908    0.0000 C   0  0
   11.6808    4.4176    0.0000 N   0  0
 63 65  2  0
 30 31  1  0
 58 66  2  0
  1  2  2  0
 58 67  1  0
 30 32  2  0
 67 68  1  0
 13 15  1  0
 68 69  1  0
 69 33  1  0
  5  8  1  0
 69 70  2  0
 33 34  1  0
 68 71  1  6
  6  7  1  0
 71 72  1  0
 34 35  1  0
 72 73  1  0
 16 17  2  0
 73 74  1  0
 34 36  1  1
 74 75  1  0
  7 10  2  0
 75 76  1  0
 36 37  1  0
 75 77  2  0
 17 18  1  0
 37 38  1  0
 78 79  1  0
  9  8  1  0
 79 80  1  0
 38 39  1  0
 80 81  1  0
 18 19  2  0
 81 82  1  0
 39 40  1  0
 82 83  1  0
  5  4  2  0
 83 84  1  0
 40 41  1  0
 84 85  1  0
 19 20  1  0
 84 86  2  0
 40 42  2  0
 85 87  1  0
  4  1  1  0
 87 88  1  0
 35 43  2  0
 87 89  1  1
 20 21  2  0
 89 90  1  0
 35 44  1  0
 90 91  1  0
 21 16  1  0
 91 92  1  0
 44 45  1  0
 92 93  1  0
  7 16  1  0
 93 94  1  0
 45 46  1  0
 93 95  2  0
  9 10  1  0
 88 96  2  0
 46 47  1  0
 88 97  1  0
  1 22  1  0
 97 98  1  0
 46 48  2  0
 98 99  1  0
 99 56  1  0
  5  6  1  0
 99100  2  0
 45 49  1  6
 98101  1  6
 22 23  1  0
101102  1  0
 49 50  1  0
102103  1  0
 10 11  1  0
103104  1  0
 50 51  1  0
104105  1  0
 22 24  1  0
105106  1  0
 51 52  1  0
105107  2  0
109108  2  0
110109  2  0
 52 53  1  0
 15 25  1  0
 53 54  2  0
 11 12  2  0
111112  2  0
 53 55  1  0
112113  1  0
113116  2  0
 15 26  1  0
115114  2  0
114111  1  0
  2  3  1  0
 56 57  1  0
115116  1  0
 17 27  1  0
116117  1  0
 57 58  1  0
117118  2  0
 12 13  1  0
118119  1  0
 57 59  1  1
119120  2  0
120115  1  0
117109  1  0
 27 28  2  0
109121  1  0
 59 60  1  0
121122  1  0
  3  6  2  0
122123  1  0
123 78  1  0
 60 61  1  0
 55124  1  0
 27 29  1  0
125124  1  0
 61 62  1  0
124126  2  0
125 29  1  1
 13 14  1  0
125127  1  0
 62 63  1  0
127128  1  0
 19 30  1  0
128129  1  0
 63 64  1  0
129130  1  0
 14  9  2  0
130131  1  0
M  END