
          11280715072D 1   1.00000     0.00000     0

 38 41  0     0  0            999 V2000
    8.0500    0.2958    0.0000 C   0  0  0  0  0  0           0  0  0
    2.3417   -0.5917    0.0000 C   0  0  0  0  0  0           0  0  0
    8.7500    0.7250    0.0000 C   0  0  0  0  0  0           0  0  0
    1.6292   -1.0167    0.0000 C   0  0  0  0  0  0           0  0  0
    8.0667   -0.5375    0.0000 C   0  0  0  0  0  0           0  0  0
    3.0667   -1.0000    0.0000 C   0  0  0  0  0  0           0  0  0
    9.4750    0.3333    0.0000 C   0  0  0  0  0  0           0  0  0
    1.6417   -1.8417    0.0000 C   0  0  0  0  0  0           0  0  0
    8.8000   -0.9292    0.0000 C   0  0  0  0  0  0           0  0  0
    3.0750   -1.8292    0.0000 C   0  0  0  0  0  0           0  0  0
    2.3667   -2.2500    0.0000 C   0  0  0  0  0  0           0  0  0
    9.5000   -0.4917    0.0000 C   0  0  0  0  0  0           0  0  0
    7.3250    0.6875    0.0000 C   0  0  0  0  0  0           0  0  0
    2.3167    0.2333    0.0000 C   0  0  0  0  0  0           0  0  0
    2.2042   -3.0542    0.0000 O   0  0  0  0  0  0           0  0  0
   10.2917   -0.7250    0.0000 O   0  0  0  0  0  0           0  0  0
   10.2500    0.6083    0.0000 C   0  0  0  0  0  0           0  0  0
    1.0417   -2.4042    0.0000 C   0  0  0  0  0  0           0  0  0
   10.7542   -0.0417    0.0000 C   0  0  0  0  0  0           0  0  0
    1.3792   -3.1542    0.0000 C   0  0  0  0  0  0           0  0  0
    7.3000    1.5125    0.0000 O   0  0  0  0  0  0           0  0  0
    1.6042    0.6333    0.0000 O   0  0  0  0  0  0           0  0  0
    0.9167   -0.6167    0.0000 O   0  0  0  0  0  0           0  0  0
    8.7250    1.5458    0.0000 O   0  0  0  0  0  0           0  0  0
    7.3542   -0.9417    0.0000 O   0  0  0  0  0  0           0  0  0
    3.7750   -0.5792    0.0000 O   0  0  0  0  0  0           0  0  0
    3.7917   -2.2292    0.0000 O   0  0  0  0  0  0           0  0  0
    8.8250   -1.7417    0.0000 O   0  0  0  0  0  0           0  0  0
    3.0292    0.6500    0.0000 C   0  0  0  0  0  0           0  0  0
    6.6167    0.2583    0.0000 C   0  0  0  0  0  0           0  0  0
    4.4917   -0.9792    0.0000 C   0  0  0  0  0  0           0  0  0
    6.6292   -0.5375    0.0000 C   0  0  0  0  0  0           0  0  0
    9.4292    1.9833    0.0000 C   0  0  0  0  0  0           0  0  0
    0.2042   -1.0417    0.0000 C   0  0  0  0  0  0           0  0  0
    9.5542   -2.1375    0.0000 C   0  0  0  0  0  0           0  0  0
    3.8000   -3.0542    0.0000 C   0  0  0  0  0  0           0  0  0
    5.9250   -0.9625    0.0000 C   0  0  0  0  0  0           0  0  0
    5.2042   -0.5542    0.0000 C   0  0  0  0  0  0           0  0  0
  2  6  1  0     0  0
  3  1  2  0     0  0
  4  2  2  0     0  0
  5  1  1  0     0  0
  6 26  1  0     0  0
  7  3  1  0     0  0
  8 11  2  0     0  0
  9  5  2  0     0  0
 10  6  2  0     0  0
 11 10  1  0     0  0
 12  9  1  0     0  0
 13  1  1  0     0  0
 14  2  1  0     0  0
 15 11  1  0     0  0
 16 12  1  0     0  0
 17  7  1  0     0  0
 18  8  1  0     0  0
 19 17  2  0     0  0
 20 15  1  0     0  0
 21 13  2  0     0  0
 22 14  2  0     0  0
 23  4  1  0     0  0
 24  3  1  0     0  0
 25  5  1  0     0  0
 26 31  1  0     0  0
 27 10  1  0     0  0
 28  9  1  0     0  0
 29 14  1  0     0  0
 30 13  1  0     0  0
 31 38  1  0     0  0
 32 25  1  0     0  0
 33 24  1  0     0  0
 34 23  1  0     0  0
 35 28  1  0     0  0
 36 27  1  0     0  0
 37 32  1  0     0  0
 38 37  1  0     0  0
 12  7  2  0     0  0
 16 19  1  0     0  0
  8  4  1  0     0  0
 20 18  2  0     0  0
M  END