
  SciTegic02011310442D

 39 44  0  0  0  0            999 V2000
   16.0464   -5.7560    0.0000 N   0  0
   16.7561   -5.3466    0.0000 C   0  0
   16.7532   -4.5239    0.0000 N   0  0
   16.0446   -4.1187    0.0000 C   0  0
   15.3383   -5.3471    0.0000 N   0  0
   15.3396   -4.5260    0.0000 C   0  0
   14.5591   -4.2711    0.0000 C   0  0
   14.0754   -4.9346    0.0000 C   0  0
   14.5571   -5.5996    0.0000 C   0  0
   17.4644   -5.7541    0.0000 S   0  0
   18.1715   -5.3444    0.0000 C   0  0
   16.0428   -3.3015    0.0000 N   0  0
   16.7496   -2.8913    0.0000 C   0  0
   18.8765   -5.7523    0.0000 C   0  0
   19.5831   -5.3433    0.0000 C   0  0
   19.5822   -4.5252    0.0000 C   0  0
   18.8689   -4.1179    0.0000 C   0  0
   18.1652   -4.5293    0.0000 C   0  0
   17.4947   -3.2233    0.0000 C   0  0
   18.0402   -2.6148    0.0000 C   0  0
   17.6300   -1.9080    0.0000 N   0  0
   16.8311   -2.0798    0.0000 N   0  0
   18.8531   -2.6985    0.0000 C   0  0
   20.2888   -4.1146    0.0000 N   0  0
   20.9976   -4.5211    0.0000 C   0  0
   21.7042   -4.1105    0.0000 C   0  0
   22.4131   -4.5170    0.0000 N   0  0
   21.0000   -5.3383    0.0000 O   0  0
   22.4980   -5.3273    0.0000 C   0  0
   23.2979   -5.4949    0.0000 C   0  0  1  0  0  0
   23.7044   -4.7859    0.0000 C   0  0
   23.1558   -4.1803    0.0000 C   0  0
   23.6324   -6.2404    0.0000 C   0  0
   23.1540   -6.9030    0.0000 O   0  0
   24.4454   -6.3235    0.0000 N   0  0
   24.8544   -7.0259    0.0000 C   0  0
   25.6532   -6.8537    0.0000 C   0  0
   25.7363   -6.0407    0.0000 C   0  0
   24.9888   -5.7106    0.0000 C   0  0
  5  1  1  0
  1  2  2  0
  2  3  1  0
  3  4  2  0
  4  6  1  0
  5  6  1  0
  6  7  2  0
  7  8  1  0
  8  9  2  0
  9  5  1  0
  2 10  1  0
 10 11  1  0
  4 12  1  0
 12 13  1  0
 11 14  2  0
 14 15  1  0
 15 16  2  0
 16 17  1  0
 17 18  2  0
 18 11  1  0
 13 19  1  0
 19 20  2  0
 20 21  1  0
 21 22  1  0
 22 13  2  0
 20 23  1  0
 16 24  1  0
 24 25  1  0
 25 26  1  0
 26 27  1  0
 25 28  2  0
 27 29  1  0
 29 30  1  0
 30 31  1  0
 31 32  1  0
 32 27  1  0
 30 33  1  1
 33 34  2  0
 33 35  1  0
 35 36  1  0
 36 37  1  0
 37 38  1  0
 38 39  1  0
 39 35  1  0
M  END