
          02060813462D 1   1.00000     0.00000     0

 20 21  0     0  0            999 V2000
   -4.7452    0.2430    0.0000 C   0  0  0  0  0  0           0  0  0
   -4.7466   -0.5846    0.0000 N   0  0  0  0  0  0           0  0  0
   -4.0335   -0.9976    0.0000 C   0  0  0  0  0  0           0  0  0
   -3.3143   -0.5841    0.0000 C   0  0  0  0  0  0           0  0  0
   -3.3175    0.2469    0.0000 C   0  0  0  0  0  0           0  0  0
   -4.0355    0.6557    0.0000 C   0  0  0  0  0  0           0  0  0
   -4.0395    1.4807    0.0000 C   0  0  0  0  0  0           0  0  0
   -3.3269    1.8966    0.0000 N   0  0  0  0  0  0           0  0  0
   -2.6105    1.4874    0.0000 N   0  0  0  0  0  0           0  0  0
   -1.8980    1.9032    0.0000 C   0  0  0  0  0  0           0  0  0
   -1.1816    1.4941    0.0000 N   0  0  0  0  0  0           0  0  0
   -0.4690    1.9099    0.0000 N   0  0  0  0  0  0           0  0  0
    0.2473    1.5007    0.0000 C   0  0  0  0  0  0           0  0  0
    0.2511    0.6757    0.0000 C   0  0  0  0  0  0           0  0  0
   -0.4612    0.2622    0.0000 C   0  0  0  0  0  0           0  0  0
   -0.4578   -0.5620    0.0000 N   0  0  0  0  0  0           0  0  0
    0.2592   -0.9719    0.0000 C   0  0  0  0  0  0           0  0  0
    0.9740   -0.5516    0.0000 C   0  0  0  0  0  0           0  0  0
    0.9670    0.2711    0.0000 C   0  0  0  0  0  0           0  0  0
   -1.9019    2.7282    0.0000 N   0  0  0  0  0  0           0  0  0
  9 10  1  0     0  0
  2  3  1  0     0  0
 10 11  1  0     0  0
  5  6  2  0     0  0
 11 12  1  0     0  0
  6  1  1  0     0  0
 12 13  2  0     0  0
  1  2  2  0     0  0
 13 14  1  0     0  0
  6  7  1  0     0  0
 14 15  2  0     0  0
  3  4  2  0     0  0
 15 16  1  0     0  0
  7  8  2  0     0  0
 16 17  2  0     0  0
 17 18  1  0     0  0
  8  9  1  0     0  0
 18 19  2  0     0  0
 19 14  1  0     0  0
  4  5  1  0     0  0
 10 20  2  0     0  0
M  END