
          11290714372D 1   1.00000     0.00000     0

 25 26  0     1  0            999 V2000
    4.1066  -10.3201    0.0000 C   0  0  0  0  0  0           0  0  0
    4.1054  -11.1475    0.0000 C   0  0  0  0  0  0           0  0  0
    4.8203  -11.5602    0.0000 C   0  0  0  0  0  0           0  0  0
    5.5366  -11.1470    0.0000 C   0  0  0  0  0  0           0  0  0
    5.5337  -10.3165    0.0000 C   0  0  0  0  0  0           0  0  0
    4.8185   -9.9073    0.0000 C   0  0  0  0  0  0           0  0  0
    4.8155   -9.0787    0.0000 C   0  0  0  0  0  0           0  0  0
    5.5287   -8.6640    0.0000 O   0  0  0  0  0  0           0  0  0
    4.0998   -8.6683    0.0000 O   0  0  0  0  0  0           0  0  0
    3.3921   -9.9078    0.0000 C   0  0  0  0  0  0           0  0  0
    2.6778  -10.3204    0.0000 N   0  0  3  0  0  0           0  0  0
    1.9631   -9.9072    0.0000 C   0  0  0  0  0  0           0  0  0
    1.2508  -10.3164    0.0000 C   0  0  0  0  0  0           0  0  0
    1.2468  -11.1417    0.0000 C   0  0  0  0  0  0           0  0  0
    1.9612  -11.5562    0.0000 N   0  0  3  0  0  0           0  0  0
    2.6796  -11.1454    0.0000 C   0  0  0  0  0  0           0  0  0
    1.9642   -9.0823    0.0000 O   0  0  0  0  0  0           0  0  0
    3.3936  -11.5585    0.0000 O   0  0  0  0  0  0           0  0  0
    1.9586  -12.3811    0.0000 C   0  0  0  0  0  0           0  0  0
    1.2428  -12.7913    0.0000 C   0  0  2  0  0  0           0  0  0
    0.5297  -12.3766    0.0000 N   0  0  0  0  0  0           0  0  0
    1.2412  -13.6174    0.0000 C   0  0  0  0  0  0           0  0  0
    0.5256  -14.0276    0.0000 O   0  0  0  0  0  0           0  0  0
    1.9544  -14.0321    0.0000 O   0  0  0  0  0  0           0  0  0
    0.5379   -9.9014    0.0000 C   0  0  0  0  0  0           0  0  0
  6  1  1  0     0  0
  1  2  2  0     0  0
  3  4  2  0     0  0
 11 16  1  0     0  0
 12 13  1  0     0  0
 13 14  2  0     0  0
 14 15  1  0     0  0
 15 16  1  0     0  0
  7  8  1  0     0  0
 12 17  2  0     0  0
  7  9  2  0     0  0
 16 18  2  0     0  0
  6  7  1  0     0  0
 15 19  1  0     0  0
  4  5  1  0     0  0
 19 20  1  0     0  0
  1 10  1  0     0  0
 20 21  1  1     0  0
  2  3  1  0     0  0
 10 11  1  0     0  0
 11 12  1  0     0  0
 22 23  1  0     0  0
 22 24  2  0     0  0
 20 22  1  0     0  0
  5  6  2  0     0  0
 13 25  1  0     0  0
M  END