
  CDK    9/16/09,9:41

 23 25  0  0  0  0  0  0  0  0999 V2000
    4.2618   -7.6709    0.0000 N   0  0  0  0  0  0  0  0  0  0  0  0
    5.0028   -7.3261    0.0000 C   0  0  0  0  0  0  0  0  0  0  0  0
    5.7449   -7.6906    0.0000 C   0  0  0  0  0  0  0  0  0  0  0  0
    5.9266   -8.4952    0.0000 N   0  0  0  0  0  0  0  0  0  0  0  0
    5.4026   -9.1335    0.0000 C   0  0  0  0  0  0  0  0  0  0  0  0
    5.7513   -9.8811    0.0000 C   0  0  0  0  0  0  0  0  0  0  0  0
    5.2810  -10.5569    0.0000 C   0  0  0  0  0  0  0  0  0  0  0  0
    5.6291  -11.3039    0.0000 C   0  0  0  0  0  0  0  0  0  0  0  0
    6.4522  -11.3742    0.0000 C   0  0  0  0  0  0  0  0  0  0  0  0
    6.9261  -10.6914    0.0000 C   0  0  0  0  0  0  0  0  0  0  0  0
    6.5714   -9.9471    0.0000 C   0  0  0  0  0  0  0  0  0  0  0  0
    4.5764   -9.1277    0.0000 C   0  0  0  0  0  0  0  0  0  0  0  0
    4.0690   -8.4732    0.0000 C   0  0  0  0  0  0  0  0  0  0  0  0
    3.2520   -8.5846    0.0000 C   0  0  0  0  0  0  0  0  0  0  0  0
    2.9413   -9.3499    0.0000 C   0  0  0  0  0  0  0  0  0  0  0  0
    3.4538  -10.0043    0.0000 C   0  0  0  0  0  0  0  0  0  0  0  0
    4.2689   -9.8896    0.0000 C   0  0  0  0  0  0  0  0  0  0  0  0
    3.6210   -7.1522    0.0000 C   0  0  0  0  0  0  0  0  0  0  0  0
    5.0123   -6.5009    0.0000 O   0  0  0  0  0  0  0  0  0  0  0  0
    3.1414  -10.7751    0.0000 N   0  0  0  0  0  0  0  0  0  0  0  0
    3.6514  -11.4260    0.0000 O   0  0  0  0  0  0  0  0  0  0  0  0
    2.3241  -10.8899    0.0000 O   0  0  0  0  0  0  0  0  0  0  0  0
    4.4587  -10.4860    0.0000 F   0  0  0  0  0  0  0  0  0  0  0  0
 10 11  2  0  0  0  0 
 11  6  1  0  0  0  0 
 12  5  1  0  0  0  0 
  2  3  1  0  0  0  0 
 12 13  2  0  0  0  0 
  5  6  1  0  0  0  0 
 13 14  1  0  0  0  0 
  1 13  1  0  0  0  0 
 14 15  2  0  0  0  0 
  6  7  2  0  0  0  0 
 15 16  1  0  0  0  0 
  1  2  1  0  0  0  0 
 16 17  2  0  0  0  0 
 17 12  1  0  0  0  0 
  7  8  1  0  0  0  0 
  1 18  1  0  0  0  0 
  3  4  1  0  0  0  0 
  2 19  2  0  0  0  0 
  8  9  2  0  0  0  0 
  9 10  1  0  0  0  0 
 20 21  2  0  0  0  0 
 20 22  1  0  0  0  0 
 16 20  1  0  0  0  0 
  4  5  2  0  0  0  0 
  7 23  1  0  0  0  0 
M  CHG  1  20   1
M  CHG  1  22  -1
M  END