
  SciTegic12201609482D

 76 80  0  0  0  0            999 V2000
    1.3117   -5.9930    0.0000 N   0  0
    2.6104   -5.2409    0.0000 C   0  0
    3.9117   -5.9888    0.0000 C   0  0
    5.2104   -5.2367    0.0000 C   0  0
    6.5116   -5.9845    0.0000 O   0  0
    7.8104   -5.2324    0.0000 C   0  0
    9.1116   -5.9803    0.0000 C   0  0
   10.4104   -5.2282    0.0000 O   0  0
   11.7116   -5.9760    0.0000 C   0  0
   13.0104   -5.2239    0.0000 C   0  0
   14.3116   -5.9718    0.0000 O   0  0
   15.6103   -5.2197    0.0000 C   0  0
   16.9115   -5.9675    0.0000 C   0  0
   18.2103   -5.2154    0.0000 C   0  0
   19.5115   -5.9633    0.0000 N   0  0
   20.8103   -5.2111    0.0000 C   0  0
   22.1115   -5.9590    0.0000 C   0  0
   20.8083   -4.0111    0.0000 O   0  0
   23.4103   -5.2069    0.0000 O   0  0
   24.7115   -5.9548    0.0000 C   0  0
   26.0102   -5.2026    0.0000 C   0  0
   26.0083   -4.0026    0.0000 N   0  0
   27.0506   -5.8006    0.0000 O   0  0
   -9.1193    2.9861    0.0000 N   0  0
   -7.8205    3.7382    0.0000 C   0  0  2  0  0  0
   -5.4813    3.5952    0.0000 O   0  0
   -6.5185    2.9917    0.0000 C   0  0
   -7.8260    5.2390    0.0000 C   0  0
  -10.4763    5.3576    0.0000 N   0  0
  -11.4856    6.4672    0.0000 C   0  0
  -10.7422    7.7700    0.0000 N   0  0
   -9.2734    7.4656    0.0000 C   0  0
   -9.1280    5.9855    0.0000 C   0  0
   -6.5130    1.4909    0.0000 N   0  0
   -5.2110    0.7445    0.0000 C   0  0  1  0  0  0
   -6.2427   -1.3598    0.0000 O   0  0
   -5.2054   -0.7563    0.0000 C   0  0
   -3.9122    1.4966    0.0000 C   0  0
   -1.2964    1.4973    0.0000 C   0  0
   -2.6111    0.7486    0.0000 C   0  0
   -2.6111   -0.7486    0.0000 C   0  0
   -1.2964   -1.4973    0.0000 C   0  0
   -6.4749   -7.5201    0.0000 N   0  0
   -7.7706   -8.2775    0.0000 C   0  0
   -8.8129   -7.6828    0.0000 N   0  0
   -7.7649   -9.4775    0.0000 N   0  0
   -3.9034   -1.5028    0.0000 N   0  0
   -3.8979   -3.0036    0.0000 C   0  0  2  0  0  0
   -1.5587   -3.1466    0.0000 O   0  0
   -2.5959   -3.7501    0.0000 C   0  0
   -5.1936   -3.7611    0.0000 C   0  0
   -5.1864   -5.2619    0.0000 C   0  0
   -6.4821   -6.0193    0.0000 C   0  0
   -2.5904   -5.2509    0.0000 N   0  0
   -1.2883   -5.9973    0.0000 C   0  0  2  0  0  0
    0.0085   -4.0452    0.0000 O   0  0
    0.0105   -5.2452    0.0000 C   0  0
   -1.2829   -7.4982    0.0000 C   0  0
    1.3708   -7.6190    0.0000 C   0  0
    0.0192   -8.2446    0.0000 C   0  0
    2.3586   -8.7120    0.0000 N   0  0
    0.1643   -9.7185    0.0000 C   0  0
    1.6296  -10.0153    0.0000 C   0  0
    2.1231  -11.4360    0.0000 C   0  0
    1.1120  -12.5705    0.0000 C   0  0
   -0.3533  -12.2738    0.0000 C   0  0
   -0.8432  -10.8352    0.0000 C   0  0
  -10.4205    3.7340    0.0000 C   0  0
  -10.4221    4.7340    0.0000 C   0  0
  -11.4589    3.1327    0.0000 O   0  0
    0.0000   -0.7486    0.0000 C   0  0
    0.0000    0.7486    0.0000 C   0  0
    1.2964    1.4973    0.0000 C   0  0
    2.5929    0.7486    0.0000 C   0  0
    2.5929   -0.7486    0.0000 C   0  0
    1.2964   -1.4973    0.0000 C   0  0
  1  2  1  0
  2  3  1  0
  3  4  1  0
  4  5  1  0
  5  6  1  0
  6  7  1  0
  7  8  1  0
  8  9  1  0
  9 10  1  0
 10 11  1  0
 11 12  1  0
 12 13  1  0
 13 14  1  0
 14 15  1  0
 15 16  1  0
 16 17  1  0
 16 18  2  0
 17 19  1  0
 19 20  1  0
 20 21  1  0
 21 22  1  0
 21 23  2  0
 27 34  1  0
 37 47  1  0
 50 54  1  0
 57  1  1  0
 24 25  1  0
 25 27  1  0
 27 26  2  0
 25 28  1  1
 28 33  1  0
 29 30  1  0
 30 31  2  0
 31 32  1  0
 32 33  2  0
 33 29  1  0
 34 35  1  0
 35 37  1  0
 37 36  2  0
 35 38  1  6
 38 40  1  0
 39 40  2  0
 40 41  1  0
 41 42  2  0
 42 71  1  0
 72 39  1  0
 43 44  1  0
 44 45  1  0
 44 46  2  0
 47 48  1  0
 48 50  1  0
 50 49  2  0
 48 51  1  6
 51 52  1  0
 52 53  1  0
 53 43  1  0
 54 55  1  0
 55 57  1  0
 57 56  2  0
 55 58  1  6
 58 60  1  0
 59 60  2  0
 60 62  1  0
 61 59  1  0
 63 61  1  0
 62 63  2  0
 63 64  1  0
 64 65  2  0
 65 66  1  0
 66 67  2  0
 67 62  1  0
 24 68  1  0
 68 69  1  0
 68 70  2  0
 71 72  1  0
 72 73  2  0
 73 74  1  0
 74 75  2  0
 75 76  1  0
 76 71  2  0
M  END