
          11280715452D 1   1.00000     0.00000     0

 34 34  0     1  0            999 V2000
    0.9417   -0.1167    0.0000 C   0  0  0  0  0  0           0  0  0
    1.6542    0.2958    0.0000 N   0  0  3  0  0  0           0  0  0
   -1.2000    0.2833    0.0000 C   0  0  0  0  0  0           0  0  0
    3.0875    0.2958    0.0000 C   0  0  0  0  0  0           0  0  0
   -0.4875   -0.1292    0.0000 N   0  0  0  0  0  0           0  0  0
    0.2250    0.2958    0.0000 C   0  0  1  0  0  0           0  0  0
    2.3667   -0.1167    0.0000 C   0  0  2  0  0  0           0  0  0
    3.8000   -0.1042    0.0000 C   0  0  0  0  0  0           0  0  0
   -2.6333    0.2833    0.0000 C   0  0  3  0  0  0           0  0  0
   -1.9125   -0.1375    0.0000 C   0  0  2  0  0  0           0  0  0
    4.5125    0.3000    0.0000 C   0  0  0  0  0  0           0  0  0
    0.2250    1.1208    0.0000 C   0  0  3  0  0  0           0  0  0
    0.9417   -0.9417    0.0000 O   0  0  0  0  0  0           0  0  0
   -1.2000    1.1000    0.0000 O   0  0  0  0  0  0           0  0  0
    4.5125    1.1250    0.0000 O   0  0  0  0  0  0           0  0  0
   -3.3500   -0.1375    0.0000 C   0  0  3  0  0  0           0  0  0
   -1.9125   -0.9542    0.0000 N   0  0  0  0  0  0           0  0  0
    2.3792   -0.9417    0.0000 C   0  0  3  0  0  0           0  0  0
    5.2250   -0.1042    0.0000 O   0  0  0  0  0  0           0  0  0
    1.6500    1.1208    0.0000 C   0  0  0  0  0  0           0  0  0
   -3.2208    0.8625    0.0000 C   0  0  0  0  0  0           0  0  0
   -2.0500    0.8625    0.0000 C   0  0  0  0  0  0           0  0  0
    3.8000   -0.9375    0.0000 C   0  0  0  0  0  0           0  0  0
    0.9375    1.5250    0.0000 C   0  0  0  0  0  0           0  0  0
   -0.4958    1.5208    0.0000 C   0  0  0  0  0  0           0  0  0
    1.0167    0.9000    0.0000 C   0  0  0  0  0  0           0  0  0
   -3.3583   -0.9542    0.0000 C   0  0  0  0  0  0           0  0  0
   -4.0625    0.2958    0.0000 C   0  0  0  0  0  0           0  0  0
   -2.6208   -1.3750    0.0000 C   0  0  0  0  0  0           0  0  0
    1.6625   -1.3542    0.0000 C   0  0  0  0  0  0           0  0  0
    3.0875   -1.3542    0.0000 C   0  0  0  0  0  0           0  0  0
   -4.7833   -0.1042    0.0000 C   0  0  0  0  0  0           0  0  0
   -4.0833   -1.3542    0.0000 C   0  0  0  0  0  0           0  0  0
   -4.7875   -0.9375    0.0000 C   0  0  0  0  0  0           0  0  0
  2  1  1  0     0  0
  3  5  1  0     0  0
  4  7  1  0     0  0
  5  6  1  0     0  0
  6  1  1  0     0  0
  7  2  1  0     0  0
  8  4  2  0     0  0
  9 10  1  0     0  0
 10  3  1  0     0  0
 11  8  1  0     0  0
  6 12  1  1     0  0
 13  1  2  0     0  0
 14  3  2  0     0  0
 15 11  2  0     0  0
 16  9  1  0     0  0
 10 17  1  1     0  0
  7 18  1  6     0  0
 19 11  1  0     0  0
 20  2  1  0     0  0
 21  9  1  0     0  0
 22  9  1  0     0  0
 23  8  1  0     0  0
 24 12  1  0     0  0
 25 12  1  0     0  0
 26 12  1  0     0  0
 27 16  1  0     0  0
 28 16  1  0     0  0
 29 17  1  0     0  0
 30 18  1  0     0  0
 31 18  1  0     0  0
 32 28  1  0     0  0
 33 27  1  0     0  0
 34 32  1  0     0  0
 33 34  1  0     0  0
M  END