
          11280715152D 1   1.00000     0.00000     0

 31 34  0     0  0            999 V2000
    1.4417   -7.0292    0.0000 O   0  0  0  0  0  0           0  0  0
    2.5917   -5.3167    0.0000 C   0  0  3  0  0  0           0  0  0
    2.3542   -6.2000    0.0000 C   0  0  3  0  0  0           0  0  0
    0.9917   -6.2417    0.0000 C   0  0  3  0  0  0           0  0  0
    1.8000   -5.7792    0.0000 C   0  0  3  0  0  0           0  0  0
    4.1917   -6.8042    0.0000 C   0  0  0  0  0  0           0  0  0
    3.1500   -6.8042    0.0000 N   0  0  0  0  0  0           0  0  0
    4.7042   -7.1042    0.0000 N   0  0  0  0  0  0           0  0  0
    3.1792   -5.1917    0.0000 C   0  0  0  0  0  0           0  0  0
    5.9792   -4.4167    0.0000 C   0  0  0  0  0  0           0  0  0
    3.6667   -7.1042    0.0000 N   0  0  0  0  0  0           0  0  0
    2.6292   -7.1042    0.0000 C   0  0  0  0  0  0           0  0  0
    4.1917   -6.2042    0.0000 O   0  0  0  0  0  0           0  0  0
    0.8292   -5.6542    0.0000 C   0  0  0  0  0  0           0  0  0
    1.3667   -5.3542    0.0000 C   0  0  0  0  0  0           0  0  0
    6.4292   -4.0292    0.0000 O   0  0  0  0  0  0           0  0  0
    3.3750   -4.6250    0.0000 C   0  0  0  0  0  0           0  0  0
    4.9542   -4.6167    0.0000 O   0  0  0  0  0  0           0  0  0
    5.4125   -4.2292    0.0000 C   0  0  0  0  0  0           0  0  0
    3.9417   -4.8167    0.0000 C   0  0  0  0  0  0           0  0  0
    4.3917   -4.4292    0.0000 C   0  0  0  0  0  0           0  0  0
    5.2292   -6.8042    0.0000 C   0  0  0  0  0  0           0  0  0
    6.0917   -5.0125    0.0000 O   0  0  0  0  0  0           0  0  0
    3.7042   -3.6417    0.0000 C   0  0  0  0  0  0           0  0  0
    3.2542   -4.0417    0.0000 C   0  0  0  0  0  0           0  0  0
    4.2750   -3.8375    0.0000 C   0  0  0  0  0  0           0  0  0
    5.2250   -6.2125    0.0000 C   0  0  0  0  0  0           0  0  0
    5.7417   -7.1042    0.0000 C   0  0  0  0  0  0           0  0  0
    6.2667   -6.8042    0.0000 C   0  0  0  0  0  0           0  0  0
    5.7417   -5.9042    0.0000 C   0  0  0  0  0  0           0  0  0
    6.2667   -6.2042    0.0000 C   0  0  0  0  0  0           0  0  0
  2  5  1  0     0  0
  3  4  1  0     0  0
  4  1  1  0     0  0
  5  1  1  0     0  0
  6 11  1  0     0  0
  7 12  2  0     0  0
  8  6  1  0     0  0
  9  2  1  0     0  0
 10 19  1  0     0  0
 11  7  1  0     0  0
 12  3  1  0     0  0
 13  6  2  0     0  0
 14  4  1  0     0  0
 15  5  1  0     0  0
 16 10  2  0     0  0
 17  9  1  0     0  0
 18 21  1  0     0  0
 19 18  1  0     0  0
 20 17  2  0     0  0
 21 20  1  0     0  0
 22  8  1  0     0  0
 23 10  1  0     0  0
 24 25  2  0     0  0
 25 17  1  0     0  0
 26 24  1  0     0  0
 27 22  1  0     0  0
 28 22  2  0     0  0
 29 28  1  0     0  0
 30 27  2  0     0  0
 31 29  2  0     0  0
 14 15  1  0     0  0
  2  3  1  0     0  0
 21 26  2  0     0  0
 30 31  1  0     0  0
M  END