
  SciTegic05061116452D

 36 37  0  0  0  0            999 V2000
   -2.8933    0.0384    0.0000 C   0  0  2  0  0  0
   -3.6104   -0.3779    0.0000 C   0  0  1  0  0  0
   -3.6096   -1.2008    0.0000 C   0  0  1  0  0  0
   -2.8932   -1.6130    0.0000 C   0  0  2  0  0  0
   -2.1762   -1.1966    0.0000 C   0  0
   -2.1755   -0.3681    0.0000 O   0  0
   -2.8938   -2.4437    0.0000 O   0  0
   -4.3266   -1.6172    0.0000 O   0  0
   -4.3322    0.0332    0.0000 O   0  0
   -2.8999    0.8670    0.0000 C   0  0
   -2.1841    1.2855    0.0000 O   0  0
   -1.4613   -1.6086    0.0000 O   0  0
    1.3995    0.0427    0.0000 O   0  0
    0.6836   -0.3698    0.0000 C   0  0  1  0  0  0
    0.6836   -1.1948    0.0000 C   0  0  2  0  0  0
    1.3995   -1.6073    0.0000 O   0  0
   -0.0323   -1.6073    0.0000 C   0  0  1  0  0  0
   -0.0323   -2.4323    0.0000 O   0  0
   -0.7481   -1.1948    0.0000 C   0  0  1  0  0  0
   -0.7481   -0.3698    0.0000 C   0  0  2  0  0  0
   -0.0323    0.0427    0.0000 O   0  0
   -1.4598    0.0427    0.0000 C   0  0
   -1.4598    0.8677    0.0000 O   0  0
    2.1113   -0.3693    0.0000 C   0  0
    2.1071   -1.1943    0.0000 C   0  0
    2.8195   -1.6104    0.0000 C   0  0
    2.8153   -2.4354    0.0000 C   0  0
    3.5277   -2.8515    0.0000 C   0  0
    3.5235   -3.6765    0.0000 C   0  0
    4.2358   -4.0926    0.0000 C   0  0
    4.2317   -4.9175    0.0000 C   0  0
    4.9440   -5.3337    0.0000 C   0  0
    4.9399   -6.1587    0.0000 C   0  0
    5.6523   -6.5748    0.0000 C   0  0
    5.6481   -7.3998    0.0000 C   0  0
    6.3606   -7.8160    0.0000 S   0  0
  4  5  1  0
  5 12  1  0
  5  6  1  0
  4  7  1  6
  1  2  1  0
  3  8  1  1
  1  6  1  0
  2  9  1  1
  2  3  1  0
  1 10  1  1
  3  4  1  0
 10 11  1  0
 14 13  1  1
 14 15  1  0
 15 16  1  6
 15 17  1  0
 17 18  1  1
 17 19  1  0
 19 12  1  6
 19 20  1  0
 20 21  1  0
 20 22  1  1
 13 24  1  0
 24 25  1  0
 25 26  1  0
 26 27  1  0
 27 28  1  0
 28 29  1  0
 29 30  1  0
 30 31  1  0
 31 32  1  0
 32 33  1  0
 33 34  1  0
 22 23  1  0
 34 35  1  0
 14 21  1  0
 35 36  1  0
M  END