
          11280715362D 1   1.00000     0.00000     0

 39 42  0     1  0            999 V2000
   -0.8750   -2.7917    0.0000 C   0  0  1  0  0  0           0  0  0
   -0.8333   -1.9667    0.0000 C   0  0  2  0  0  0           0  0  0
   -0.2333   -3.3125    0.0000 N   0  0  3  0  0  0           0  0  0
   -1.6708   -3.0042    0.0000 C   0  0  0  0  0  0           0  0  0
    2.0792   -0.2792    0.0000 C   0  0  0  0  0  0           0  0  0
   -1.5958   -1.6750    0.0000 C   0  0  2  0  0  0           0  0  0
    1.2542   -0.2917    0.0000 C   0  0  0  0  0  0           0  0  0
    3.3667   -2.3792    0.0000 C   0  0  0  0  0  0           0  0  0
   -1.8083   -0.8792    0.0000 O   0  0  0  0  0  0           0  0  0
    3.3167   -0.9917    0.0000 N   0  0  0  0  0  0           0  0  0
   -2.1208   -2.3167    0.0000 C   0  0  0  0  0  0           0  0  0
    3.9750   -2.0750    0.0000 O   0  0  0  0  0  0           0  0  0
    2.4792    0.4333    0.0000 C   0  0  0  0  0  0           0  0  0
    0.8417   -1.0042    0.0000 C   0  0  0  0  0  0           0  0  0
    0.8292    0.4250    0.0000 C   0  0  0  0  0  0           0  0  0
    1.0500   -1.6500    0.0000 C   0  0  0  0  0  0           0  0  0
    1.7292   -1.9167    0.0000 C   0  0  0  0  0  0           0  0  0
   -0.1375   -1.5250    0.0000 O   0  0  0  0  0  0           0  0  0
   -1.2208   -0.2917    0.0000 C   0  0  0  0  0  0           0  0  0
   -0.3958   -0.3000    0.0000 C   0  0  0  0  0  0           0  0  0
    3.4750   -3.0417    0.0000 O   0  0  0  0  0  0           0  0  0
    0.0042    0.4208    0.0000 C   0  0  0  0  0  0           0  0  0
    0.0167   -1.0167    0.0000 C   0  0  0  0  0  0           0  0  0
    2.4917   -0.9917    0.0000 C   0  0  0  0  0  0           0  0  0
    0.5042   -2.9667    0.0000 C   0  0  0  0  0  0           0  0  0
   -0.4208   -4.1167    0.0000 C   0  0  0  0  0  0           0  0  0
    0.4917   -2.0250    0.0000 C   0  0  0  0  0  0           0  0  0
    2.7542   -2.1375    0.0000 C   0  0  0  0  0  0           0  0  0
    3.7292   -0.2667    0.0000 C   0  0  0  0  0  0           0  0  0
    2.1042   -2.5042    0.0000 C   0  0  0  0  0  0           0  0  0
    2.0625    1.1500    0.0000 C   0  0  0  0  0  0           0  0  0
    3.3042    0.4458    0.0000 C   0  0  0  0  0  0           0  0  0
    2.4667    1.8708    0.0000 C   0  0  0  0  0  0           0  0  0
    2.0417    2.5833    0.0000 C   0  0  0  0  0  0           0  0  0
    0.0875   -4.7667    0.0000 C   0  0  0  0  0  0           0  0  0
    1.2542   -3.3292    0.0000 C   0  0  0  0  0  0           0  0  0
    2.4417    3.3000    0.0000 C   0  0  0  0  0  0           0  0  0
    0.9167   -4.7750    0.0000 C   0  0  0  0  0  0           0  0  0
    1.4292   -4.1292    0.0000 C   0  0  0  0  0  0           0  0  0
  2  1  1  0     0  0
  1  3  1  1     0  0
  4  1  1  0     0  0
  5  7  1  0     0  0
  6  2  1  0     0  0
  7 14  2  0     0  0
  8 28  1  0     0  0
  6  9  1  1     0  0
 10 24  1  0     0  0
 11  4  1  0     0  0
 12  8  2  0     0  0
 13  5  1  0     0  0
 14 23  1  0     0  0
 15 22  2  0     0  0
 16 27  1  0     0  0
 17 16  2  0     0  0
  2 18  1  6     0  0
 19  9  1  0     0  0
 20 19  1  0     0  0
 21  8  1  0     0  0
 22 20  1  0     0  0
 23 20  2  0     0  0
 24  5  2  0     0  0
 25  3  1  0     0  0
 26  3  1  0     0  0
 27 18  1  0     0  0
 28 30  1  0     0  0
 29 10  2  0     0  0
 30 17  1  0     0  0
 31 13  1  0     0  0
 32 13  2  0     0  0
 33 31  1  0     0  0
 34 33  1  0     0  0
 35 26  1  0     0  0
 36 25  1  0     0  0
 37 34  1  0     0  0
 38 35  1  0     0  0
 39 36  1  0     0  0
 11  6  1  0     0  0
 38 39  1  0     0  0
 15  7  1  0     0  0
 32 29  1  0     0  0
M  END