
  SciTegic10311316262D

 33 37  0  0  0  0            999 V2000
   37.8024  -13.1066    0.0000 C   0  0
   37.8006  -13.9328    0.0000 C   0  0
   38.5158  -14.3457    0.0000 C   0  0
   38.5172  -12.6917    0.0000 C   0  0
   39.2270  -13.1011    0.0000 C   0  0
   39.2282  -13.9307    0.0000 C   0  0
   39.9441  -14.3407    0.0000 C   0  0
   40.6596  -13.9250    0.0000 C   0  0
   40.6566  -13.0949    0.0000 N   0  0
   39.9398  -12.6883    0.0000 C   0  0  1  0  0  0
   41.3674  -12.6780    0.0000 C   0  0
   42.0858  -13.0859    0.0000 C   0  0  1  0  0  0
   39.9325  -11.8621    0.0000 C   0  0
   39.2881  -11.3485    0.0000 N   0  0
   39.3184  -10.5272    0.0000 C   0  0
   38.4953  -11.5836    0.0000 C   0  0
   38.0332  -10.8980    0.0000 C   0  0
   38.5437  -10.2518    0.0000 C   0  0
   38.2363   -9.4889    0.0000 C   0  0
   37.4229   -9.3745    0.0000 C   0  0
   36.9141  -10.0281    0.0000 C   0  0
   37.2216  -10.7872    0.0000 C   0  0
   42.0864  -13.9121    0.0000 C   0  0
   42.8035  -14.3178    0.0000 C   0  0
   43.5159  -13.9030    0.0000 C   0  0
   43.5085  -13.0739    0.0000 C   0  0
   42.7905  -12.6676    0.0000 C   0  0  1  0  0  0
   40.0041  -10.0704    0.0000 O   0  0
   38.2117  -12.3614    0.0000 O   0  0
   41.3640  -11.8513    0.0000 O   0  0
   42.7814  -11.8409    0.0000 C   0  0
   43.4935  -11.4254    0.0000 O   0  0
   42.0643  -11.4400    0.0000 O   0  0
  1  2  2  0
  2  3  1  0
  3  6  2  0
  5  4  2  0
  4  1  1  0
  5  6  1  0
  6  7  1  0
  7  8  1  0
  8  9  1  0
  9 10  1  0
 10  5  1  0
  9 11  1  0
 12 11  1  6
 10 13  1  6
 13 14  1  0
 14 15  1  0
 15 18  1  0
 17 16  1  0
 16 14  1  0
 17 18  2  0
 18 19  1  0
 19 20  2  0
 20 21  1  0
 21 22  2  0
 22 17  1  0
 12 23  1  0
 23 24  1  0
 24 25  1  0
 25 26  1  0
 26 27  1  0
 27 12  1  0
 15 28  2  0
 16 29  2  0
 11 30  2  0
 27 31  1  6
 31 32  1  0
 31 33  2  0
M  END