
          11280715012D 1   1.00000     0.00000     0

 20 21  0     0  0            999 V2000
    4.7542   -3.1375    0.0000 C   0  0  0  0  0  0           0  0  0
    4.7542   -2.3167    0.0000 N   0  0  0  0  0  0           0  0  0
    1.2000   -4.3792    0.0000 N   0  0  0  0  0  0           0  0  0
    1.9042   -3.1375    0.0000 C   0  0  3  0  0  0           0  0  0
    1.9042   -2.3167    0.0000 C   0  0  0  0  0  0           0  0  0
    1.1917   -3.5542    0.0000 C   0  0  0  0  0  0           0  0  0
    4.0417   -3.5542    0.0000 N   0  0  0  0  0  0           0  0  0
    1.2000   -1.9042    0.0000 C   0  0  0  0  0  0           0  0  0
    2.6250   -1.9042    0.0000 C   0  0  0  0  0  0           0  0  0
    5.4792   -3.5542    0.0000 N   0  0  0  0  0  0           0  0  0
    1.9125   -0.6667    0.0000 C   0  0  0  0  0  0           0  0  0
    2.6250   -1.0792    0.0000 C   0  0  0  0  0  0           0  0  0
    1.1917   -1.0875    0.0000 C   0  0  0  0  0  0           0  0  0
    1.9167    0.1583    0.0000 F   0  0  0  0  0  0           0  0  0
    3.3292   -3.1375    0.0000 C   0  0  0  0  0  0           0  0  0
    2.6167   -3.5542    0.0000 C   0  0  0  0  0  0           0  0  0
    0.4875   -4.7917    0.0000 C   0  0  0  0  0  0           0  0  0
    0.4750   -3.1417    0.0000 C   0  0  0  0  0  0           0  0  0
   -0.2333   -4.3792    0.0000 C   0  0  0  0  0  0           0  0  0
   -0.2375   -3.5542    0.0000 C   0  0  0  0  0  0           0  0  0
  2  1  2  0     0  0
  3  6  1  0     0  0
  4 16  1  0     0  0
  5  4  1  0     0  0
  6  4  1  0     0  0
  7  1  1  0     0  0
  8  5  1  0     0  0
  9  5  2  0     0  0
 10  1  1  0     0  0
 11 12  2  0     0  0
 12  9  1  0     0  0
 13  8  2  0     0  0
 14 11  1  0     0  0
 15  7  1  0     0  0
 16 15  1  0     0  0
 17  3  2  0     0  0
 18  6  2  0     0  0
 19 20  2  0     0  0
 20 18  1  0     0  0
 11 13  1  0     0  0
 19 17  1  0     0  0
M  END