
  SciTegic09081514172D

 68 68  0  0  0  0            999 V2000
   -1.3359   -3.9817    0.0000 O   0  5
   -1.3390   -5.1817    0.0000 S   0  0
   -2.3800   -5.7786    0.0000 O   0  0
   -0.0410   -5.9350    0.0000 O   0  0
   -2.3766   -4.5788    0.0000 O   0  0
    1.2501   -9.3878    0.0000 O   0  0
    1.2535   -8.1878    0.0000 S   0  0
    0.2159   -7.5851    0.0000 O   0  0
    2.5550   -7.4403    0.0000 O   0  0
   -3.9010   -1.8679    0.0000 C   0  0
   -4.8951   -1.1957    0.0000 O   0  0
   -1.3905   -3.2480    0.0000 O   0  0
    1.2999   -2.2084    0.0000 O   0  0
    4.7246   -5.6913    0.0000 O   0  0
    2.5619   -2.9395    0.0000 O   0  0
    1.2622   -3.6884    0.0000 C   0  0  2  0  0  0
    1.2610   -5.1884    0.0000 C   0  0  1  0  0  0
    2.5594   -5.9395    0.0000 C   0  0  2  0  0  0
    3.8590   -5.1906    0.0000 C   0  0  1  0  0  0
    3.8603   -3.6906    0.0000 C   0  0  1  0  0  0
    5.1622   -2.9439    0.0000 C   0  0
   -0.9974    2.4393    0.0000 O   0  0
    1.4928    0.7640    0.0000 N   0  0
   -2.4466    0.2840    0.0000 O   0  0
   -1.0986    0.9419    0.0000 C   0  0  1  0  0  0
    0.1451    0.1034    0.0000 C   0  0  1  0  0  0
    0.0397   -1.3933    0.0000 C   0  0  2  0  0  0
   -1.3071   -2.0509    0.0000 C   0  0  2  0  0  0
   -2.5509   -1.2124    0.0000 C   0  0  1  0  0  0
   -6.8188   12.6161    0.0000 C   0  0
   -5.5750   11.7776    0.0000 C   0  0
   -4.2270   12.4356    0.0000 C   0  0
   -4.1227   13.9320    0.0000 C   0  0
   -5.3665   14.7704    0.0000 C   0  0
   -6.7145   14.1125    0.0000 C   0  0
   -5.6762   10.2802    0.0000 N   0  0
   -2.7753   14.5930    0.0000 N   0  0
   -2.6732   16.0904    0.0000 C   0  0
   -1.3258   16.7514    0.0000 C   0  0
   -3.6694   16.7594    0.0000 O   0  0
   -1.2236   18.2488    0.0000 C   0  0
    0.1237   18.9098    0.0000 C   0  0
    0.2259   20.4072    0.0000 C   0  0
    1.5733   21.0682    0.0000 C   0  0
    1.8137   22.5359    0.0000 S   0  0
    3.2991   22.7451    0.0000 S   0  0
    3.9570   21.3971    0.0000 C   0  0
    2.8783   20.3548    0.0000 C   0  0
   -4.4306    9.4430    0.0000 C   0  0
   -1.0643    5.3020    0.0000 O   0  0
   -2.1418    4.7738    0.0000 C   0  0  1  0  0  0
   -3.3874    5.6110    0.0000 C   0  0  2  0  0  0
   -3.2862    7.1084    0.0000 C   0  0  1  0  0  0
   -4.5318    7.9456    0.0000 C   0  0  1  0  0  0
   -5.6093    7.4174    0.0000 O   0  0
   -2.2087    7.6366    0.0000 O   0  0
   -4.4649    5.0828    0.0000 O   0  0
   -2.2430    3.2764    0.0000 C   0  0
    0.4083   -4.2087    0.0000 H   0  0
    6.0271   -3.4459    0.0000 O   0  0
    5.1648   -1.9439    0.0000 O   0  5
    1.5954    2.2613    0.0000 C   0  0
    0.7654    2.8191    0.0000 C   0  0
    2.4933    2.7015    0.0000 O   0  0
    0.2127   -8.7849    0.0000 O   0  5
   17.6630    9.1549    0.0000 Na  0  3
   15.1630    9.1549    0.0000 Na  0  3
   12.6630    9.1549    0.0000 Na  0  3
  2  1  1  0
  3  2  2  0
  4  2  1  0
  2  5  2  0
  7  6  2  0
  8  7  2  0
 10 11  1  0
 20 15  1  0
 15 16  1  0
 16 17  1  0
 17 18  1  0
 18 19  1  0
 19 20  1  0
 20 21  1  6
 16 13  1  0
 17  4  1  1
 18  9  1  6
 19 14  1  1
 29 24  1  0
 24 25  1  0
 25 26  1  0
 26 27  1  0
 27 28  1  0
 28 29  1  0
 29 10  1  1
 25 22  1  6
 26 23  1  6
 27 13  1  1
 28 12  1  1
 30 31  2  0
 31 32  1  0
 32 33  2  0
 33 34  1  0
 34 35  2  0
 35 30  1  0
 31 36  1  0
 33 37  1  0
 37 38  1  0
 38 39  1  0
 38 40  2  0
 39 41  1  0
 41 42  1  0
 42 43  1  0
 43 44  1  0
 44 45  1  0
 45 46  1  0
 46 47  1  0
 47 48  1  0
 48 44  1  0
 36 49  1  0
 49 54  1  0
 51 50  1  6
 51 52  1  0
 52 53  1  0
 53 54  1  0
 54 55  1  1
 53 56  1  1
 52 57  1  1
 51 58  1  0
 58 22  1  0
 16 59  1  1
 21 60  2  0
 21 61  1  0
 23 62  1  0
 62 63  1  0
 62 64  2  0
  9  7  1  0
  7 65  1  0
M  CHG  6   1  -1  61  -1  65  -1  66   1  67   1  68   1
M  END