
  SciTegic07221113202D

 40 42  0  0  0  0            999 V2000
    1.4143  -18.1205    0.0000 C   0  0
    2.2393  -18.1205    0.0000 C   0  0
    1.0018  -18.8350    0.0000 C   0  0
    2.6518  -18.8350    0.0000 C   0  0
    3.4768  -18.8350    0.0000 O   0  0
    2.2393  -19.5495    0.0000 O   0  0
    0.1768  -18.8350    0.0000 O   0  0
    1.4143  -19.5495    0.0000 O   0  0
    7.5009  -21.9097    0.0000 N   0  0
    3.2212  -22.7347    0.0000 N   0  0
    2.5051  -23.1586    0.0000 C   0  0
    3.9317  -23.1472    0.0000 C   0  0
    8.2114  -21.4972    0.0000 C   0  0
    6.0801  -22.7347    0.0000 N   0  0
    4.6478  -22.7347    0.0000 C   0  0
    6.7848  -21.4972    0.0000 C   0  0
    7.5009  -22.7347    0.0000 C   0  0
    8.2114  -20.6722    0.0000 C   0  0
    3.9317  -23.9722    0.0000 O   0  0
    1.7832  -22.7461    0.0000 C   0  0
    5.3582  -23.1472    0.0000 C   0  0
    2.5051  -23.9836    0.0000 C   0  0
    6.7848  -23.1472    0.0000 C   0  0
    6.0629  -21.9097    0.0000 C   0  0
    7.5067  -20.2711    0.0000 O   0  0
    8.9332  -21.9097    0.0000 C   0  0
    8.9275  -20.2597    0.0000 C   0  0
    1.0786  -23.1586    0.0000 C   0  0
    1.7832  -21.9211    0.0000 C   0  0
    3.2212  -24.3961    0.0000 C   0  0
    1.8004  -24.3961    0.0000 C   0  0
    6.7962  -20.6836    0.0000 C   0  0
    9.6379  -21.5086    0.0000 C   0  0
    0.3681  -22.7518    0.0000 C   0  0
    9.6493  -20.6836    0.0000 C   0  0
    1.0786  -21.5086    0.0000 C   0  0
    3.2212  -25.2211    0.0000 C   0  0
    1.8004  -25.2211    0.0000 C   0  0
    2.5051  -25.6336    0.0000 C   0  0
    0.3567  -21.9211    0.0000 C   0  0
  1  2  2  0
  1  3  1  0
  2  4  1  0
  4  5  2  0
  4  6  1  0
  3  7  1  0
  3  8  2  0
 10 12  1  0
 11 10  1  0
 12 15  1  0
 13  9  1  0
 14 23  1  0
 15 21  1  0
 16  9  1  0
 17  9  1  0
 18 13  1  0
 19 12  2  0
 20 11  1  0
 21 14  1  0
 22 11  1  0
 23 17  1  0
 24 16  1  0
 25 18  1  0
 26 13  2  0
 27 18  2  0
 28 20  1  0
 29 20  2  0
 30 22  1  0
 31 22  1  0
 32 25  1  0
 33 26  1  0
 34 28  2  0
 35 33  2  0
 36 29  1  0
 37 30  1  0
 38 31  1  0
 39 38  1  0
 40 36  2  0
 14 24  1  0
 35 27  1  0
 39 37  1  0
 40 34  1  0
M  END