
          11280715102D 1   1.00000     0.00000     0

 29 32  0     0  0            999 V2000
    3.9167   -4.0667    0.0000 C   0  0  0  0  0  0           0  0  0
    3.9167   -3.2417    0.0000 N   0  0  3  0  0  0           0  0  0
    6.0542   -2.0042    0.0000 N   0  0  3  0  0  0           0  0  0
    4.6375   -2.8292    0.0000 C   0  0  3  0  0  0           0  0  0
    3.2042   -2.8375    0.0000 C   0  0  0  0  0  0           0  0  0
    4.6375   -4.4792    0.0000 O   0  0  0  0  0  0           0  0  0
    5.3417   -3.2417    0.0000 C   0  0  0  0  0  0           0  0  0
    4.6375   -2.0042    0.0000 C   0  0  0  0  0  0           0  0  0
    3.2042   -4.4792    0.0000 C   0  0  0  0  0  0           0  0  0
    5.3417   -1.5917    0.0000 C   0  0  0  0  0  0           0  0  0
    6.0542   -2.8292    0.0000 C   0  0  0  0  0  0           0  0  0
    6.7750   -1.5917    0.0000 C   0  0  0  0  0  0           0  0  0
    3.2042   -2.0042    0.0000 C   0  0  0  0  0  0           0  0  0
    2.4917   -3.2417    0.0000 C   0  0  0  0  0  0           0  0  0
    1.7792   -2.0042    0.0000 C   0  0  0  0  0  0           0  0  0
    1.7792   -2.8375    0.0000 C   0  0  0  0  0  0           0  0  0
    2.4917   -1.5917    0.0000 C   0  0  0  0  0  0           0  0  0
    1.0667   -1.6000    0.0000 Br  0  0  0  0  0  0           0  0  0
    7.4875   -2.0125    0.0000 C   0  0  0  0  0  0           0  0  0
    3.2167   -5.3042    0.0000 C   0  0  0  0  0  0           0  0  0
    2.4917   -4.0667    0.0000 C   0  0  0  0  0  0           0  0  0
    8.2000   -1.6000    0.0000 C   0  0  0  0  0  0           0  0  0
    7.4792   -2.8375    0.0000 C   0  0  0  0  0  0           0  0  0
    1.7792   -4.4792    0.0000 C   0  0  0  0  0  0           0  0  0
    2.5042   -5.7167    0.0000 C   0  0  0  0  0  0           0  0  0
    8.1917   -3.2500    0.0000 C   0  0  0  0  0  0           0  0  0
    8.9125   -2.0125    0.0000 C   0  0  0  0  0  0           0  0  0
    1.7792   -5.3042    0.0000 C   0  0  0  0  0  0           0  0  0
    8.9125   -2.8417    0.0000 C   0  0  0  0  0  0           0  0  0
  2  1  1  0     0  0
  3 10  1  0     0  0
  4  2  1  0     0  0
  5  2  1  0     0  0
  6  1  2  0     0  0
  7  4  1  0     0  0
  8  4  1  0     0  0
  9  1  1  0     0  0
 10  8  1  0     0  0
 11  7  1  0     0  0
 12  3  1  0     0  0
 13  5  2  0     0  0
 14  5  1  0     0  0
 15 16  1  0     0  0
 16 14  2  0     0  0
 17 13  1  0     0  0
 18 15  1  0     0  0
 19 12  1  0     0  0
 20  9  1  0     0  0
 21  9  2  0     0  0
 22 19  1  0     0  0
 23 19  2  0     0  0
 24 21  1  0     0  0
 25 20  2  0     0  0
 26 23  1  0     0  0
 27 22  2  0     0  0
 28 24  2  0     0  0
 29 26  2  0     0  0
 28 25  1  0     0  0
 15 17  2  0     0  0
  3 11  1  0     0  0
 29 27  1  0     0  0
M  END