
  SciTegic12161615362D

104110  0  0  0  0            999 V2000
   18.2359   39.0065    0.0000 C   0  0
   18.2339   37.5057    0.0000 C   0  0
   16.9336   36.7561    0.0000 N   0  0
   19.2725   36.9046    0.0000 O   0  0
   16.9316   35.2553    0.0000 C   0  0  2  0  0  0
   15.6314   34.5058    0.0000 C   0  0
   14.5927   35.1068    0.0000 O   0  0
   15.6294   33.0050    0.0000 N   0  0
   14.3291   32.2555    0.0000 C   0  0  2  0  0  0
   14.3271   30.7546    0.0000 C   0  0
   15.3658   30.1536    0.0000 O   0  0
   13.0269   30.0051    0.0000 N   0  0
   13.0249   28.5043    0.0000 C   0  0  2  0  0  0
   11.7246   27.7548    0.0000 C   0  0
   10.6860   28.3558    0.0000 O   0  0
   11.7226   26.2540    0.0000 N   0  0
   10.4223   25.5044    0.0000 C   0  0  2  0  0  0
   10.4204   24.0036    0.0000 C   0  0
   11.4590   23.4026    0.0000 O   0  0
    9.1201   23.2541    0.0000 N   0  0
   18.2291   34.5009    0.0000 C   0  0
   14.3223   27.7499    0.0000 C   0  0
    9.1181   21.7533    0.0000 C   0  0  2  0  0  0
    7.8178   21.0038    0.0000 C   0  0
    7.8158   19.5029    0.0000 N   0  0
    6.7792   21.6048    0.0000 O   0  0
   10.4156   20.9989    0.0000 C   0  0
   13.0286   33.0045    0.0000 C   0  0
    9.1218   26.2535    0.0000 C   0  0
   18.2254   33.0001    0.0000 C   0  0
   19.5211   32.2442    0.0000 C   0  0
   19.5144   30.7442    0.0000 C   0  0
   18.2120   30.0000    0.0000 C   0  0
   16.9164   30.7558    0.0000 C   0  0
   16.9231   32.2558    0.0000 C   0  0
   14.3187   26.2491    0.0000 C   0  0
   15.6143   25.4932    0.0000 C   0  0
   15.6076   23.9932    0.0000 C   0  0
   14.3053   23.2490    0.0000 C   0  0
   13.0096   24.0048    0.0000 C   0  0
   13.0163   25.5048    0.0000 C   0  0
   14.2999   22.0490    0.0000 O   0  0
    7.8224   25.5025    0.0000 C   0  0
    6.5218   26.2516    0.0000 C   0  0
    5.2224   25.5006    0.0000 C   0  0
    3.9218   26.2497    0.0000 N   0  3
    2.8829   25.6492    0.0000 C   0  0
    2.8823   26.8491    0.0000 C   0  0
    3.9210   27.4497    0.0000 C   0  0
   10.4126   19.7989    0.0000 O   0  0
   19.5344   39.7575    0.0000 C   0  0
   19.5333   41.2575    0.0000 C   0  0
   18.2337   42.0066    0.0000 C   0  0
   16.9352   41.2556    0.0000 C   0  0
   16.9363   39.7556    0.0000 C   0  0
   18.2329   43.2066    0.0000 Br  0  0
    6.5156   18.7534    0.0000 C   0  0  2  0  0  0
    6.5136   17.2526    0.0000 C   0  0
    7.5522   16.6516    0.0000 O   0  0
    5.2133   16.5031    0.0000 N   0  0
    5.2113   15.0023    0.0000 C   0  0  2  0  0  0
    6.5088   14.2479    0.0000 C   0  0
    7.5497   14.8450    0.0000 N   0  0
    6.5059   13.0479    0.0000 O   0  0
    5.2150   19.5025    0.0000 C   0  0
    3.9111   14.2528    0.0000 C   0  0
    3.9091   12.7519    0.0000 C   0  0
    2.6088   12.0024    0.0000 C   0  0
    2.6068   10.5016    0.0000 C   0  0
    1.3065    9.7521    0.0000 N   0  0
    1.3046    8.2513    0.0000 C   0  0
    2.3432    7.6502    0.0000 S   0  0
    0.0043    7.5017    0.0000 N   0  0
    0.0023    6.0009    0.0000 C   0  0
   -1.2962    5.2499    0.0000 C   0  0
   -1.2951    3.7499    0.0000 C   0  0
    0.0046    3.0009    0.0000 C   0  0
    1.3030    3.7519    0.0000 C   0  0
    1.3019    5.2519    0.0000 C   0  0
    3.9156   18.7515    0.0000 C   0  0
    2.6150   19.5006    0.0000 C   0  0
    2.6142   20.7006    0.0000 O   0  0
    1.5761   18.9001    0.0000 O   0  0
    0.0000    1.5002    0.0000 C   0  0
    0.0000   -1.5002    0.0000 O   0  0
   -1.2989   -0.7501    0.0000 C   0  0
   -1.2989    0.7501    0.0000 C   0  0
   -2.5978    1.5002    0.0000 C   0  0
   -3.8968    0.7501    0.0000 C   0  0
   -3.8968   -0.7501    0.0000 C   0  0
   -2.5978   -1.5002    0.0000 C   0  0
    2.6048    3.0051    0.0000 C   0  0
    2.6073    2.0051    0.0000 O   0  0
    3.6428    3.6073    0.0000 O   0  0
    1.2806    0.7501    0.0000 C   0  0
    1.2806   -0.7501    0.0000 C   0  0
    2.5978   -1.5002    0.0000 C   0  0
    3.8968   -0.7501    0.0000 C   0  0
    3.8968    0.7501    0.0000 C   0  0
    2.5978    1.5002    0.0000 C   0  0
    4.9360   -1.3500    0.0000 O   0  0
   -4.9360   -1.3500    0.0000 O   0  0
   11.9896   32.4041    0.0000 C   0  0
   13.0277   34.2045    0.0000 C   0  0
  1  2  1  0
  2  3  1  0
  2  4  2  0
  3  5  1  0
  5  6  1  0
  6  7  2  0
  6  8  1  0
  8  9  1  0
  9 10  1  0
 10 11  2  0
 10 12  1  0
 12 13  1  0
 13 14  1  0
 14 15  2  0
 14 16  1  0
 16 17  1  0
 17 18  1  0
 18 19  2  0
 18 20  1  0
  5 21  1  1
 13 22  1  1
 20 23  1  0
 23 24  1  0
 24 25  1  0
 24 26  2  0
 23 27  1  1
  9 28  1  6
 17 29  1  6
 21 30  1  0
 30 31  2  0
 31 32  1  0
 32 33  2  0
 33 34  1  0
 34 35  2  0
 35 30  1  0
 22 36  1  0
 36 37  2  0
 37 38  1  0
 38 39  2  0
 39 40  1  0
 40 41  2  0
 41 36  1  0
 39 42  1  0
 29 43  1  0
 43 44  1  0
 44 45  1  0
 45 46  1  0
 46 47  1  0
 46 48  1  0
 46 49  1  0
 27 50  1  0
  1 51  2  0
 51 52  1  0
 52 53  2  0
 53 54  1  0
 54 55  2  0
 55  1  1  0
 53 56  1  0
 25 57  1  0
 57 58  1  0
 58 59  2  0
 58 60  1  0
 60 61  1  0
 61 62  1  0
 62 63  1  0
 62 64  2  0
 57 65  1  6
 61 66  1  6
 66 67  1  0
 67 68  1  0
 68 69  1  0
 69 70  1  0
 70 71  1  0
 71 72  2  0
 71 73  1  0
 73 74  1  0
 74 75  2  0
 75 76  1  0
 76 77  2  0
 77 78  1  0
 78 79  2  0
 79 74  1  0
 65 80  1  0
 80 81  1  0
 81 82  1  0
 81 83  2  0
 84 87  1  0
 84 95  2  0
 86 85  1  0
 85 96  1  0
 77 84  1  0
 86 87  2  0
 87 88  1  0
 88 89  2  0
 89 90  1  0
 90 91  2  0
 91 86  1  0
 78 92  1  0
 92 93  1  0
 92 94  2  0
 95 96  1  0
 95100  1  0
 96 97  2  0
 97 98  1  0
 98 99  1  0
 99100  2  0
 98101  2  0
 90102  1  0
 28103  1  0
 28104  1  0
M  CHG  1  46   1
M  END