
          11280715182D 1   1.00000     0.00000     0

 14 14  0     0  0            999 V2000
    6.8542   -4.1000    0.0000 S   0  0  3  0  0  0           0  0  0
    6.0292   -4.1000    0.0000 C   0  0  0  0  0  0           0  0  0
    6.8542   -4.9250    0.0000 O   0  0  0  0  0  0           0  0  0
    6.8542   -3.2750    0.0000 O   0  0  0  0  0  0           0  0  0
    7.6792   -4.1042    0.0000 N   0  0  0  0  0  0           0  0  0
    5.6167   -4.8042    0.0000 C   0  0  0  0  0  0           0  0  0
    5.6167   -3.3875    0.0000 C   0  0  0  0  0  0           0  0  0
    4.4000   -4.0917    0.0000 C   0  0  0  0  0  0           0  0  0
    3.5750   -4.0875    0.0000 S   0  0  0  0  0  0           0  0  0
    4.8042   -3.3875    0.0000 C   0  0  0  0  0  0           0  0  0
    4.8042   -4.8042    0.0000 C   0  0  0  0  0  0           0  0  0
    1.5167   -3.3542    0.0000 O   0  0  0  0  0  0           0  0  0
    2.7500   -4.0792    0.0000 C   0  0  0  0  0  0           0  0  0
    2.3417   -3.3625    0.0000 C   0  0  0  0  0  0           0  0  0
  2  1  1  0     0  0
  3  1  2  0     0  0
  4  1  2  0     0  0
  5  1  1  0     0  0
  6  2  2  0     0  0
  7  2  1  0     0  0
  8 10  1  0     0  0
  9  8  1  0     0  0
 10  7  2  0     0  0
 11  6  1  0     0  0
 12 14  1  0     0  0
 13  9  1  0     0  0
 14 13  1  0     0  0
 11  8  2  0     0  0
M  END