
          11280715202D 1   1.00000     0.00000     0

 21 21  0     0  0            999 V2000
    0.3917   -2.6167    0.0000 C   0  0  0  0  0  0           0  0  0
   -0.3208   -2.2042    0.0000 C   0  0  0  0  0  0           0  0  0
    6.8250   -2.1792    0.0000 N   0  0  3  0  0  0           0  0  0
    1.8250   -2.6125    0.0000 N   0  0  0  0  0  0           0  0  0
   -0.3208   -1.3792    0.0000 O   0  0  0  0  0  0           0  0  0
    1.1042   -2.2042    0.0000 C   0  0  0  0  0  0           0  0  0
    0.4000   -3.4375    0.0000 C   0  0  0  0  0  0           0  0  0
   -1.0333   -2.6167    0.0000 C   0  0  0  0  0  0           0  0  0
    7.5375   -2.5917    0.0000 C   0  0  0  0  0  0           0  0  0
    6.8167   -1.3542    0.0000 C   0  0  0  0  0  0           0  0  0
    6.1042   -2.5917    0.0000 C   0  0  0  0  0  0           0  0  0
    2.5375   -2.2000    0.0000 C   0  0  0  0  0  0           0  0  0
    0.3917   -0.9667    0.0000 C   0  0  0  0  0  0           0  0  0
    5.3917   -2.1875    0.0000 C   0  0  0  0  0  0           0  0  0
    3.2542   -2.6042    0.0000 C   0  0  0  0  0  0           0  0  0
    3.9667   -2.1917    0.0000 C   0  0  0  0  0  0           0  0  0
    4.6792   -2.6042    0.0000 C   0  0  0  0  0  0           0  0  0
    8.2542   -2.1792    0.0000 C   0  0  0  0  0  0           0  0  0
    7.5292   -0.9417    0.0000 C   0  0  0  0  0  0           0  0  0
   -0.3083   -3.8542    0.0000 C   0  0  0  0  0  0           0  0  0
   -1.0333   -3.4417    0.0000 C   0  0  0  0  0  0           0  0  0
  2  1  2  0     0  0
  3 11  1  0     0  0
  4  6  1  0     0  0
  5  2  1  0     0  0
  6  1  1  0     0  0
  7  1  1  0     0  0
  8  2  1  0     0  0
  9  3  1  0     0  0
 10  3  1  0     0  0
 11 14  1  0     0  0
 12  4  1  0     0  0
 13  5  1  0     0  0
 14 17  1  0     0  0
 15 12  1  0     0  0
 16 15  1  0     0  0
 17 16  1  0     0  0
 18  9  1  0     0  0
 19 10  1  0     0  0
 20  7  2  0     0  0
 21 20  1  0     0  0
 21  8  2  0     0  0
M  END