
          11280715102D 1   1.00000     0.00000     0

 11 12  0     0  0            999 V2000
    3.0042   -0.1292    0.0000 C   0  0  0  0  0  0           0  0  0
    2.5167    0.2208    0.0000 N   0  0  0  0  0  0           0  0  0
    2.7042    0.7875    0.0000 N   0  0  0  0  0  0           0  0  0
    3.4917    0.2208    0.0000 N   0  0  0  0  0  0           0  0  0
    3.3042    0.7958    0.0000 C   0  0  0  0  0  0           0  0  0
    3.0125   -0.7292    0.0000 C   0  0  0  0  0  0           0  0  0
    2.4917   -1.0292    0.0000 C   0  0  0  0  0  0           0  0  0
    3.5292   -1.0292    0.0000 C   0  0  0  0  0  0           0  0  0
    3.5292   -1.6292    0.0000 C   0  0  0  0  0  0           0  0  0
    2.4917   -1.6292    0.0000 C   0  0  0  0  0  0           0  0  0
    3.0125   -1.9292    0.0000 C   0  0  0  0  0  0           0  0  0
  2  1  2  0     0  0
  3  2  1  0     0  0
  4  1  1  0     0  0
  5  4  2  0     0  0
  6  1  1  0     0  0
  7  6  2  0     0  0
  8  6  1  0     0  0
  9  8  2  0     0  0
 10  7  1  0     0  0
 11  9  1  0     0  0
  5  3  1  0     0  0
 10 11  2  0     0  0
M  END