
  CDK    9/16/09,9:56

 46 51  0  0  0  0  0  0  0  0999 V2000
    8.2958   -7.2167    0.0000 C   0  0  0  0  0  0  0  0  0  0  0  0
    9.0083   -7.6292    0.0000 C   0  0  0  0  0  0  0  0  0  0  0  0
    9.7179   -7.2206    0.0000 C   0  0  0  0  0  0  0  0  0  0  0  0
    9.7211   -6.3980    0.0000 N   0  0  0  0  0  0  0  0  0  0  0  0
    9.0086   -5.9855    0.0000 C   0  0  0  0  0  0  0  0  0  0  0  0
    8.2929   -6.3956    0.0000 C   0  0  0  0  0  0  0  0  0  0  0  0
    4.7167   -5.3875    0.0000 C   0  0  0  0  0  0  0  0  0  0  0  0
    4.7167   -6.2125    0.0000 C   0  0  0  0  0  0  0  0  0  0  0  0
    5.4287   -6.6208    0.0000 C   0  0  0  0  0  0  0  0  0  0  0  0
    6.1407   -6.2125    0.0000 O   0  0  0  0  0  0  0  0  0  0  0  0
    6.1407   -5.3875    0.0000 C   0  0  0  0  0  0  0  0  0  0  0  0
    5.4287   -4.9708    0.0000 C   0  0  0  0  0  0  0  0  0  0  0  0
    6.8564   -4.9771    0.0000 C   0  0  0  0  0  0  0  0  0  0  0  0
   10.1655   -4.9750    0.0000 C   0  0  0  0  0  0  0  0  0  0  0  0
   10.8811   -4.5646    0.0000 C   0  0  0  0  0  0  0  0  0  0  0  0
   11.5944   -4.9792    0.0000 C   0  0  0  0  0  0  0  0  0  0  0  0
   10.8836   -3.7396    0.0000 C   0  0  0  0  0  0  0  0  0  0  0  0
   11.5920   -5.8042    0.0000 C   0  0  0  0  0  0  0  0  0  0  0  0
   12.3053   -6.2188    0.0000 C   0  0  0  0  0  0  0  0  0  0  0  0
   10.8763   -6.2146    0.0000 C   0  0  0  0  0  0  0  0  0  0  0  0
   12.3028   -7.0438    0.0000 C   0  0  0  0  0  0  0  0  0  0  0  0
   13.0161   -7.4584    0.0000 C   0  0  0  0  0  0  0  0  0  0  0  0
   11.5872   -7.4542    0.0000 C   0  0  0  0  0  0  0  0  0  0  0  0
    5.4282   -7.4450    0.0000 C   0  0  0  0  0  0  0  0  0  0  0  0
    4.7121   -7.8569    0.0000 C   0  0  0  0  0  0  0  0  0  0  0  0
    4.7118   -8.6811    0.0000 C   0  0  0  0  0  0  0  0  0  0  0  0
    5.4268   -9.0944    0.0000 C   0  0  0  0  0  0  0  0  0  0  0  0
    3.9971   -9.0933    0.0000 O   0  0  0  0  0  0  0  0  0  0  0  0
    3.9981   -7.4436    0.0000 O   0  0  0  0  0  0  0  0  0  0  0  0
    6.8500   -5.8000    0.0000 H   0  0  0  0  0  0  0  0  0  0  0  0
    6.1375   -7.0333    0.0000 H   0  0  0  0  0  0  0  0  0  0  0  0
    4.0028   -6.6260    0.0000 C   0  0  0  0  0  0  0  0  0  0  0  0
    5.4287   -4.1458    0.0000 C   0  0  0  0  0  0  0  0  0  0  0  0
    4.0010   -4.9771    0.0000 O   0  0  0  0  0  0  0  0  0  0  0  0
    6.1405   -7.8546    0.0000 C   0  0  0  0  0  0  0  0  0  0  0  0
    6.1463   -8.6753    0.0000 C   0  0  0  0  0  0  0  0  0  0  0  0
    6.9286   -8.9234    0.0000 O   0  0  0  0  0  0  0  0  0  0  0  0
    7.4063   -8.2559    0.0000 C   0  0  0  0  0  0  0  0  0  0  0  0
    6.9192   -7.5955    0.0000 C   0  0  0  0  0  0  0  0  0  0  0  0
   11.3667   -8.2500    0.0000 C   0  0  0  0  0  0  0  0  0  0  0  0
   11.7651   -8.9724    0.0000 C   0  0  0  0  0  0  0  0  0  0  0  0
    5.4282   -9.9194    0.0000 C   0  0  0  0  0  0  0  0  0  0  0  0
    7.5000   -7.0042    0.0000 O   0  0  0  0  0  0  0  0  0  0  0  0
    8.1167   -7.8375    0.0000 O   0  0  0  0  0  0  0  0  0  0  0  0
    6.9125   -6.7667    0.0000 H   0  0  0  0  0  0  0  0  0  0  0  0
   10.1292   -5.6792    0.0000 C   0  0  0  0  0  0  0  0  0  0  0  0
 21 23  1  0  0  0  0 
 10 11  1  0  0  0  0 
 11 12  1  0  0  0  0 
 24 25  1  0  0  0  0 
  5  6  1  0  0  0  0 
 25 26  1  0  0  0  0 
 11 13  1  0  0  0  0 
 26 27  1  0  0  0  0 
 27 36  2  0  0  0  0 
 35 24  2  0  0  0  0 
  9 24  1  0  0  0  0 
  7  8  1  0  0  0  0 
 26 28  2  0  0  0  0 
 13 14  1  0  0  0  0 
 25 29  2  0  0  0  0 
 11 30  1  6  0  0  0 
 14 15  1  0  0  0  0 
  9 31  1  6  0  0  0 
  1  2  1  0  0  0  0 
  8 32  1  6  0  0  0 
 15 16  1  0  0  0  0 
 12 33  1  1  0  0  0 
  1  6  1  0  0  0  0 
  7 34  1  1  0  0  0 
 35 36  1  0  0  0  0 
 15 17  1  6  0  0  0 
  2  3  1  0  0  0  0 
 16 18  2  0  0  0  0 
  3  4  1  0  0  0  0 
 18 19  1  0  0  0  0 
 36 37  1  0  0  0  0 
 37 38  1  0  0  0  0 
 38 39  1  0  0  0  0 
 39 35  1  0  0  0  0 
  4  5  1  0  0  0  0 
 23 40  1  0  0  0  0 
 38 40  1  0  0  0  0 
 18 20  1  0  0  0  0 
 40 41  1  6  0  0  0 
  7 12  1  0  0  0  0 
 27 42  1  0  0  0  0 
 19 21  1  0  0  0  0 
 39 43  1  0  0  0  0 
  8  9  1  0  0  0  0 
 38 44  1  1  0  0  0 
 43  1  1  0  0  0  0 
 44  1  1  0  0  0  0 
 21 22  1  1  0  0  0 
 39 45  1  6  0  0  0 
  9 10  1  0  0  0  0 
  4 46  1  0  0  0  0 
M  END