
          11280715362D 1   1.00000     0.00000     0

 20 21  0     0  0            999 V2000
    3.3167    1.5250    0.0000 C   0  0  0  0  0  0           0  0  0
    2.6042    1.1125    0.0000 C   0  0  0  0  0  0           0  0  0
    5.4625    1.1208    0.0000 C   0  0  0  0  0  0           0  0  0
    1.8875    1.5208    0.0000 C   0  0  0  0  0  0           0  0  0
    4.0292    1.1208    0.0000 N   0  0  0  0  0  0           0  0  0
    3.3125    2.3500    0.0000 N   0  0  0  0  0  0           0  0  0
    4.7417    1.5333    0.0000 C   0  0  0  0  0  0           0  0  0
    6.1667    1.5375    0.0000 C   0  0  0  0  0  0           0  0  0
    1.1750    1.1083    0.0000 C   0  0  0  0  0  0           0  0  0
    6.1667    2.3625    0.0000 O   0  0  0  0  0  0           0  0  0
    5.4542    0.2958    0.0000 C   0  0  0  0  0  0           0  0  0
    6.8792    1.1333    0.0000 C   0  0  0  0  0  0           0  0  0
    0.4542    1.5208    0.0000 C   0  0  0  0  0  0           0  0  0
    1.1750    0.2750    0.0000 C   0  0  0  0  0  0           0  0  0
    5.4500    2.7708    0.0000 C   0  0  0  0  0  0           0  0  0
    6.1750   -0.1125    0.0000 C   0  0  0  0  0  0           0  0  0
    6.8875    0.3000    0.0000 C   0  0  0  0  0  0           0  0  0
    0.4542   -0.1375    0.0000 C   0  0  0  0  0  0           0  0  0
   -0.2583    1.1000    0.0000 C   0  0  0  0  0  0           0  0  0
   -0.2583    0.2750    0.0000 C   0  0  0  0  0  0           0  0  0
  2  1  1  0     0  0
  3  7  1  0     0  0
  4  2  2  0     0  0
  5  1  2  0     0  0
  6  1  1  0     0  0
  7  5  1  0     0  0
  8  3  1  0     0  0
  9  4  1  0     0  0
 10  8  1  0     0  0
 11  3  2  0     0  0
 12  8  2  0     0  0
 13  9  2  0     0  0
 14  9  1  0     0  0
 15 10  1  0     0  0
 16 11  1  0     0  0
 17 16  2  0     0  0
 18 14  2  0     0  0
 19 13  1  0     0  0
 20 18  1  0     0  0
 12 17  1  0     0  0
 19 20  2  0     0  0
M  END