
  -OEChem-11071500202D

 32 37  0     0  0  0  0  0  0999 V2000
   10.0720   -6.7969    0.0000 O   0  0  0  0  0  0  0  0  0  0  0  0
   10.0720   -5.4676    0.0000 C   0  0  0  0  0  0  0  0  0  0  0  0
    8.9209   -4.7962    0.0000 C   0  0  0  0  0  0  0  0  0  0  0  0
    8.7701   -3.4807    0.0000 C   0  0  0  0  0  0  0  0  0  0  0  0
    7.4683   -3.2066    0.0000 C   0  0  0  0  0  0  0  0  0  0  0  0
    6.8106   -2.0418    0.0000 C   0  0  0  0  0  0  0  0  0  0  0  0
    7.2217   -0.7811    0.0000 N   0  0  0  0  0  0  0  0  0  0  0  0
    8.4824   -0.3700    0.0000 C   0  0  0  0  0  0  0  0  0  0  0  0
    6.1391    0.0000    0.0000 C   0  0  0  0  0  0  0  0  0  0  0  0
    5.0702   -0.7811    0.0000 N   0  0  0  0  0  0  0  0  0  0  0  0
    5.4813   -2.0418    0.0000 C   0  0  0  0  0  0  0  0  0  0  0  0
    4.8099   -3.2066    0.0000 C   0  0  0  0  0  0  0  0  0  0  0  0
    3.4807   -3.2066    0.0000 N   0  0  0  0  0  0  0  0  0  0  0  0
    2.8092   -4.3577    0.0000 C   0  0  0  0  0  0  0  0  0  0  0  0
    1.4937   -4.4947    0.0000 N   0  0  0  0  0  0  0  0  0  0  0  0
    1.2196   -5.7965    0.0000 N   0  0  0  0  0  0  0  0  0  0  0  0
    0.0000   -6.3309    0.0000 C   0  0  0  0  0  0  0  0  0  0  0  0
    2.3707   -6.4543    0.0000 C   0  0  0  0  0  0  0  0  0  0  0  0
    2.5077   -7.7835    0.0000 C   0  0  0  0  0  0  0  0  0  0  0  0
    3.3573   -5.5636    0.0000 C   0  0  0  0  0  0  0  0  0  0  0  0
    5.4813   -4.3577    0.0000 N   0  0  0  0  0  0  0  0  0  0  0  0
    6.8106   -4.3577    0.0000 C   0  0  0  0  0  0  0  0  0  0  0  0
    7.7013   -5.3443    0.0000 N   0  0  0  0  0  0  0  0  0  0  0  0
    7.4272   -6.6461    0.0000 C   0  0  0  0  0  0  0  0  0  0  0  0
    8.4139   -7.5368    0.0000 C   0  0  0  0  0  0  0  0  0  0  0  0
   11.2230   -4.7962    0.0000 N   0  0  0  0  0  0  0  0  0  0  0  0
   12.3741   -5.4676    0.0000 C   0  0  0  0  0  0  0  0  0  0  0  0
   13.0319   -6.6187    0.0000 C   0  0  0  0  0  0  0  0  0  0  0  0
   13.7034   -5.4676    0.0000 C   0  0  0  0  0  0  0  0  0  0  0  0
   11.2230   -3.4669    0.0000 C   0  0  0  0  0  0  0  0  0  0  0  0
   11.8808   -2.3159    0.0000 C   0  0  0  0  0  0  0  0  0  0  0  0
   10.5516   -2.3159    0.0000 C   0  0  0  0  0  0  0  0  0  0  0  0
  1  2  2  0  0  0  0
  2  3  1  0  0  0  0
  2 26  1  0  0  0  0
  3  4  2  0  0  0  0
  3 23  1  0  0  0  0
  4  5  1  0  0  0  0
  5  6  2  0  0  0  0
  5 22  1  0  0  0  0
  6  7  1  0  0  0  0
  6 11  1  0  0  0  0
  7  8  1  0  0  0  0
  7  9  1  0  0  0  0
  9 10  2  0  0  0  0
 10 11  1  0  0  0  0
 11 12  2  0  0  0  0
 12 13  1  0  0  0  0
 12 21  1  0  0  0  0
 13 14  1  0  0  0  0
 14 15  2  0  0  0  0
 14 20  1  0  0  0  0
 15 16  1  0  0  0  0
 16 17  1  0  0  0  0
 16 18  1  0  0  0  0
 18 19  1  0  0  0  0
 18 20  2  0  0  0  0
 21 22  2  0  0  0  0
 22 23  1  0  0  0  0
 23 24  1  0  0  0  0
 24 25  1  0  0  0  0
 26 27  1  0  0  0  0
 26 30  1  0  0  0  0
 27 28  1  0  0  0  0
 27 29  1  0  0  0  0
 28 29  1  0  0  0  0
 30 31  1  0  0  0  0
 30 32  1  0  0  0  0
 31 32  1  0  0  0  0
M  END
