
  SciTegic10011413212D

 29 32  0  0  0  0            999 V2000
    1.5834   -9.7361    0.0000 C   0  0
    1.5823  -10.5556    0.0000 C   0  0
    2.2903  -10.9646    0.0000 C   0  0
    2.2885   -9.3272    0.0000 C   0  0
    2.9972   -9.7325    0.0000 C   0  0
    2.9979  -10.5515    0.0000 C   0  0
    3.7065  -10.9586    0.0000 C   0  0
    4.4147  -10.5478    0.0000 N   0  0
    4.4100   -9.7256    0.0000 C   0  0  1  0  0  0
    3.7009   -9.3223    0.0000 C   0  0  1  0  0  0
    3.6966   -8.5051    0.0000 C   0  0
    4.4020   -8.0900    0.0000 O   0  0
    2.9866   -8.0975    0.0000 O   0  0
    3.7082  -11.7758    0.0000 O   0  0
    5.1240  -10.9536    0.0000 C   0  0
    5.1272  -11.7708    0.0000 C   0  0
    4.4217  -12.1772    0.0000 C   0  0
    4.4245  -12.9937    0.0000 C   0  0
    5.1343  -13.4003    0.0000 C   0  0
    5.8428  -12.9846    0.0000 C   0  0
    5.8365  -12.1695    0.0000 C   0  0
    5.1386  -14.2175    0.0000 Cl  0  0
    5.1152   -9.3127    0.0000 C   0  0
    5.8227   -9.7204    0.0000 C   0  0
    6.5274   -9.3082    0.0000 C   0  0
    6.5229   -8.4902    0.0000 C   0  0
    5.8077   -8.0861    0.0000 C   0  0
    5.1059   -8.5006    0.0000 C   0  0
    7.2275   -8.0764    0.0000 Cl  0  0
  1  2  2  0
  2  3  1  0
  3  6  2  0
  5  4  2  0
  4  1  1  0
  5  6  1  0
  6  7  1  0
  7  8  1  0
  8  9  1  0
  9 10  1  0
 10  5  1  0
 10 11  1  6
 11 12  1  0
 11 13  2  0
  7 14  2  0
  8 15  1  0
 15 16  1  0
 16 17  2  0
 17 18  1  0
 18 19  2  0
 19 20  1  0
 20 21  2  0
 21 16  1  0
 19 22  1  0
  9 23  1  1
 23 24  2  0
 24 25  1  0
 25 26  2  0
 26 27  1  0
 27 28  2  0
 28 23  1  0
 26 29  1  0
M  END