
  SciTegic11201309402D

 45 49  0  0  0  0            999 V2000
    2.7618   -8.5135    0.0000 N   0  0
    0.6220   -9.4550    0.0000 N   0  0
    2.2083   -9.1298    0.0000 C   0  0
    1.4551   -9.4550    0.0000 C   0  0  1  0  0  0
    3.0014   -7.7261    0.0000 C   0  0  2  0  0  0
   -0.1198   -9.1298    0.0000 C   0  0
    2.9159   -6.9044    0.0000 C   0  0
    2.5164   -6.1968    0.0000 N   0  0
    0.2225  -10.1740    0.0000 C   0  0
    3.4237   -8.9928    0.0000 C   0  0
   -0.9244   -7.7261    0.0000 N   0  0
    3.8402   -7.7261    0.0000 C   0  0
    1.0442   -5.5350    0.0000 C   0  0
    1.8659  -10.1740    0.0000 C   0  0
   -0.6790   -8.5135    0.0000 C   0  0  1  0  0  0
    0.2397   -5.7175    0.0000 N   0  0
    4.0913   -8.5135    0.0000 C   0  0
    0.7247   -2.9615    0.0000 C   0  0
   -0.8388   -6.9044    0.0000 C   0  0
    1.8488   -5.7175    0.0000 C   0  0  2  0  0  0
    0.6220  -10.8872    0.0000 C   0  0
    1.4551  -10.8872    0.0000 C   0  0
    2.6933   -9.7917    0.0000 O   0  0
    0.2454   -2.2938    0.0000 N   0  0
   -0.6105   -9.7917    0.0000 O   0  0
    3.7033   -6.6476    0.0000 O   0  0
    1.0442   -4.7133    0.0000 O   0  0
   -0.4280   -6.1968    0.0000 C   0  0
   -1.6205   -6.6476    0.0000 O   0  0
    1.5464   -2.8759    0.0000 N   0  0
    0.1598   -3.2925    0.0000 N   0  0
    3.5092   -9.8145    0.0000 C   0  0
   -1.3866   -8.9244    0.0000 C   0  0
    4.8445   -8.8501    0.0000 C   0  0
    2.1798   -4.9643    0.0000 C   0  0
    0.2225  -11.5948    0.0000 C   0  0
    1.8659  -11.5948    0.0000 C   0  0
    2.0371   -3.5435    0.0000 C   0  0
    1.7005   -4.2967    0.0000 C   0  0
    4.2624  -10.1511    0.0000 C   0  0
    4.9301   -9.6605    0.0000 C   0  0
    1.4551  -12.3138    0.0000 C   0  0
    0.6220  -12.3138    0.0000 C   0  0
    3.6709   -6.9833    0.0000 H   0  0
    2.4037   -9.7715    0.0000 H   0  0
  4  2  1  0
  3  1  1  0
  4  3  1  0
  5  1  1  0
  6  2  1  0
  7  5  1  0
  8  7  1  0
  9  2  1  0
 10  1  1  0
 11 15  1  0
 12  5  1  0
 13 20  1  0
 14  4  1  0
 15  6  1  0
 16 13  1  0
 17 10  1  0
 18 30  2  0
 19 11  1  0
 20  8  1  0
 21 22  2  0
 22 14  1  0
 23  3  2  0
 24 18  1  0
 25  6  2  0
 26  7  2  0
 27 13  2  0
 28 16  1  0
 29 19  2  0
 30 38  1  0
 31 18  1  0
 32 10  1  0
 15 33  1  6
 34 17  1  0
 20 35  1  6
 36 21  1  0
 37 22  1  0
 38 39  1  0
 39 35  1  0
 40 32  1  0
 41 40  1  0
 42 37  2  0
 43 42  1  0
 12 17  1  0
 34 41  1  0
  9 21  1  0
 19 28  1  0
 36 43  2  0
  5 44  1  1
  4 45  1  6
M  END