
  SciTegic12231509382D

 33 37  0  0  0  0            999 V2000
   -1.1509   -0.9425    0.0000 C   0  0
   -0.7450   -1.6569    0.0000 C   0  0
   -0.3325   -0.9425    0.0000 C   0  0
    0.3820   -0.5300    0.0000 C   0  0
    1.0965   -0.9425    0.0000 N   0  0
    0.3820    0.2950    0.0000 O   0  0
    1.8109   -0.5300    0.0000 C   0  0
    2.5254   -0.9425    0.0000 C   0  0
    3.2399   -0.5300    0.0000 C   0  0
    3.2399    0.2950    0.0000 C   0  0
    2.5254    0.7075    0.0000 C   0  0
    1.8109    0.2950    0.0000 C   0  0
    3.9544    0.7075    0.0000 S   0  0
    4.6688    0.2950    0.0000 C   0  0
    4.6688   -0.5300    0.0000 N   0  0
    5.3833   -0.9425    0.0000 C   0  0
    6.0978   -0.5300    0.0000 C   0  0
    6.0978    0.2950    0.0000 C   0  0
    5.3833    0.7075    0.0000 N   0  0
    6.8122    0.7075    0.0000 N   0  0
    5.3833   -1.7675    0.0000 N   0  0
    7.5267    0.2950    0.0000 C   0  0
    8.2412    0.7075    0.0000 C   0  0
    8.2412    1.5325    0.0000 N   0  0
    7.5267    1.9450    0.0000 C   0  0
    6.8122    1.5325    0.0000 C   0  0
    6.0978   -2.1800    0.0000 C   0  0
    6.3113   -2.9769    0.0000 N   0  0
    7.1352   -3.0200    0.0000 N   0  0
    7.4308   -2.2498    0.0000 C   0  0
    6.7897   -1.7306    0.0000 C   0  0
    8.2277   -2.0363    0.0000 C   0  0
    8.9557    1.9450    0.0000 C   0  0
  4  6  2  0
  5  7  1  0
  7  8  1  0
  8  9  2  0
  9 10  1  0
 10 11  2  0
 11 12  1  0
 12  7  2  0
 10 13  1  0
 13 14  1  0
 14 15  2  0
 15 16  1  0
 16 17  2  0
 17 18  1  0
 18 19  2  0
 19 14  1  0
 18 20  1  0
 16 21  1  0
 20 22  1  0
 22 23  1  0
 23 24  1  0
 24 25  1  0
 25 26  1  0
 26 20  1  0
 21 27  1  0
 27 28  2  0
 28 29  1  0
 29 30  1  0
 30 31  2  0
 31 27  1  0
 30 32  1  0
 24 33  1  0
  1  2  1  0
  2  3  1  0
  3  1  1  0
  3  4  1  0
  4  5  1  0
M  END