
  SciTegic05171617272D

 28 30  0  0  1  0            999 V2000
    5.9492    5.8140    0.0000 C   0  0
    5.5795    4.6723    0.0000 S   0  0
    6.5842    3.5574    0.0000 C   0  0
    6.1219    2.1295    0.0000 C   0  0
    4.6534    1.8195    0.0000 C   0  0
    3.6500    2.9355    0.0000 N   0  0
    2.1812    2.6272    0.0000 C   0  0
    1.7138    1.2033    0.0000 C   0  0
    2.5889    0.0182    0.0000 C   0  0
    1.7138   -1.2033    0.0000 N   0  0
    0.2917   -0.7475    0.0000 C   0  0
    0.2917    0.7475    0.0000 C   0  0
   -1.0028    1.5132    0.0000 N   0  0
   -2.3155    0.7475    0.0000 C   0  0
   -2.3155   -0.7475    0.0000 N   0  0
   -1.0028   -1.5132    0.0000 C   0  0
   -0.9991   -2.7132    0.0000 O   0  0
    4.1181    4.3616    0.0000 C   0  0
    3.1179    5.4805    0.0000 C   0  0
    3.5836    6.9064    0.0000 C   0  0
    2.5817    8.0227    0.0000 C   0  0
    1.1140    7.7132    0.0000 C   0  0
    0.6482    6.2874    0.0000 C   0  0
    1.6501    5.1711    0.0000 C   0  0
    7.1266    1.0146    0.0000 C   0  0  2  0  0  0
    8.3002    1.2649    0.0000 O   0  0
    6.6642   -0.4132    0.0000 C   0  0
    7.4676   -1.3047    0.0000 O   0  0
  1  2  1  0
  2  3  1  0
  3  4  1  0
  4  5  1  0
  5  6  1  0
  6  7  1  0
  7  8  1  0
  8  9  2  0
  9 10  1  0
 10 11  1  0
 11 12  2  0
  8 12  1  0
 12 13  1  0
 13 14  2  0
 14 15  1  0
 15 16  1  0
 11 16  1  0
 16 17  2  0
  6 18  1  0
 18 19  1  0
 19 20  2  0
 20 21  1  0
 21 22  2  0
 22 23  1  0
 23 24  2  0
 19 24  1  0
  4 25  1  0
 25 26  1  6
 25 27  1  0
 27 28  1  0
M  END