
  SciTegic09081514192D

 38 42  0  0  0  0            999 V2000
   -4.9336   -3.1588    0.0000 S   0  0
   -3.8808   -8.2579    0.0000 C   0  0
   -2.5895   -6.0034    0.0000 C   0  0
    6.1382   -2.3781    0.0000 C   0  0
    4.2568   -0.5878    0.0000 C   0  0
   -3.8756   -9.7587    0.0000 C   0  0
    5.7171   -0.9385    0.0000 C   0  0
    5.4389   -4.6144    0.0000 Cl  0  0
   -4.6140  -12.0488    0.0000 C   0  0
    5.1020   -3.4627    0.0000 C   0  0
    7.3041   -2.6622    0.0000 Cl  0  0
    1.2990   -0.7500    0.0000 C   0  0
    3.9511    0.8815    0.0000 N   0  0
   -1.2990   -0.7500    0.0000 C   0  0
    3.2235   -1.6679    0.0000 C   0  0
   -2.2248  -13.2471    0.0000 C   0  0
   -6.2289   -5.4160    0.0000 Cl  0  0
    2.5987    1.5004    0.0000 C   0  0
   -1.2990    0.7500    0.0000 C   0  0
   -1.0322  -13.1139    0.0000 O   0  0
   -2.5972   -1.5031    0.0000 C   0  0
    3.6446   -3.1076    0.0000 C   0  0
   -2.6577  -10.6124    0.0000 O   0  0
   -5.1824   -7.5124    0.0000 C   0  0
   -3.1140  -12.0413    0.0000 C   0  0
    2.7342    2.9815    0.0000 C   0  0
   -5.0847  -10.6246    0.0000 C   0  0
   -2.5843   -7.5034    0.0000 C   0  0
   -2.5951   -3.0039    0.0000 N   0  0
   -3.8933   -3.7570    0.0000 C   0  0
    4.9530    1.9978    0.0000 N   0  0
    4.2010    3.2957    0.0000 C   0  0
    0.0000    1.5000    0.0000 C   0  0
    1.2990    0.7500    0.0000 C   0  0
   -2.7054  -14.3466    0.0000 O   0  0
    0.0000   -1.5000    0.0000 C   0  0
   -5.1876   -6.0124    0.0000 C   0  0
   -3.8912   -5.2578    0.0000 C   0  0
  9 25  2  0
 34 12  2  0
  4 10  2  0
  2 24  1  0
 25 16  1  0
  4 11  1  0
 10  8  1  0
  2  6  1  0
 30 38  1  0
 18 34  1  0
 14 19  1  0
 15  5  1  0
 19 33  2  0
 27  9  1  0
 14 21  1  0
  6 27  2  0
 21 29  1  0
 22 15  2  0
 10 22  1  0
 18 13  1  0
 32 26  1  0
 29 30  1  0
 25 23  1  0
 16 35  1  0
 38  3  2  0
  5  7  2  0
 36 14  2  0
 12 36  1  0
 37 38  1  0
 30  1  2  0
  7  4  1  0
 28  2  2  0
 33 34  1  0
 13 31  1  0
  3 28  1  0
 23  6  1  0
 37 17  1  0
 24 37  2  0
 13  5  1  0
 31 32  2  0
 16 20  2  0
 26 18  2  0
M  END