
  SciTegic12011113542D

333370  0  0  0  0            999 V2000
    1.1992  -11.8270    0.0000 O   0  0
    0.7159  -11.1586    0.0000 C   0  0
   -0.1047  -11.2359    0.0000 C   0  0  1  0  0  0
   -1.3238  -11.7765    0.0000 C   0  0
   -1.4053  -10.9541    0.0000 C   0  0  1  0  0  0
   -0.6511  -10.6239    0.0000 O   0  0
   -2.1177  -10.5381    0.0000 N   0  0
   -2.8385  -10.9462    0.0000 C   0  0
   -2.8397  -11.7745    0.0000 O   0  0
   -3.5509  -10.5301    0.0000 N   0  0
   -3.5462   -9.7039    0.0000 C   0  0
   -4.2586   -9.2879    0.0000 O   0  0
   -2.8311   -9.2974    0.0000 C   0  0
   -2.1186   -9.7134    0.0000 C   0  0
    4.7550   -8.9550    0.0000 O   0  0
    4.0244   -8.5687    0.0000 C   0  0
    3.3512   -9.0410    0.0000 C   0  0  2  0  0  0
    3.3327   -9.8642    0.0000 C   0  0  1  0  0  0
    3.9913  -10.3636    0.0000 O   0  0
    2.5462  -10.1050    0.0000 C   0  0
    2.0749   -9.4278    0.0000 C   0  0  1  0  0  0
    2.5694   -8.7724    0.0000 O   0  0
    1.2508   -9.4134    0.0000 N   0  0
    0.7513  -10.0719    0.0000 C   0  0
   -0.0305   -9.8033    0.0000 N   0  0
   -0.0152   -8.9751    0.0000 C   0  0
   -0.6152   -8.4123    0.0000 C   0  0
   -1.4058   -8.6522    0.0000 O   0  0
   -0.4286   -7.6087    0.0000 N   0  0
    0.3580   -7.3679    0.0000 C   0  0
    0.5446   -6.5642    0.0000 N   0  0
    0.9620   -7.9316    0.0000 N   0  0
    0.7754   -8.7352    0.0000 C   0  0
    9.0775  -10.1143    0.0000 O   0  0
    9.0600   -9.2880    0.0000 C   0  0
    8.3202   -8.9292    0.0000 C   0  0  2  0  0  0
    7.5918   -9.3132    0.0000 C   0  0
    6.9990   -8.7428    0.0000 C   0  0  1  0  0  0
    6.1852   -8.8880    0.0000 O   0  0
    7.3618   -8.0018    0.0000 C   0  0  1  0  0  0
    8.1749   -8.1154    0.0000 O   0  0
    6.9739   -7.2745    0.0000 N   0  0
    6.1556   -7.1581    0.0000 C   0  0
    6.0104   -6.3442    0.0000 N   0  0
    6.7416   -5.9551    0.0000 C   0  0
    6.9419   -5.1573    0.0000 C   0  0
    6.3480   -4.5829    0.0000 O   0  0
    7.7349   -4.9298    0.0000 N   0  0
    8.3277   -5.5002    0.0000 C   0  0
    9.1207   -5.2727    0.0000 N   0  0
    8.1286   -6.3020    0.0000 N   0  0
    7.3355   -6.5295    0.0000 C   0  0
   11.3823  -12.6575    0.0000 O   0  0
   11.0912  -11.8799    0.0000 C   0  0
   11.5685  -11.2079    0.0000 C   0  0  2  0  0  0
   11.3006  -10.4276    0.0000 C   0  0  1  0  0  0
   10.5076  -10.1826    0.0000 O   0  0
   11.9553   -9.9310    0.0000 C   0  0
   12.6326  -10.4049    0.0000 C   0  0  1  0  0  0
   12.3888  -11.1937    0.0000 O   0  0
   13.3434   -9.9891    0.0000 N   0  0
   13.3407   -9.1608    0.0000 C   0  0
   12.6191   -8.7541    0.0000 O   0  0
   14.0523   -8.7435    0.0000 N   0  0
   14.7703   -9.1523    0.0000 C   0  0
   15.4819   -8.7350    0.0000 O   0  0
   14.7745   -9.9749    0.0000 C   0  0
   15.4925  -10.3837    0.0000 C   0  0
   14.0629  -10.3923    0.0000 C   0  0
   12.6880  -14.9500    0.0000 O   0  0
   13.5084  -14.8642    0.0000 C   0  0
   13.8504  -14.1143    0.0000 C   0  0  2  0  0  0
   13.4402  -13.3985    0.0000 C   0  0  1  0  0  0
   12.6115  -13.3868    0.0000 O   0  0
   13.9896  -12.7874    0.0000 C   0  0
   14.7441  -13.1264    0.0000 C   0  0  1  0  0  0
   14.6534  -13.9458    0.0000 O   0  0
   15.4582  -12.7160    0.0000 N   0  0
   15.4625  -11.8878    0.0000 C   0  0
   14.7443  -11.4750    0.0000 O   0  0
   16.1776  -11.4764    0.0000 N   0  0
   16.8921  -11.8912    0.0000 C   0  0
   17.6072  -11.4799    0.0000 O   0  0
   16.8894  -12.7138    0.0000 C   0  0
   16.1743  -13.1252    0.0000 C   0  0
    9.8920  -16.4076    0.0000 C   0  0
   10.5490  -16.9021    0.0000 C   0  0  2  0  0  0
   11.3377  -16.6655    0.0000 C   0  0  1  0  0  0
   11.6095  -15.8849    0.0000 O   0  0
   11.8096  -17.3393    0.0000 C   0  0
   11.3109  -17.9966    0.0000 C   0  0  1  0  0  0
   10.5349  -17.7286    0.0000 O   0  0
   11.5517  -18.7849    0.0000 N   0  0
   12.3322  -19.0567    0.0000 C   0  0
   12.3181  -19.8833    0.0000 N   0  0
   11.5256  -20.1244    0.0000 C   0  0
   11.1755  -20.8688    0.0000 C   0  0
   11.6478  -21.5467    0.0000 O   0  0
   10.3536  -20.9394    0.0000 N   0  0
    9.8817  -20.2656    0.0000 C   0  0
    9.0597  -20.3362    0.0000 N   0  0
   10.2314  -19.5171    0.0000 N   0  0
   11.0534  -19.4464    0.0000 C   0  0
    9.1340  -16.7303    0.0000 O   0  0
    6.8436  -16.9297    0.0000 C   0  0
    6.8815  -17.7512    0.0000 C   0  0  2  0  0  0
    7.5665  -18.2080    0.0000 C   0  0  1  0  0  0
    8.3401  -17.9198    0.0000 O   0  0
    7.3482  -19.0011    0.0000 C   0  0
    6.5239  -19.0360    0.0000 C   0  0  1  0  0  0
    6.2356  -18.2672    0.0000 O   0  0
    6.0700  -19.7240    0.0000 N   0  0
    6.3582  -20.4986    0.0000 C   0  0
    5.7124  -21.0147    0.0000 N   0  0
    5.0215  -20.5578    0.0000 C   0  0
    4.2248  -20.7627    0.0000 C   0  0
    4.0035  -21.5587    0.0000 O   0  0
    3.6464  -20.1744    0.0000 N   0  0
    3.8646  -19.3813    0.0000 C   0  0
    3.2862  -18.7930    0.0000 N   0  0
    4.6643  -19.1735    0.0000 N   0  0
    5.2427  -19.7618    0.0000 C   0  0
    8.3919  -17.0964    0.0000 P   0  0
    6.1109  -16.5503    0.0000 O   0  0
    7.5619  -17.1036    0.0000 O   0  0
    7.9709  -16.3871    0.0000 N   0  0
   12.4199  -15.7303    0.0000 P   0  0
   12.6292  -16.5250    0.0000 N   0  0
   13.2417  -15.7292    0.0000 O   0  0
   12.2089  -12.6668    0.0000 P   0  0
   12.9208  -12.2500    0.0000 O   0  0
   12.2042  -11.8417    0.0000 N   0  0
    9.7746  -10.5611    0.0000 P   0  0
    9.3542  -11.2708    0.0000 N   0  0
   10.1792  -11.2708    0.0000 O   0  0
    5.4517   -8.5097    0.0000 P   0  0
    4.8625   -7.9208    0.0000 N   0  0
    5.8583   -7.7917    0.0000 O   0  0
    5.5064  -17.1118    0.0000 C   0  0
    4.7180  -16.8689    0.0000 C   0  0
    5.6904  -17.9160    0.0000 O   0  0
    4.1135  -17.4304    0.0000 C   0  0
    3.3250  -17.1876    0.0000 C   0  0
    3.1410  -16.3833    0.0000 C   0  0
    3.7454  -15.8225    0.0000 C   0  0  2  0  0  0
    4.5137  -16.1126    0.0000 S   0  0
    5.0308  -15.4698    0.0000 C   0  0
    3.7832  -14.9954    0.0000 C   0  0  2  0  0  0
    4.5746  -14.7784    0.0000 C   0  0  1  0  0  0
    4.6128  -13.9586    0.0000 N   0  0
    3.8449  -13.6689    0.0000 C   0  0
    3.3322  -14.3097    0.0000 N   0  0
    3.0006  -15.2690    0.0000 H   0  0
    5.3476  -14.4997    0.0000 H   0  0
    3.6266  -12.8733    0.0000 O   0  0
    3.8882  -11.1822    0.0000 P   0  0
    4.7125  -11.1792    0.0000 N   0  0
    4.1000  -11.9750    0.0000 O   0  0
   16.1755  -13.9502    0.0000 C   0  0
   -0.2459  -14.5359    0.0000 O   0  0
   -0.9338  -14.0779    0.0000 C   0  0
   -1.6512  -14.4799    0.0000 C   0  0  2  0  0  0
   -1.7525  -15.2970    0.0000 C   0  0
   -2.5593  -15.4574    0.0000 C   0  0
   -2.9600  -14.7361    0.0000 C   0  0  1  0  0  0
   -2.4019  -14.1339    0.0000 O   0  0
   -3.7784  -14.6387    0.0000 N   0  0
   -4.3418  -15.2435    0.0000 C   0  0
   -5.0925  -14.8974    0.0000 N   0  0
   -4.9938  -14.0750    0.0000 C   0  0
   -5.5339  -13.4546    0.0000 C   0  0
   -6.3470  -13.6136    0.0000 O   0  0
   -5.2673  -12.6739    0.0000 N   0  0
   -4.4605  -12.5136    0.0000 C   0  0
   -4.1938  -11.7329    0.0000 N   0  0
   -3.9163  -13.1353    0.0000 N   0  0
   -4.1830  -13.9160    0.0000 C   0  0
    0.4456  -13.2856    0.0000 O   0  0
    0.4622  -14.1104    0.0000 P   0  0
    1.2833  -14.1083    0.0000 N   0  0
    0.8667  -14.8208    0.0000 O   0  0
   -0.5292  -11.9875    0.0000 C   0  0
   -1.9521  -12.3111    0.0000 O   0  0
   -2.9836  -16.1649    0.0000 O   0  0
   13.4190  -25.2587    0.0000 O   0  0
   14.2365  -25.1372    0.0000 C   0  0
   14.4992  -24.3580    0.0000 C   0  0  2  0  0  0
   14.0265  -23.6838    0.0000 C   0  0  1  0  0  0
   13.2000  -23.6715    0.0000 O   0  0
   14.5175  -23.0239    0.0000 C   0  0
   15.2984  -23.2904    0.0000 C   0  0  1  0  0  0
   15.2882  -24.1114    0.0000 O   0  0
   15.9709  -22.8139    0.0000 N   0  0
   15.9833  -21.9874    0.0000 C   0  0
   16.7723  -21.7408    0.0000 N   0  0
   17.2505  -22.4171    0.0000 C   0  0
   18.0673  -22.5152    0.0000 C   0  0
   18.5622  -21.8536    0.0000 O   0  0
   18.3929  -23.2732    0.0000 N   0  0
   17.9018  -23.9332    0.0000 C   0  0
   18.2275  -24.6912    0.0000 N   0  0
   17.0813  -23.8367    0.0000 N   0  0
   16.7556  -23.0787    0.0000 C   0  0
   10.4095  -25.5571    0.0000 O   0  0
   10.5579  -26.3702    0.0000 C   0  0
   11.3453  -26.6070    0.0000 C   0  0  2  0  0  0
   12.0035  -26.1123    0.0000 C   0  0  1  0  0  0
   11.9887  -25.2860    0.0000 O   0  0
   12.6793  -26.5814    0.0000 C   0  0
   12.4387  -27.3706    0.0000 C   0  0  1  0  0  0
   11.6178  -27.3875    0.0000 O   0  0
   12.9371  -28.0271    0.0000 N   0  0
   13.7635  -28.0122    0.0000 C   0  0
   14.0360  -28.7927    0.0000 N   0  0
   13.3758  -29.2929    0.0000 C   0  0
   13.3047  -30.1124    0.0000 C   0  0
   13.9822  -30.5853    0.0000 O   0  0
   12.5578  -30.4629    0.0000 N   0  0
   11.8821  -29.9938    0.0000 C   0  0
   11.1352  -30.3443    0.0000 N   0  0
   11.9514  -29.1705    0.0000 N   0  0
   12.6983  -28.8201    0.0000 C   0  0
    7.3704  -25.1709    0.0000 O   0  0
    7.3755  -25.9957    0.0000 C   0  0
    8.0883  -26.4095    0.0000 C   0  0  2  0  0  0
    8.8408  -26.0713    0.0000 C   0  0  1  0  0  0
    9.0123  -25.2602    0.0000 O   0  0
    9.3952  -26.6779    0.0000 C   0  0
    8.9831  -27.3945    0.0000 C   0  0  1  0  0  0
    8.1774  -27.2251    0.0000 O   0  0
    9.3212  -28.1470    0.0000 N   0  0
   10.1450  -28.2336    0.0000 C   0  0
   10.6272  -27.5601    0.0000 O   0  0
   10.4831  -28.9861    0.0000 N   0  0
    9.9992  -29.6558    0.0000 C   0  0
   10.3374  -30.4083    0.0000 O   0  0
    9.1810  -29.5713    0.0000 C   0  0
    8.6971  -30.2409    0.0000 C   0  0
    8.8429  -28.8187    0.0000 C   0  0
    4.3276  -24.8366    0.0000 O   0  0
    4.3467  -25.6612    0.0000 C   0  0
    5.0664  -26.0629    0.0000 C   0  0  2  0  0  0
    5.8131  -25.7120    0.0000 C   0  0  1  0  0  0
    5.9708  -24.8981    0.0000 O   0  0
    6.3777  -26.3090    0.0000 C   0  0
    5.9778  -27.0325    0.0000 C   0  0  1  0  0  0
    5.1694  -26.8768    0.0000 O   0  0
    6.3287  -27.7792    0.0000 N   0  0
    7.1538  -27.8518    0.0000 C   0  0
    7.6245  -27.1703    0.0000 O   0  0
    7.5047  -28.5985    0.0000 N   0  0
    7.0322  -29.2763    0.0000 C   0  0
    7.3831  -30.0230    0.0000 O   0  0
    6.2127  -29.2057    0.0000 C   0  0
    5.7402  -29.8835    0.0000 C   0  0
    5.8618  -28.4590    0.0000 C   0  0
    1.3539  -24.0831    0.0000 C   0  0
    1.8582  -24.7326    0.0000 C   0  0  2  0  0  0
    2.6813  -24.7112    0.0000 C   0  0  1  0  0  0
    3.1483  -24.0292    0.0000 O   0  0
    2.9600  -25.4851    0.0000 C   0  0
    2.3064  -25.9887    0.0000 C   0  0  1  0  0  0
    1.6278  -25.5266    0.0000 O   0  0
    2.3320  -26.8125    0.0000 N   0  0
    3.0139  -27.2795    0.0000 C   0  0
    2.7835  -28.0735    0.0000 N   0  0
    1.9555  -28.0983    0.0000 C   0  0
    1.4225  -28.7248    0.0000 C   0  0
    1.7004  -29.5028    0.0000 O   0  0
    0.6108  -28.5773    0.0000 N   0  0
    0.3321  -27.8034    0.0000 C   0  0
   -0.4796  -27.6559    0.0000 N   0  0
    0.8659  -27.1728    0.0000 N   0  0
    1.6776  -27.3202    0.0000 C   0  0
    3.9709  -24.0926    0.0000 P   0  0
    4.0267  -23.2615    0.0000 O   0  0
    4.7092  -23.7250    0.0000 N   0  0
    1.6653  -23.3191    0.0000 O   0  0
   -0.4310  -21.1320    0.0000 O   0  0
   -1.0359  -21.6952    0.0000 C   0  0
   -0.8416  -22.4671    0.0000 C   0  0  2  0  0  0
   -0.0655  -22.7421    0.0000 C   0  0  1  0  0  0
    0.6489  -22.3161    0.0000 O   0  0
   -0.0828  -23.5645    0.0000 C   0  0
   -0.8734  -23.8003    0.0000 C   0  0  1  0  0  0
   -1.3413  -23.1256    0.0000 O   0  0
   -1.1449  -24.5786    0.0000 N   0  0
   -0.6756  -25.2590    0.0000 C   0  0
   -1.1753  -25.9175    0.0000 N   0  0
   -1.9571  -25.6439    0.0000 C   0  0
   -2.6794  -26.0377    0.0000 C   0  0
   -2.6988  -26.8637    0.0000 O   0  0
   -3.3843  -25.6091    0.0000 N   0  0
   -3.3670  -24.7867    0.0000 C   0  0
   -4.0719  -24.3581    0.0000 N   0  0
   -2.6426  -24.3893    0.0000 N   0  0
   -1.9377  -24.8179    0.0000 C   0  0
   -1.5618  -18.2821    0.0000 O   0  0
   -2.2814  -18.6851    0.0000 C   0  0
   -2.2993  -19.5091    0.0000 C   0  0  2  0  0  0
   -1.6396  -20.0045    0.0000 C   0  0
   -0.8465  -19.7627    0.0000 O   0  0
   -1.9026  -20.7830    0.0000 C   0  0
   -2.7292  -20.7685    0.0000 C   0  0  1  0  0  0
   -2.9702  -19.9813    0.0000 O   0  0
   -3.2246  -21.4282    0.0000 N   0  0
   -2.9024  -22.1913    0.0000 C   0  0
   -2.0797  -22.2880    0.0000 O   0  0
   -3.3978  -22.8510    0.0000 N   0  0
   -4.2179  -22.7509    0.0000 C   0  0
   -4.7133  -23.4106    0.0000 O   0  0
   -4.5393  -21.9937    0.0000 C   0  0
   -4.0439  -21.3340    0.0000 C   0  0
   -1.5529  -17.4615    0.0000 P   0  0
   -0.7292  -17.4583    0.0000 O   0  0
   -0.2435  -20.3257    0.0000 P   0  0
    0.3375  -19.7375    0.0000 N   0  0
    0.4667  -20.7375    0.0000 O   0  0
    1.4474  -22.5233    0.0000 P   0  0
    1.5004  -21.6927    0.0000 O   0  0
    2.1844  -22.1541    0.0000 N   0  0
    6.7506  -24.6290    0.0000 P   0  0
    6.3333  -23.9083    0.0000 O   0  0
    7.1583  -23.9083    0.0000 N   0  0
    9.7966  -25.0044    0.0000 P   0  0
    9.3792  -24.2875    0.0000 N   0  0
   10.2042  -24.2875    0.0000 O   0  0
   12.6956  -24.8607    0.0000 P   0  0
   12.2750  -24.1417    0.0000 N   0  0
   13.1000  -24.1417    0.0000 O   0  0
   -0.6703  -16.0806    0.0000 O   0  0
   -2.1417  -16.8708    0.0000 N   0  0
   -1.4275  -21.4575    0.0000 O   0  0
156158  2  0
  1156  1  0
 73 75  1  0
  7 14  1  0
 85159  1  0
  1  2  1  0
 70 71  1  0
 72 71  1  6
 72 73  1  0
 73 74  1  1
 75 76  1  0
 76 77  1  0
 72 77  1  0
 76 78  1  6
 78 79  1  0
 79 80  2  0
 79 81  1  0
 81 82  1  0
 82 83  2  0
 82 84  1  0
 84 85  2  0
 78 85  1  0
160161  1  0
162161  1  6
162163  1  0
164165  1  0
165166  1  0
162166  1  0
165167  1  6
167168  1  0
168169  2  0
169170  1  0
170171  1  0
171172  2  0
171173  1  0
173174  1  0
174175  1  0
174176  2  0
176177  1  0
170177  2  0
167177  1  0
  3  2  1  6
 15 16  1  0
178179  1  0
179160  1  0
 17 16  1  6
179180  1  0
 17 18  1  0
179181  2  0
182178  1  0
 34 35  1  0
 36 35  1  6
  4183  1  0
 36 37  1  0
164184  1  0
 37 38  1  0
 38 39  1  1
 38 40  1  0
 40 41  1  0
 36 41  1  0
 40 42  1  6
 42 43  1  0
 43 44  2  0
 44 45  1  0
 45 46  1  0
 46 47  2  0
 87 86  1  6
 87 88  1  0
 88 89  1  1
 88 90  1  0
 90 91  1  0
 91 92  1  0
 87 92  1  0
 91 93  1  6
185186  1  0
187186  1  6
187188  1  0
188189  1  1
188190  1  0
190191  1  0
191192  1  0
187192  1  0
191193  1  6
193194  1  0
194195  2  0
195196  1  0
196197  1  0
197198  2  0
197199  1  0
199200  1  0
200201  1  0
200202  2  0
202203  1  0
196203  2  0
193203  1  0
 93 94  1  0
 94 95  2  0
 95 96  1  0
 96 97  1  0
 97 98  2  0
 97 99  1  0
 99100  1  0
100101  1  0
100102  2  0
102103  1  0
 96103  2  0
 93103  1  0
 46 48  1  0
 86104  1  0
 48 49  1  0
 49 50  1  0
 49 51  2  0
 51 52  1  0
 45 52  2  0
204205  1  0
206205  1  6
206207  1  0
207208  1  1
207209  1  0
209210  1  0
210211  1  0
206211  1  0
210212  1  6
212213  1  0
213214  2  0
214215  1  0
215216  1  0
216217  2  0
216218  1  0
218219  1  0
219220  1  0
219221  2  0
221222  1  0
215222  2  0
212222  1  0
 42 52  1  0
 18 19  1  1
 18 20  1  0
 20 21  1  0
 21 22  1  0
 17 22  1  0
 21 23  1  6
 23 24  1  0
 24 25  2  0
 25 26  1  0
 26 27  1  0
 27 28  2  0
 27 29  1  0
106105  1  6
106107  1  0
107108  1  1
107109  1  0
223224  1  0
225224  1  6
225226  1  0
226227  1  1
226228  1  0
228229  1  0
229230  1  0
225230  1  0
229231  1  6
231232  1  0
232233  2  0
232234  1  0
234235  1  0
235236  2  0
235237  1  0
237238  1  0
237239  2  0
231239  1  0
109110  1  0
110111  1  0
106111  1  0
110112  1  6
112113  1  0
113114  2  0
114115  1  0
115116  1  0
116117  2  0
116118  1  0
118119  1  0
119120  1  0
119121  2  0
121122  1  0
115122  2  0
112122  1  0
 29 30  1  0
240241  1  0
242241  1  6
242243  1  0
243244  1  1
243245  1  0
245246  1  0
246247  1  0
242247  1  0
246248  1  6
248249  1  0
249250  2  0
249251  1  0
251252  1  0
252253  2  0
252254  1  0
254255  1  0
254256  2  0
248256  1  0
108123  1  0
123104  1  0
 30 31  1  0
105124  1  0
 30 32  2  0
123125  2  0
 32 33  1  0
123126  1  0
 26 33  2  0
 89127  1  0
127 70  1  0
 53 54  1  0
127128  1  0
 55 54  1  6
127129  2  0
 55 56  1  0
 74130  1  0
130 53  1  0
258257  1  6
258259  1  0
259260  1  1
259261  1  0
261262  1  0
262263  1  0
258263  1  0
262264  1  6
264265  1  0
265266  2  0
266267  1  0
267268  1  0
268269  2  0
268270  1  0
270271  1  0
271272  1  0
271273  2  0
273274  1  0
267274  2  0
264274  1  0
 56 57  1  1
260275  1  0
275240  1  0
130131  2  0
275276  2  0
 56 58  1  0
275277  1  0
130132  1  0
257278  1  0
 58 59  1  0
 57133  1  0
133 34  1  0
 59 60  1  0
133134  1  0
 55 60  1  0
133135  2  0
 59 61  1  6
 39136  1  0
136 15  1  0
 61 62  1  0
136137  1  0
 62 63  2  0
136138  2  0
 62 64  1  0
124139  1  0
 64 65  1  0
139140  1  0
 65 66  2  0
279280  1  0
281280  1  6
281282  1  0
282283  1  1
282284  1  0
284285  1  0
285286  1  0
281286  1  0
285287  1  6
287288  1  0
288289  2  0
289290  1  0
290291  1  0
291292  2  0
291293  1  0
293294  1  0
294295  1  0
294296  2  0
296297  1  0
290297  2  0
287297  1  0
139141  2  0
 65 67  1  0
140142  1  0
 67 68  1  0
142143  1  0
 67 69  2  0
143144  1  0
 61 69  1  0
145144  1  1
145146  1  0
 23 33  1  0
  3182  1  0
146147  1  0
147149  1  0
148145  1  0
148149  1  0
298299  1  0
300299  1  6
300301  1  0
301302  1  0
303304  1  0
304305  1  0
300305  1  0
304306  1  6
306307  1  0
307308  2  0
307309  1  0
309310  1  0
310311  2  0
310312  1  0
312313  2  0
306313  1  0
  4  5  1  0
  5  6  1  0
314315  2  0
314298  1  0
  3  6  1  0
302316  1  0
316279  1  0
  5  7  1  6
316317  1  0
  7  8  1  0
316318  2  0
149150  1  0
283319  1  0
319278  1  0
150151  1  0
319320  2  0
151152  1  0
319321  1  0
152148  1  0
244322  1  0
322223  1  0
  8  9  2  0
322323  2  0
148153  1  6
322324  1  0
  8 10  1  0
227325  1  0
325204  1  0
149154  1  6
325326  1  0
 10 11  1  0
325327  2  0
151155  2  0
208328  1  0
328185  1  0
 11 12  2  0
328329  1  0
 19156  1  0
328330  2  0
 11 13  1  0
314331  1  0
163331  1  0
156157  1  0
314332  1  0
 13 14  2  0
303333  1  0
M  END