
  SciTegic12011114592D

 42 47  0  0  0  0            999 V2000
    7.7754  -26.2065    0.0000 N   0  0
    8.4907  -25.7968    0.0000 C   0  0
    8.4935  -24.9708    0.0000 N   0  0
    7.7752  -24.5564    0.0000 C   0  0
    7.7747  -23.7313    0.0000 N   0  0
    8.4894  -23.3182    0.0000 C   0  0
    9.2038  -26.2117    0.0000 S   0  0
    9.9197  -25.8017    0.0000 C   0  0
   10.6287  -26.2197    0.0000 C   0  0
   11.3441  -25.8104    0.0000 C   0  0
   11.3474  -24.9844    0.0000 C   0  0
   10.6292  -24.5696    0.0000 C   0  0
    9.9167  -24.9814    0.0000 C   0  0
   12.0628  -24.5734    0.0000 N   0  0
    9.2752  -23.5664    0.0000 C   0  0
    9.7543  -22.8946    0.0000 C   0  0
    9.2635  -22.2314    0.0000 N   0  0
    8.4811  -22.4931    0.0000 N   0  0
   10.5793  -22.8874    0.0000 C   0  0
    6.2885  -24.7173    0.0000 C   0  0
    5.8073  -25.3785    0.0000 C   0  0
    6.2876  -26.0403    0.0000 C   0  0
    7.0654  -25.7881    0.0000 N   0  0
    7.0660  -24.9704    0.0000 C   0  0
   12.7764  -24.9874    0.0000 C   0  0
   13.4919  -24.5764    0.0000 C   0  0
   14.2055  -24.9908    0.0000 N   0  0
   12.7747  -25.8125    0.0000 O   0  0
   14.1969  -25.8113    0.0000 C   0  0
   14.9788  -26.0748    0.0000 C   0  0  1  0  0  0
   15.4710  -25.4126    0.0000 C   0  0  2  0  0  0
   14.9932  -24.7399    0.0000 C   0  0
   16.2960  -25.4215    0.0000 O   0  0
   15.2252  -26.8622    0.0000 O   0  0
   16.0505  -26.8606    0.0000 C   0  0
   16.4612  -27.5750    0.0000 C   0  0
   17.2856  -27.5744    0.0000 C   0  0
   17.6981  -26.8588    0.0000 C   0  0
   17.2804  -26.1424    0.0000 C   0  0
   16.4574  -26.1464    0.0000 C   0  0
   18.5232  -26.8568    0.0000 F   0  0
   16.0484  -28.2893    0.0000 F   0  0
 23 24  1  0
  8  9  2  0
  4 24  1  0
 21 22  2  0
  9 10  1  0
  1  2  2  0
 10 11  2  0
 20 21  1  0
 22 23  1  0
 24 20  2  0
  4  5  1  0
 14 25  1  0
 11 12  1  0
 25 26  1  0
 23  1  1  0
 26 27  1  0
 12 13  2  0
 25 28  2  0
 27 29  1  0
 13  8  1  0
  5  6  1  0
 11 14  1  0
 17 18  1  0
 29 30  1  0
 30 31  1  0
 31 32  1  0
 32 27  1  0
  2  3  1  0
 31 33  1  6
 15 16  2  0
 30 34  1  1
  2  7  1  0
 34 35  1  0
 35 36  2  0
  7  8  1  0
 36 37  1  0
  6 15  1  0
 37 38  2  0
 16 17  1  0
 38 39  1  0
 18  6  2  0
 39 40  2  0
 40 35  1  0
  3  4  2  0
 38 41  1  0
 16 19  1  0
 36 42  1  0
M  END