
  SciTegic04191613082D

173183  0  0  1  0            999 V2000
    8.5799   -1.3483    0.0000 O   0  0
    7.6007   -1.1455    0.0000 C   0  0
    7.1494   -2.5760    0.0000 N   0  0
    6.4194   -3.8864    0.0000 C   0  0
    5.4406   -5.0231    0.0000 C   0  0  1  0  0  0
    6.0401   -6.4118    0.0000 C   0  0
    5.3235   -7.3743    0.0000 N   0  0
    7.2320   -6.5515    0.0000 O   0  0
    4.2531   -5.9394    0.0000 N   0  0
    2.9053   -6.5979    0.0000 C   0  0
    1.4526   -6.9717    0.0000 C   0  0  1  0  0  0
   -0.0456   -7.0453    0.0000 N   0  0
   -1.5279   -6.8159    0.0000 C   0  0
   -2.9337   -6.2928    0.0000 C   0  0  2  0  0  0
   -4.0237   -7.3415    0.0000 C   0  0
   -4.1843   -8.8337    0.0000 C   0  0
   -5.5565   -9.4416    0.0000 C   0  0
   -5.7171  -10.9338    0.0000 N   0  0
   -7.0893  -11.5417    0.0000 C   0  0
   -7.2176  -12.7348    0.0000 N   0  0
   -8.0585  -10.8343    0.0000 N   0  0
   -4.2055   -5.4974    0.0000 N   0  0
   -5.2911   -4.4623    0.0000 C   0  0
   -6.1461   -3.2298    0.0000 C   0  0  1  0  0  0
   -6.7355   -1.8505    0.0000 N   0  0
   -7.0352   -0.3807    0.0000 C   0  0
   -7.0329    1.1193    0.0000 C   0  0  1  0  0  0
   -6.7287    2.5881    0.0000 N   0  0
   -6.1350    3.9657    0.0000 C   0  0
   -5.2762    5.1955    0.0000 C   0  0  2  0  0  0
   -6.6919    5.7282    0.0000 C   0  0
   -6.9373    7.2088    0.0000 C   0  0
   -8.3489    7.7497    0.0000 C   0  0
   -8.5922    9.2269    0.0000 C   0  0
   -9.9932    9.7545    0.0000 C   0  0
  -10.2365   11.2317    0.0000 C   0  0
   -9.0788   12.1812    0.0000 C   0  0
   -7.6778   11.6536    0.0000 C   0  0
   -7.4345   10.1764    0.0000 C   0  0
   -6.0335    9.6488    0.0000 C   0  0
   -5.7786    8.1576    0.0000 C   0  0
   -4.1875    6.2273    0.0000 N   0  0
   -2.9133    7.0188    0.0000 C   0  0
   -3.4401    8.0969    0.0000 O   0  0
   -1.5058    7.5375    0.0000 C   0  0  2  0  0  0
   -2.3634    8.7835    0.0000 C   0  0
   -1.7190   10.1390    0.0000 C   0  0
   -2.5677   11.3759    0.0000 C   0  0
   -1.9209   12.7293    0.0000 C   0  0
   -0.4255   12.8459    0.0000 C   0  0
    0.4232   11.6090    0.0000 C   0  0
   -0.2235   10.2556    0.0000 C   0  0
   -0.0228    7.7624    0.0000 N   0  0
    1.4752    7.6841    0.0000 C   0  0
    2.9324    7.3249    0.0000 C   0  0  1  0  0  0
    1.4932    7.7475    0.0000 N   0  0
    0.0000    7.8901    0.0000 C   0  0
    0.0000    9.0901    0.0000 O   0  0
   -1.4932    7.7475    0.0000 C   0  0  2  0  0  0
   -2.9325    7.3249    0.0000 N   0  0
   -4.2657    6.6375    0.0000 C   0  0
   -5.4448    5.7103    0.0000 C   0  0  1  0  0  0
   -6.4271    4.5767    0.0000 N   0  0
   -7.1771    3.2776    0.0000 C   0  0
   -7.6677    1.8601    0.0000 C   0  0  1  0  0  0
   -7.8812    0.3754    0.0000 N   0  0
   -7.8098   -1.1229    0.0000 C   0  0
   -8.9976   -1.2937    0.0000 O   0  0
   -7.4561   -2.5806    0.0000 C   0  0  2  0  0  0
   -8.8866   -3.0726    0.0000 C   0  0
   -9.1744   -4.5456    0.0000 C   0  0
  -10.5897   -5.0350    0.0000 C   0  0
  -10.8663   -6.5224    0.0000 C   0  0
   -9.7343   -7.5020    0.0000 C   0  0
  -10.0169   -8.9722    0.0000 C   0  0
   -8.8849   -9.9518    0.0000 C   0  0
   -7.4702   -9.4613    0.0000 C   0  0
   -7.1876   -7.9911    0.0000 C   0  0
   -8.3196   -7.0115    0.0000 C   0  0
   -8.0370   -5.5414    0.0000 C   0  0
   -6.8330   -3.9451    0.0000 N   0  0
   -5.9629   -5.1669    0.0000 C   0  0
   -4.8773   -6.2020    0.0000 C   0  0  1  0  0  0
   -6.2160   -6.8978    0.0000 C   0  0
   -6.2874   -8.3962    0.0000 C   0  0
   -5.0255   -9.2071    0.0000 C   0  0
   -3.6922   -8.5198    0.0000 C   0  0
   -3.6154   -7.0130    0.0000 N   0  0
   -2.2229   -7.5705    0.0000 C   0  0
   -0.7500   -7.8544    0.0000 C   0  0  2  0  0  0
    0.7500   -7.8544    0.0000 N   0  0
    2.2229   -7.5705    0.0000 C   0  0
    3.6155   -7.0130    0.0000 C   0  0  2  0  0  0
    4.7247   -8.0415    0.0000 C   0  0
    4.3922   -9.5050    0.0000 C   0  0
    5.4906  -10.5266    0.0000 C   0  0
    5.1553  -11.9886    0.0000 C   0  0
    3.7214  -12.4292    0.0000 C   0  0
    3.4531  -13.5988    0.0000 F   0  0
    2.6229  -11.4078    0.0000 C   0  0
    2.9583   -9.9457    0.0000 C   0  0
    4.8773   -6.2020    0.0000 N   0  0
    5.9629   -5.1669    0.0000 C   0  0
    6.8330   -3.9450    0.0000 C   0  0  2  0  0  0
    7.4561   -2.5806    0.0000 N   0  0
    7.8098   -1.1229    0.0000 C   0  0
    8.7996   -1.2652    0.0000 O   0  0
    7.8812    0.3754    0.0000 C   0  0
    7.9635   -0.2266    0.0000 C   0  0
    7.7547    0.3466    0.0000 C   0  0
    7.6052    1.8391    0.0000 C   0  0
    7.1771    3.2777    0.0000 C   0  0
    7.6677    1.8602    0.0000 C   0  0
    6.4271    4.5767    0.0000 C   0  0
    5.4448    5.7103    0.0000 N   0  0
    4.2657    6.6376    0.0000 C   0  0
    7.4046    5.2728    0.0000 O   0  0
    8.3223   -4.2106    0.0000 C   0  0
    8.8337   -5.6216    0.0000 C   0  0
   10.3101   -5.8871    0.0000 C   0  0
   11.0845   -4.9704    0.0000 F   0  0
   10.8184   -7.2983    0.0000 C   0  0
    9.8504   -8.4442    0.0000 C   0  0
    8.3741   -8.1788    0.0000 C   0  0
    7.8657   -6.7675    0.0000 C   0  0
    6.7187   -5.8218    0.0000 O   0  0
    2.5610   -8.7219    0.0000 O   0  0
   -0.8967   -9.3600    0.0000 C   0  0  1  0  0  0
   -1.9889   -9.8570    0.0000 O   0  0
    0.0797  -10.0576    0.0000 C   0  0
   -2.5046   -8.5300    0.0000 O   0  0
   -6.8698   -5.9528    0.0000 O   0  0
   -9.1371    2.2196    0.0000 C   0  0
   -9.5580    3.6602    0.0000 C   0  0
  -11.0159    4.0169    0.0000 C   0  0
  -11.4368    5.4574    0.0000 N   0  0
  -12.8946    5.8141    0.0000 C   0  0
  -13.7242    4.9470    0.0000 N   0  0
  -13.1751    6.7740    0.0000 N   0  0
   -8.0867    3.6930    0.0000 O   0  0
   -6.1349    6.4340    0.0000 C   0  0
   -4.9145    7.6470    0.0000 O   0  0
   -1.6825    8.7294    0.0000 C   0  0
    1.6509    8.8712    0.0000 O   0  0
   -7.1833    4.5496    0.0000 O   0  0
   -8.5377    1.2717    0.0000 C   0  0
   -9.7793    0.4286    0.0000 C   0  0
  -11.1307    1.0814    0.0000 C   0  0
  -12.3723    0.2382    0.0000 N   0  0
  -13.7237    0.8910    0.0000 C   0  0
  -13.8116    2.0878    0.0000 N   0  0
  -14.7165    0.2168    0.0000 N   0  0
   -8.2292   -0.5003    0.0000 O   0  0
   -7.6398   -3.4679    0.0000 C   0  0
   -8.5861   -2.3030    0.0000 C   0  0
  -10.0683   -2.5392    0.0000 C   0  0
  -11.0146   -1.3743    0.0000 N   0  0
  -12.4967   -1.6105    0.0000 C   0  0
  -13.2534   -0.6791    0.0000 N   0  0
  -12.9253   -2.7313    0.0000 N   0  0
   -6.0508   -5.1125    0.0000 O   0  0
   -1.8305   -7.9771    0.0000 O   0  0
    1.6823   -8.4667    0.0000 C   0  0
    0.5121   -9.4065    0.0000 C   0  0
    0.7399  -10.8899    0.0000 C   0  0
   -0.4303  -11.8296    0.0000 N   0  0
   -0.2024  -13.3131    0.0000 C   0  0
    0.9160  -13.7480    0.0000 N   0  0
   -1.1381  -14.0645    0.0000 N   0  0
    3.3204   -7.7239    0.0000 O   0  0
   -0.0780   -8.5950    0.0000 H   0  0
   -5.8674   -6.0614    0.0000 H   0  0
    1.9670    7.5855    0.0000 H   0  0
  2  1  2  0
  2  3  1  0
  3  4  1  0
  5  4  1  0
  5  6  1  1
  6  7  1  0
  6  8  2  0
  5  9  1  0
  9 10  1  0
 10 11  1  0
 11 12  1  0
 12 13  1  0
 13 14  1  0
 14 15  1  6
 15 16  1  0
 16 17  1  0
 17 18  1  0
 18 19  1  0
 19 20  2  0
 19 21  1  0
 14 22  1  0
 23 22  1  0
 24 23  1  0
 25 24  1  0
 26 25  1  0
 27 26  1  0
 28 27  1  0
 29 28  1  0
 30 29  1  0
 30 31  1  6
 31 32  1  0
 32 33  2  0
 33 34  1  0
 34 35  2  0
 35 36  1  0
 36 37  2  0
 37 38  1  0
 38 39  2  0
 39 40  1  0
 40 41  2  0
 41 32  1  0
 39 34  1  0
 42 30  1  0
 43 42  1  0
 43 44  2  0
 45 43  1  0
 45 46  1  6
 46 47  1  0
 47 48  2  0
 48 49  1  0
 49 50  2  0
 50 51  1  0
 51 52  2  0
 52 47  1  0
 53 45  1  0
 54 53  1  0
 55 54  1  0
 56 55  1  0
 57 56  1  0
 57 58  2  0
 59 57  1  0
 60 59  1  0
 61 60  1  0
 62 61  1  0
 63 62  1  0
 64 63  1  0
 65 64  1  0
 66 65  1  0
 67 66  1  0
 67 68  2  0
 69 67  1  0
 69 70  1  1
 70 71  1  0
 72 71  1  0
 73 72  2  0
 74 73  1  0
 75 74  2  0
 76 75  1  0
 77 76  2  0
 78 77  1  0
 79 78  2  0
 80 79  1  0
 71 80  2  0
 74 79  1  0
 69 81  1  0
 81 82  1  0
 83 82  1  0
 83 84  1  0
 84 85  1  0
 85 86  1  0
 86 87  1  0
 87 88  1  0
 88 89  1  0
 89 90  1  0
 90 91  1  0
 91 92  1  0
 92 93  1  0
 93 94  1  1
 94 95  1  0
 95 96  2  0
 96 97  1  0
 97 98  2  0
 98 99  1  0
 98100  1  0
100101  2  0
101 95  1  0
 93102  1  0
102103  1  0
104103  1  0
105104  1  0
105106  1  0
106107  2  0
106108  1  0
108109  2  0
109110  1  0
110  2  1  0
110111  2  0
111112  1  0
112113  2  0
113108  1  0
112114  1  0
114115  1  0
116115  1  0
 55116  1  0
114117  2  0
104118  1  6
118119  1  0
119120  2  0
120121  1  0
120122  1  0
122123  2  0
123124  1  0
124125  2  0
125119  1  0
103126  2  0
 92127  2  0
 90128  1  0
128129  1  6
128130  1  0
 89131  2  0
 83 88  1  0
 82132  2  0
 65133  1  1
133134  1  0
134135  1  0
135136  1  0
136137  1  0
137138  1  0
137139  2  0
 64140  2  0
 62141  1  1
 61142  2  0
 59143  1  6
 54144  2  0
 29145  2  0
 27146  1  6
146147  1  0
147148  1  0
148149  1  0
149150  1  0
150151  1  0
150152  2  0
 26153  2  0
 24154  1  6
154155  1  0
155156  1  0
156157  1  0
157158  1  0
158159  2  0
158160  1  0
 23161  2  0
 13162  2  0
 11163  1  6
163164  1  0
164165  1  0
165166  1  0
166167  1  0
167168  1  0
167169  2  0
 10170  2  0
 90171  1  1
 83172  1  1
 55173  1  6
M  END