
  SciTegic01161211242D

 29 31  0  0  0  0            999 V2000
   14.7424   -4.5468    0.0000 C   0  0
   15.4175   -5.0210    0.0000 N   0  0
   16.0783   -4.5270    0.0000 N   0  0
   15.8106   -3.7438    0.0000 C   0  0
   14.9864   -3.7600    0.0000 C   0  0
   16.2336   -3.0355    0.0000 C   0  0
   17.0585   -3.0477    0.0000 C   0  0
   15.8317   -2.3150    0.0000 C   0  0
   16.8083   -3.6274    0.0000 C   0  0
   13.9616   -4.8127    0.0000 N   0  0
   13.2606   -4.3778    0.0000 C   0  0
   12.5334   -4.7675    0.0000 N   0  0
   13.2867   -3.5532    0.0000 O   0  0
   11.8324   -4.3326    0.0000 C   0  0
   15.4297   -5.8459    0.0000 C   0  0
   11.8560   -3.5102    0.0000 C   0  0
   11.1558   -3.0754    0.0000 C   0  0
   10.4277   -3.4651    0.0000 C   0  0
   14.7189   -6.2666    0.0000 C   0  0
   14.7307   -7.0908    0.0000 C   0  0
   15.4517   -7.4935    0.0000 C   0  0
   16.1623   -7.0660    0.0000 C   0  0
   16.1470   -6.2433    0.0000 C   0  0
   11.1050   -4.7251    0.0000 C   0  0
   10.4032   -4.2955    0.0000 C   0  0
   16.8867   -7.4675    0.0000 N   0  3
   17.5935   -7.0420    0.0000 O   0  0
   16.9019   -8.2923    0.0000 O   0  5
    9.7262   -3.0308    0.0000 Cl  0  0
  6  7  1  0
  2 15  1  0
  2  3  1  0
 14 16  2  0
  6  8  1  0
 16 17  1  0
  3  4  2  0
 17 18  2  0
 18 25  1  0
 24 14  1  0
  6  9  1  0
 15 19  2  0
  4  5  1  0
 19 20  1  0
  1 10  1  0
 20 21  2  0
  5  1  2  0
 21 22  1  0
 10 11  1  0
 22 23  2  0
 23 15  1  0
  1  2  1  0
 11 12  1  0
 24 25  2  0
  4  6  1  0
 11 13  2  0
 26 27  2  0
 26 28  1  0
 22 26  1  0
 12 14  1  0
 18 29  1  0
M  CHG  2  26   1  28  -1
M  END