
  SciTegic01161211262D

 40 43  0  0  0  0            999 V2000
   -1.0211  -23.0360    0.0000 C   0  0
   -0.3047  -22.6227    0.0000 C   0  0
   -0.3075  -21.7922    0.0000 C   0  0
   -1.0229  -21.3830    0.0000 C   0  0
   -1.7359  -22.6232    0.0000 C   0  0
   -1.7393  -21.7943    0.0000 C   0  0
    0.4054  -21.3770    0.0000 C   0  0
    1.1214  -21.7868    0.0000 N   0  0
    0.4023  -20.5520    0.0000 O   0  0
    1.8343  -21.3716    0.0000 C   0  0
    2.5503  -21.7814    0.0000 C   0  0
    2.5503  -22.6053    0.0000 C   0  0
    3.2655  -23.0150    0.0000 C   0  0
    3.9794  -22.5997    0.0000 C   0  0
    3.9736  -21.7705    0.0000 C   0  0
    3.2579  -21.3645    0.0000 C   0  0
    4.6811  -21.3541    0.0000 C   0  0
    5.3988  -21.7631    0.0000 C   0  0
    6.1098  -21.3461    0.0000 C   0  0
    6.1042  -20.5203    0.0000 C   0  0
    5.3817  -20.1132    0.0000 C   0  0
    4.6737  -20.5326    0.0000 C   0  0
    6.8270  -21.7538    0.0000 C   0  0
    6.8377  -22.5748    0.0000 N   0  0
    6.1283  -23.0002    0.0000 C   0  0
    6.1433  -23.8215    0.0000 C   0  0  2  0  0  0
    6.8643  -24.2231    0.0000 N   0  0
    7.5720  -23.7971    0.0000 C   0  0
    7.5586  -22.9696    0.0000 C   0  0
   -2.4541  -21.3823    0.0000 C   0  0
   -2.4548  -20.5573    0.0000 N   0  0
    5.4358  -24.2459    0.0000 C   0  0
    4.6960  -23.0086    0.0000 F   0  0
   -1.7421  -20.1467    0.0000 C   0  0
   -3.1727  -20.1490    0.0000 C   0  0
   -3.8845  -20.5660    0.0000 C   0  0
   -4.6017  -20.1581    0.0000 C   0  0
   -5.3135  -20.5752    0.0000 N   0  0
   -6.0306  -20.1673    0.0000 C   0  0
   -5.3081  -21.4002    0.0000 C   0  0
 19 20  2  0
  8 10  1  0
 20 21  1  0
  5  6  2  0
 21 22  2  0
 22 17  1  0
 15 17  1  0
 10 11  1  0
 19 23  1  0
  1  2  2  0
 23 24  1  0
 24 25  1  0
 11 12  2  0
  5  1  1  0
 12 13  1  0
  2  3  1  0
 13 14  2  0
 24 29  1  0
 25 26  1  0
 26 27  1  0
 27 28  1  0
 28 29  1  0
  3  7  1  0
  6 30  1  0
 14 15  1  0
 30 31  1  0
 26 32  1  1
 15 16  2  0
 14 33  1  0
 31 34  1  0
 16 11  1  0
  7  8  1  0
 31 35  1  0
  3  4  2  0
 35 36  1  0
 17 18  2  0
 36 37  1  0
  7  9  2  0
 37 38  1  0
 18 19  1  0
 38 39  1  0
  4  6  1  0
 38 40  1  0
M  END