
  SciTegic10301317112D

 84 89  0  0  1  0            999 V2000
    3.6190   -4.3164    0.0000 N   0  0
    4.3065   -4.7626    0.0000 C   0  0
    9.7400   -4.3924    0.0000 N   0  0
    5.0402   -4.3924    0.0000 C   0  0  1  0  0  0
    8.5899   -5.5426    0.0000 C   0  0
    5.5261   -5.0567    0.0000 N   0  0
    7.8066   -5.7938    0.0000 N   0  0
   12.2585    0.0661    0.0000 N   0  3
    6.9803   -0.5883    0.0000 C   0  0
    7.8066   -0.5883    0.0000 N   0  0
    9.7400   -1.9963    0.0000 N   0  0
    9.9978   -3.6025    0.0000 C   0  0
    6.1970   -5.5426    0.0000 C   0  0
    9.2542   -1.3286    0.0000 C   0  0
    2.6309   -5.4071    0.0000 C   0  0
    9.2542   -5.0567    0.0000 C   0  0  2  0  0  0
    6.9803   -5.7938    0.0000 C   0  0  2  0  0  0
    6.1970   -0.8428    0.0000 C   0  0
    2.8457   -4.6106    0.0000 C   0  0  2  0  0  0
    9.9978   -2.7796    0.0000 C   0  0  2  0  0  0
    8.5899   -0.8461    0.0000 C   0  0  2  0  0  0
    2.2045   -7.0034    0.0000 C   0  0
    3.2158   -5.9921    0.0000 N   0  0
    1.9864   -7.7967    0.0000 N   0  0
    6.8514   -6.6134    0.0000 C   0  0
    1.1932   -8.0115    0.0000 C   0  0  1  0  0  0
    0.9816   -8.8080    0.0000 C   0  0
    6.0813   -6.9043    0.0000 C   0  0
   11.4355    0.0198    0.0000 C   0  0
    3.0043   -6.7853    0.0000 C   0  0  1  0  0  0
    4.7890   -2.7796    0.0000 S   0  0
   12.6452   -0.6676    0.0000 O   0  5
    5.0402   -1.9963    0.0000 S   0  0
   12.7047    0.7601    0.0000 O   0  0
    4.2669   -5.5856    0.0000 O   0  0
    8.9633   -6.2796    0.0000 O   0  0
    1.8376   -5.6219    0.0000 O   0  0
    6.8514    0.2247    0.0000 O   0  0
   10.8109   -3.7314    0.0000 O   0  0
    9.8392   -0.7470    0.0000 O   0  0
    5.8235   -6.2796    0.0000 O   0  0
    4.7890   -3.6025    0.0000 C   0  0
    8.9633   -0.1091    0.0000 C   0  0
   10.8109   -2.6507    0.0000 C   0  0
    1.6195   -6.4185    0.0000 O   0  0
    0.6147   -7.4298    0.0000 C   0  0
    0.1818   -9.0228    0.0000 O   0  0
    5.9524   -7.7239    0.0000 O   0  0
   10.9860    0.7106    0.0000 C   0  0
   11.0588   -0.7139    0.0000 C   0  0
    5.5261   -1.3286    0.0000 C   0  0
    1.5666   -9.3930    0.0000 N   0  0
    9.8392   -5.6417    0.0000 C   0  0
    3.5728   -3.4935    0.0000 C   0  0
    5.4368   -6.3887    0.0000 N   0  0
    9.7896   -0.0628    0.0000 C   0  0
   -0.1851   -7.6380    0.0000 C   0  0
   -1.7748   -8.0710    0.0000 C   0  0
   11.3265   -3.2952    0.0000 C   0  0
   10.2358   -0.7569    0.0000 C   0  0
   10.1631    0.6709    0.0000 C   0  0
    6.4085   -0.0430    0.0000 C   0  0
    5.3674   -0.8858    0.0000 C   0  0
   -0.7635   -7.0596    0.0000 C   0  0
   -0.3933   -8.4378    0.0000 C   0  0
    4.3263  -10.1267    0.0000 N   0  0
   -1.1865   -8.6559    0.0000 C   0  0
   -1.5633   -7.2712    0.0000 C   0  0
    2.3235   -3.9694    0.0000 C   0  0
   -2.5746   -8.2825    0.0000 O   0  0
    2.7762   -3.2753    0.0000 C   0  0
    3.5827   -7.3703    0.0000 C   0  0
    3.7414   -9.5483    0.0000 C   0  0
    9.6276   -6.4383    0.0000 C   0  0
   10.6390   -5.4269    0.0000 C   0  0
   11.0356   -4.0652    0.0000 C   0  0
   12.1461   -3.1629    0.0000 C   0  0
    3.3745   -8.1701    0.0000 C   0  0
    3.9562   -8.7485    0.0000 C   0  0
    5.0700   -0.1190    0.0000 C   0  0
    5.7145    0.4032    0.0000 C   0  0
   12.6650   -3.8008    0.0000 C   0  0
   11.5545   -4.7031    0.0000 C   0  0
   12.3676   -4.5742    0.0000 C   0  0
  2  1  1  0
  3 16  1  0
  4  2  1  6
  5  7  1  0
  6  4  1  0
  7 17  1  0
  8 29  1  0
  9 18  1  0
 10  9  1  0
 11 14  1  0
 12  3  1  0
 13  6  1  0
 14 21  1  0
 19 15  1  6
 16  5  1  0
 17 13  1  0
 18 51  1  0
 19  1  1  0
 20 12  1  0
 21 10  1  0
 30 22  1  1
 23 15  1  0
 24 22  1  0
 17 25  1  1
 26 24  1  0
 27 26  1  0
 28 25  1  0
 29 49  1  0
 30 23  1  0
 31 42  1  0
 32  8  1  0
 33 31  1  0
 34  8  2  0
 35  2  2  0
 36  5  2  0
 37 15  2  0
 38  9  2  0
 39 12  2  0
 40 14  2  0
 41 13  2  0
 42  4  1  0
 21 43  1  1
 20 44  1  1
 45 22  2  0
 26 46  1  1
 47 27  2  0
 48 28  2  0
 49 61  2  0
 50 60  1  0
 51 33  1  0
 52 27  1  0
 16 53  1  1
 54  1  1  0
 55 28  1  0
 56 43  1  0
 57 46  1  0
 58 67  1  0
 59 44  1  0
 60 56  2  0
 61 56  1  0
 62 18  1  0
 63 18  1  0
 64 57  2  0
 65 57  1  0
 66 73  1  0
 67 65  2  0
 68 64  1  0
 69 19  1  0
 70 58  1  0
 71 54  1  0
 72 30  1  0
 73 79  1  0
 74 53  1  0
 75 53  1  0
 76 59  2  0
 77 59  1  0
 78 72  1  0
 79 78  1  0
 80 63  1  0
 81 62  1  0
 82 77  2  0
 83 76  1  0
 84 82  1  0
 71 69  1  0
 81 80  1  0
 68 58  2  0
 11 20  1  0
 50 29  2  0
 84 83  2  0
M  CHG  2   8   1  32  -1
M  END