
          11280714442D 1   1.00000     0.00000     0

 18 18  0     0  0            999 V2000
    4.0500   -3.4542    0.0000 C   0  0  0  0  0  0           0  0  0
    3.3542   -3.9042    0.0000 C   0  0  0  0  0  0           0  0  0
    4.7792   -3.8375    0.0000 O   0  0  0  0  0  0           0  0  0
    4.0125   -2.6375    0.0000 O   0  0  0  0  0  0           0  0  0
    7.6375   -3.7042    0.0000 N   0  0  0  0  0  0           0  0  0
    3.3917   -4.7250    0.0000 C   0  0  0  0  0  0           0  0  0
    2.6167   -3.5167    0.0000 C   0  0  0  0  0  0           0  0  0
    6.2042   -3.7750    0.0000 C   0  0  3  0  0  0           0  0  0
    5.4750   -3.3917    0.0000 C   0  0  0  0  0  0           0  0  0
    6.9042   -3.3292    0.0000 C   0  0  0  0  0  0           0  0  0
    1.9667   -4.7917    0.0000 C   0  0  0  0  0  0           0  0  0
    2.7042   -5.1667    0.0000 C   0  0  0  0  0  0           0  0  0
    1.9292   -3.9667    0.0000 C   0  0  0  0  0  0           0  0  0
    1.2667   -5.2375    0.0000 F   0  0  0  0  0  0           0  0  0
    6.2417   -4.6000    0.0000 O   0  0  0  0  0  0           0  0  0
    8.3292   -3.2667    0.0000 C   0  0  3  0  0  0           0  0  0
    8.2917   -2.4417    0.0000 C   0  0  0  0  0  0           0  0  0
    9.0625   -3.6417    0.0000 C   0  0  0  0  0  0           0  0  0
  2  1  1  0     0  0
  3  1  1  0     0  0
  4  1  2  0     0  0
  5 10  1  0     0  0
  6  2  1  0     0  0
  7  2  2  0     0  0
  8  9  1  0     0  0
  9  3  1  0     0  0
 10  8  1  0     0  0
 11 13  2  0     0  0
 12  6  2  0     0  0
 13  7  1  0     0  0
 14 11  1  0     0  0
 15  8  1  0     0  0
 16  5  1  0     0  0
 17 16  1  0     0  0
 18 16  1  0     0  0
 12 11  1  0     0  0
M  END