
  SciTegic01161211252D

 28 30  0  0  0  0            999 V2000
    0.4276  -21.4377    0.0000 C   0  0
    0.4265  -22.2650    0.0000 C   0  0
    1.1412  -22.6778    0.0000 C   0  0
    1.8575  -22.2645    0.0000 C   0  0
    1.8547  -21.4341    0.0000 C   0  0
    1.1394  -21.0251    0.0000 C   0  0
   -0.2881  -22.6768    0.0000 N   0  0
   -1.0022  -22.2639    0.0000 C   0  0
   -1.7169  -22.6757    0.0000 N   0  0
   -1.0015  -21.4390    0.0000 O   0  0
   -2.4309  -22.2623    0.0000 C   0  0
   -2.7046  -21.4830    0.0000 C   0  0
   -3.5303  -21.4987    0.0000 C   0  0
   -3.7691  -22.2894    0.0000 O   0  0
   -3.0903  -22.7597    0.0000 N   0  0
   -4.0285  -20.8411    0.0000 C   0  0
   -3.6530  -20.1067    0.0000 C   0  0
   -4.8523  -20.8832    0.0000 C   0  0
   -4.5544  -20.1957    0.0000 C   0  0
    2.5674  -21.0190    0.0000 N   0  0
    3.2833  -21.4287    0.0000 C   0  0
    3.9961  -21.0136    0.0000 C   0  0
    3.2786  -22.2502    0.0000 O   0  0
    4.7103  -21.4268    0.0000 C   0  0
    5.4227  -21.0124    0.0000 C   0  0
    5.4200  -20.1866    0.0000 N   0  0
    4.6991  -19.7771    0.0000 C   0  0
    3.9898  -20.1938    0.0000 C   0  0
 11 12  1  0
 13 14  1  0
 14 15  1  0
 15 11  2  0
  3  4  2  0
 13 16  1  0
  7  8  1  0
 16 17  1  0
 16 18  1  0
  8  9  1  0
 16 19  1  0
  4  5  1  0
  5 20  1  0
  8 10  2  0
 20 21  1  0
  2  3  1  0
 21 22  1  0
  9 11  1  0
 21 23  2  0
 12 13  2  0
 22 24  2  0
  5  6  2  0
 24 25  1  0
  6  1  1  0
 25 26  2  0
  1  2  2  0
 26 27  1  0
  2  7  1  0
 27 28  2  0
 28 22  1  0
M  END