
  SciTegic05061116452D

 34 38  0  0  0  0            999 V2000
    2.1220  -14.7558    0.0000 N   0  0
    2.8336  -14.3472    0.0000 C   0  0
    2.8336  -13.5223    0.0000 N   0  0
    2.1220  -13.1058    0.0000 C   0  0
    1.4103  -14.3472    0.0000 C   0  0
    1.4103  -13.5177    0.0000 C   0  0
    0.6214  -13.2612    0.0000 N   0  0
    0.1337  -13.9324    0.0000 C   0  0
    0.6204  -14.6035    0.0000 N   0  0
    0.1822  -15.3025    0.0000 C   0  0
   -0.6421  -15.2726    0.0000 C   0  0
   -1.0803  -15.9716    0.0000 O   0  0
   -1.0324  -14.5426    0.0000 O   0  0
    2.1239  -12.2809    0.0000 N   0  0
    3.5476  -14.7606    0.0000 N   0  0
    4.2626  -14.3489    0.0000 C   0  0
    4.9766  -14.7623    0.0000 C   0  0
    2.8394  -11.8701    0.0000 C   0  0
    4.9710  -15.5856    0.0000 C   0  0
    5.6842  -15.9989    0.0000 C   0  0
    6.4000  -15.5872    0.0000 C   0  0
    6.3984  -14.7580    0.0000 C   0  0
    5.6847  -14.3483    0.0000 C   0  0
    7.1108  -15.9968    0.0000 C   0  0
    7.1089  -16.8228    0.0000 C   0  0
    7.8193  -17.2350    0.0000 C   0  0
    8.5361  -16.8260    0.0000 C   0  0
    8.5379  -16.0000    0.0000 C   0  0
    7.8230  -15.5831    0.0000 C   0  0
    3.5528  -12.2846    0.0000 C   0  0
    3.5421  -13.1114    0.0000 C   0  0
    4.3222  -13.3801    0.0000 C   0  0
    4.8188  -12.7213    0.0000 C   0  0
    4.3457  -12.0455    0.0000 O   0  0
  6  7  1  0
 16 17  1  0
  7  8  2  0
 14 18  1  0
  8  9  1  0
 17 19  2  0
  9  5  1  0
 19 20  1  0
  3  4  2  0
 20 21  2  0
  9 10  1  0
 21 22  1  0
  5  6  2  0
 22 23  2  0
 23 17  1  0
 24 25  1  0
 10 11  1  0
 11 12  1  0
  6  4  1  0
 11 13  2  0
  5  1  1  0
 24 29  1  0
 25 26  1  0
 26 27  1  0
 27 28  1  0
 28 29  1  0
 21 24  1  0
  4 14  1  0
 18 30  1  0
 30 31  2  0
  1  2  2  0
  2 15  1  0
  2  3  1  0
 15 16  1  0
 31 32  1  0
 32 33  2  0
 33 34  1  0
 34 30  1  0
M  END