
  SciTegic10191216002D

 31 33  0  0  0  0            999 V2000
   18.8667  -19.9792    0.0000 O   0  0
   18.8667  -20.8042    0.0000 C   0  0
   19.5787  -21.2125    0.0000 C   0  0
   20.2907  -20.8042    0.0000 N   0  0
   20.2907  -19.9792    0.0000 C   0  0
   19.5787  -19.5625    0.0000 C   0  0
   21.0064  -19.5688    0.0000 C   0  0
   21.7196  -19.9834    0.0000 O   0  0
   21.0088  -18.7438    0.0000 O   0  0
   21.0046  -21.2177    0.0000 C   0  0
   21.0034  -22.0427    0.0000 C   0  0
   21.7196  -20.8062    0.0000 O   0  0
   21.7173  -22.4562    0.0000 S   0  0
   21.7161  -23.2812    0.0000 C   0  0
   21.0008  -23.6903    0.0000 C   0  0
   20.9992  -24.5146    0.0000 C   0  0
   21.7136  -24.9289    0.0000 C   0  0
   22.4311  -24.5130    0.0000 C   0  0
   22.4291  -23.6902    0.0000 C   0  0
   21.7135  -25.7539    0.0000 C   0  0
   20.9990  -26.1663    0.0000 C   0  0
   22.4279  -26.1665    0.0000 C   0  0
   22.4353  -19.5729    0.0000 C   0  0
   23.1486  -19.9875    0.0000 C   0  0
   23.8643  -19.5771    0.0000 C   0  0
   24.5775  -19.9917    0.0000 C   0  0
   24.5698  -20.8177    0.0000 C   0  0
   25.2822  -21.2322    0.0000 N   0  0
   25.9989  -20.8218    0.0000 C   0  0
   25.9987  -19.9925    0.0000 C   0  0
   25.2857  -19.5817    0.0000 C   0  0
  1  2  1  0
 15 16  1  0
  7  8  1  0
 16 17  2  0
  1  6  1  0
 17 18  1  0
  7  9  2  0
 18 19  2  0
 19 14  1  0
  2  3  1  0
 17 20  1  0
  4 10  1  0
 20 21  1  0
  3  4  1  0
 20 22  1  0
 10 11  1  0
  8 23  1  0
  4  5  1  0
 23 24  1  0
 10 12  2  0
 24 25  1  0
  5  6  1  0
 25 26  1  0
 11 13  1  0
 26 27  2  0
 27 28  1  0
 13 14  1  0
 28 29  2  0
  5  7  1  0
 29 30  1  0
 14 15  2  0
 30 31  2  0
 31 26  1  0
M  END