
          11280715332D 1   1.00000     0.00000     0

 36 38  0     0  0            999 V2000
   -1.7083   -1.5292    0.0000 S   0  0  3  0  0  0           0  0  0
    1.5792   -1.5167    0.0000 C   0  0  0  0  0  0           0  0  0
    6.6792   -4.1667    0.0000 C   0  0  3  0  0  0           0  0  0
    7.1000   -4.8792    0.0000 C   0  0  0  0  0  0           0  0  0
    5.8542   -4.1750    0.0000 N   0  0  0  0  0  0           0  0  0
   -0.8875   -1.5292    0.0000 C   0  0  0  0  0  0           0  0  0
    5.3750   -3.5042    0.0000 C   0  0  0  0  0  0           0  0  0
    2.0000   -2.2292    0.0000 N   0  0  0  0  0  0           0  0  0
   -1.7125   -2.3542    0.0000 O   0  0  0  0  0  0           0  0  0
   -1.7083   -0.7042    0.0000 O   0  0  0  0  0  0           0  0  0
    3.2417   -2.9292    0.0000 C   0  0  0  0  0  0           0  0  0
    0.7542   -1.5167    0.0000 C   0  0  0  0  0  0           0  0  0
   -2.5375   -1.5250    0.0000 N   0  0  0  0  0  0           0  0  0
    7.0917   -3.4500    0.0000 C   0  0  0  0  0  0           0  0  0
    4.0667   -2.9292    0.0000 N   0  0  0  0  0  0           0  0  0
    9.1417   -2.7167    0.0000 C   0  0  0  0  0  0           0  0  0
    7.9167   -3.4417    0.0000 C   0  0  0  0  0  0           0  0  0
    8.3167   -2.7292    0.0000 C   0  0  0  0  0  0           0  0  0
    1.9917   -0.8000    0.0000 O   0  0  0  0  0  0           0  0  0
    6.6917   -5.5917    0.0000 O   0  0  0  0  0  0           0  0  0
    5.7042   -2.7542    0.0000 O   0  0  0  0  0  0           0  0  0
    2.8292   -3.6500    0.0000 O   0  0  0  0  0  0           0  0  0
   -0.4833   -0.8167    0.0000 C   0  0  0  0  0  0           0  0  0
   -0.4708   -2.2417    0.0000 C   0  0  0  0  0  0           0  0  0
    0.3500   -2.2375    0.0000 C   0  0  0  0  0  0           0  0  0
    0.3375   -0.8042    0.0000 C   0  0  0  0  0  0           0  0  0
    9.5625   -3.4292    0.0000 C   0  0  0  0  0  0           0  0  0
    2.8250   -2.2167    0.0000 C   0  0  0  0  0  0           0  0  0
    9.1542   -4.1542    0.0000 C   0  0  0  0  0  0           0  0  0
    4.5542   -3.5917    0.0000 C   0  0  0  0  0  0           0  0  0
    7.9250   -4.8750    0.0000 O   0  0  0  0  0  0           0  0  0
    8.3292   -4.1542    0.0000 C   0  0  0  0  0  0           0  0  0
    9.5417   -2.0042    0.0000 C   0  0  0  0  0  0           0  0  0
   10.3792   -3.4250    0.0000 C   0  0  0  0  0  0           0  0  0
   10.3667   -1.9917    0.0000 C   0  0  0  0  0  0           0  0  0
   10.7917   -2.7042    0.0000 C   0  0  0  0  0  0           0  0  0
  2 12  1  0     0  0
  3  5  1  0     0  0
  4  3  1  0     0  0
  5  7  1  0     0  0
  6  1  1  0     0  0
  7 30  1  0     0  0
  8  2  1  0     0  0
  9  1  2  0     0  0
 10  1  2  0     0  0
 11 28  1  0     0  0
 12 25  2  0     0  0
 13  1  1  0     0  0
 14  3  1  0     0  0
 15 11  1  0     0  0
 16 18  2  0     0  0
 17 14  1  0     0  0
 18 17  1  0     0  0
 19  2  2  0     0  0
 20  4  2  0     0  0
 21  7  2  0     0  0
 22 11  2  0     0  0
 23  6  1  0     0  0
 24  6  2  0     0  0
 25 24  1  0     0  0
 26 23  2  0     0  0
 27 29  2  0     0  0
 28  8  1  0     0  0
 29 32  1  0     0  0
 30 15  1  0     0  0
 31  4  1  0     0  0
 32 17  2  0     0  0
 33 16  1  0     0  0
 34 27  1  0     0  0
 35 33  2  0     0  0
 36 34  2  0     0  0
 26 12  1  0     0  0
 27 16  1  0     0  0
 36 35  1  0     0  0
M  END