
  SciTegic04191616232D

191202  0  0  0  0            999 V2000
  -76.2017   -0.4741    0.0000 C   0  0
  -63.0992   -0.7199    0.0000 C   0  0
  -73.6734   -4.4479    0.0000 O   0  0
  -51.4320   13.5717    0.0000 N   0  0
  -57.0224   17.3056    0.0000 N   0  0
  -43.7093   28.3925    0.0000 C   0  0
  -77.4427    2.0939    0.0000 O   0  0
  -49.1671   12.9693    0.0000 O   0  0
  -76.7342   -7.6158    0.0000 C   0  0
  -68.0254    0.9355    0.0000 C   0  0
  -51.4005    9.5998    0.0000 C   0  0
  -72.0360  -11.0909    0.0000 C   0  0
  -72.8796   -5.3478    0.0000 C   0  0
  -77.6951   -5.2022    0.0000 C   0  0
  -73.1559   -9.4398    0.0000 C   0  0
  -72.4390  -13.6738    0.0000 C   0  0
  -45.0708   16.1816    0.0000 C   0  0
  -45.5826   18.7315    0.0000 N   0  0
  -45.5512   14.7597    0.0000 C   0  0
  -39.7333   23.8914    0.0000 C   0  0
  -47.5324   17.0116    0.0000 C   0  0
  -51.8332    4.2174    0.0000 C   0  0
  -68.9800   -1.9079    0.0000 C   0  0
  -78.2048    1.1669    0.0000 S   0  0
  -50.4773   16.4151    0.0000 C   0  0
  -52.2136    3.0793    0.0000 N   0  0
  -37.7835   25.6114    0.0000 N   0  0
  -44.1116   19.0291    0.0000 C   0  0
  -44.0420    7.1099    0.0000 C   0  0
  -62.6189    0.7020    0.0000 C   0  0
  -35.8337   27.3313    0.0000 C   0  0  1  0  0  0
  -74.3420   -9.6218    0.0000 C   0  0
  -75.0545   -5.2109    0.0000 C   0  0
  -69.2551  -11.8302    0.0000 O   0  0
  -44.2236   30.9393    0.0000 C   0  0
  -57.7601    6.9894    0.0000 C   0  0  1  0  0  0
  -42.1957   24.7209    0.0000 C   0  0
  -35.5186   25.0090    0.0000 O   0  0
  -75.3081   -8.4902    0.0000 C   0  0
  -43.5581    8.5297    0.0000 C   0  0
  -32.3424   21.4078    0.0000 C   0  0
  -76.9509   -9.1009    0.0000 C   0  0
  -42.1618   20.7490    0.0000 N   0  0
  -55.0286   19.2018    0.0000 N   0  0
  -55.8417   12.6812    0.0000 C   0  0
  -50.2198    4.9755    0.0000 N   0  0
  -61.5985   -4.3969    0.0000 C   0  0
  -77.1223  -12.2945    0.0000 C   0  0
  -31.3877   19.1990    0.0000 C   0  0
  -48.1809   10.2688    0.0000 O   0  0
  -77.6781   -0.2384    0.0000 C   0  0
  -60.4218   -4.1614    0.0000 N   0  0
  -53.8605   10.4293    0.0000 N   0  0
  -54.2991    5.0416    0.0000 C   0  0
  -45.6939   30.6424    0.0000 C   0  0
  -59.2311    6.6919    0.0000 C   0  0
  -67.0302   -0.1879    0.0000 C   0  0  1  0  0  0
  -71.4085   -5.0503    0.0000 N   0  0
  -78.6264    2.2904    0.0000 O   0  0
  -61.1809    4.9719    0.0000 C   0  0  2  0  0  0
  -43.3177   18.1292    0.0000 O   0  0
  -48.7231    6.1583    0.0000 N   0  0
  -30.2649   20.1936    0.0000 C   0  0
  -43.2313   29.8144    0.0000 C   0  0
  -58.5191   16.1227    0.0000 N   0  0
  -47.0032   10.4994    0.0000 C   0  0
  -36.3200   29.8468    0.0000 C   0  0
  -42.6729   23.2988    0.0000 C   0  0
  -76.6127   -3.0487    0.0000 C   0  0
  -75.6525   -1.8911    0.0000 C   0  0
  -41.5385   27.5093    0.0000 O   0  0
  -79.1722   -5.2737    0.0000 C   0  0
  -60.0249    7.5918    0.0000 O   0  0
  -38.2686   28.1284    0.0000 C   0  0
  -45.1797   28.0957    0.0000 C   0  0
  -38.2622   24.1889    0.0000 C   0  0
  -48.0111   15.5892    0.0000 N   0  0
  -53.3817   11.8517    0.0000 C   0  0
  -67.5090   -1.6104    0.0000 C   0  0
  -60.8658    2.6496    0.0000 O   0  0
  -78.0891   -2.8130    0.0000 C   0  0
  -49.8998    5.9229    0.0000 C   0  0
  -44.1430   23.0009    0.0000 C   0  0
  -70.0173  -12.7570    0.0000 S   0  0
  -43.1887   25.8452    0.0000 C   0  0
  -55.8103    8.7094    0.0000 C   0  0
  -51.9107   12.1493    0.0000 C   0  0  1  0  0  0
  -66.7273    8.8821    0.0000 N   0  0
  -74.4649  -12.0328    0.0000 C   0  0
  -64.6419    6.9197    0.0000 C   0  0
  -37.7903   29.5501    0.0000 C   0  0  2  0  0  0
  -56.3519   15.2306    0.0000 N   0  0
  -74.9961   -6.4095    0.0000 C   0  0
  -45.5135    6.8190    0.0000 C   0  0
  -46.5011    7.9480    0.0000 C   0  0
  -61.9825   -5.5338    0.0000 N   0  0
  -73.3583   -6.7702    0.0000 C   0  0
  -44.6234   21.5790    0.0000 C   0  0
  -42.3446   22.9214    0.0000 O   0  0
  -45.1360   24.1253    0.0000 C   0  0
  -46.0173    9.3678    0.0000 C   0  0
  -65.5592    0.1096    0.0000 N   0  0
  -62.1087   -1.8474    0.0000 C   0  0
  -75.8568  -11.4919    0.0000 N   0  0
  -56.7649    5.8659    0.0000 C   0  0
  -78.1859  -11.7388    0.0000 C   0  0
  -56.8322   13.8088    0.0000 C   0  0
  -67.1077    7.7440    0.0000 C   0  0
  -50.8533    4.4167    0.0000 N   0  0
  -30.9071   25.6721    0.0000 C   0  0
  -55.2942    6.1651    0.0000 C   0  0
  -61.6596    3.5495    0.0000 C   0  0
  -63.1307    3.2520    0.0000 N   0  0
  -63.6094    1.8295    0.0000 C   0  0  1  0  0  0
  -30.8638   21.5688    0.0000 S   0  0
  -55.0164    7.8095    0.0000 O   0  0
  -41.6830   22.1715    0.0000 C   0  0
  -52.9432   17.2394    0.0000 C   0  0
  -57.2813    8.4118    0.0000 N   0  0
  -46.1720   29.2206    0.0000 C   0  0
  -69.5954  -13.8804    0.0000 O   0  0
  -57.3424   16.3582    0.0000 C   0  0
  -65.8743    2.4319    0.0000 O   0  0
  -56.3221   11.2593    0.0000 C   0  0
  -36.3124   25.9089    0.0000 C   0  0
  -59.7098    5.2695    0.0000 N   0  0
  -33.8486   25.0824    0.0000 N   0  0
  -33.3686   26.5036    0.0000 C   0  0
  -79.5084   -3.2048    0.0000 C   0  0
  -37.2765   27.0034    0.0000 C   0  0
  -73.9410  -13.4426    0.0000 C   0  0
  -62.5890   -3.2693    0.0000 N   0  0
  -46.0614   17.3091    0.0000 C   0  0  2  0  0  0
  -49.4822   15.2916    0.0000 C   0  0  1  0  0  0
  -77.9115   -6.6849    0.0000 C   0  0
  -50.4100    8.4723    0.0000 C   0  0
  -54.1756   12.7516    0.0000 O   0  0
  -43.6328   20.4515    0.0000 C   0  0  1  0  0  0
  -52.8283    5.3408    0.0000 N   0  0
  -33.3352   22.5332    0.0000 N   0  0
  -70.9298   -3.6278    0.0000 C   0  0
  -50.8903    7.0504    0.0000 N   0  0
  -55.3315   10.1318    0.0000 C   0  0  1  0  0  0
  -54.4139   16.9402    0.0000 N   0  0
  -55.4090   18.0637    0.0000 C   0  0
  -35.3279   28.7218    0.0000 C   0  0
  -69.2013    0.6963    0.0000 O   0  0
  -47.5055   13.0477    0.0000 C   0  0
  -44.5628   13.6313    0.0000 C   0  0
  -78.6412   -1.4140    0.0000 C   0  0
  -68.2837    7.5048    0.0000 N   0  0
  -48.3262   17.9115    0.0000 O   0  0
  -49.9609   13.8692    0.0000 C   0  0
  -62.1760    6.0954    0.0000 C   0  0
  -42.7142   27.2690    0.0000 C   0  0
  -78.7634   -4.1455    0.0000 C   0  0
  -47.0225   14.4678    0.0000 C   0  0
  -66.1126    6.6205    0.0000 N   0  0
  -50.9202   11.0217    0.0000 C   0  0
  -32.6806   19.9595    0.0000 N   0  0
  -32.8579   23.9561    0.0000 C   0  0
  -31.3871   24.2510    0.0000 C   0  0
  -68.8335  -12.9535    0.0000 O   0  0
  -71.4980  -12.5121    0.0000 C   0  0
  -56.3890   17.8644    0.0000 N   0  0
  -34.3622   27.6285    0.0000 C   0  0
  -63.6467    5.7962    0.0000 C   0  0
  -69.4588   -3.3303    0.0000 C   0  0
  -76.3868   -4.5249    0.0000 N   0  3
  -65.0804    1.5320    0.0000 C   0  0
  -46.5171   11.9194    0.0000 C   0  0
  -73.5239  -10.8711    0.0000 C   0  0
  -74.8294   -7.0678    0.0000 C   0  0
  -75.7736  -10.0318    0.0000 C   0  0
  -44.6588   25.5474    0.0000 C   0  0
  -45.0458   12.2112    0.0000 C   0  0
  -67.6449    2.0736    0.0000 N   0  0
  -44.5457    9.6586    0.0000 C   0  0
  -31.8978   26.7984    0.0000 C   0  0
  -79.3885    1.3637    0.0000 O   0  0
  -51.9480   16.1159    0.0000 C   0  0
  -40.2120   22.4690    0.0000 C   0  0
  -38.7853   30.6737    0.0000 O   0  0
  -38.3106   32.0975    0.0000 C   0  0
  -39.3034   33.2220    0.0000 C   0  0
  -38.8261   34.6440    0.0000 C   0  0
  -37.3559   34.9417    0.0000 C   0  0
  -36.3631   33.8173    0.0000 C   0  0
  -36.8404   32.3952    0.0000 C   0  0
  -40.4796   32.9839    0.0000 F   0  0
  -39.6204   35.5435    0.0000 Cl  0  0
127161  1  0
 42  9  1  0
 39 32  1  0
 10147  2  0
133 21  1  0
 74130  1  0
155  6  1  0
117 43  1  0
156129  1  0
118144  1  0
 68 83  1  0
171176  1  0
 92122  1  0
160 41  2  0
 47 96  2  0
 10177  1  0
 81156  1  0
 95 94  1  0
 31146  1  0
 24  7  2  0
 14169  2  0
140 41  1  0
  9135  2  0
114170  1  0
156 14  1  0
156 72  1  0
169 33  1  0
 97173  1  0
113114  1  0
111 54  1  0
171 66  1  0
 32172  1  0
  1 51  1  0
 21152  2  0
 12164  2  0
108 88  1  0
164 84  1  0
 36105  1  6
 35 55  2  0
182117  1  0
 36 56  1  0
142 82  1  0
124 45  1  0
 47 52  1  0
138 98  1  6
149 19  1  0
103132  1  0
 22 26  1  0
141 58  1  0
122  5  2  0
172 12  1  0
 89104  1  0
 29 40  1  0
125 38  2  0
125 27  1  0
 54139  1  0
 66101  1  0
119 36  1  0
 63 49  2  0
 34 84  2  0
 49160  1  0
 32 15  1  0
174 42  2  0
108151  2  0
112 80  2  0
 81 69  2  0
173 39  1  0
 30  2  1  0
 56 73  2  0
  4 87  1  0
 66 50  2  0
 94 29  2  0
153  8  2  0
 78 53  1  0
135 14  1  0
146 67  1  0
126 60  1  0
169 69  1  0
 37 68  2  0
143 86  1  0
179128  1  0
 64 35  1  0
 58 13  1  0
 48106  1  0
 75  6  1  0
166128  1  0
161162  2  0
 91 74  1  0
 16131  2  0
128127  2  0
 13 97  1  0
 33 93  1  0
 89172  2  0
 55120  1  0
153  4  1  0
 98 83  1  0
 51150  2  0
 13  3  2  0
 40178  2  0
170123  2  0
157148  1  0
159 11  1  0
 82 46  2  0
155 71  2  0
 18133  1  0
 82 62  1  0
138 28  1  0
 43138  1  0
161140  1  0
144145  1  0
 87 78  1  0
 69 70  1  0
158108  1  0
101 95  2  0
112113  1  0
 51 24  1  0
102 57  1  0
 31166  1  0
145165  2  0
 85155  1  0
107 92  1  0
 11136  1  0
162110  1  0
 86119  1  0
  6 64  2  0
110179  2  0
 85 37  1  0
133 17  1  1
 23168  1  0
 79 23  1  0
180 24  2  0
120 75  2  0
 19157  2  0
 87159  1  6
 83100  2  0
143124  1  1
  2103  1  0
 20182  1  0
 77134  1  0
 28 18  1  0
175 85  2  0
145 44  1  0
 45107  1  0
 31130  1  0
 53143  1  0
122 65  1  0
 57 10  1  0
117 99  2  0
174 32  1  0
 22109  2  0
 27 76  1  0
154167  1  0
 17 19  1  0
 31125  1  1
 76 20  1  0
 84121  1  0
 28 61  2  0
150 81  1  0
 67 91  1  0
134153  1  0
 21 77  1  0
105111  1  0
104 48  1  0
131 89  1  0
104174  1  0
139 22  1  0
167 90  1  0
148171  2  0
 84163  2  0
136142  1  0
 41115  1  0
 86116  2  0
170102  1  0
132 47  1  0
178101  1  0
114 30  1  6
168141  1  0
 24 59  1  0
134 25  1  1
 90158  1  0
164 16  1  0
 60112  1  0
 70  1  2  0
176149  2  0
100175  1  0
 57 79  1  6
181118  1  0
 78137  2  0
115 63  1  0
 56126  1  0
 25181  1  0
 60154  1  1
 91183  1  6
183184  1  0
184185  2  0
185186  1  0
186187  2  0
187188  1  0
188189  2  0
189184  1  0
185190  1  0
186191  1  0
M  CHG  1 169   1
M  END