
          11280715342D 1   1.00000     0.00000     0

 26 26  0     0  0            999 V2000
    1.3542   -4.8750    0.0000 S   0  0  3  0  0  0           0  0  0
    4.6417   -4.8625    0.0000 C   0  0  0  0  0  0           0  0  0
    2.1750   -4.8750    0.0000 C   0  0  0  0  0  0           0  0  0
    8.4542   -6.8042    0.0000 C   0  0  0  0  0  0           0  0  0
    7.1292   -6.2792    0.0000 N   0  0  0  0  0  0           0  0  0
    6.3042   -6.2792    0.0000 C   0  0  0  0  0  0           0  0  0
    5.0625   -5.5750    0.0000 N   0  0  0  0  0  0           0  0  0
    7.6375   -6.9250    0.0000 C   0  0  3  0  0  0           0  0  0
    1.3542   -4.0500    0.0000 O   0  0  0  0  0  0           0  0  0
    1.3500   -5.7000    0.0000 O   0  0  0  0  0  0           0  0  0
    3.8167   -4.8667    0.0000 C   0  0  0  0  0  0           0  0  0
    7.5375   -9.1042    0.0000 C   0  0  0  0  0  0           0  0  0
    0.5250   -4.8667    0.0000 N   0  0  0  0  0  0           0  0  0
    5.0542   -4.1417    0.0000 O   0  0  0  0  0  0           0  0  0
    8.7625   -6.0417    0.0000 O   0  0  0  0  0  0           0  0  0
    5.8917   -6.9917    0.0000 O   0  0  0  0  0  0           0  0  0
    8.0500   -9.7542    0.0000 O   0  0  0  0  0  0           0  0  0
    2.5792   -4.1625    0.0000 C   0  0  0  0  0  0           0  0  0
    2.5917   -5.5875    0.0000 C   0  0  0  0  0  0           0  0  0
    3.4125   -5.5792    0.0000 C   0  0  0  0  0  0           0  0  0
    3.4000   -4.1542    0.0000 C   0  0  0  0  0  0           0  0  0
    7.3292   -7.6917    0.0000 C   0  0  0  0  0  0           0  0  0
    5.8875   -5.5667    0.0000 C   0  0  0  0  0  0           0  0  0
    7.8417   -8.3417    0.0000 C   0  0  0  0  0  0           0  0  0
    8.9667   -7.4542    0.0000 O   0  0  0  0  0  0           0  0  0
    6.7167   -9.2250    0.0000 O   0  0  0  0  0  0           0  0  0
  2 11  1  0     0  0
  3  1  1  0     0  0
  4  8  1  0     0  0
  5  6  1  0     0  0
  6 23  1  0     0  0
  7  2  1  0     0  0
  8  5  1  0     0  0
  9  1  2  0     0  0
 10  1  2  0     0  0
 11 20  2  0     0  0
 12 24  1  0     0  0
 13  1  1  0     0  0
 14  2  2  0     0  0
 15  4  2  0     0  0
 16  6  2  0     0  0
 17 12  2  0     0  0
 18  3  1  0     0  0
 19  3  2  0     0  0
 20 19  1  0     0  0
 21 18  2  0     0  0
 22  8  1  0     0  0
 23  7  1  0     0  0
 24 22  1  0     0  0
 25  4  1  0     0  0
 26 12  1  0     0  0
 11 21  1  0     0  0
M  END