
          11290714382D 1   1.00000     0.00000     0

 64 69  0     1  0            999 V2000
    3.5811   -7.9778    0.0000 C   0  0  0  0  0  0           0  0  0
    4.2834   -8.4107    0.0000 C   0  0  0  0  0  0           0  0  0
    5.0047   -8.0188    0.0000 N   0  0  3  0  0  0           0  0  0
    5.0306   -7.1985    0.0000 C   0  0  0  0  0  0           0  0  0
    4.3283   -6.7656    0.0000 C   0  0  0  0  0  0           0  0  0
    3.6000   -7.1531    0.0000 C   0  0  3  0  0  0           0  0  0
    3.6173   -6.3311    0.0000 C   0  0  0  0  0  0           0  0  0
    2.8710   -7.5392    0.0000 N   0  0  0  0  0  0           0  0  0
    4.3402   -5.9336    0.0000 O   0  0  0  0  0  0           0  0  0
    2.9116   -5.9037    0.0000 N   0  0  0  0  0  0           0  0  0
    5.7070   -8.4517    0.0000 C   0  0  0  0  0  0           0  0  0
    2.9289   -5.0789    0.0000 C   0  0  2  0  0  0           0  0  0
    2.2232   -4.6515    0.0000 C   0  0  0  0  0  0           0  0  0
    3.6518   -4.6814    0.0000 C   0  0  0  0  0  0           0  0  0
    3.6691   -3.8566    0.0000 C   0  0  0  0  0  0           0  0  0
    4.3920   -3.4591    0.0000 N   0  0  0  0  0  0           0  0  0
    2.9634   -3.4292    0.0000 O   0  0  0  0  0  0           0  0  0
    2.2405   -3.8267    0.0000 O   0  0  0  0  0  0           0  0  0
    1.5002   -5.0489    0.0000 N   0  0  0  0  0  0           0  0  0
    0.7945   -4.6216    0.0000 C   0  0  0  0  0  0           0  0  0
    0.0716   -5.0190    0.0000 C   0  0  0  0  0  0           0  0  0
   -0.6341   -4.5916    0.0000 C   0  0  0  0  0  0           0  0  0
   -1.3570   -4.9891    0.0000 C   0  0  0  0  0  0           0  0  0
   -2.0598   -4.5593    0.0000 C   0  0  0  0  0  0           0  0  0
   -2.0893   -6.2091    0.0000 C   0  0  0  0  0  0           0  0  0
   -1.3697   -5.8099    0.0000 C   0  0  0  0  0  0           0  0  0
   -2.8000   -5.7817    0.0000 C   0  0  0  0  0  0           0  0  0
   -2.7798   -4.9576    0.0000 C   0  0  0  0  0  0           0  0  0
   -3.4824   -4.5299    0.0000 C   0  0  0  0  0  0           0  0  0
   -4.2056   -4.9252    0.0000 C   0  0  0  0  0  0           0  0  0
   -4.2218   -5.7526    0.0000 C   0  0  0  0  0  0           0  0  0
   -3.5186   -6.1766    0.0000 C   0  0  0  0  0  0           0  0  0
    2.1721   -7.1008    0.0000 C   0  0  0  0  0  0           0  0  0
    1.4430   -7.4869    0.0000 C   0  0  2  0  0  0           0  0  0
    2.2022   -6.2764    0.0000 O   0  0  0  0  0  0           0  0  0
    0.7441   -7.0485    0.0000 C   0  0  0  0  0  0           0  0  0
    0.0150   -7.4346    0.0000 C   0  0  0  0  0  0           0  0  0
   -0.6832   -6.9946    0.0000 C   0  0  0  0  0  0           0  0  0
   -1.4118   -7.3800    0.0000 C   0  0  0  0  0  0           0  0  0
   -1.4425   -8.2053    0.0000 C   0  0  0  0  0  0           0  0  0
   -0.7386   -8.6437    0.0000 C   0  0  0  0  0  0           0  0  0
   -0.0128   -8.2558    0.0000 C   0  0  0  0  0  0           0  0  0
    1.4128   -8.3113    0.0000 C   0  0  0  0  0  0           0  0  0
    2.1117   -8.7497    0.0000 C   0  0  0  0  0  0           0  0  0
    2.0848   -9.5750    0.0000 O   0  0  0  0  0  0           0  0  0
    2.8440   -8.3645    0.0000 O   0  0  0  0  0  0           0  0  0
   -2.1711   -8.5923    0.0000 C   0  0  0  0  0  0           0  0  0
   -2.8705   -8.1549    0.0000 P   0  0  3  0  0  0           0  0  0
   -3.5657   -7.7028    0.0000 O   0  0  0  0  0  0           0  0  0
   -3.3142   -8.8505    0.0000 O   0  0  0  0  0  0           0  0  0
   -2.4232   -7.4617    0.0000 O   0  0  0  0  0  0           0  0  0
    5.6832   -9.2764    0.0000 O   0  0  0  0  0  0           0  0  0
    6.4330   -8.0600    0.0000 C   0  0  0  0  0  0           0  0  0
    7.1353   -8.4928    0.0000 C   0  0  0  0  0  0           0  0  0
    7.8614   -8.1011    0.0000 N   0  0  3  0  0  0           0  0  0
    8.7799   -7.1332    0.0000 C   0  0  0  0  0  0           0  0  0
    7.9684   -7.2816    0.0000 C   0  0  0  0  0  0           0  0  0
    9.1718   -7.8593    0.0000 C   0  0  0  0  0  0           0  0  0
    8.6018   -8.4542    0.0000 C   0  0  0  0  0  0           0  0  0
    8.8324   -9.2433    0.0000 C   0  0  0  0  0  0           0  0  0
    9.6327   -9.4385    0.0000 C   0  0  0  0  0  0           0  0  0
   10.2020   -8.8385    0.0000 C   0  0  0  0  0  0           0  0  0
    9.9683   -8.0518    0.0000 C   0  0  0  0  0  0           0  0  0
   11.0043   -9.0307    0.0000 C   0  0  0  0  0  0           0  0  0
  1  2  1  0     0  0
 31 32  1  0     0  0
 32 27  2  0     0  0
 15 16  1  0     0  0
  8 33  1  0     0  0
  6  8  1  0     0  0
 33 34  1  0     0  0
 15 17  2  0     0  0
 33 35  2  0     0  0
  1  6  1  0     0  0
 34 36  1  0     0  0
 13 18  2  0     0  0
 36 37  1  0     0  0
  7  9  2  0     0  0
 37 38  2  0     0  0
 13 19  1  0     0  0
 38 39  1  0     0  0
  2  3  1  0     0  0
 39 40  2  0     0  0
 19 20  1  0     0  0
 40 41  1  0     0  0
  7 10  1  0     0  0
 41 42  2  0     0  0
 42 37  1  0     0  0
 20 21  1  0     0  0
 34 43  1  1     0  0
  3  4  1  0     0  0
 43 44  1  0     0  0
 21 22  1  0     0  0
  3 11  1  0     0  0
 44 45  1  0     0  0
 44 46  2  0     0  0
 22 23  1  0     0  0
 40 47  1  0     0  0
  4  5  1  0     0  0
 47 48  1  0     0  0
 23 24  2  0     0  0
 48 49  2  0     0  0
 24 28  1  0     0  0
 48 50  1  0     0  0
 10 12  1  0     0  0
 48 51  1  0     0  0
 27 25  1  0     0  0
 11 52  2  0     0  0
  5  6  1  0     0  0
 11 53  1  0     0  0
 25 26  2  0     0  0
 53 54  1  0     0  0
 26 23  1  0     0  0
 54 55  1  0     0  0
 55 59  1  0     0  0
 12 13  1  0     0  0
 58 56  1  0     0  0
 56 57  2  0     0  0
 57 55  1  0     0  0
 27 28  1  0     0  0
 12 14  1  6     0  0
 58 59  2  0     0  0
 28 29  2  0     0  0
 59 60  1  0     0  0
  6  7  1  0     0  0
 60 61  2  0     0  0
 29 30  1  0     0  0
 61 62  1  0     0  0
 14 15  1  0     0  0
 62 63  2  0     0  0
 63 58  1  0     0  0
 30 31  2  0     0  0
 62 64  1  0     0  0
M  END