
  SciTegic12231509382D

 27 30  0  0  0  0            999 V2000
    3.6098    4.6718    0.0000 N   0  0
    4.3243    4.2593    0.0000 C   0  0
    4.3243    3.4343    0.0000 C   0  0
    5.0387    3.0218    0.0000 C   0  0
    5.0387    2.1968    0.0000 C   0  0
    4.3243    1.7843    0.0000 C   0  0
    3.6098    2.1968    0.0000 C   0  0
    3.6098    3.0218    0.0000 C   0  0
    4.3243    0.9593    0.0000 C   0  0
    4.9917    0.4744    0.0000 N   0  0
    4.7368   -0.3103    0.0000 C   0  0
    3.9118   -0.3103    0.0000 C   0  0
    3.6568    0.4744    0.0000 N   0  0
    3.4268   -0.9777    0.0000 C   0  0
    3.7624   -1.7314    0.0000 C   0  0
    3.2775   -2.3988    0.0000 C   0  0
    2.4570   -2.3126    0.0000 N   0  0
    2.1214   -1.5589    0.0000 C   0  0
    2.6064   -0.8915    0.0000 C   0  0
    5.2217   -0.9777    0.0000 C   0  0
    6.0422   -0.8915    0.0000 C   0  0
    6.5271   -1.5589    0.0000 C   0  0
    6.1915   -2.3126    0.0000 C   0  0
    6.6764   -2.9800    0.0000 Cl  0  0
    5.3710   -2.3988    0.0000 C   0  0
    5.0355   -3.1525    0.0000 O   0  0
    4.8861   -1.7314    0.0000 C   0  0
  1  2  1  0
  2  3  1  0
  3  4  2  0
  4  5  1  0
  5  6  2  0
  6  7  1  0
  7  8  2  0
  3  8  1  0
  6  9  1  0
  9 10  2  0
 10 11  1  0
 11 12  2  0
 12 13  1  0
  9 13  1  0
 12 14  1  0
 14 15  2  0
 15 16  1  0
 16 17  2  0
 17 18  1  0
 18 19  2  0
 14 19  1  0
 11 20  1  0
 20 21  2  0
 21 22  1  0
 22 23  2  0
 23 24  1  0
 23 25  1  0
 25 26  1  0
 25 27  2  0
 20 27  1  0
M  END