
          11280715132D 1   1.00000     0.00000     0

 33 35  0     0  0            999 V2000
   -1.7250   -0.8625    0.0000 C   0  0  0  0  0  0           0  0  0
   -1.7250   -0.2625    0.0000 C   0  0  0  0  0  0           0  0  0
   -2.2458   -1.1625    0.0000 N   0  0  3  0  0  0           0  0  0
   -2.7583   -0.2625    0.0000 N   0  0  3  0  0  0           0  0  0
   -2.7583   -0.8625    0.0000 C   0  0  0  0  0  0           0  0  0
   -2.2458    0.0375    0.0000 C   0  0  0  0  0  0           0  0  0
   -1.1583   -1.0417    0.0000 N   0  0  0  0  0  0           0  0  0
    3.2667   -3.1542    0.0000 S   0  0  3  0  0  0           0  0  0
   -1.1583   -0.0750    0.0000 N   0  0  0  0  0  0           0  0  0
   -0.8000   -0.5625    0.0000 C   0  0  0  0  0  0           0  0  0
    1.5792   -1.4500    0.0000 C   0  0  0  0  0  0           0  0  0
    2.8417   -2.7250    0.0000 C   0  0  0  0  0  0           0  0  0
   -3.2833   -1.1542    0.0000 O   0  0  0  0  0  0           0  0  0
    3.7542   -2.8042    0.0000 O   0  0  0  0  0  0           0  0  0
    2.7750   -3.4917    0.0000 O   0  0  0  0  0  0           0  0  0
   -2.2500    0.6375    0.0000 O   0  0  0  0  0  0           0  0  0
    2.0042   -1.8750    0.0000 C   0  0  0  0  0  0           0  0  0
    3.6125   -3.6417    0.0000 F   0  0  0  0  0  0           0  0  0
    1.7417   -0.8667    0.0000 O   0  0  0  0  0  0           0  0  0
   -2.2458   -1.7625    0.0000 C   0  0  0  0  0  0           0  0  0
   -3.2833    0.0375    0.0000 C   0  0  0  0  0  0           0  0  0
    3.0042   -2.1417    0.0000 C   0  0  0  0  0  0           0  0  0
    2.2542   -2.8792    0.0000 C   0  0  0  0  0  0           0  0  0
    2.5792   -1.7167    0.0000 C   0  0  0  0  0  0           0  0  0
    1.8417   -2.4500    0.0000 C   0  0  0  0  0  0           0  0  0
    1.0000   -1.6000    0.0000 N   0  0  0  0  0  0           0  0  0
   -0.2000   -0.5625    0.0000 C   0  0  0  0  0  0           0  0  0
    0.7000   -1.0792    0.0000 C   0  0  0  0  0  0           0  0  0
   -2.7708   -2.0542    0.0000 C   0  0  0  0  0  0           0  0  0
   -3.2833    0.6375    0.0000 C   0  0  0  0  0  0           0  0  0
    0.1000   -1.0792    0.0000 C   0  0  0  0  0  0           0  0  0
   -3.8000    0.9375    0.0000 C   0  0  0  0  0  0           0  0  0
   -2.7708   -2.6542    0.0000 C   0  0  0  0  0  0           0  0  0
  2  1  2  0     0  0
  3  1  1  0     0  0
  4  5  1  0     0  0
  5  3  1  0     0  0
  6  2  1  0     0  0
  7  1  1  0     0  0
  8 12  1  0     0  0
  9  2  1  0     0  0
 10  7  1  0     0  0
 11 26  1  0     0  0
 12 23  2  0     0  0
 13  5  2  0     0  0
 14  8  2  0     0  0
 15  8  2  0     0  0
 16  6  2  0     0  0
 17 11  1  0     0  0
 18  8  1  0     0  0
 19 11  2  0     0  0
 20  3  1  0     0  0
 21  4  1  0     0  0
 22 24  2  0     0  0
 23 25  1  0     0  0
 24 17  1  0     0  0
 25 17  2  0     0  0
 26 28  1  0     0  0
 27 10  1  0     0  0
 28 31  1  0     0  0
 29 20  1  0     0  0
 30 21  1  0     0  0
 31 27  1  0     0  0
 32 30  1  0     0  0
 33 29  1  0     0  0
  9 10  2  0     0  0
  4  6  1  0     0  0
 12 22  1  0     0  0
M  END