
          11280715422D 1   1.00000     0.00000     0

 24 25  0     0  0            999 V2000
    6.4125   -2.9750    0.0000 N   0  0  3  0  0  0           0  0  0
    7.1375   -2.5667    0.0000 C   0  0  3  0  0  0           0  0  0
    5.8250   -2.3875    0.0000 N   0  0  0  0  0  0           0  0  0
    5.2125   -3.5792    0.0000 C   0  0  0  0  0  0           0  0  0
    5.0875   -2.7625    0.0000 N   0  0  0  0  0  0           0  0  0
    6.0375   -3.7125    0.0000 C   0  0  0  0  0  0           0  0  0
    7.8500   -2.1542    0.0000 C   0  0  3  0  0  0           0  0  0
    6.4167   -2.1542    0.0000 C   0  0  3  0  0  0           0  0  0
    8.5625   -2.5667    0.0000 C   0  0  3  0  0  0           0  0  0
    8.0875   -1.5542    0.0000 O   0  0  0  0  0  0           0  0  0
    7.2417   -2.1542    0.0000 C   0  0  3  0  0  0           0  0  0
    4.6250   -4.1625    0.0000 C   0  0  0  0  0  0           0  0  0
    4.8375   -4.9625    0.0000 O   0  0  0  0  0  0           0  0  0
    9.1750   -3.1167    0.0000 S   0  0  0  0  0  0           0  0  0
    7.8417   -2.9750    0.0000 O   0  0  0  0  0  0           0  0  0
    3.8292   -3.9500    0.0000 N   0  0  0  0  0  0           0  0  0
    6.0000   -1.4375    0.0000 O   0  0  0  0  0  0           0  0  0
    7.0250   -1.3542    0.0000 C   0  0  0  0  0  0           0  0  0
    7.6042   -0.7667    0.0000 O   0  0  0  0  0  0           0  0  0
    3.2417   -4.5292    0.0000 C   0  0  0  0  0  0           0  0  0
    9.0042   -3.9250    0.0000 C   0  0  0  0  0  0           0  0  0
    2.4417   -4.3167    0.0000 C   0  0  0  0  0  0           0  0  0
    1.8625   -4.8917    0.0000 C   0  0  0  0  0  0           0  0  0
    1.0667   -4.6792    0.0000 C   0  0  0  0  0  0           0  0  0
  2  1  1  0     0  0
  3  1  1  0     0  0
  4  6  2  0     0  0
  5  3  2  0     0  0
  6  1  1  0     0  0
  7  2  1  0     0  0
  8  2  1  0     0  0
  9  7  1  0     0  0
 10 11  1  0     0  0
 11  8  1  0     0  0
 12  4  1  0     0  0
 13 12  2  0     0  0
 14  9  1  0     0  0
 15  7  1  0     0  0
 16 12  1  0     0  0
 17  8  1  0     0  0
 18 11  1  0     0  0
 19 18  1  0     0  0
 20 16  1  0     0  0
 21 14  1  0     0  0
 22 20  1  0     0  0
 23 22  1  0     0  0
 24 23  1  0     0  0
  4  5  1  0     0  0
  9 10  1  0     0  0
M  END