
  SciTegic12231509382D

 22 22  0  0  0  0            999 V2000
   -3.1897    0.3753    0.0000 C   0  0
   -2.4725    0.7880    0.0000 C   0  0
   -3.1897   -0.4503    0.0000 C   0  0
   -3.8985    0.7963    0.0000 C   0  0
   -1.7595    0.3711    0.0000 C   0  0
    2.5184    0.3585    0.0000 C   0  0
    3.2397    0.7713    0.0000 C   0  0
    0.3795    0.7838    0.0000 C   0  0
    1.8137    0.7755    0.0000 C   0  0
   -1.0465    0.7838    0.0000 C   0  0
    1.1008    0.3627    0.0000 C   0  0
   -0.3335    0.3711    0.0000 C   0  0
    3.2439    1.5969    0.0000 O   0  0
    3.9527    0.3585    0.0000 O   0  0
   -3.8985   -0.8548    0.0000 C   0  0
   -4.6115    0.3753    0.0000 C   0  0
   -2.4767   -0.8631    0.0000 C   0  0
   -4.3238    1.5093    0.0000 C   0  0
   -3.4982    1.5093    0.0000 C   0  0
   -4.6115   -0.4503    0.0000 C   0  0
    1.8179    1.6011    0.0000 C   0  0
   -1.0465    1.6094    0.0000 C   0  0
  2  1  1  0
  3  1  2  0
  4  1  1  0
  5  2  2  0
  6  9  2  0
  7  6  1  0
  8 12  1  0
  9 11  1  0
 10  5  1  0
 11  8  2  0
 12 10  2  0
 13  7  2  0
 14  7  1  0
 15  3  1  0
 16  4  1  0
 17  3  1  0
 18  4  1  0
 19  4  1  0
 20 16  1  0
 21  9  1  0
 22 10  1  0
 20 15  1  0
M  END