
          11280715292D 1   1.00000     0.00000     0

 14 15  0     0  0            999 V2000
    2.1042   -0.9917    0.0000 N   0  0  3  0  0  0           0  0  0
    1.2875   -0.9917    0.0000 C   0  0  0  0  0  0           0  0  0
    2.3625   -1.7792    0.0000 C   0  0  0  0  0  0           0  0  0
    1.0250   -1.7667    0.0000 C   0  0  0  0  0  0           0  0  0
    2.9375   -1.0000    0.0000 C   0  0  0  0  0  0           0  0  0
    1.6917   -2.2625    0.0000 C   0  0  0  0  0  0           0  0  0
    4.1667   -1.7167    0.0000 N   0  0  3  0  0  0           0  0  0
    3.3417   -1.7125    0.0000 C   0  0  0  0  0  0           0  0  0
    0.7417   -0.3792    0.0000 C   0  0  0  0  0  0           0  0  0
    0.2250   -1.9375    0.0000 C   0  0  0  0  0  0           0  0  0
    4.5792   -2.4292    0.0000 C   0  0  0  0  0  0           0  0  0
    4.5875   -1.0042    0.0000 C   0  0  0  0  0  0           0  0  0
   -0.0708   -0.5417    0.0000 C   0  0  0  0  0  0           0  0  0
   -0.3208   -1.3292    0.0000 C   0  0  0  0  0  0           0  0  0
  2  1  1  0     0  0
  3  1  1  0     0  0
  4  2  2  0     0  0
  5  1  1  0     0  0
  6  3  1  0     0  0
  7  8  1  0     0  0
  8  5  1  0     0  0
  9  2  1  0     0  0
 10  4  1  0     0  0
 11  7  1  0     0  0
 12  7  1  0     0  0
 13  9  2  0     0  0
 14 13  1  0     0  0
  4  6  1  0     0  0
 14 10  2  0     0  0
M  END