
  SciTegic12101218362D

 37 40  0  0  1  0            999 V2000
    3.6503   -4.7797    0.0000 C   0  0  1  0  0  0
    3.4795   -3.9796    0.0000 C   0  0  2  0  0  0
    4.2296   -5.3672    0.0000 N   0  0
    2.9420   -5.1922    0.0000 C   0  0
    5.9673   -2.4419    0.0000 C   0  0
    2.6670   -3.8921    0.0000 C   0  0  2  0  0  0
    5.1422   -2.4419    0.0000 C   0  0
    8.5425   -4.3171    0.0000 C   0  0
    2.2544   -3.1795    0.0000 O   0  0
    6.3673   -1.7294    0.0000 C   0  0
    2.3294   -4.6379    0.0000 C   0  0
    9.2551   -3.9046    0.0000 O   0  0
    4.7254   -1.7294    0.0000 C   0  0
    4.7296   -3.1628    0.0000 C   0  0
    5.7047   -3.7504    0.0000 C   0  0
    6.5298   -3.7504    0.0000 C   0  0
    4.1921   -3.5628    0.0000 O   0  0
    2.6628   -2.4627    0.0000 C   0  0
    3.4878   -2.4544    0.0000 C   0  0
    8.5508   -5.1505    0.0000 O   0  0
    3.8921   -1.7377    0.0000 C   0  0
    3.9046   -3.1628    0.0000 C   0  0
    5.9506   -1.0168    0.0000 C   0  0
    5.0172   -5.0922    0.0000 C   0  0
    3.9546   -6.1631    0.0000 C   0  0
    4.7797   -4.1421    0.0000 C   0  0
    6.3798   -3.1545    0.0000 C   0  0
    7.8299   -3.9171    0.0000 C   0  0
    7.1174   -4.3296    0.0000 C   0  0
    7.1924   -1.7169    0.0000 C   0  0
    4.4004   -6.8298    0.0000 C   0  0
    5.7005   -5.5422    0.0000 C   0  0
    7.2049   -3.1545    0.0000 C   0  0
    7.6132   -2.4377    0.0000 C   0  0
    5.7755   -6.4006    0.0000 C   0  0
    5.2005   -6.9424    0.0000 C   0  0
    6.3591   -0.3000    0.0000 O   0  0
  2  1  1  0
  1  3  1  1
  4  1  1  0
  5  7  1  0
  6  2  1  0
  7 14  1  0
  8 28  1  0
  6  9  1  1
 10  5  1  0
 11  4  1  0
 12  8  2  0
 13 21  1  0
 14 22  2  0
 15 26  1  0
 16 15  2  0
  2 17  1  6
 18  9  1  0
 19 18  1  0
 20  8  1  0
 21 19  2  0
 22 19  1  0
 23 10  1  0
 24  3  1  0
 25  3  1  0
 26 17  1  0
 27  5  2  0
 28 29  1  0
 29 16  1  0
 30 10  2  0
 31 25  1  0
 32 24  1  0
 33 27  1  0
 34 33  2  0
 35 32  1  0
 36 31  1  0
 11  6  1  0
 36 35  1  0
 13  7  2  0
 30 34  1  0
 23 37  1  0
M  END