
  CDK    9/16/09,9:57

 20 21  0  0  0  0  0  0  0  0999 V2000
   12.3112  -10.0238    0.0000 C   0  0  0  0  0  0  0  0  0  0  0  0
   12.3359  -10.8484    0.0000 C   0  0  0  0  0  0  0  0  0  0  0  0
   13.0624  -11.2394    0.0000 N   0  0  0  0  0  0  0  0  0  0  0  0
   13.7642  -10.8057    0.0000 C   0  0  0  0  0  0  0  0  0  0  0  0
   14.4907  -11.1966    0.0000 N   0  0  0  0  0  0  0  0  0  0  0  0
   13.7395   -9.9811    0.0000 N   0  0  0  0  0  0  0  0  0  0  0  0
   15.1925  -10.7630    0.0000 C   0  0  0  0  0  0  0  0  0  0  0  0
   15.1678   -9.9383    0.0000 O   0  0  0  0  0  0  0  0  0  0  0  0
   11.5847   -9.6328    0.0000 C   0  0  0  0  0  0  0  0  0  0  0  0
   11.5600   -8.8082    0.0000 C   0  0  0  0  0  0  0  0  0  0  0  0
   11.9745   -7.5393    0.0000 C   0  0  0  0  0  0  0  0  0  0  0  0
   11.1495   -7.5383    0.0000 N   0  0  0  0  0  0  0  0  0  0  0  0
   10.8917   -8.3221    0.0000 C   0  0  0  0  0  0  0  0  0  0  0  0
   12.2260   -8.3237    0.0000 N   0  0  0  0  0  0  0  0  0  0  0  0
   15.9163  -11.1497    0.0000 C   0  0  0  0  0  0  0  0  0  0  0  0
   15.9436  -11.9785    0.0000 C   0  0  0  0  0  0  0  0  0  0  0  0
   16.6711  -12.3671    0.0000 C   0  0  0  0  0  0  0  0  0  0  0  0
   17.3759  -11.9313    0.0000 C   0  0  0  0  0  0  0  0  0  0  0  0
   17.3485  -11.1025    0.0000 C   0  0  0  0  0  0  0  0  0  0  0  0
   16.6164  -10.7094    0.0000 C   0  0  0  0  0  0  0  0  0  0  0  0
 11 12  1  0  0  0  0 
  2  3  1  0  0  0  0 
  4  6  2  0  0  0  0 
  1  2  1  0  0  0  0 
  5  7  1  0  0  0  0 
 12 13  1  0  0  0  0 
 13 10  2  0  0  0  0 
 10 14  1  0  0  0  0 
 14 11  2  0  0  0  0 
  7 15  1  0  0  0  0 
 15 16  1  0  0  0  0 
  3  4  1  0  0  0  0 
  7  8  2  0  0  0  0 
  1  9  1  0  0  0  0 
  4  5  1  0  0  0  0 
  9 10  1  0  0  0  0 
 15 20  1  0  0  0  0 
 16 17  1  0  0  0  0 
 17 18  1  0  0  0  0 
 18 19  1  0  0  0  0 
 19 20  1  0  0  0  0 
M  END