
          11280715372D 1   1.00000     0.00000     0

 36 39  0     0  0            999 V2000
    5.0792   -5.7375    0.0000 C   0  0  0  0  0  0           0  0  0
    5.0750   -4.8542    0.0000 C   0  0  0  0  0  0           0  0  0
    4.3125   -6.1750    0.0000 N   0  0  3  0  0  0           0  0  0
    3.5542   -5.7375    0.0000 C   0  0  0  0  0  0           0  0  0
    3.5542   -4.8542    0.0000 N   0  0  3  0  0  0           0  0  0
    4.3125   -4.4042    0.0000 C   0  0  0  0  0  0           0  0  0
    5.9167   -4.5750    0.0000 N   0  0  0  0  0  0           0  0  0
    5.9250   -6.0042    0.0000 N   0  0  0  0  0  0           0  0  0
    6.4417   -5.2875    0.0000 C   0  0  0  0  0  0           0  0  0
    0.4917   -9.2542    0.0000 N   0  3  0  0  0  0           0  0  0
   -0.2708   -9.7000    0.0000 N   0  5  0  0  0  0           0  0  0
    4.3125   -7.0542    0.0000 C   0  0  0  0  0  0           0  0  0
    1.2542   -8.8167    0.0000 N   0  0  0  0  0  0           0  0  0
    2.0167   -8.3750    0.0000 C   0  0  0  0  0  0           0  0  0
    7.3250   -5.2792    0.0000 C   0  0  0  0  0  0           0  0  0
    2.7875   -6.1792    0.0000 O   0  0  0  0  0  0           0  0  0
    2.7875   -8.8167    0.0000 C   0  0  0  0  0  0           0  0  0
    4.3125   -3.5250    0.0000 O   0  0  0  0  0  0           0  0  0
   11.3000   -6.0250    0.0000 C   0  0  0  0  0  0           0  0  0
    3.5417   -7.4917    0.0000 C   0  0  0  0  0  0           0  0  0
    3.5500   -8.3792    0.0000 C   0  0  0  0  0  0           0  0  0
   11.7375   -5.2542    0.0000 O   0  0  0  0  0  0           0  0  0
    2.7875   -4.4125    0.0000 C   0  0  0  0  0  0           0  0  0
    2.0167   -7.4917    0.0000 C   0  0  0  0  0  0           0  0  0
    7.7667   -6.0417    0.0000 C   0  0  0  0  0  0           0  0  0
    7.7542   -4.5167    0.0000 C   0  0  0  0  0  0           0  0  0
    9.9667   -5.2667    0.0000 O   0  0  0  0  0  0           0  0  0
   10.4167   -6.0292    0.0000 C   0  0  0  0  0  0           0  0  0
    2.7792   -9.7042    0.0000 I   0  0  0  0  0  0           0  0  0
    9.0875   -5.2750    0.0000 C   0  0  0  0  0  0           0  0  0
    2.7792   -7.0542    0.0000 C   0  0  0  0  0  0           0  0  0
   11.7417   -6.7875    0.0000 O   0  0  0  0  0  0           0  0  0
    8.6500   -6.0417    0.0000 C   0  0  0  0  0  0           0  0  0
    8.6375   -4.5042    0.0000 C   0  0  0  0  0  0           0  0  0
    2.7792   -3.5292    0.0000 C   0  0  0  0  0  0           0  0  0
    2.0167   -3.0917    0.0000 C   0  0  0  0  0  0           0  0  0
  2  1  2  0     0  0
  3  1  1  0     0  0
  4  3  1  0     0  0
  5  4  1  0     0  0
  6  2  1  0     0  0
  7  2  1  0     0  0
  8  1  1  0     0  0
  9  8  1  0     0  0
 10 13  2  0     0  0
 11 10  2  0     0  0
 12  3  1  0     0  0
 13 14  1  0     0  0
 14 24  2  0     0  0
 15  9  1  0     0  0
 16  4  2  0     0  0
 17 21  2  0     0  0
 18  6  2  0     0  0
 19 28  1  0     0  0
 20 12  1  0     0  0
 21 20  1  0     0  0
 22 19  2  0     0  0
 23  5  1  0     0  0
 24 31  1  0     0  0
 25 15  2  0     0  0
 26 15  1  0     0  0
 27 30  1  0     0  0
 28 27  1  0     0  0
 29 17  1  0     0  0
 30 34  1  0     0  0
 31 20  2  0     0  0
 32 19  1  0     0  0
 33 25  1  0     0  0
 34 26  2  0     0  0
 35 23  1  0     0  0
 36 35  1  0     0  0
  9  7  2  0     0  0
  5  6  1  0     0  0
 33 30  2  0     0  0
 17 14  1  0     0  0
M  CHG  2  10   1  11  -1
M  END