
  SciTegic10311316262D

 29 31  0  0  0  0            999 V2000
    1.3555  -22.6915    0.0000 C   0  0
    1.3543  -23.5189    0.0000 C   0  0
    2.0691  -23.9318    0.0000 C   0  0
    2.7856  -23.5184    0.0000 C   0  0
    2.7827  -22.6879    0.0000 C   0  0
    2.0673  -22.2788    0.0000 C   0  0
    3.4956  -22.2727    0.0000 N   0  0
    4.2117  -22.6825    0.0000 C   0  0
    4.9246  -22.2673    0.0000 C   0  0
    4.2148  -23.5075    0.0000 O   0  0
    5.6406  -22.6771    0.0000 S   0  0
    6.3535  -22.2619    0.0000 C   0  0
    7.0694  -22.6749    0.0000 N   0  0
    7.7802  -22.2632    0.0000 C   0  0
    7.7813  -21.4379    0.0000 C   0  0
    7.0655  -21.0259    0.0000 C   0  0
    6.3485  -21.4392    0.0000 N   0  0
    7.0652  -20.2009    0.0000 O   0  0
    8.4965  -21.0297    0.0000 C   0  0
    9.2110  -20.6172    0.0000 N   0  0
    8.4930  -22.6749    0.0000 C   0  0
    8.4916  -23.5010    0.0000 C   0  0
    9.2053  -23.9134    0.0000 C   0  0
    9.9207  -23.5009    0.0000 C   0  0
    9.9181  -22.6716    0.0000 C   0  0
    9.2039  -22.2629    0.0000 C   0  0
   10.6357  -23.9124    0.0000 Cl  0  0
    0.6409  -22.2792    0.0000 Cl  0  0
    2.0649  -21.4538    0.0000 C   0  0
  1  2  2  0
  2  3  1  0
  3  4  2  0
  4  5  1  0
  5  6  2  0
  6  1  1  0
  5  7  1  0
  7  8  1  0
  8  9  1  0
  8 10  2  0
  9 11  1  0
 11 12  1  0
 12 13  2  0
 12 17  1  0
 13 14  1  0
 14 15  2  0
 15 16  1  0
 16 17  1  0
 16 18  2  0
 19 20  3  0
 15 19  1  0
 21 22  2  0
 22 23  1  0
 23 24  2  0
 24 25  1  0
 25 26  2  0
 26 21  1  0
 14 21  1  0
 24 27  1  0
  1 28  1  0
  6 29  1  0
M  END