
  SciTegic12191611222D

 27 29  0  0  0  0            999 V2000
   -3.6279   -2.6892    0.0000 O   0  0
   -3.6202   -1.4892    0.0000 S   0  0
   -4.6632   -2.0826    0.0000 O   0  0
    4.1090   -6.6281    0.0000 C   0  0
    3.5077   -5.5896    0.0000 C   0  0
    4.2542   -4.2907    0.0000 C   0  0
    3.6552   -2.9294    0.0000 C   0  0
    4.7409   -1.9129    0.0000 N   0  0
    6.0456   -2.6531    0.0000 C   0  0
    5.7448   -4.1226    0.0000 C   0  0
    6.7534   -5.2306    0.0000 C   0  0
    6.3895   -6.3741    0.0000 O   0  0
    7.9257   -4.9743    0.0000 C   0  0
    7.1381   -2.1568    0.0000 C   0  0
    2.1855   -2.6254    0.0000 C   0  0
    1.3877   -3.5218    0.0000 O   0  0
    1.7138   -1.2033    0.0000 N   0  0
    0.2917   -0.7475    0.0000 C   0  0
    0.2917    0.7475    0.0000 C   0  0
    1.7138    1.2033    0.0000 C   0  0
    2.5889    0.0182    0.0000 C   0  0
   -1.0028    1.5132    0.0000 C   0  0
   -2.3155    0.7475    0.0000 C   0  0
   -2.3155   -0.7475    0.0000 C   0  0
   -1.0028   -1.5132    0.0000 C   0  0
   -4.9153   -0.7308    0.0000 N   0  0
   -5.9586   -1.3238    0.0000 C   0  0
  2  1  2  0
  3  2  2  0
  4  5  1  0
  5  6  1  0
  6  7  2  0
  8  7  1  0
  9  8  1  0
 10  9  2  0
  6 10  1  0
 10 11  1  0
 11 12  2  0
 11 13  1  0
  9 14  1  0
  7 15  1  0
 15 16  2  0
 15 17  1  0
 17 18  1  0
 19 18  2  0
 20 19  1  0
 21 20  1  0
 17 21  1  0
 19 22  1  0
 22 23  2  0
 23 24  1  0
 24 25  2  0
 25 18  1  0
 24  2  1  0
  2 26  1  0
 26 27  1  0
M  END