
  CDK    9/16/09,9:19

 43 49  0  0  0  0  0  0  0  0999 V2000
    8.0945  -19.1793    0.0000 C   0  0  0  0  0  0  0  0  0  0  0  0
    8.8068  -19.5994    0.0000 C   0  0  0  0  0  0  0  0  0  0  0  0
    8.7983  -20.4243    0.0000 C   0  0  0  0  0  0  0  0  0  0  0  0
    7.3773  -19.5817    0.0000 C   0  0  0  0  0  0  0  0  0  0  0  0
    7.3653  -20.4052    0.0000 C   0  0  0  0  0  0  0  0  0  0  0  0
    8.0802  -20.8321    0.0000 C   0  0  0  0  0  0  0  0  0  0  0  0
    8.0681  -21.6600    0.0000 C   0  0  0  0  0  0  0  0  0  0  0  0
    7.3426  -22.0673    0.0000 C   0  0  0  0  0  0  0  0  0  0  0  0
    6.6277  -21.6406    0.0000 C   0  0  0  0  0  0  0  0  0  0  0  0
    6.6383  -20.8064    0.0000 O   0  0  0  0  0  0  0  0  0  0  0  0
    9.5087  -20.8427    0.0000 O   0  0  0  0  0  0  0  0  0  0  0  0
    8.1034  -18.3549    0.0000 O   0  0  0  0  0  0  0  0  0  0  0  0
    5.9081  -22.0430    0.0000 C   0  0  0  0  0  0  0  0  0  0  0  0
    5.8991  -22.8679    0.0000 C   0  0  0  0  0  0  0  0  0  0  0  0
    5.1804  -23.2703    0.0000 C   0  0  0  0  0  0  0  0  0  0  0  0
    4.4710  -22.8483    0.0000 C   0  0  0  0  0  0  0  0  0  0  0  0
    4.4850  -22.0197    0.0000 C   0  0  0  0  0  0  0  0  0  0  0  0
    5.2042  -21.6210    0.0000 C   0  0  0  0  0  0  0  0  0  0  0  0
    7.3317  -22.8918    0.0000 O   0  0  0  0  0  0  0  0  0  0  0  0
    5.1695  -24.0947    0.0000 O   0  0  0  0  0  0  0  0  0  0  0  0
    6.0003  -18.9428    0.0000 C   0  0  0  0  0  0  0  0  0  0  0  0
    3.8504  -17.7021    0.0000 C   0  0  0  0  0  0  0  0  0  0  0  0
    3.8493  -18.5289    0.0000 C   0  0  0  0  0  0  0  0  0  0  0  0
    4.5637  -18.9416    0.0000 C   0  0  0  0  0  0  0  0  0  0  0  0
    4.5619  -17.2895    0.0000 C   0  0  0  0  0  0  0  0  0  0  0  0
    5.2769  -17.6984    0.0000 C   0  0  0  0  0  0  0  0  0  0  0  0
    5.2803  -18.5310    0.0000 C   0  0  0  0  0  0  0  0  0  0  0  0
    6.7191  -18.5251    0.0000 C   0  0  0  0  0  0  0  0  0  0  0  0
    6.7156  -17.6925    0.0000 C   0  0  0  0  0  0  0  0  0  0  0  0
    5.9922  -17.2768    0.0000 O   0  0  0  0  0  0  0  0  0  0  0  0
    4.5622  -19.7661    0.0000 O   0  0  0  0  0  0  0  0  0  0  0  0
    3.1364  -17.2899    0.0000 O   0  0  0  0  0  0  0  0  0  0  0  0
    7.4283  -17.2780    0.0000 C   0  0  0  0  0  0  0  0  0  0  0  0
    8.1429  -17.6902    0.0000 C   0  0  0  0  0  0  0  0  0  0  0  0
    8.8552  -17.2764    0.0000 C   0  0  0  0  0  0  0  0  0  0  0  0
    8.8531  -16.4510    0.0000 C   0  0  0  0  0  0  0  0  0  0  0  0
    8.1327  -16.0412    0.0000 C   0  0  0  0  0  0  0  0  0  0  0  0
    7.4234  -16.4572    0.0000 C   0  0  0  0  0  0  0  0  0  0  0  0
    9.5653  -16.0356    0.0000 O   0  0  0  0  0  0  0  0  0  0  0  0
    8.1273  -15.2167    0.0000 O   0  0  0  0  0  0  0  0  0  0  0  0
    7.4342  -18.9355    0.0000 O   0  0  0  0  0  0  0  0  0  0  0  0
    5.5800  -19.6509    0.0000 H   0  0  0  0  0  0  0  0  0  0  0  0
    3.7508  -23.2498    0.0000 O   0  0  0  0  0  0  0  0  0  0  0  0
  8  9  1  0  0  0  0 
  9 10  1  0  0  0  0 
  5  6  1  0  0  0  0 
 22 23  2  0  0  0  0 
  3 11  1  0  0  0  0 
 23 24  1  0  0  0  0 
 24 27  2  0  0  0  0 
 26 25  2  0  0  0  0 
 25 22  1  0  0  0  0 
 26 27  1  0  0  0  0 
  1 12  1  0  0  0  0 
  2  3  1  0  0  0  0 
  9 13  1  1  0  0  0 
  3  6  2  0  0  0  0 
 13 14  2  0  0  0  0 
 26 30  1  0  0  0  0 
 27 21  1  0  0  0  0 
 21 28  1  0  0  0  0 
 28 29  1  0  0  0  0 
 29 30  1  0  0  0  0 
  1  2  2  0  0  0  0 
 24 31  1  0  0  0  0 
 14 15  1  0  0  0  0 
 22 32  1  0  0  0  0 
  5  4  2  0  0  0  0 
 29 33  1  6  0  0  0 
 15 16  2  0  0  0  0 
 33 34  2  0  0  0  0 
  4  1  1  0  0  0  0 
 34 35  1  0  0  0  0 
 16 17  1  0  0  0  0 
 35 36  2  0  0  0  0 
  5 10  1  0  0  0  0 
 36 37  1  0  0  0  0 
 17 18  2  0  0  0  0 
 37 38  2  0  0  0  0 
 38 33  1  0  0  0  0 
 18 13  1  0  0  0  0 
 36 39  1  0  0  0  0 
  6  7  1  0  0  0  0 
 37 40  1  0  0  0  0 
  8 19  1  6  0  0  0 
 28 41  1  6  0  0  0 
  7  8  1  0  0  0  0 
 21 42  1  6  0  0  0 
  4 21  1  0  0  0  0 
 29 12  1  0  0  0  0 
 15 20  1  0  0  0  0 
 16 43  1  0  0  0  0 
M  END