
  SciTegic01161211252D

 58 63  0  0  0  0            999 V2000
    8.7758  -20.1988    0.0000 C   0  0
    8.7724  -19.3707    0.0000 C   0  0
    8.0565  -18.9612    0.0000 C   0  0
    7.3410  -19.3765    0.0000 C   0  0
    7.3398  -20.2046    0.0000 C   0  0
    8.0588  -20.6219    0.0000 C   0  0
    9.4886  -20.6101    0.0000 O   0  0
    6.6267  -20.6189    0.0000 C   0  0
    8.0551  -18.1362    0.0000 C   0  0
    6.6262  -18.9654    0.0000 C   0  0
    6.6247  -18.1404    0.0000 C   0  0  1  0  0  0
    5.9098  -17.7246    0.0000 C   0  0
    7.3381  -17.7266    0.0000 N   0  0
    5.9084  -16.8996    0.0000 O   0  0
    5.1965  -18.1384    0.0000 N   0  0
    4.4817  -17.7256    0.0000 C   0  0  1  0  0  0
    3.7719  -18.1381    0.0000 C   0  0
    5.2011  -18.9633    0.0000 C   0  0
    4.4809  -19.3740    0.0000 C   0  0
    3.7706  -18.9620    0.0000 C   0  0
    3.0537  -19.3735    0.0000 C   0  0
    3.0544  -20.1969    0.0000 C   0  0
    3.7679  -20.6104    0.0000 C   0  0
    4.4798  -20.1948    0.0000 C   0  0
    4.4838  -16.9006    0.0000 C   0  0
    5.1989  -16.4898    0.0000 O   0  0
    3.7707  -16.4864    0.0000 N   0  0
    1.6177  -16.8989    0.0000 N   0  0
    2.3347  -16.4864    0.0000 C   0  0
    3.0489  -16.8989    0.0000 C   0  0
   -3.4263  -13.2385    0.0000 C   0  0
   -3.4135  -14.0664    0.0000 C   0  0
   -2.6955  -14.4731    0.0000 C   0  0
   -1.9824  -14.0503    0.0000 C   0  0
   -1.9906  -13.2224    0.0000 C   0  0
   -2.7163  -12.8126    0.0000 C   0  0
   -4.1459  -12.8392    0.0000 O   0  0
   -1.2798  -12.8008    0.0000 C   0  0
   -2.6849  -15.2981    0.0000 C   0  0
   -1.2608  -14.4541    0.0000 C   0  0
   -1.2547  -15.2791    0.0000 C   0  0  1  0  0  0
   -0.5329  -15.6874    0.0000 C   0  0
   -1.9657  -15.7001    0.0000 N   0  0
   -0.5269  -16.5123    0.0000 O   0  0
    0.1780  -15.2663    0.0000 N   0  0
    0.8904  -15.6716    0.0000 C   0  0  1  0  0  0
    1.5979  -15.2519    0.0000 C   0  0
    0.1641  -14.4415    0.0000 C   0  0
    0.8775  -14.0234    0.0000 C   0  0
    1.5947  -14.4281    0.0000 C   0  0
    2.3000  -14.0138    0.0000 C   0  0
    2.2948  -13.1905    0.0000 C   0  0
    1.5743  -12.7844    0.0000 C   0  0
    0.8693  -13.2026    0.0000 C   0  0
    0.8976  -16.4966    0.0000 C   0  0
    0.1894  -16.9148    0.0000 O   0  0
    1.6519  -16.1090    0.0000 H   0  0
    5.2616  -17.2789    0.0000 H   0  0
  1  2  1  0
  1  6  2  0
  2  3  2  0
  3  4  1  0
  4  5  2  0
  5  6  1  0
  1  7  1  0
  5  8  1  0
  3  9  1  0
  4 10  1  0
 11 10  1  1
 11 12  1  0
 11 13  1  0
 12 14  2  0
 12 15  1  0
 15 16  1  0
 15 18  1  0
 16 17  1  0
 17 20  1  0
 19 18  1  0
 19 20  2  0
 20 21  1  0
 21 22  2  0
 22 23  1  0
 23 24  2  0
 24 19  1  0
 16 25  1  0
 25 26  2  0
 25 27  1  0
 28 29  1  0
 29 30  1  0
 30 27  1  0
 31 32  1  0
 31 36  2  0
 32 33  2  0
 33 34  1  0
 34 35  2  0
 35 36  1  0
 31 37  1  0
 35 38  1  0
 33 39  1  0
 34 40  1  0
 41 40  1  1
 41 42  1  0
 41 43  1  0
 42 44  2  0
 42 45  1  0
 45 46  1  0
 45 48  1  0
 46 47  1  0
 47 50  1  0
 49 48  1  0
 49 50  2  0
 50 51  1  0
 51 52  2  0
 52 53  1  0
 53 54  2  0
 54 49  1  0
 46 55  1  0
 55 56  2  0
 55 28  1  0
 46 57  1  6
 16 58  1  6
M  END