
          11280714592D 1   1.00000     0.00000     0

 30 32  0     1  0            999 V2000
    1.7375   -4.6792    0.0000 S   0  0  3  0  0  0           0  0  0
    4.9667   -4.9542    0.0000 S   0  0  3  0  0  0           0  0  0
    0.9542   -2.7792    0.0000 C   0  0  2  0  0  0           0  0  0
    0.9542   -3.3792    0.0000 C   0  0  0  0  0  0           0  0  0
    1.4792   -2.4792    0.0000 N   0  0  3  0  0  0           0  0  0
    1.8917   -4.1042    0.0000 N   0  0  3  0  0  0           0  0  0
    1.4750   -3.6792    0.0000 C   0  0  2  0  0  0           0  0  0
    0.4375   -2.4792    0.0000 C   0  0  0  0  0  0           0  0  0
    2.3375   -4.6792    0.0000 O   0  0  0  0  0  0           0  0  0
    1.1375   -4.6792    0.0000 O   0  0  0  0  0  0           0  0  0
    2.0000   -3.3792    0.0000 C   0  0  0  0  0  0           0  0  0
    5.4917   -4.7375    0.0000 O   0  0  0  0  0  0           0  0  0
    4.3667   -5.3292    0.0000 O   0  0  0  0  0  0           0  0  0
    2.0000   -2.7792    0.0000 C   0  0  0  0  0  0           0  0  0
    0.4375   -1.8750    0.0000 C   0  0  0  0  0  0           0  0  0
    1.4792   -1.8750    0.0000 C   0  0  0  0  0  0           0  0  0
    4.4792   -4.4917    0.0000 N   0  0  0  0  0  0           0  0  0
    0.9542   -1.5667    0.0000 C   0  0  0  0  0  0           0  0  0
    1.5792   -5.2625    0.0000 C   0  0  0  0  0  0           0  0  0
    5.3417   -5.4542    0.0000 C   0  0  0  0  0  0           0  0  0
    2.4750   -3.9500    0.0000 C   0  0  0  0  0  0           0  0  0
   -0.0833   -2.7792    0.0000 C   0  0  0  0  0  0           0  0  0
   -0.0833   -1.5750    0.0000 C   0  0  0  0  0  0           0  0  0
    3.9000   -4.6417    0.0000 C   0  0  0  0  0  0           0  0  0
    2.8917   -4.3750    0.0000 C   0  0  0  0  0  0           0  0  0
    3.4750   -4.2167    0.0000 C   0  0  0  0  0  0           0  0  0
   -0.6000   -2.4792    0.0000 C   0  0  0  0  0  0           0  0  0
   -0.6000   -1.8750    0.0000 C   0  0  0  0  0  0           0  0  0
    0.4375   -3.0750    0.0000 H   0  0  0  0  0  0           0  0  0
    1.0542   -4.1875    0.0000 H   0  0  0  0  0  0           0  0  0
  2 17  1  0     0  0
  3  4  1  0     0  0
  4  7  1  0     0  0
  5 14  1  0     0  0
  6  1  1  0     0  0
  7  6  1  0     0  0
  8  3  1  0     0  0
  9  1  2  0     0  0
 10  1  2  0     0  0
 11  7  1  0     0  0
 12  2  2  0     0  0
 13  2  2  0     0  0
 14 11  1  0     0  0
 15  8  1  0     0  0
 16  5  1  0     0  0
 17 24  1  0     0  0
 18 16  1  0     0  0
 19  1  1  0     0  0
 20  2  1  0     0  0
 21  6  1  0     0  0
 22  8  2  0     0  0
 23 15  2  0     0  0
 24 26  1  0     0  0
 25 21  1  0     0  0
 26 25  1  0     0  0
 27 22  1  0     0  0
 28 27  2  0     0  0
  3 29  1  6     0  0
  7 30  1  6     0  0
  3  5  1  0     0  0
 18 15  1  0     0  0
 28 23  1  0     0  0
M  END