
  SciTegic06051315212D

 22 23  0  0  0  0            999 V2000
   37.3459   -9.0386    0.0000 C   0  0
   37.3447   -9.8581    0.0000 C   0  0
   38.0528  -10.2671    0.0000 C   0  0
   38.7624   -9.8577    0.0000 C   0  0
   38.7596   -9.0350    0.0000 C   0  0
   38.0510   -8.6297    0.0000 C   0  0
   38.0485   -7.8125    0.0000 S   0  0
   38.7550   -7.4018    0.0000 N   0  0
   37.2524   -8.0192    0.0000 O   0  0
   37.6321   -7.0988    0.0000 O   0  0
   39.4658   -8.6237    0.0000 F   0  0
   36.6381   -8.6302    0.0000 F   0  0
   36.6367  -10.2662    0.0000 F   0  0
   39.4708  -10.2651    0.0000 F   0  0
   38.0526  -11.0843    0.0000 S   0  0
   37.3448  -11.4927    0.0000 C   0  0
   37.3446  -12.3099    0.0000 C   0  0
   36.6359  -12.7140    0.0000 C   0  0
   36.6354  -13.5304    0.0000 C   0  0
   37.3435  -13.9400    0.0000 C   0  0
   38.0537  -13.5272    0.0000 C   0  0
   38.0507  -12.7121    0.0000 C   0  0
  1  2  2  0
  2  3  1  0
  3  4  2  0
  4  5  1  0
  5  6  2  0
  6  1  1  0
  6  7  1  0
  7  8  1  0
  7  9  2  0
  7 10  2  0
  5 11  1  0
  1 12  1  0
  2 13  1  0
  4 14  1  0
  3 15  1  0
 15 16  1  0
 16 17  1  0
 17 18  2  0
 18 19  1  0
 19 20  2  0
 20 21  1  0
 21 22  2  0
 22 17  1  0
M  END