
          11280714492D 1   1.00000     0.00000     0

 22 22  0     0  0            999 V2000
    5.2792    1.0750    0.0000 C   0  0  0  0  0  0           0  0  0
    5.8000    1.3750    0.0000 C   0  0  3  0  0  0           0  0  0
    4.7625    1.3750    0.0000 C   0  0  0  0  0  0           0  0  0
    4.7625    1.9750    0.0000 C   0  0  0  0  0  0           0  0  0
    6.1000    1.8958    0.0000 C   0  0  0  0  0  0           0  0  0
    6.4000    1.3750    0.0000 C   0  0  0  0  0  0           0  0  0
    5.2792    0.4750    0.0000 N   0  0  0  0  0  0           0  0  0
    4.2417    2.2833    0.0000 C   0  0  3  0  0  0           0  0  0
    8.2125    0.0083    0.0000 N   0  0  0  0  0  0           0  0  0
    5.2792    2.2750    0.0000 O   0  0  0  0  0  0           0  0  0
    8.7292    0.3083    0.0000 C   0  0  3  0  0  0           0  0  0
    6.1375    0.0083    0.0000 O   0  0  0  0  0  0           0  0  0
    7.1667    0.0083    0.0000 C   0  0  3  0  0  0           0  0  0
    7.6917    0.3083    0.0000 C   0  0  0  0  0  0           0  0  0
    6.6542    0.3083    0.0000 C   0  0  0  0  0  0           0  0  0
    7.1667   -0.5917    0.0000 O   0  0  0  0  0  0           0  0  0
    4.2417    2.8833    0.0000 C   0  0  0  0  0  0           0  0  0
    3.7167    1.9833    0.0000 C   0  0  0  0  0  0           0  0  0
    3.7167    2.5833    0.0000 C   0  0  0  0  0  0           0  0  0
    9.2500    0.6083    0.0000 C   0  0  0  0  0  0           0  0  0
    9.2500    0.0083    0.0000 C   0  0  0  0  0  0           0  0  0
    8.7292    0.9083    0.0000 C   0  0  0  0  0  0           0  0  0
  2  1  1  0     0  0
  3  1  1  0     0  0
  4  3  1  0     0  0
  5  2  1  0     0  0
  6  2  1  0     0  0
  7  1  2  0     0  0
  8  4  1  0     0  0
  9 14  1  0     0  0
 10  4  2  0     0  0
 11  9  1  0     0  0
 12  7  1  0     0  0
 13 15  1  0     0  0
 14 13  1  0     0  0
 15 12  1  0     0  0
 16 13  1  0     0  0
 17  8  1  0     0  0
 18  8  1  0     0  0
 19  8  1  0     0  0
 20 11  1  0     0  0
 21 11  1  0     0  0
 22 11  1  0     0  0
  6  5  1  0     0  0
M  END