
  SciTegic06181315362D

 37 41  0  0  0  0            999 V2000
   19.0307   -6.2280    0.0000 N   0  0
   18.4033   -6.0051    0.0000 C   0  0
   17.4912   -6.3312    0.0000 C   0  0
   17.0867   -5.6172    0.0000 C   0  0
   17.7595   -5.8400    0.0000 C   0  0
   18.6262   -5.5099    0.0000 C   0  0
   18.6221   -4.6927    0.0000 C   0  0
   19.3277   -4.2805    0.0000 N   0  0
   17.9123   -4.2876    0.0000 O   0  0
   20.0375   -4.6855    0.0000 C   0  0
   18.3992   -5.1879    0.0000 C   0  0
   19.3236   -3.4633    0.0000 C   0  0
   20.0292   -3.0511    0.0000 C   0  0
   20.0251   -2.2340    0.0000 O   0  0
   20.7307   -1.8218    0.0000 C   0  0
   21.4423   -2.2306    0.0000 C   0  0
   22.1475   -1.8192    0.0000 C   0  0
   22.1438   -1.0011    0.0000 C   0  0
   21.4290   -0.5963    0.0000 C   0  0
   20.7268   -1.0101    0.0000 C   0  0
   22.8489   -0.5880    0.0000 O   0  0
   23.5592   -0.9921    0.0000 C   0  0
   22.8570   -2.2245    0.0000 O   0  0
   22.8608   -3.0417    0.0000 C   0  0
   19.6559   -6.7542    0.0000 S   0  0
   19.5128   -7.5588    0.0000 C   0  0
   20.3596   -6.3394    0.0000 O   0  0
   20.3596   -7.1607    0.0000 O   0  0
   18.7445   -7.8350    0.0000 C   0  0
   18.6012   -8.6387    0.0000 C   0  0
   20.1378   -8.0805    0.0000 C   0  0
   19.9982   -8.8836    0.0000 C   0  0
   19.2303   -9.1685    0.0000 C   0  0
   19.2640   -9.9868    0.0000 N   0  0
   20.0527  -10.2077    0.0000 C   0  0
   20.5064   -9.5258    0.0000 S   0  0
   20.3370  -10.9738    0.0000 O   0  0
  1  2  1  0
  2  3  1  0
  3  4  1  0
  4  5  1  0
  5  6  1  0
  6  1  1  0
  6  7  1  0
  7  8  1  0
  7  9  2  0
  8 10  1  0
  2 11  1  0
 11 10  1  0
  8 12  1  0
 12 13  1  0
 13 14  1  0
 14 15  1  0
 15 16  2  0
 16 17  1  0
 17 18  2  0
 18 19  1  0
 19 20  2  0
 20 15  1  0
 18 21  1  0
 21 22  1  0
 17 23  1  0
 23 24  1  0
  1 25  1  0
 25 26  1  0
 25 27  2  0
 25 28  2  0
 26 29  2  0
 29 30  1  0
 30 33  2  0
 32 31  2  0
 31 26  1  0
 32 33  1  0
 33 34  1  0
 34 35  1  0
 35 36  1  0
 36 32  1  0
 35 37  2  0
M  END