
          11280715282D 1   1.00000     0.00000     0

 33 36  0     0  0            999 V2000
    3.8375   -0.3667    0.0000 N   0  0  3  0  0  0           0  0  0
    3.3375   -0.0292    0.0000 C   0  0  0  0  0  0           0  0  0
    4.3042    0.0000    0.0000 C   0  0  0  0  0  0           0  0  0
    6.4250   -2.2792    0.0000 N   0  0  3  0  0  0           0  0  0
    3.5000    0.5458    0.0000 C   0  0  0  0  0  0           0  0  0
    4.1000    0.5708    0.0000 C   0  0  0  0  0  0           0  0  0
    4.9375   -2.1292    0.0000 N   0  0  3  0  0  0           0  0  0
    7.4792   -6.2917    0.0000 C   0  0  0  0  0  0           0  0  0
    6.0250   -1.8250    0.0000 C   0  0  3  0  0  0           0  0  0
    5.9375   -2.2125    0.0000 C   0  0  3  0  0  0           0  0  0
    5.3375   -2.5792    0.0000 C   0  0  0  0  0  0           0  0  0
    5.4542   -2.1917    0.0000 C   0  0  0  0  0  0           0  0  0
    7.3292   -6.8667    0.0000 S   0  0  0  0  0  0           0  0  0
    7.6375   -5.7167    0.0000 N   0  0  0  0  0  0           0  0  0
    3.8542   -0.9667    0.0000 C   0  0  0  0  0  0           0  0  0
    4.3875   -1.2500    0.0000 C   0  0  0  0  0  0           0  0  0
    4.4125   -1.8500    0.0000 C   0  0  0  0  0  0           0  0  0
    6.8417   -2.7042    0.0000 C   0  0  0  0  0  0           0  0  0
    2.7500   -0.1792    0.0000 C   0  0  0  0  0  0           0  0  0
    4.9000   -0.1042    0.0000 C   0  0  0  0  0  0           0  0  0
    3.0875    0.9750    0.0000 C   0  0  0  0  0  0           0  0  0
    4.4875    1.0250    0.0000 C   0  0  0  0  0  0           0  0  0
    6.6042   -1.6667    0.0000 C   0  0  0  0  0  0           0  0  0
    5.9375   -2.8125    0.0000 C   0  0  0  0  0  0           0  0  0
    7.2125   -5.2917    0.0000 C   0  0  0  0  0  0           0  0  0
    6.6875   -3.2792    0.0000 C   0  0  0  0  0  0           0  0  0
    7.3750   -4.7125    0.0000 C   0  0  0  0  0  0           0  0  0
    7.1042   -3.7042    0.0000 C   0  0  0  0  0  0           0  0  0
    6.9500   -4.2875    0.0000 C   0  0  0  0  0  0           0  0  0
    5.2875    0.3583    0.0000 C   0  0  0  0  0  0           0  0  0
    5.0750    0.9208    0.0000 C   0  0  0  0  0  0           0  0  0
    2.5042    0.8333    0.0000 C   0  0  0  0  0  0           0  0  0
    2.3375    0.2583    0.0000 C   0  0  0  0  0  0           0  0  0
  2  1  1  0     0  0
  3  1  1  0     0  0
  4  9  1  0     0  0
  5  2  1  0     0  0
  6  3  2  0     0  0
  7 17  1  0     0  0
  8 14  2  0     0  0
  9 12  1  0     0  0
 10 11  1  0     0  0
 11  7  1  0     0  0
 12  7  1  0     0  0
 13  8  2  0     0  0
 14 25  1  0     0  0
 15  1  1  0     0  0
 16 15  1  0     0  0
 17 16  1  0     0  0
 18  4  1  0     0  0
 19  2  2  0     0  0
 20  3  1  0     0  0
 21  5  2  0     0  0
 22  6  1  0     0  0
 23  9  1  0     0  0
 24 10  1  0     0  0
 25 27  1  0     0  0
 26 18  1  0     0  0
 27 29  1  0     0  0
 28 26  1  0     0  0
 29 28  1  0     0  0
 30 20  2  0     0  0
 31 30  1  0     0  0
 32 33  2  0     0  0
 33 19  1  0     0  0
  6  5  1  0     0  0
 31 22  2  0     0  0
 21 32  1  0     0  0
  4 10  1  0     0  0
M  END