
          11280715472D 1   1.00000     0.00000     0

 30 32  0     0  0            999 V2000
    4.8500   -3.2417    0.0000 S   0  0  3  0  0  0           0  0  0
    4.1167   -3.6375    0.0000 N   0  0  0  0  0  0           0  0  0
    2.8000   -1.8542    0.0000 N   0  0  0  0  0  0           0  0  0
    3.4417   -2.3667    0.0000 N   0  0  3  0  0  0           0  0  0
    3.4167   -3.1917    0.0000 C   0  0  0  0  0  0           0  0  0
    3.0917   -1.0792    0.0000 C   0  0  0  0  0  0           0  0  0
    3.9042   -1.1167    0.0000 C   0  0  3  0  0  0           0  0  0
    4.1167   -1.9167    0.0000 C   0  0  0  0  0  0           0  0  0
    5.2417   -3.9750    0.0000 N   0  0  3  0  0  0           0  0  0
    4.4542   -2.5167    0.0000 O   0  0  0  0  0  0           0  0  0
    5.5792   -2.8542    0.0000 O   0  0  0  0  0  0           0  0  0
    2.6042   -0.4167    0.0000 C   0  0  0  0  0  0           0  0  0
    4.4500   -0.4917    0.0000 C   0  0  0  0  0  0           0  0  0
    2.6917   -3.5792    0.0000 N   0  0  0  0  0  0           0  0  0
    2.9375    0.3458    0.0000 C   0  0  0  0  0  0           0  0  0
    1.7792   -0.5042    0.0000 C   0  0  0  0  0  0           0  0  0
    1.6250    0.9083    0.0000 C   0  0  0  0  0  0           0  0  0
    2.4417    1.0083    0.0000 C   0  0  0  0  0  0           0  0  0
    1.2917    0.1625    0.0000 C   0  0  0  0  0  0           0  0  0
    1.1250    1.5583    0.0000 Cl  0  0  0  0  0  0           0  0  0
    4.8042   -4.6750    0.0000 C   0  0  0  0  0  0           0  0  0
    6.0667   -4.0000    0.0000 C   0  0  0  0  0  0           0  0  0
    4.1750    0.2833    0.0000 C   0  0  0  0  0  0           0  0  0
    5.2625   -0.6542    0.0000 C   0  0  0  0  0  0           0  0  0
    2.6667   -4.4042    0.0000 C   0  0  0  0  0  0           0  0  0
    3.9792   -4.6500    0.0000 C   0  0  0  0  0  0           0  0  0
    6.4542   -4.7167    0.0000 C   0  0  0  0  0  0           0  0  0
    4.7167    0.9083    0.0000 C   0  0  0  0  0  0           0  0  0
    5.8000   -0.0292    0.0000 C   0  0  0  0  0  0           0  0  0
    5.5250    0.7458    0.0000 C   0  0  0  0  0  0           0  0  0
  2  1  1  0     0  0
  3  4  1  0     0  0
  4  5  1  0     0  0
  5  2  1  0     0  0
  6  3  2  0     0  0
  7  8  1  0     0  0
  8  4  1  0     0  0
  9  1  1  0     0  0
 10  1  2  0     0  0
 11  1  2  0     0  0
 12  6  1  0     0  0
 13  7  1  0     0  0
 14  5  2  0     0  0
 15 12  1  0     0  0
 16 12  2  0     0  0
 17 19  2  0     0  0
 18 15  2  0     0  0
 19 16  1  0     0  0
 20 17  1  0     0  0
 21  9  1  0     0  0
 22  9  1  0     0  0
 23 13  1  0     0  0
 24 13  2  0     0  0
 25 14  1  0     0  0
 26 21  1  0     0  0
 27 22  1  0     0  0
 28 23  2  0     0  0
 29 24  1  0     0  0
 30 29  2  0     0  0
  7  6  1  0     0  0
 18 17  1  0     0  0
 30 28  1  0     0  0
M  END