
  SciTegic04191613082D

181191  0  0  1  0            999 V2000
   10.0069    5.6504    0.0000 C   0  0
   10.5635    7.0404    0.0000 C   0  0
    9.6214    8.2241    0.0000 C   0  0
    8.1396    8.0112    0.0000 C   0  0
    7.5829    6.6212    0.0000 C   0  0
    8.5081    5.4442    0.0000 C   0  0
    6.1011    6.4082    0.0000 C   0  0
    5.1756    7.5851    0.0000 C   0  0
    5.7326    8.9752    0.0000 C   0  0
    7.2144    9.1881    0.0000 C   0  0
    3.6896    7.3748    0.0000 C   0  0
    3.1234    5.9720    0.0000 C   0  0  1  0  0  0
    1.6845    6.3958    0.0000 C   0  0
    1.9126    7.5739    0.0000 O   0  0
    0.1914    6.5397    0.0000 N   0  0
   -1.3019    6.3983    0.0000 C   0  0  1  0  0  0
   -1.5841    7.8845    0.0000 C   0  0
   -0.4477    8.8649    0.0000 C   0  0
   -0.7276   10.3394    0.0000 C   0  0
   -2.1442   10.8351    0.0000 N   0  0
   -2.4241   12.3096    0.0000 C   0  0
   -3.5568   12.7060    0.0000 N   0  0
   -1.5148   13.0926    0.0000 N   0  0
   -2.7415    5.9770    0.0000 C   0  0
   -4.0753    5.2907    0.0000 N   0  0
   -5.2552    4.3645    0.0000 C   0  0  2  0  0  0
   -6.2385    3.2317    0.0000 C   0  0
   -7.2154    3.9286    0.0000 O   0  0
   -6.9896    1.9333    0.0000 N   0  0
   -7.4814    0.5162    0.0000 C   0  0  2  0  0  0
   -8.4530    0.7528    0.0000 C   0  0
   -7.6961   -0.9683    0.0000 C   0  0
   -7.6260   -2.4667    0.0000 N   0  0
   -7.2736   -3.9247    0.0000 C   0  0  2  0  0  0
   -7.5618   -2.4517    0.0000 C   0  0
   -7.5674   -0.9517    0.0000 N   0  0
   -7.2710    0.5187    0.0000 C   0  0  2  0  0  0
   -6.6847    1.8994    0.0000 C   0  0
   -5.8324    3.1337    0.0000 N   0  0
   -4.7491    4.1712    0.0000 C   0  0  1  0  0  0
   -5.2182    5.6092    0.0000 C   0  0
   -6.6864    5.9204    0.0000 C   0  0
   -7.7047    4.8032    0.0000 C   0  0
   -9.1689    5.1151    0.0000 C   0  0
   -9.6310    6.5393    0.0000 C   0  0
   -8.6290    7.6516    0.0000 C   0  0
   -7.1474    7.3453    0.0000 C   0  0
  -11.0952    6.8512    0.0000 C   0  0
  -12.0973    5.7390    0.0000 C   0  0
  -11.6351    4.3148    0.0000 C   0  0
  -10.1709    4.0029    0.0000 C   0  0
   -3.4791    4.9695    0.0000 C   0  0
   -2.0745    5.4957    0.0000 N   0  0
   -0.5926    5.7284    0.0000 C   0  0  2  0  0  0
    0.9057    5.6581    0.0000 C   0  0
    2.3593    5.2875    0.0000 N   0  0
    3.7084    4.6320    0.0000 C   0  0  2  0  0  0
    4.8980    3.7183    0.0000 C   0  0
    5.5843    4.4457    0.0000 O   0  0
    5.8794    2.5839    0.0000 N   0  0
    6.6122    1.2751    0.0000 C   0  0  1  0  0  0
    7.7085    2.3173    0.0000 C   0  0
    8.9163    1.4264    0.0000 C   0  0
   10.2921    2.0260    0.0000 C   0  0
   10.4616    3.5173    0.0000 N   0  0
   11.8374    4.1169    0.0000 C   0  0
   12.8025    3.4037    0.0000 N   0  0
   11.9730    5.3093    0.0000 N   0  0
    7.0667   -0.1544    0.0000 C   0  0
    7.2240   -1.6461    0.0000 N   0  0
    7.0779   -3.1390    0.0000 C   0  0  1  0  0  0
    8.5612   -3.4351    0.0000 C   0  0
    9.5522   -2.3079    0.0000 C   0  0
   11.0240   -2.6016    0.0000 C   0  0
   12.0150   -1.4745    0.0000 N   0  0
   13.4868   -1.7682    0.0000 C   0  0
   13.8714   -2.9049    0.0000 N   0  0
   14.2791   -0.8670    0.0000 N   0  0
    6.6342   -4.5719    0.0000 C   0  0
    7.7387   -5.0410    0.0000 O   0  0
    5.9112   -5.8861    0.0000 N   0  0
    4.9384   -7.0279    0.0000 C   0  0  1  0  0  0
    3.7557   -7.9506    0.0000 C   0  0
    2.4115   -8.6162    0.0000 N   0  0
    0.9608   -8.9976    0.0000 C   0  0
    1.1160   -9.9855    0.0000 O   0  0
   -0.5370   -9.0792    0.0000 C   0  0
   -2.0205   -8.8577    0.0000 C   0  0
   -3.4366   -8.3604    0.0000 C   0  0
   -4.6978   -7.5483    0.0000 C   0  0
   -5.7825   -6.5123    0.0000 N   0  0
   -6.6516   -5.2897    0.0000 C   0  0
   -5.4404   -8.4910    0.0000 O   0  0
   -2.0446   -8.9190    0.0000 C   0  0
   -0.5719   -9.2042    0.0000 C   0  0
    0.9281   -9.2054    0.0000 C   0  0
    1.0223  -10.2010    0.0000 O   0  0
    2.4012   -8.9228    0.0000 N   0  0
    3.7943   -8.3665    0.0000 C   0  0  2  0  0  0
    4.4837   -9.7130    0.0000 C   0  0
    3.6696  -10.9738    0.0000 C   0  0
    4.3512  -12.3100    0.0000 C   0  0
    3.5350  -13.5685    0.0000 C   0  0
    2.0370  -13.4908    0.0000 C   0  0
    1.3553  -12.1547    0.0000 C   0  0
    2.1715  -10.8962    0.0000 C   0  0
    5.0568   -7.5566    0.0000 C   0  0
    6.1433   -6.5224    0.0000 N   0  0
    7.0144   -5.3013    0.0000 C   0  0  2  0  0  0
    7.6387   -3.9373    0.0000 C   0  0
    8.7724   -4.3308    0.0000 O   0  0
    7.9936   -2.4799    0.0000 N   0  0
    8.0662   -0.9817    0.0000 C   0  0  1  0  0  0
    7.8540    0.5032    0.0000 C   0  0
    9.0204    0.7851    0.0000 O   0  0
    7.3646    1.9211    0.0000 N   0  0
    6.6157    3.2208    0.0000 C   0  0  1  0  0  0
    5.6344    4.3553    0.0000 C   0  0
    6.4632    5.2231    0.0000 O   0  0
    4.4561    5.2835    0.0000 N   0  0
    7.3755    4.5242    0.0000 C   0  0
    8.8755    4.5230    0.0000 C   0  0
    9.6244    3.2233    0.0000 C   0  0
    8.8733    1.9249    0.0000 C   0  0
    9.5774   -0.9139    0.0000 C   0  0
   10.2697    0.4177    0.0000 C   0  0
   11.7690    0.4850    0.0000 C   0  0
   12.4156   -0.5259    0.0000 C   0  0
    7.9836   -6.4628    0.0000 C   0  0
    9.4625   -6.2072    0.0000 C   0  0
   10.4252   -7.3575    0.0000 C   0  0
   11.9027   -7.0991    0.0000 C   0  0
   12.4177   -5.6902    0.0000 C   0  0
   11.4551   -4.5399    0.0000 C   0  0
    9.9775   -4.7983    0.0000 C   0  0
   13.5997   -5.4835    0.0000 F   0  0
    5.6743   -8.3432    0.0000 O   0  0
    0.0254   -9.3156    0.0000 C   0  0
    6.2939   -7.6992    0.0000 C   0  0
    7.1261   -7.1448    0.0000 O   0  0
    6.3904   -9.1969    0.0000 N   0  0
    7.7353   -9.8630    0.0000 C   0  0  2  0  0  0
    8.9861   -9.0335    0.0000 C   0  0
   10.0608   -9.5673    0.0000 O   0  0
    8.9114   -7.8359    0.0000 O   0  0
    7.8319  -11.3608    0.0000 C   0  0
    9.1768  -12.0269    0.0000 C   0  0
    9.2733  -13.5246    0.0000 C   0  0
   10.6182  -14.1907    0.0000 C   0  0
   10.6954  -15.3882    0.0000 N   0  0
    8.2412    0.0915    0.0000 O   0  0
    4.8940    5.5713    0.0000 C   0  0
    4.1812    6.8921    0.0000 C   0  0
    4.4832    8.3622    0.0000 C   0  0
    3.7704    9.6830    0.0000 N   0  0
    4.5570   10.9612    0.0000 C   0  0
    5.7565   10.9271    0.0000 N   0  0
    3.9871   12.0172    0.0000 N   0  0
    1.0830    6.8449    0.0000 O   0  0
   -0.6778    7.2386    0.0000 C   0  0
    0.5771    8.0618    0.0000 C   0  0
    0.4926    9.5602    0.0000 C   0  0
    1.7475   10.3834    0.0000 N   0  0
    1.6630   11.8819    0.0000 C   0  0
    0.5914   12.4221    0.0000 N   0  0
    2.6663   12.5401    0.0000 N   0  0
   -4.0116    6.0448    0.0000 O   0  0
   -7.7361    2.4778    0.0000 O   0  0
   -8.4775    1.4310    0.0000 C   0  0
   -9.8604    0.8476    0.0000 C   0  0
  -11.0582    1.7506    0.0000 C   0  0
  -12.4391    1.1648    0.0000 C   0  0
  -12.6222   -0.3240    0.0000 C   0  0
  -11.4244   -1.2270    0.0000 C   0  0
  -10.0436   -0.6412    0.0000 C   0  0
   -8.7560   -2.5697    0.0000 O   0  0
   -8.8947   -0.9102    0.0000 O   0  0
   -5.9447    5.0888    0.0000 C   0  0
   -3.1866    7.0914    0.0000 O   0  0
    6.5232    4.2165    0.0000 H   0  0
   -7.4871   -2.9478    0.0000 H   0  0
  1  2  2  0
  2  3  1  0
  3  4  2  0
  4  5  1  0
  5  6  2  0
  6  1  1  0
  7  5  1  0
  8  7  2  0
  9  8  1  0
 10  9  2  0
  4 10  1  0
 11  8  1  0
 12 11  1  6
 12 13  1  0
 13 14  2  0
 13 15  1  0
 15 16  1  0
 16 17  1  6
 17 18  1  0
 18 19  1  0
 19 20  1  0
 20 21  1  0
 21 22  2  0
 21 23  1  0
 16 24  1  0
 24 25  1  0
 25 26  1  0
 26 27  1  0
 27 28  2  0
 27 29  1  0
 29 30  1  0
 30 31  1  1
 30 32  1  0
 32 33  1  0
 33 34  1  0
 34 35  1  0
 35 36  1  0
 36 37  1  0
 37 38  1  0
 38 39  1  0
 39 40  1  0
 40 41  1  1
 41 42  1  0
 42 43  2  0
 43 44  1  0
 45 44  1  0
 45 46  1  0
 46 47  2  0
 47 42  1  0
 48 45  2  0
 49 48  1  0
 50 49  2  0
 51 50  1  0
 44 51  2  0
 40 52  1  0
 52 53  1  0
 53 54  1  0
 54 55  1  0
 55 56  1  0
 56 57  1  0
 57 58  1  0
 58 59  2  0
 58 60  1  0
 61 60  1  0
 61 62  1  1
 62 63  1  0
 63 64  1  0
 64 65  1  0
 65 66  1  0
 66 67  1  0
 66 68  2  0
 69 61  1  0
 70 69  1  0
 71 70  1  0
 71 72  1  1
 72 73  1  0
 73 74  1  0
 74 75  1  0
 75 76  1  0
 76 77  1  0
 76 78  2  0
 79 71  1  0
 79 80  2  0
 81 79  1  0
 82 81  1  0
 82 83  1  0
 84 83  1  0
 85 84  1  0
 85 86  2  0
 87 85  1  0
 87 88  2  0
 88 89  1  0
 89 90  1  0
 90 91  1  0
 92 91  1  0
 34 92  1  0
 90 93  2  0
 89 94  2  0
 94 95  1  0
 96 95  1  0
 96 97  2  0
 98 96  1  0
 98 99  1  0
 99100  1  1
100101  1  0
101102  2  0
102103  1  0
103104  2  0
104105  1  0
105106  2  0
106101  1  0
 99107  1  0
108107  1  0
109108  1  0
110109  1  0
110111  2  0
112110  1  0
113112  1  0
114113  1  0
114115  2  0
116114  1  0
117116  1  0
117118  1  0
118119  2  0
120118  1  0
 12120  1  0
117121  1  0
121122  1  0
122123  1  0
123124  1  0
124116  1  0
113125  1  1
125126  1  0
126127  1  0
127128  1  0
109129  1  6
129130  1  0
131130  1  0
132131  2  0
133132  1  0
134133  2  0
135134  1  0
130135  2  0
133136  1  0
107137  2  0
 95138  2  0
138 87  1  0
 82139  1  6
139140  2  0
139141  1  0
142141  1  6
142143  1  0
143144  2  0
143145  1  0
142146  1  0
146147  1  0
147148  1  0
148149  1  0
149150  1  0
 69151  2  0
 57152  1  1
152153  1  0
153154  1  0
154155  1  0
155156  1  0
156157  1  0
156158  2  0
 55159  2  0
 54160  1  1
160161  1  0
161162  1  0
162163  1  0
163164  1  0
164165  1  0
164166  2  0
 52167  2  0
 38168  2  0
 37169  1  1
169170  1  0
170171  2  0
171172  1  0
172173  2  0
173174  1  0
174175  2  0
175170  1  0
 35176  2  0
 32177  2  0
 26178  1  6
 24179  2  0
117180  1  6
 34181  1  1
M  END