
  SciTegic12231509382D

 20 19  0  0  0  0            999 V2000
    5.6411   -3.6767    0.0000 C   0  0
    6.4703   -3.6767    0.0000 C   0  0
    6.8828   -4.3884    0.0000 C   0  0
    7.7078   -4.3884    0.0000 C   0  0
    8.1203   -5.1043    0.0000 C   0  0
    8.9453   -5.1043    0.0000 C   0  0
    9.3578   -5.8201    0.0000 C   0  0
   10.1828   -5.8201    0.0000 O   0  0
    8.9453   -6.5318    0.0000 O   0  0
    5.2286   -4.3884    0.0000 C   0  0
    4.4036   -4.3884    0.0000 C   0  0
    3.9911   -5.1043    0.0000 C   0  0
    4.4036   -5.8201    0.0000 C   0  0
    5.2286   -5.8201    0.0000 C   0  0
    5.6411   -6.5318    0.0000 C   0  0
    5.2286   -7.2476    0.0000 C   0  0
    5.6411   -7.9635    0.0000 C   0  0
    6.4703   -7.9635    0.0000 C   0  0
    6.8828   -8.6752    0.0000 C   0  0
    7.7078   -8.6752    0.0000 C   0  0
  1  2  1  0
  2  3  1  0
  3  4  1  0
  4  5  1  0
  5  6  1  0
  6  7  1  0
  7  8  2  0
  7  9  1  0
  1 10  1  0
 10 11  1  0
 11 12  2  0
 12 13  1  0
 13 14  1  0
 14 15  2  0
 15 16  1  0
 16 17  1  0
 17 18  1  0
 18 19  1  0
 19 20  1  0
M  END