
          08180812472D 1   1.00000     0.00000     0

 32 36  0     0  0            999 V2000
   -2.6893   -0.8467    0.0000 C   0  0  0  0  0  0           0  0  0
   -2.6917   -1.6733    0.0000 C   0  0  0  0  0  0           0  0  0
   -3.4079   -2.0835    0.0000 C   0  0  0  0  0  0           0  0  0
   -3.4106   -2.9094    0.0000 C   0  0  0  0  0  0           0  0  0
   -2.6948   -3.3235    0.0000 C   0  0  0  0  0  0           0  0  0
   -1.9748   -2.9100    0.0000 C   0  0  0  0  0  0           0  0  0
   -1.9756   -2.0855    0.0000 C   0  0  0  0  0  0           0  0  0
   -2.6959   -4.1456    0.0000 C   0  0  0  0  0  0           0  0  0
   -3.4147   -4.5592    0.0000 C   0  0  0  0  0  0           0  0  0
   -3.4163   -5.3851    0.0000 C   0  0  0  0  0  0           0  0  0
   -2.7000   -5.7983    0.0000 C   0  0  0  0  0  0           0  0  0
   -1.9805   -5.3838    0.0000 C   0  0  0  0  0  0           0  0  0
   -1.9824   -4.5593    0.0000 C   0  0  0  0  0  0           0  0  0
   -1.2664   -4.1431    0.0000 C   0  0  0  0  0  0           0  0  0
   -0.5129   -4.4791    0.0000 N   0  0  0  0  0  0           0  0  0
    0.0409   -3.8631    0.0000 N   0  0  0  0  0  0           0  0  0
   -1.1838   -3.3190    0.0000 N   0  0  0  0  0  0           0  0  0
   -0.4536   -3.1376    0.0000 N   0  0  0  0  0  0           0  0  0
   -1.9757   -0.4376    0.0000 N   0  0  3  0  0  0           0  0  0
   -1.2240   -0.7782    0.0000 C   0  0  0  0  0  0           0  0  0
   -1.8860    0.3761    0.0000 N   0  0  3  0  0  0           0  0  0
   -1.0569   -1.5835    0.0000 O   0  0  0  0  0  0           0  0  0
   -1.0811    0.5449    0.0000 C   0  0  0  0  0  0           0  0  0
   -0.6751   -0.1703    0.0000 C   0  0  0  0  0  0           0  0  0
    0.1454   -0.1753    0.0000 C   0  0  0  0  0  0           0  0  0
    0.5609    0.5342    0.0000 C   0  0  0  0  0  0           0  0  0
    0.1499    1.2501    0.0000 C   0  0  0  0  0  0           0  0  0
   -0.6692    1.2516    0.0000 N   0  0  0  0  0  0           0  0  0
   -2.4951    0.9290    0.0000 C   0  0  0  0  0  0           0  0  0
   -2.3209    1.7327    0.0000 C   0  0  0  0  0  0           0  0  0
   -2.9299    2.2855    0.0000 C   0  0  0  0  0  0           0  0  0
   -2.7558    3.0893    0.0000 C   0  0  0  0  0  0           0  0  0
  3  4  1  0     0  0
 15 16  1  0     0  0
 16 18  1  0     0  0
 18 17  2  0     0  0
 17 14  1  0     0  0
  8  9  2  0     0  0
  4  5  2  0     0  0
  1 19  1  0     0  0
 19 20  1  0     0  0
  9 10  1  0     0  0
  2  3  2  0     0  0
 20 24  1  0     0  0
 23 21  1  0     0  0
 21 19  1  0     0  0
 10 11  2  0     0  0
 20 22  2  0     0  0
  5  6  1  0     0  0
 11 12  1  0     0  0
 23 24  2  0     0  0
  1  2  1  0     0  0
 24 25  1  0     0  0
 12 13  2  0     0  0
 25 26  2  0     0  0
 13  8  1  0     0  0
 26 27  1  0     0  0
  5  8  1  0     0  0
 27 28  2  0     0  0
 28 23  1  0     0  0
  6  7  2  0     0  0
 21 29  1  0     0  0
 13 14  1  0     0  0
 29 30  1  0     0  0
 14 15  2  0     0  0
 30 31  1  0     0  0
  7  2  1  0     0  0
 31 32  1  0     0  0
M  END