
  SciTegic01161211232D

 40 41  0  0  0  0            999 V2000
   -0.1061   26.1235    0.0000 C   0  0
   -1.1421   25.5180    0.0000 C   0  0
   -1.1350   24.0172    0.0000 C   0  0
   -2.4307   23.2598    0.0000 C   0  0
   -2.4237   21.7590    0.0000 C   0  0
   -3.7194   21.0017    0.0000 C   0  0
   -3.7123   19.5009    0.0000 C   0  0
   -5.0081   18.7435    0.0000 C   0  0
   -5.0010   17.2427    0.0000 C   0  0
   -6.2967   16.4854    0.0000 C   0  0
   -6.2897   14.9846    0.0000 C   0  0
   -7.5854   14.2272    0.0000 C   0  0
   -7.5783   12.7264    0.0000 N   0  0
   -8.8741   11.9691    0.0000 C   0  0
   -9.9163   12.5639    0.0000 O   0  0
   -8.8670   10.4683    0.0000 C   0  0
   -7.5629    9.7271    0.0000 C   0  0
   -7.5527    8.2271    0.0000 C   0  0
   -8.8467    7.4683    0.0000 C   0  0
  -10.1508    8.2095    0.0000 C   0  0
  -10.1609    9.7095    0.0000 C   0  0
  -11.2042   10.3024    0.0000 O   0  0
   -6.2494    7.4828    0.0000 C   0  0
   -5.2132    8.0880    0.0000 O   0  0
   -6.2413    5.9820    0.0000 C   0  0
   -4.9380    5.2378    0.0000 N   0  0
   -4.9300    3.7369    0.0000 C   0  0
   -5.9662    3.1317    0.0000 C   0  0
   -3.6267    2.9927    0.0000 C   0  0
   -3.6187    1.4919    0.0000 C   0  0
   -2.3155    0.7475    0.0000 C   0  0
   -2.3155   -0.7475    0.0000 C   0  0
   -1.0028   -1.5132    0.0000 C   0  0
    0.2917   -0.7475    0.0000 C   0  0
    1.7138   -1.2033    0.0000 O   0  0
    2.5889    0.0182    0.0000 C   0  0
    1.7138    1.2033    0.0000 O   0  0
    0.2917    0.7475    0.0000 C   0  0
   -1.0028    1.5132    0.0000 C   0  0
    5.0889   12.3810    0.0000 Cl  0  0
  1  2  1  0
  2  3  1  0
  3  4  1  0
  4  5  1  0
  5  6  1  0
  6  7  1  0
  7  8  1  0
  8  9  1  0
  9 10  1  0
 10 11  1  0
 11 12  1  0
 12 13  1  0
 13 14  1  0
 14 15  2  0
 14 16  1  0
 16 17  2  0
 17 18  1  0
 18 19  2  0
 19 20  1  0
 20 21  2  0
 21 16  1  0
 21 22  1  0
 18 23  1  0
 23 24  1  0
 23 25  1  0
 25 26  1  0
 26 27  1  0
 27 28  1  0
 27 29  1  0
 29 30  1  0
 30 31  1  0
 31 32  2  0
 32 33  1  0
 33 34  2  0
 34 35  1  0
 35 36  1  0
 36 37  1  0
 37 38  1  0
 38 34  1  0
 38 39  2  0
 39 31  1  0
M  END