
  CDK    9/16/09,9:59

 19 20  0  0  0  0  0  0  0  0999 V2000
    0.8563  -24.5868    0.0000 C   0  0  0  0  0  0  0  0  0  0  0  0
    1.6819  -24.5884    0.0000 C   0  0  0  0  0  0  0  0  0  0  0  0
    0.4629  -22.4447    0.0000 C   0  0  0  0  0  0  0  0  0  0  0  0
    0.8704  -23.1620    0.0000 N   0  0  0  0  0  0  0  0  0  0  0  0
    0.4513  -23.8688    0.0000 C   0  0  0  0  0  0  0  0  0  0  0  0
    0.4381  -25.2957    0.0000 O   0  0  0  0  0  0  0  0  0  0  0  0
    2.0965  -23.8796    0.0000 O   0  0  0  0  0  0  0  0  0  0  0  0
   -0.3741  -23.8680    0.0000 C   0  0  0  0  0  0  0  0  0  0  0  0
   -0.7773  -23.1485    0.0000 O   0  0  0  0  0  0  0  0  0  0  0  0
    0.8841  -21.7289    0.0000 C   0  0  0  0  0  0  0  0  0  0  0  0
    0.8854  -20.3957    0.0000 N   0  0  0  0  0  0  0  0  0  0  0  0
    0.4038  -21.0674    0.0000 C   0  0  0  0  0  0  0  0  0  0  0  0
    1.6705  -20.6515    0.0000 C   0  0  0  0  0  0  0  0  0  0  0  0
    1.6685  -21.4753    0.0000 C   0  0  0  0  0  0  0  0  0  0  0  0
    2.3839  -21.8914    0.0000 N   0  0  0  0  0  0  0  0  0  0  0  0
    3.1018  -21.4764    0.0000 C   0  0  0  0  0  0  0  0  0  0  0  0
    3.0999  -20.6495    0.0000 N   0  0  0  0  0  0  0  0  0  0  0  0
    2.3839  -20.2372    0.0000 C   0  0  0  0  0  0  0  0  0  0  0  0
    2.3824  -19.4114    0.0000 O   0  0  0  0  0  0  0  0  0  0  0  0
  3 10  1  0  0  0  0 
 10 14  1  0  0  0  0 
  1  2  1  0  0  0  0 
  1  6  1  1  0  0  0 
 13 11  1  0  0  0  0 
 11 12  1  0  0  0  0 
 12 10  2  0  0  0  0 
  2  7  1  0  0  0  0 
 13 14  2  0  0  0  0 
  3  4  1  0  0  0  0 
 14 15  1  0  0  0  0 
  5  8  1  6  0  0  0 
 15 16  2  0  0  0  0 
  4  5  1  0  0  0  0 
 16 17  1  0  0  0  0 
  8  9  1  0  0  0  0 
 17 18  1  0  0  0  0 
 18 13  1  0  0  0  0 
  5  1  1  0  0  0  0 
 18 19  2  0  0  0  0 
M  END