
          11280715242D 1   1.00000     0.00000     0

 42 46  0     0  0            999 V2000
    4.1042   -6.5417    0.0000 N   0  0  0  0  0  0           0  0  0
    4.7500   -6.0250    0.0000 C   0  0  0  0  0  0           0  0  0
    4.4542   -5.2542    0.0000 N   0  0  3  0  0  0           0  0  0
    3.6292   -5.2917    0.0000 N   0  0  0  0  0  0           0  0  0
    3.4167   -6.0917    0.0000 C   0  0  0  0  0  0           0  0  0
    8.6167   -3.8500    0.0000 C   0  0  0  0  0  0           0  0  0
    9.0167   -8.4917    0.0000 C   0  0  0  0  0  0           0  0  0
    9.0167   -7.6667    0.0000 C   0  0  0  0  0  0           0  0  0
    8.2042   -4.5625    0.0000 C   0  0  0  0  0  0           0  0  0
    8.3042   -8.9042    0.0000 C   0  0  0  0  0  0           0  0  0
    8.2042   -3.1292    0.0000 C   0  0  0  0  0  0           0  0  0
    5.4625   -6.4375    0.0000 S   0  0  0  0  0  0           0  0  0
    4.9042   -4.5625    0.0000 C   0  0  0  0  0  0           0  0  0
    7.3792   -4.5625    0.0000 C   0  0  0  0  0  0           0  0  0
    8.3042   -7.2542    0.0000 C   0  0  0  0  0  0           0  0  0
    7.5917   -8.4917    0.0000 O   0  0  0  0  0  0           0  0  0
    7.3792   -3.1292    0.0000 O   0  0  0  0  0  0           0  0  0
    6.9750   -5.2750    0.0000 C   0  0  0  0  0  0           0  0  0
    8.3042   -6.4292    0.0000 C   0  0  0  0  0  0           0  0  0
    6.9667   -3.8417    0.0000 C   0  0  0  0  0  0           0  0  0
    7.5917   -7.6667    0.0000 C   0  0  0  0  0  0           0  0  0
    5.7292   -4.5625    0.0000 C   0  0  0  0  0  0           0  0  0
    6.1750   -6.0167    0.0000 C   0  0  0  0  0  0           0  0  0
    8.6167   -2.4167    0.0000 O   0  0  0  0  0  0           0  0  0
    8.3042   -9.7292    0.0000 O   0  0  0  0  0  0           0  0  0
    6.8875   -6.4292    0.0000 C   0  0  0  0  0  0           0  0  0
    6.1542   -5.2792    0.0000 C   0  0  0  0  0  0           0  0  0
    6.1500   -3.8417    0.0000 C   0  0  0  0  0  0           0  0  0
    6.8792   -7.2542    0.0000 C   0  0  0  0  0  0           0  0  0
    7.5917   -6.0167    0.0000 C   0  0  0  0  0  0           0  0  0
    2.6417   -6.3792    0.0000 C   0  0  0  0  0  0           0  0  0
    9.7292   -8.9042    0.0000 C   0  0  0  0  0  0           0  0  0
    9.4375   -3.8500    0.0000 C   0  0  0  0  0  0           0  0  0
    9.7292   -7.2542    0.0000 C   0  0  0  0  0  0           0  0  0
    8.6167   -5.2750    0.0000 C   0  0  0  0  0  0           0  0  0
    2.5042   -7.1917    0.0000 C   0  0  0  0  0  0           0  0  0
    1.7125   -7.4042    0.0000 C   0  0  0  0  0  0           0  0  0
   10.4500   -8.4917    0.0000 C   0  0  0  0  0  0           0  0  0
   10.4417   -7.6667    0.0000 C   0  0  0  0  0  0           0  0  0
    9.8500   -4.5542    0.0000 C   0  0  0  0  0  0           0  0  0
    9.4417   -5.2667    0.0000 C   0  0  0  0  0  0           0  0  0
    1.4917   -8.2042    0.0000 C   0  0  0  0  0  0           0  0  0
  2  1  2  0     0  0
  3  2  1  0     0  0
  4  5  2  0     0  0
  5  1  1  0     0  0
  6  9  1  0     0  0
  7  8  2  0     0  0
  8 15  1  0     0  0
  9 14  1  0     0  0
 10  7  1  0     0  0
 11  6  1  0     0  0
 12  2  1  0     0  0
 13  3  1  0     0  0
 14 20  2  0     0  0
 15 19  1  0     0  0
 16 10  2  0     0  0
 17 11  2  0     0  0
 18 27  2  0     0  0
 19 30  2  0     0  0
 20 28  1  0     0  0
 21 29  1  0     0  0
 22 13  1  0     0  0
 23 12  1  0     0  0
 24 11  1  0     0  0
 25 10  1  0     0  0
 26 23  1  0     0  0
 27 22  1  0     0  0
 28 22  2  0     0  0
 29 26  2  0     0  0
 30 26  1  0     0  0
 31  5  1  0     0  0
 32  7  1  0     0  0
 33  6  2  0     0  0
 34  8  1  0     0  0
 35  9  2  0     0  0
 36 31  1  0     0  0
 37 36  1  0     0  0
 38 39  1  0     0  0
 39 34  2  0     0  0
 40 41  2  0     0  0
 41 35  1  0     0  0
 42 37  1  0     0  0
  4  3  1  0     0  0
 15 21  2  0     0  0
 14 18  1  0     0  0
 38 32  2  0     0  0
 33 40  1  0     0  0
M  END