
          11280715232D 1   1.00000     0.00000     0

 54 57  0     1  0            999 V2000
    6.6542   -4.6375    0.0000 N   0  0  0  0  0  0           0  0  0
    8.3667   -2.9667    0.0000 N   0  0  0  0  0  0           0  0  0
    4.3167   -4.1125    0.0000 N   0  0  0  0  0  0           0  0  0
    7.9917   -3.7042    0.0000 C   0  0  0  0  0  0           0  0  0
    8.7042   -4.8917    0.0000 C   0  0  0  0  0  0           0  0  0
    5.8417   -4.7250    0.0000 C   0  0  0  0  0  0           0  0  0
    3.8042   -3.4750    0.0000 C   0  0  0  0  0  0           0  0  0
    7.4042   -4.2792    0.0000 C   0  0  2  0  0  0           0  0  0
    8.4792   -2.1500    0.0000 C   0  0  1  0  0  0           0  0  0
    9.9917   -5.2000    0.0000 N   0  0  0  0  0  0           0  0  0
    8.3292   -1.3375    0.0000 C   0  0  0  0  0  0           0  0  0
    9.2417   -5.5167    0.0000 C   0  0  0  0  0  0           0  0  0
    5.0292   -4.5417    0.0000 C   0  0  1  0  0  0           0  0  0
    4.9042    0.0583    0.0000 N   0  0  0  0  0  0           0  0  0
    3.4792   -1.8750    0.0000 N   0  0  0  0  0  0           0  0  0
    5.6917    0.2833    0.0000 C   0  0  0  0  0  0           0  0  0
    7.8792   -4.9625    0.0000 C   0  0  0  0  0  0           0  0  0
    9.1292   -4.1875    0.0000 C   0  0  0  0  0  0           0  0  0
    7.9167   -0.6167    0.0000 N   0  0  0  0  0  0           0  0  0
    3.5042   -2.7000    0.0000 C   0  0  1  0  0  0           0  0  0
    9.9292   -4.3750    0.0000 C   0  0  0  0  0  0           0  0  0
    4.9167   -6.7292    0.0000 C   0  0  0  0  0  0           0  0  0
    8.6667   -4.1917    0.0000 O   0  0  0  0  0  0           0  0  0
    5.7917   -5.5500    0.0000 O   0  0  0  0  0  0           0  0  0
    3.0792   -3.8875    0.0000 O   0  0  0  0  0  0           0  0  0
    9.3042   -2.1250    0.0000 C   0  0  0  0  0  0           0  0  0
    6.5167    0.2333    0.0000 C   0  0  0  0  0  0           0  0  0
    4.2292   -0.4167    0.0000 C   0  0  1  0  0  0           0  0  0
    8.9167   -1.1042    0.0000 O   0  0  0  0  0  0           0  0  0
    5.6042    1.1083    0.0000 O   0  0  0  0  0  0           0  0  0
    4.0917   -6.8417    0.0000 O   0  0  0  0  0  0           0  0  0
    4.7167   -5.3125    0.0000 C   0  0  0  0  0  0           0  0  0
    3.7292   -1.0792    0.0000 C   0  0  0  0  0  0           0  0  0
    7.2917   -0.0792    0.0000 C   0  0  0  0  0  0           0  0  0
    5.2292   -5.9667    0.0000 C   0  0  0  0  0  0           0  0  0
    5.4167   -7.3792    0.0000 N   0  0  0  0  0  0           0  0  0
    3.6417    0.1750    0.0000 C   0  0  0  0  0  0           0  0  0
    2.6917   -2.8542    0.0000 C   0  0  0  0  0  0           0  0  0
    9.7042   -1.4000    0.0000 C   0  0  0  0  0  0           0  0  0
    1.6167   -3.7167    0.0000 S   0  0  0  0  0  0           0  0  0
    8.8917   -3.3917    0.0000 C   0  0  0  0  0  0           0  0  0
    2.4292   -3.6375    0.0000 C   0  0  0  0  0  0           0  0  0
   10.5042   -3.7750    0.0000 C   0  0  0  0  0  0           0  0  0
    2.8417   -0.0292    0.0000 C   0  0  3  0  0  0           0  0  0
    1.2667   -4.4667    0.0000 C   0  0  0  0  0  0           0  0  0
   10.5292   -1.3750    0.0000 C   0  0  0  0  0  0           0  0  0
    9.2667   -0.6917    0.0000 C   0  0  0  0  0  0           0  0  0
    2.6167   -0.8167    0.0000 C   0  0  0  0  0  0           0  0  0
    2.2667    0.5708    0.0000 C   0  0  0  0  0  0           0  0  0
    9.4542   -2.7917    0.0000 C   0  0  0  0  0  0           0  0  0
   10.2667   -2.9792    0.0000 C   0  0  0  0  0  0           0  0  0
   10.9292   -0.6417    0.0000 C   0  0  0  0  0  0           0  0  0
    9.6667    0.0375    0.0000 C   0  0  0  0  0  0           0  0  0
   10.4917    0.0583    0.0000 C   0  0  0  0  0  0           0  0  0
  2  4  1  0     0  0
  3 13  1  0     0  0
  4  8  1  0     0  0
  5 17  1  0     0  0
  6  1  1  0     0  0
  7  3  1  0     0  0
  8  1  1  0     0  0
  9  2  1  0     0  0
 10 12  1  0     0  0
 11  9  1  0     0  0
 12  5  2  0     0  0
 13  6  1  0     0  0
 14 28  1  0     0  0
 15 20  1  0     0  0
 16 27  1  0     0  0
  8 17  1  6     0  0
 18  5  1  0     0  0
 19 11  1  0     0  0
 20  7  1  0     0  0
 21 18  2  0     0  0
 22 35  1  0     0  0
 23  4  2  0     0  0
 24  6  2  0     0  0
 25  7  2  0     0  0
  9 26  1  1     0  0
 27 34  1  0     0  0
 28 33  1  0     0  0
 29 11  2  0     0  0
 30 16  2  0     0  0
 31 22  2  0     0  0
 13 32  1  1     0  0
 33 15  1  0     0  0
 34 19  1  0     0  0
 35 32  1  0     0  0
 36 22  1  0     0  0
 28 37  1  1     0  0
 20 38  1  6     0  0
 39 26  1  0     0  0
 40 42  1  0     0  0
 41 18  1  0     0  0
 42 38  1  0     0  0
 43 21  1  0     0  0
 44 37  1  0     0  0
 45 40  1  0     0  0
 46 39  1  0     0  0
 47 39  2  0     0  0
 48 44  1  0     0  0
 49 44  1  0     0  0
 50 41  2  0     0  0
 51 50  1  0     0  0
 52 46  2  0     0  0
 53 47  1  0     0  0
 54 53  2  0     0  0
 10 21  1  0     0  0
 51 43  2  0     0  0
 54 52  1  0     0  0
 16 14  1  0     0  0
M  END