
          11280715362D 1   1.00000     0.00000     0

 25 27  0     0  0            999 V2000
    4.5042   -6.7792    0.0000 C   0  0  0  0  0  0           0  0  0
    3.9875   -6.4792    0.0000 C   0  0  3  0  0  0           0  0  0
    4.5042   -7.3792    0.0000 C   0  0  0  0  0  0           0  0  0
    3.9875   -7.6792    0.0000 O   0  0  0  0  0  0           0  0  0
    3.4625   -7.3875    0.0000 C   0  0  3  0  0  0           0  0  0
    3.4625   -6.7792    0.0000 C   0  0  3  0  0  0           0  0  0
    5.0167   -6.4792    0.0000 C   0  0  0  0  0  0           0  0  0
    2.9375   -6.4792    0.0000 C   0  0  0  0  0  0           0  0  0
    3.9875   -5.8750    0.0000 C   0  0  0  0  0  0           0  0  0
    2.9375   -5.8750    0.0000 C   0  0  0  0  0  0           0  0  0
    3.4667   -5.5750    0.0000 C   0  0  0  0  0  0           0  0  0
    5.0167   -7.6792    0.0000 C   0  0  0  0  0  0           0  0  0
    5.5417   -6.7792    0.0000 C   0  0  0  0  0  0           0  0  0
    5.5417   -7.3792    0.0000 C   0  0  0  0  0  0           0  0  0
    6.5875   -7.3625    0.0000 C   0  0  0  0  0  0           0  0  0
    7.1125   -7.6542    0.0000 C   0  0  0  0  0  0           0  0  0
    5.0125   -5.8792    0.0000 O   0  0  0  0  0  0           0  0  0
    3.2625   -7.9542    0.0000 C   0  0  0  0  0  0           0  0  0
    2.8917   -7.1875    0.0000 C   0  0  0  0  0  0           0  0  0
    9.1875   -7.6167    0.0000 Br  0  0  0  0  0  0           0  0  0
    6.0750   -7.6667    0.0000 C   0  0  0  0  0  0           0  0  0
    3.4875   -4.9750    0.0000 C   0  0  0  0  0  0           0  0  0
    7.6250   -7.3417    0.0000 C   0  0  0  0  0  0           0  0  0
    8.6625   -7.3292    0.0000 C   0  0  0  0  0  0           0  0  0
    8.1500   -7.6375    0.0000 C   0  0  0  0  0  0           0  0  0
  2  1  1  0     0  0
  3  1  1  0     0  0
  4  3  1  0     0  0
  5  4  1  0     0  0
  6  2  1  0     0  0
  7  1  2  0     0  0
  8  6  1  0     0  0
  9  2  1  0     0  0
 10 11  2  0     0  0
 11  9  1  0     0  0
 12  3  2  0     0  0
 13  7  1  0     0  0
 14 13  2  0     0  0
 15 21  1  0     0  0
 16 15  2  0     0  0
 17  7  1  0     0  0
 18  5  1  0     0  0
 19  5  1  0     0  0
 20 24  1  0     0  0
 21 14  1  0     0  0
 22 11  1  0     0  0
 23 16  1  0     0  0
 24 25  1  0     0  0
 25 23  1  0     0  0
  5  6  1  0     0  0
 14 12  1  0     0  0
 10  8  1  0     0  0
M  END