
  Mrv0541 05211314572D          

 27 28  0  0  0  0            999 V2000
    0.6648   -0.6232    0.0000 C   0  0  0  0  0  0  0  0  0  0  0  0
   -0.1602   -0.6224    0.0000 N   0  0  0  0  0  0  0  0  0  0  0  0
   -3.4364    2.0500    0.0000 N   0  0  0  0  0  0  0  0  0  0  0  0
   -0.5720    0.0925    0.0000 C   0  0  0  0  0  0  0  0  0  0  0  0
    1.0766   -1.3381    0.0000 C   0  0  0  0  0  0  0  0  0  0  0  0
   -2.8758    1.6101    0.0000 C   0  0  0  0  0  0  0  0  0  0  0  0
   -3.2967    1.2369    0.0000 C   0  0  0  0  0  0  0  0  0  0  0  0
   -1.8088    0.8082    0.0000 C   0  0  0  0  0  0  0  0  0  0  0  0
   -1.9470    1.6256    0.0000 C   0  0  0  0  0  0  0  0  0  0  0  0
   -2.3250    1.2369    0.0000 C   0  0  0  0  0  0  0  0  0  0  0  0
   -1.3970    0.0933    0.0000 N   0  0  0  0  0  0  0  0  0  0  0  0
    1.0780    0.0909    0.0000 O   0  0  0  0  0  0  0  0  0  0  0  0
    1.9016   -1.3389    0.0000 C   0  0  0  0  0  0  0  0  0  0  0  0
   -0.1588    0.8066    0.0000 O   0  0  0  0  0  0  0  0  0  0  0  0
   -3.1963    0.9015    0.0000 C   0  0  0  0  0  0  0  0  0  0  0  0
   -3.8166    0.5246    0.0000 C   0  0  0  0  0  0  0  0  0  0  0  0
   -3.8590    2.7585    0.0000 C   0  0  0  0  0  0  0  0  0  0  0  0
    7.0305    0.0000    0.0000 Cl  0  0  0  0  0  0  0  0  0  0  0  0
    0.6634   -2.0521    0.0000 C   0  0  0  0  0  0  0  0  0  0  0  0
    2.3148   -0.6248    0.0000 O   0  0  0  0  0  0  0  0  0  0  0  0
    2.3134   -2.0537    0.0000 C   0  0  0  0  0  0  0  0  0  0  0  0
    3.1398   -0.6256    0.0000 C   0  0  0  0  0  0  0  0  0  0  0  0
    3.5530    0.0885    0.0000 C   0  0  0  0  0  0  0  0  0  0  0  0
    4.3780    0.0876    0.0000 C   0  0  0  0  0  0  0  0  0  0  0  0
    1.0752   -2.7670    0.0000 C   0  0  0  0  0  0  0  0  0  0  0  0
    4.7912    0.8017    0.0000 C   0  0  0  0  0  0  0  0  0  0  0  0
    1.9002   -2.7678    0.0000 C   0  0  0  0  0  0  0  0  0  0  0  0
  1  2  1  0  0  0  0
  2  4  1  0  0  0  0
  1  5  1  0  0  0  0
  3  6  1  0  0  0  0
  3  7  1  0  0  0  0
  6  9  1  0  0  0  0
  8  9  1  0  0  0  0
  7 10  1  0  0  0  0
  8 10  1  0  0  0  0
  4 11  1  0  0  0  0
  8 11  1  0  0  0  0
  1 12  2  0  0  0  0
  5 13  2  0  0  0  0
  4 14  2  0  0  0  0
  6 15  1  0  0  0  0
  7 16  1  0  0  0  0
 15 16  1  0  0  0  0
  3 17  1  0  0  0  0
  5 19  1  0  0  0  0
 13 20  1  0  0  0  0
 13 21  1  0  0  0  0
 20 22  1  0  0  0  0
 22 23  1  0  0  0  0
 23 24  1  0  0  0  0
 19 25  2  0  0  0  0
 24 26  1  0  0  0  0
 21 27  2  0  0  0  0
 25 27  1  0  0  0  0
M  END