
          11280715492D 1   1.00000     0.00000     0

 31 34  0     0  0            999 V2000
    0.1490  -24.5489    0.0000 N   0  0  0  0  0  0           0  0  0
    0.6325  -25.2086    0.0000 C   0  0  0  0  0  0           0  0  0
    0.1480  -25.8800    0.0000 C   0  0  0  0  0  0           0  0  0
   -0.6353  -25.6249    0.0000 C   0  0  0  0  0  0           0  0  0
   -1.3462  -26.0371    0.0000 N   0  0  3  0  0  0           0  0  0
   -2.0642  -25.6269    0.0000 C   0  0  0  0  0  0           0  0  0
   -2.0629  -24.8004    0.0000 N   0  0  3  0  0  0           0  0  0
   -1.3478  -24.3882    0.0000 C   0  0  0  0  0  0           0  0  0
   -0.6340  -24.8026    0.0000 C   0  0  0  0  0  0           0  0  0
   -1.3455  -23.5637    0.0000 O   0  0  0  0  0  0           0  0  0
   -2.7837  -26.0368    0.0000 O   0  0  0  0  0  0           0  0  0
   -2.7848  -24.3790    0.0000 C   0  0  0  0  0  0           0  0  0
   -1.3462  -26.8615    0.0000 C   0  0  0  0  0  0           0  0  0
    1.4597  -25.1658    0.0000 C   0  0  0  0  0  0           0  0  0
    1.9061  -25.8664    0.0000 C   0  0  0  0  0  0           0  0  0
    2.7297  -25.8324    0.0000 C   0  0  0  0  0  0           0  0  0
    3.1081  -25.1028    0.0000 C   0  0  0  0  0  0           0  0  0
    2.6692  -24.4057    0.0000 C   0  0  0  0  0  0           0  0  0
    1.8428  -24.4390    0.0000 C   0  0  0  0  0  0           0  0  0
    3.9325  -25.0717    0.0000 O   0  0  0  0  0  0           0  0  0
    4.3215  -24.3421    0.0000 C   0  0  0  0  0  0           0  0  0
    5.1459  -24.3108    0.0000 C   0  0  0  0  0  0           0  0  0
    5.5307  -23.5812    0.0000 N   0  0  0  0  0  0           0  0  0
    5.5813  -25.0050    0.0000 O   0  0  0  0  0  0           0  0  0
    6.3542  -23.5496    0.0000 C   0  0  0  0  0  0           0  0  0
    6.7968  -24.2459    0.0000 C   0  0  0  0  0  0           0  0  0
    7.6246  -24.2150    0.0000 C   0  0  0  0  0  0           0  0  0
    8.0061  -23.4807    0.0000 C   0  0  0  0  0  0           0  0  0
    7.5664  -22.7842    0.0000 C   0  0  0  0  0  0           0  0  0
    6.7440  -22.8186    0.0000 C   0  0  0  0  0  0           0  0  0
    8.8298  -23.4461    0.0000 Br  0  0  0  0  0  0           0  0  0
  4  5  1  0     0  0
 15 16  2  0     0  0
  5  6  1  0     0  0
 16 17  1  0     0  0
  6  7  1  0     0  0
 17 18  2  0     0  0
  7  8  1  0     0  0
 18 19  1  0     0  0
 19 14  2  0     0  0
  2 14  1  0     0  0
  8  9  1  0     0  0
 17 20  1  0     0  0
  1  2  1  0     0  0
 20 21  1  0     0  0
  8 10  2  0     0  0
 21 22  1  0     0  0
  2  3  2  0     0  0
 22 23  1  0     0  0
  6 11  2  0     0  0
 22 24  2  0     0  0
  3  4  1  0     0  0
 23 25  1  0     0  0
  7 12  1  0     0  0
 25 26  2  0     0  0
  9  1  1  0     0  0
 26 27  1  0     0  0
  5 13  1  0     0  0
 27 28  2  0     0  0
 28 29  1  0     0  0
  4  9  2  0     0  0
 29 30  2  0     0  0
 30 25  1  0     0  0
 14 15  1  0     0  0
 28 31  1  0     0  0
M  END