
  SciTegic11201309402D

113121  0  0  0  0            999 V2000
   -3.6867  -12.8805    0.0000 C   0  0
   -4.4736  -14.3361    0.0000 O   0  0
    9.9069  -14.3046    0.0000 C   0  0
   10.7319  -14.3080    0.0000 N   0  0
    9.4915  -15.0174    0.0000 O   0  0
   11.1415  -15.0242    0.0000 C   0  0  2  0  0  0
   11.9664  -15.0275    0.0000 C   0  0
   10.7260  -15.7369    0.0000 C   0  0  1  0  0  0
    9.9011  -15.7336    0.0000 C   0  0
   11.1356  -16.4531    0.0000 O   0  0
   12.3760  -15.7437    0.0000 N   0  0
   12.3819  -14.3147    0.0000 O   0  0
    8.6774  -13.5842    0.0000 N   0  0
    9.4977  -13.5887    0.0000 C   0  0  1  0  0  0
    9.7553  -12.8097    0.0000 C   0  0
    9.0940  -12.3240    0.0000 C   0  0
    8.4278  -12.8029    0.0000 C   0  0
   13.2010  -15.7470    0.0000 C   0  0  2  0  0  0
   13.6106  -16.4632    0.0000 C   0  0
   13.6164  -15.0342    0.0000 C   0  0
   13.1952  -17.1759    0.0000 O   0  0
   14.4331  -16.4664    0.0000 N   0  0
   14.4258  -17.2902    0.0000 C   0  0
   15.2067  -17.5564    0.0000 C   0  0
   15.7012  -16.8960    0.0000 C   0  0
   15.2262  -16.2201    0.0000 C   0  0  1  0  0  0
   15.6154  -15.4927    0.0000 C   0  0
   16.4392  -15.4661    0.0000 N   0  0
   15.1800  -14.7919    0.0000 O   0  0
   16.7187  -16.2416    0.0000 C   0  0
   17.5433  -16.2176    0.0000 C   0  0
   17.7754  -15.4259    0.0000 C   0  0
   17.0944  -14.9594    0.0000 C   0  0  1  0  0  0
   16.8043  -14.1871    0.0000 C   0  0
   17.3267  -13.5412    0.0000 N   0  0
   15.9904  -14.0522    0.0000 O   0  0
   10.1415  -15.0200    0.0000 H   0  0
    8.2677  -14.3003    0.0000 C   0  0
    7.4427  -14.3035    0.0000 C   0  0  1  0  0  0
    8.6829  -15.0132    0.0000 O   0  0
    7.0274  -13.5907    0.0000 N   0  0
    7.0330  -15.0196    0.0000 C   0  0
   16.9240  -12.8214    0.0000 C   0  0  2  0  0  0
   16.0991  -12.8098    0.0000 C   0  0
   17.3455  -12.1129    0.0000 C   0  0
   18.1704  -12.0988    0.0000 C   0  0
   18.5950  -12.8062    0.0000 C   0  0
   18.1963  -13.5286    0.0000 O   0  0
   19.4214  -12.7932    0.0000 O   0  0
   15.6963  -12.0897    0.0000 N   0  0
   15.6766  -13.5184    0.0000 O   0  0
   16.0083  -11.3275    0.0000 C   0  0
    7.4482  -15.7325    0.0000 C   0  0
    6.2024  -13.5939    0.0000 C   0  0
    5.7871  -12.8810    0.0000 C   0  0
    5.7927  -14.3100    0.0000 O   0  0
    4.2408  -12.4817    0.0000 C   0  0
    3.5333  -12.9061    0.0000 C   0  0
    4.2270  -11.6568    0.0000 O   0  0
    2.8120  -12.5056    0.0000 C   0  0
    2.1046  -12.9300    0.0000 C   0  0
    1.3833  -12.5295    0.0000 C   0  0
    0.6758  -12.9539    0.0000 N   0  0
   -0.0455  -12.5535    0.0000 C   0  0
   -0.7529  -12.9779    0.0000 N   0  0
   -0.0593  -11.7286    0.0000 S   0  0
   -1.4742  -12.5774    0.0000 C   0  0
   -1.4828  -11.7549    0.0000 C   0  0
   -2.2032  -11.3545    0.0000 C   0  0
   -2.1742  -13.0047    0.0000 C   0  0
   -2.8951  -12.6081    0.0000 C   0  0
   -2.9109  -11.7743    0.0000 C   0  0
   -3.7088  -11.5317    0.0000 C   0  0
   -4.1861  -12.2155    0.0000 O   0  0
   -3.9785  -10.7520    0.0000 O   0  0
   -3.2495  -13.5819    0.0000 C   0  0
   -3.6475  -14.3098    0.0000 C   0  0
   -3.2163  -15.0163    0.0000 C   0  0
   -2.3872  -14.9962    0.0000 C   0  0
   -1.9912  -14.2636    0.0000 C   0  0
   -2.4247  -13.5601    0.0000 C   0  0
   -4.9064  -13.6300    0.0000 C   0  0
   -4.5138  -12.9074    0.0000 C   0  0
   -4.9431  -12.2081    0.0000 C   0  0
   -5.7650  -12.2303    0.0000 C   0  0
   -6.1611  -12.9576    0.0000 C   0  0
   -5.7240  -13.6538    0.0000 C   0  0
   -1.9562  -15.6996    0.0000 O   0  0
   -6.9865  -12.9832    0.0000 O   0  0
    7.0385  -16.4485    0.0000 C   0  0
    6.2118  -16.4529    0.0000 O   0  0
    7.4520  -17.1625    0.0000 O   0  0
    6.1916  -12.1583    0.0000 C   0  0
    6.5968  -11.4396    0.0000 C   0  0
    7.4217  -11.4312    0.0000 C   0  0
    5.3667  -12.1667    0.0000 C   0  0
    4.9615  -12.8854    0.0000 N   0  0
    7.8269  -10.7125    0.0000 C   0  0
    8.7060  -10.7082    0.0000 C   0  0
    9.1419   -9.9448    0.0000 C   0  0
   10.4616   -9.9546    0.0000 C   0  0
   10.8588  -10.6524    0.0000 C   0  0
   11.6838  -10.6574    0.0000 C   0  0
   12.0919  -11.3744    0.0000 C   0  0
   12.9169  -11.3794    0.0000 C   0  0
   13.3337  -10.6675    0.0000 C   0  0
   14.1587  -10.6726    0.0000 C   0  0
   16.7167  -10.9083    0.0000 C   0  0
   17.4355  -11.3132    0.0000 O   0  0
   16.7079  -10.0834    0.0000 N   0  0
   17.8815  -14.3425    0.0000 H   0  0
   16.2244  -16.1595    0.0000 H   0  0
   10.4927  -13.4889    0.0000 H   0  0
 13 14  1  0
 54 56  2  0
 55 97  1  0
 27 28  1  0
 97 57  1  0
  3  5  2  0
 57 58  1  0
 27 29  2  0
 57 59  2  0
 28 30  1  0
 58 60  1  0
 82  2  1  0
 60 61  1  0
  4  6  1  0
 61 62  1  0
  2 77  1  0
 62 63  1  0
  6  7  1  0
 63 64  1  0
 30 31  1  0
 64 65  1  0
 31 32  1  0
 64 66  2  0
 32 33  1  0
 65 67  1  0
 33 28  1  0
 67 68  2  0
 14 15  1  0
 68 69  1  0
 69 72  2  0
 33 34  1  0
 71 70  2  0
 70 67  1  0
 71 72  1  0
 15 16  1  0
 34 35  1  0
 16 17  1  0
 34 36  2  0
 72 73  1  0
 73 74  1  0
 74  1  1  0
  1 71  1  0
 17 13  1  0
 73 75  2  0
  6 37  1  1
 76 77  2  0
 13 38  1  0
 77 78  1  0
 11 18  1  0
 78 79  2  0
 38 39  1  0
 79 80  1  0
  6  8  1  0
 80 81  2  0
 81 76  1  0
 38 40  2  0
 18 19  1  0
 82 83  2  0
 39 41  1  0
 83 84  1  0
 14  3  1  0
 84 85  2  0
 39 42  1  6
 85 86  1  0
 18 20  1  1
 86 87  2  0
 87 82  1  0
 35 43  1  0
 79 88  1  0
  8  9  1  6
 86 89  1  0
 43 44  1  0
 53 90  1  0
 19 21  2  0
 43 45  1  6
 90 91  1  0
 90 92  2  0
  1 83  1  0
 45 46  1  0
 93 94  1  0
 19 22  1  0
 94 95  1  0
 46 47  1  0
 22 23  1  0
  8 10  1  0
 47 48  1  0
 47 49  2  0
  3  4  1  0
 44 50  1  0
 93 96  1  0
  7 11  1  0
 96 97  1  0
 44 51  2  0
 95 98  1  0
  1 76  1  0
 98 99  1  0
 50 52  1  0
 99100  1  0
 23 24  1  0
101100  2  0
101102  1  0
 24 25  1  0
102103  1  0
 25 26  1  0
103104  1  0
 26 22  1  0
104105  1  0
 42 53  1  0
105106  1  0
  7 12  2  0
106107  1  0
107 50  1  0
 41 54  1  0
 52108  1  0
 26 27  1  0
108109  2  0
 54 55  1  0
108110  1  0
 33111  1  1
 26112  1  1
 14113  1  6
M  END