
          11280714522D 1   1.00000     0.00000     0

 45 47  0     1  0            999 V2000
    1.2292   -2.9250    0.0000 C   0  0  2  0  0  0           0  0  0
    1.2292   -2.1542    0.0000 C   0  0  0  0  0  0           0  0  0
    0.5750   -1.7667    0.0000 C   0  0  0  0  0  0           0  0  0
    0.5792   -1.0042    0.0000 N   0  0  3  0  0  0           0  0  0
    1.9875   -2.9667    0.0000 O   0  0  0  0  0  0           0  0  0
    1.8917   -1.0042    0.0000 C   0  0  0  0  0  0           0  0  0
    1.2292   -0.6250    0.0000 C   0  0  2  0  0  0           0  0  0
    0.8167   -3.5667    0.0000 C   0  0  1  0  0  0           0  0  0
    2.3167   -3.6500    0.0000 C   0  0  1  0  0  0           0  0  0
    2.5417   -0.6250    0.0000 O   0  0  0  0  0  0           0  0  0
    1.8917    0.5333    0.0000 C   0  0  0  0  0  0           0  0  0
    1.9000    1.2958    0.0000 C   0  0  0  0  0  0           0  0  0
    1.1542   -4.2542    0.0000 C   0  0  0  0  0  0           0  0  0
    1.9125   -4.2917    0.0000 C   0  0  2  0  0  0           0  0  0
    1.9875   -2.1542    0.0000 O   0  0  0  0  0  0           0  0  0
    2.5417    0.1458    0.0000 C   0  0  2  0  0  0           0  0  0
   -0.0833   -2.1500    0.0000 O   0  0  0  0  0  0           0  0  0
   -0.0708    1.6833    0.0000 C   0  0  2  0  0  0           0  0  0
    1.8750   -1.5292    0.0000 O   0  0  0  0  0  0           0  0  0
    1.2417    1.6833    0.0000 C   0  0  1  0  0  0           0  0  0
    0.5875    1.3000    0.0000 C   0  0  0  0  0  0           0  0  0
    0.4750   -2.9250    0.0000 O   0  0  0  0  0  0           0  0  0
   -0.0708    2.4583    0.0000 C   0  0  1  0  0  0           0  0  0
    5.1667    0.1250    0.0000 C   0  0  0  0  0  0           0  0  0
    0.5875    2.8375    0.0000 C   0  0  0  0  0  0           0  0  0
    5.8292    0.5083    0.0000 C   0  0  0  0  0  0           0  0  0
   -0.0708   -0.6250    0.0000 C   0  0  0  0  0  0           0  0  0
    1.2417    2.4583    0.0000 C   0  0  0  0  0  0           0  0  0
    2.2542   -4.9792    0.0000 O   0  0  0  0  0  0           0  0  0
   -0.7208    1.2958    0.0000 O   0  0  0  0  0  0           0  0  0
   -0.7208    2.8333    0.0000 O   0  0  0  0  0  0           0  0  0
    2.7292   -3.0042    0.0000 C   0  0  0  0  0  0           0  0  0
    1.2292    0.1458    0.0000 C   0  0  0  0  0  0           0  0  0
    1.3667    0.2958    0.0000 C   0  0  0  0  0  0           0  0  0
    0.0542   -3.5292    0.0000 C   0  0  0  0  0  0           0  0  0
    3.4792   -2.8417    0.0000 O   0  0  0  0  0  0           0  0  0
    3.2042    0.5208    0.0000 C   0  0  0  0  0  0           0  0  0
    4.5167    0.5125    0.0000 C   0  0  0  0  0  0           0  0  0
    1.8375   -5.6292    0.0000 C   0  0  0  0  0  0           0  0  0
   -0.7208    0.5250    0.0000 C   0  0  0  0  0  0           0  0  0
    3.7167   -2.1125    0.0000 C   0  0  0  0  0  0           0  0  0
    3.8542    0.1333    0.0000 C   0  0  0  0  0  0           0  0  0
   -0.0708    0.1458    0.0000 C   0  0  0  0  0  0           0  0  0
    0.5792    0.5333    0.0000 C   0  0  0  0  0  0           0  0  0
    3.0792   -3.7000    0.0000 H   0  0  0  0  0  0           0  0  0
  2  1  1  0     0  0
  3  2  1  0     0  0
  4  3  1  0     0  0
  5  1  1  0     0  0
  7  6  1  1     0  0
  7  4  1  0     0  0
  8  1  1  0     0  0
  9  5  1  0     0  0
 10  6  1  0     0  0
 11 16  1  0     0  0
 12 11  2  0     0  0
 13  8  1  0     0  0
 14 13  1  0     0  0
 15  2  2  0     0  0
 16 10  1  6     0  0
 17  3  2  0     0  0
 18 21  1  0     0  0
 19  6  2  0     0  0
 20 12  1  1     0  0
 21 20  1  0     0  0
  1 22  1  1     0  0
 23 25  1  0     0  0
 24 38  1  0     0  0
 25 28  1  0     0  0
 26 24  2  0     0  0
 27  4  1  0     0  0
 28 20  1  0     0  0
 14 29  1  1     0  0
 18 30  1  1     0  0
 23 31  1  6     0  0
  9 32  1  6     0  0
 33  7  1  0     0  0
 34 11  1  0     0  0
  8 35  1  1     0  0
 36 32  1  0     0  0
 37 16  1  0     0  0
 38 42  1  0     0  0
 39 29  1  0     0  0
 40 30  1  0     0  0
 41 36  1  0     0  0
 42 37  1  0     0  0
 43 27  1  0     0  0
 44 43  1  0     0  0
  9 45  1  1     0  0
  9 14  1  0     0  0
 33 44  1  0     0  0
 23 18  1  0     0  0
M  END