
          08180812492D 1   1.00000     0.00000     0

 29 32  0     0  0            999 V2000
   13.3902  -24.9000    0.0000 C   0  0  0  0  0  0           0  0  0
   13.3891  -25.7273    0.0000 C   0  0  0  0  0  0           0  0  0
   14.1039  -26.1402    0.0000 C   0  0  0  0  0  0           0  0  0
   14.8203  -25.7269    0.0000 C   0  0  0  0  0  0           0  0  0
   14.8175  -24.8963    0.0000 C   0  0  0  0  0  0           0  0  0
   14.1021  -24.4872    0.0000 C   0  0  0  0  0  0           0  0  0
   12.6744  -26.1390    0.0000 C   0  0  0  0  0  0           0  0  0
   11.9319  -25.7794    0.0000 N   0  0  3  0  0  0           0  0  0
   12.6736  -26.9643    0.0000 O   0  0  0  0  0  0           0  0  0
   15.5304  -24.4811    0.0000 O   0  0  0  0  0  0           0  0  0
   15.5273  -23.6561    0.0000 C   0  0  0  0  0  0           0  0  0
   16.2420  -23.2458    0.0000 C   0  0  0  0  0  0           0  0  0
   16.2392  -22.4216    0.0000 C   0  0  0  0  0  0           0  0  0
   15.5226  -22.0109    0.0000 C   0  0  0  0  0  0           0  0  0
   14.8074  -22.4306    0.0000 C   0  0  0  0  0  0           0  0  0
   14.8137  -23.2534    0.0000 C   0  0  0  0  0  0           0  0  0
   15.5355  -26.1382    0.0000 C   0  0  0  0  0  0           0  0  0
   16.2493  -25.7246    0.0000 N   0  0  0  0  0  0           0  0  0
   16.9644  -26.1360    0.0000 C   0  0  0  0  0  0           0  0  0
   11.2880  -26.2920    0.0000 C   0  0  0  0  0  0           0  0  0
   10.4819  -26.1080    0.0000 C   0  0  0  0  0  0           0  0  0
   11.9327  -24.9553    0.0000 C   0  0  0  0  0  0           0  0  0
   10.1217  -25.3672    0.0000 C   0  0  0  0  0  0           0  0  0
   11.2865  -24.4401    0.0000 C   0  0  0  0  0  0           0  0  0
   10.4818  -24.6262    0.0000 N   0  0  3  0  0  0           0  0  0
    9.9676  -23.9810    0.0000 C   0  0  3  0  0  0           0  0  0
    9.8425  -23.1619    0.0000 C   0  0  0  0  0  0           0  0  0
    9.1973  -23.6761    0.0000 C   0  0  0  0  0  0           0  0  0
   15.5184  -21.1859    0.0000 Cl  0  0  0  0  0  0           0  0  0
  2  7  1  0     0  0
 14 15  1  0     0  0
  3  4  2  0     0  0
 15 16  2  0     0  0
 16 11  1  0     0  0
  7  8  1  0     0  0
  4 17  1  0     0  0
 17 18  1  0     0  0
  7  9  2  0     0  0
 18 19  1  0     0  0
  4  5  1  0     0  0
  8 20  1  0     0  0
  5 10  1  0     0  0
 20 21  1  0     0  0
  2  3  1  0     0  0
  8 22  1  0     0  0
 10 11  1  0     0  0
 21 23  1  0     0  0
  5  6  2  0     0  0
 22 24  1  0     0  0
 11 12  2  0     0  0
 23 25  1  0     0  0
 24 25  1  0     0  0
  6  1  1  0     0  0
 25 26  1  0     0  0
 27 26  1  0     0  0
 28 27  1  0     0  0
 26 28  1  0     0  0
 12 13  1  0     0  0
  1  2  2  0     0  0
 13 14  2  0     0  0
 14 29  1  0     0  0
M  END