
  SciTegic01161211242D

 21 23  0  0  0  0            999 V2000
    4.0376  -24.7470    0.0000 O   0  0
    3.3236  -25.1603    0.0000 C   0  0
    3.3236  -25.9870    0.0000 C   0  0
    4.7515  -25.1603    0.0000 C   0  0  2  0  0  0
    4.0376  -26.4004    0.0000 C   0  0
    2.6096  -26.4004    0.0000 C   0  0
    5.4655  -24.7470    0.0000 C   0  0
    4.7515  -25.9870    0.0000 C   0  0  1  0  0  0
    2.6096  -24.7470    0.0000 C   0  0
    1.8914  -25.9870    0.0000 C   0  0
    5.4655  -23.9203    0.0000 C   0  0
    6.1795  -23.5069    0.0000 C   0  0
    1.8914  -25.1603    0.0000 C   0  0
    6.8935  -23.9203    0.0000 C   0  0
    6.1795  -25.1603    0.0000 C   0  0
    6.8935  -24.7470    0.0000 C   0  0
    2.6096  -27.2230    0.0000 O   0  0
    5.4655  -26.4004    0.0000 O   0  0
    6.1795  -22.6802    0.0000 O   0  0
    1.1732  -24.7470    0.0000 O   0  0
    7.6158  -23.5069    0.0000 O   0  0
  2  1  1  0
  3  2  2  0
  4  1  1  0
  5  8  1  0
  6  3  1  0
  4  7  1  6
  8  4  1  0
  9  2  1  0
 10 13  1  0
 11  7  1  0
 12 11  2  0
 13  9  2  0
 14 16  2  0
 15  7  2  0
 16 15  1  0
 17  6  1  0
  8 18  1  6
 19 12  1  0
 20 13  1  0
 21 14  1  0
  5  3  1  0
  6 10  2  0
 12 14  1  0
M  END