
  SciTegic02101213002D

 15 16  0  0  0  0            999 V2000
    2.8566   -0.4013    0.0000 O   0  5
    2.1422   -1.6388    0.0000 O   0  0
   -0.7157    0.8362    0.0000 N   0  0
   -1.4302   -0.4013    0.0000 N   0  0
    2.1422   -0.8138    0.0000 N   0  3
   -0.7157   -1.6388    0.0000 N   0  0
   -2.1447    0.8362    0.0000 N   0  0
   -0.0013   -0.4013    0.0000 C   0  0
   -0.0013    0.4237    0.0000 C   0  0
   -0.7157   -0.8138    0.0000 C   0  0
    1.4277   -0.4013    0.0000 C   0  0
    0.7132   -0.8138    0.0000 C   0  0
    0.7132    0.8362    0.0000 C   0  0
   -1.4302    0.4237    0.0000 C   0  0
    1.4277    0.4237    0.0000 C   0  0
  1  5  1  0
  2  5  2  0
  3  9  2  0
  3 14  1  0
  4 10  1  0
  4 14  2  0
  5 11  1  0
  6 10  1  0
  7 14  1  0
  8  9  1  0
  8 10  2  0
  8 12  1  0
  9 13  1  0
 11 12  2  0
 11 15  1  0
 13 15  2  0
M  CHG  2   1  -1   5   1
M  END