
  SciTegic12091613522D

 39 44  0  0  0  0            999 V2000
  -12.7718   -4.7063    0.0000 C   0  0
  -12.3004   -6.1250    0.0000 C   0  0
  -10.8132   -6.4378    0.0000 C   0  0
  -11.7675   -3.5657    0.0000 C   0  0
  -10.2976   -3.8842    0.0000 C   0  0
   -9.8262   -5.3029    0.0000 C   0  0
   -8.3330   -5.2871    0.0000 N   0  0
   -7.8876   -3.8519    0.0000 C   0  0
   -9.0928   -3.0223    0.0000 C   0  0
   -7.4364   -6.4906    0.0000 C   0  0
   -5.9427   -6.4288    0.0000 C   0  0
   -5.1404   -7.6963    0.0000 C   0  0
   -5.8369   -9.0248    0.0000 C   0  0
   -7.3357   -9.0858    0.0000 C   0  0
   -8.1379   -7.8184    0.0000 C   0  0
   -9.0999   -1.5215    0.0000 C   0  0
   -7.8042   -0.7641    0.0000 N   0  0
   -7.8091    0.7359    0.0000 C   0  0
   -6.5125    1.4901    0.0000 C   0  0
   -5.2109    0.7445    0.0000 N   0  0
   -3.9122    1.4966    0.0000 C   0  0
   -2.6111    0.7486    0.0000 C   0  0
   -2.6111   -0.7486    0.0000 C   0  0
   -1.2964   -1.4973    0.0000 O   0  0
   -1.2964    1.4973    0.0000 C   0  0
   -1.2928    2.6973    0.0000 O   0  0
    0.0000    0.7486    0.0000 C   0  0
    0.0000   -0.7486    0.0000 C   0  0
    1.2964   -1.4973    0.0000 C   0  0
    2.5929   -0.7486    0.0000 C   0  0
    2.5929    0.7486    0.0000 C   0  0
    1.2964    1.4973    0.0000 C   0  0
   -8.0326  -10.4150    0.0000 C   0  0
   -7.3914  -11.4294    0.0000 F   0  0
   -9.2316  -10.4635    0.0000 F   0  0
   -8.5903  -11.4775    0.0000 F   0  0
    3.6321    1.3486    0.0000 C   0  0
   -6.5027   -1.5098    0.0000 C   0  0
   -5.2061   -0.7556    0.0000 C   0  0
  1  2  2  0
  2  3  1  0
  3  6  2  0
  5  4  2  0
  4  1  1  0
  5  6  1  0
  6  7  1  0
  7  8  1  0
  8  9  2  0
  9  5  1  0
 10 11  2  0
 11 12  1  0
 12 13  2  0
 13 14  1  0
 14 15  2  0
 15 10  1  0
  7 10  1  0
  9 16  1  0
 16 17  1  0
 17 18  1  0
 18 19  1  0
 19 20  1  0
 20 21  1  0
 21 22  1  0
 22 23  2  0
 22 25  1  0
 23 24  1  0
 24 28  1  0
 27 25  1  0
 25 26  2  0
 27 28  2  0
 28 29  1  0
 29 30  2  0
 30 31  1  0
 31 32  2  0
 32 27  1  0
 33 34  1  0
 33 35  1  0
 33 36  1  0
 14 33  1  0
 31 37  1  0
 17 38  1  0
 20 39  1  0
 38 39  1  0
M  END