
  CDK    9/16/09,10:2

 71 75  0  0  0  0  0  0  0  0999 V2000
    3.4880  -12.8100    0.0000 C   0  0  0  0  0  0  0  0  0  0  0  0
    4.2029  -14.0482    0.0000 O   0  0  0  0  0  0  0  0  0  0  0  0
    4.2029  -13.2244    0.0000 C   0  0  0  0  0  0  0  0  0  0  0  0
    3.4880  -11.9847    0.0000 C   0  0  0  0  0  0  0  0  0  0  0  0
    4.2037  -11.5699    0.0000 C   0  0  0  0  0  0  0  0  0  0  0  0
    4.2037  -10.7472    0.0000 C   0  0  0  0  0  0  0  0  0  0  0  0
    4.9197  -10.3322    0.0000 O   0  0  0  0  0  0  0  0  0  0  0  0
    5.6288  -13.2222    0.0000 C   0  0  0  0  0  0  0  0  0  0  0  0
    6.3425  -11.9855    0.0000 O   0  0  0  0  0  0  0  0  0  0  0  0
    6.3425  -12.8084    0.0000 C   0  0  0  0  0  0  0  0  0  0  0  0
    7.7713  -12.8062    0.0000 C   0  0  0  0  0  0  0  0  0  0  0  0
    8.4872  -14.0469    0.0000 O   0  0  0  0  0  0  0  0  0  0  0  0
    8.4872  -13.2212    0.0000 C   0  0  0  0  0  0  0  0  0  0  0  0
    7.7713  -11.9835    0.0000 C   0  0  0  0  0  0  0  0  0  0  0  0
    8.4873  -11.5685    0.0000 C   0  0  0  0  0  0  0  0  0  0  0  0
    8.4873  -10.7459    0.0000 C   0  0  0  0  0  0  0  0  0  0  0  0
    9.2032  -11.9835    0.0000 C   0  0  0  0  0  0  0  0  0  0  0  0
    9.9147  -13.2211    0.0000 C   0  0  0  0  0  0  0  0  0  0  0  0
   10.6279  -11.9810    0.0000 O   0  0  0  0  0  0  0  0  0  0  0  0
   10.6279  -12.8077    0.0000 C   0  0  0  0  0  0  0  0  0  0  0  0
    9.9147  -14.0469    0.0000 C   0  0  0  0  0  0  0  0  0  0  0  0
    1.3459  -13.2205    0.0000 C   0  0  0  0  0  0  0  0  0  0  0  0
    2.0592  -12.8070    0.0000 C   0  0  0  0  0  0  0  0  0  0  0  0
    2.0592  -11.9813    0.0000 O   0  0  0  0  0  0  0  0  0  0  0  0
    1.3459  -14.0474    0.0000 C   0  0  0  0  0  0  0  0  0  0  0  0
    2.0591  -14.4565    0.0000 C   0  0  0  0  0  0  0  0  0  0  0  0
    2.0516  -15.2840    0.0000 C   0  0  0  0  0  0  0  0  0  0  0  0
    2.7744  -15.6966    0.0000 C   0  0  0  0  0  0  0  0  0  0  0  0
    3.4875  -15.2828    0.0000 C   0  0  0  0  0  0  0  0  0  0  0  0
    3.4826  -14.4526    0.0000 C   0  0  0  0  0  0  0  0  0  0  0  0
    2.7666  -14.0446    0.0000 C   0  0  0  0  0  0  0  0  0  0  0  0
    4.2022  -15.6929    0.0000 O   0  0  0  0  0  0  0  0  0  0  0  0
    4.2022  -16.5190    0.0000 P   0  0  0  0  0  0  0  0  0  0  0  0
    3.3803  -16.5190    0.0000 O   0  0  0  0  0  0  0  0  0  0  0  0
   -2.6636  -11.7752    0.0000 C   0  0  0  0  0  0  0  0  0  0  0  0
   -3.1900  -12.4088    0.0000 C   0  0  0  0  0  0  0  0  0  0  0  0
   -2.9038  -13.1819    0.0000 C   0  0  0  0  0  0  0  0  0  0  0  0
   -2.0941  -13.3275    0.0000 C   0  0  0  0  0  0  0  0  0  0  0  0
   -1.8081  -14.1002    0.0000 C   0  0  0  0  0  0  0  0  0  0  0  0
   -3.4453  -13.8129    0.0000 O   0  0  0  0  0  0  0  0  0  0  0  0
   -3.1570  -14.5925    0.0000 C   0  0  0  0  0  0  0  0  0  0  0  0
   -2.3458  -14.7355    0.0000 C   0  0  0  0  0  0  0  0  0  0  0  0
   -2.0621  -15.5072    0.0000 C   0  0  0  0  0  0  0  0  0  0  0  0
   -2.5935  -16.1405    0.0000 C   0  0  0  0  0  0  0  0  0  0  0  0
   -3.4051  -15.9945    0.0000 C   0  0  0  0  0  0  0  0  0  0  0  0
   -3.6843  -15.2189    0.0000 C   0  0  0  0  0  0  0  0  0  0  0  0
   -2.9449  -11.0025    0.0000 O   0  0  0  0  0  0  0  0  0  0  0  0
   -0.7980  -14.4664    0.0000 C   0  0  0  0  0  0  0  0  0  0  0  0
   -0.0788  -14.0514    0.0000 C   0  0  0  0  0  0  0  0  0  0  0  0
    0.6270  -15.2923    0.0000 C   0  0  0  0  0  0  0  0  0  0  0  0
   -0.0895  -15.7027    0.0000 C   0  0  0  0  0  0  0  0  0  0  0  0
   -0.8020  -15.2912    0.0000 C   0  0  0  0  0  0  0  0  0  0  0  0
    1.3416  -15.7065    0.0000 N   0  0  0  0  0  0  0  0  0  0  0  0
    2.0562  -16.1165    0.0000 C   0  0  0  0  0  0  0  0  0  0  0  0
    2.7708  -16.5307    0.0000 S   0  0  0  0  0  0  0  0  0  0  0  0
   -0.0788  -13.2246    0.0000 C   0  0  0  0  0  0  0  0  0  0  0  0
   -1.5627  -12.6904    0.0000 C   0  0  0  0  0  0  0  0  0  0  0  0
   -0.7949  -12.8138    0.0000 O   0  0  0  0  0  0  0  0  0  0  0  0
   -1.8432  -11.9208    0.0000 C   0  0  0  0  0  0  0  0  0  0  0  0
    0.6271  -14.4630    0.0000 C   0  0  0  0  0  0  0  0  0  0  0  0
    2.7727  -13.2211    0.0000 N   0  0  0  0  0  0  0  0  0  0  0  0
    3.4908  -10.3334    0.0000 N   0  0  0  0  0  0  0  0  0  0  0  0
    4.9152  -12.8081    0.0000 N   0  0  0  0  0  0  0  0  0  0  0  0
    7.0575  -13.2199    0.0000 N   0  0  0  0  0  0  0  0  0  0  0  0
    9.2009  -12.8074    0.0000 N   0  0  0  0  0  0  0  0  0  0  0  0
   10.6332  -14.4638    0.0000 O   0  0  0  0  0  0  0  0  0  0  0  0
   11.3479  -13.2213    0.0000 N   0  0  0  0  0  0  0  0  0  0  0  0
    0.6323  -12.8064    0.0000 N   0  0  0  0  0  0  0  0  0  0  0  0
    4.2026  -17.3429    0.0000 O   0  0  0  0  0  0  0  0  0  0  0  0
    5.0333  -16.5187    0.0000 O   0  0  0  0  0  0  0  0  0  0  0  0
   -3.9397  -16.6263    0.0000 O   0  0  0  0  0  0  0  0  0  0  0  0
  6  7  2  0  0  0  0 
  8 10  1  0  0  0  0 
 10  9  2  0  0  0  0 
 11 13  1  0  0  0  0 
 13 12  2  0  0  0  0 
 11 14  1  1  0  0  0 
 14 15  1  0  0  0  0 
 15 16  1  0  0  0  0 
 15 17  1  0  0  0  0 
 18 20  1  0  0  0  0 
 20 19  2  0  0  0  0 
 18 21  1  6  0  0  0 
 22 23  1  0  0  0  0 
 23 24  2  0  0  0  0 
 22 25  1  6  0  0  0 
 25 26  1  0  0  0  0 
 26 27  2  0  0  0  0 
 27 28  1  0  0  0  0 
 28 29  2  0  0  0  0 
 29 30  1  0  0  0  0 
 30 31  2  0  0  0  0 
 31 26  1  0  0  0  0 
 29 32  1  0  0  0  0 
 32 33  1  0  0  0  0 
 33 34  2  0  0  0  0 
 35 59  1  0  0  0  0 
 59 57  2  0  0  0  0 
 57 38  1  0  0  0  0 
 37 36  2  0  0  0  0 
 36 35  1  0  0  0  0 
 37 38  1  0  0  0  0 
 37 40  1  0  0  0  0 
 38 39  2  0  0  0  0 
 39 42  1  0  0  0  0 
 41 40  1  0  0  0  0 
 41 42  2  0  0  0  0 
 42 43  1  0  0  0  0 
 43 44  2  0  0  0  0 
 44 45  1  0  0  0  0 
 45 46  2  0  0  0  0 
 46 41  1  0  0  0  0 
 35 47  2  0  0  0  0 
 48 49  2  0  0  0  0 
 49 60  1  0  0  0  0 
 60 50  2  0  0  0  0 
 50 51  1  0  0  0  0 
 51 52  2  0  0  0  0 
 52 48  1  0  0  0  0 
 39 48  1  0  0  0  0 
 50 53  1  0  0  0  0 
 53 54  2  0  0  0  0 
 54 55  2  0  0  0  0 
 49 56  1  0  0  0  0 
 56 58  2  0  0  0  0 
  1  3  1  0  0  0  0 
  3  2  2  0  0  0  0 
  1  4  1  1  0  0  0 
  4  5  1  0  0  0  0 
  5  6  1  0  0  0  0 
 23 61  1  0  0  0  0 
 61  1  1  0  0  0  0 
 21 66  1  0  0  0  0 
 63  8  1  0  0  0  0 
  3 63  1  0  0  0  0 
 20 67  1  0  0  0  0 
 68 22  1  0  0  0  0 
 56 68  1  0  0  0  0 
 64 11  1  0  0  0  0 
 10 64  1  0  0  0  0 
 33 69  1  0  0  0  0 
  6 62  1  0  0  0  0 
 33 70  1  0  0  0  0 
 65 18  1  0  0  0  0 
 13 65  1  0  0  0  0 
 45 71  1  0  0  0  0 
M  END