
          11280715082D 1   1.00000     0.00000     0

 34 36  0     0  0            999 V2000
    1.5125   -0.7542    0.0000 C   0  0  0  0  0  0           0  0  0
    0.3125   -0.6917    0.0000 C   0  0  0  0  0  0           0  0  0
    2.1125   -0.7917    0.0000 C   0  0  0  0  0  0           0  0  0
   -0.2875   -0.6542    0.0000 C   0  0  0  0  0  0           0  0  0
    1.2417   -0.2167    0.0000 C   0  0  0  0  0  0           0  0  0
    0.5792   -1.2250    0.0000 C   0  0  0  0  0  0           0  0  0
    2.4417   -0.2917    0.0000 N   0  0  0  0  0  0           0  0  0
   -0.5625   -0.1250    0.0000 N   0  0  0  0  0  0           0  0  0
    3.0375   -0.3250    0.0000 C   0  0  0  0  0  0           0  0  0
   -1.1583   -0.0917    0.0000 C   0  0  0  0  0  0           0  0  0
    0.6375   -0.1875    0.0000 C   0  0  0  0  0  0           0  0  0
    1.1792   -1.2542    0.0000 C   0  0  0  0  0  0           0  0  0
   -1.4333    0.4458    0.0000 N   0  0  0  0  0  0           0  0  0
    3.3667    0.1750    0.0000 N   0  0  0  0  0  0           0  0  0
    1.3167    0.4333    0.0000 C   0  0  0  0  0  0           0  0  0
    0.2542   -1.7250    0.0000 C   0  0  0  0  0  0           0  0  0
   -0.6208   -1.1625    0.0000 O   0  0  0  0  0  0           0  0  0
    2.3792   -1.3292    0.0000 O   0  0  0  0  0  0           0  0  0
    3.9625    0.1458    0.0000 C   0  0  0  0  0  0           0  0  0
   -2.0333    0.4708    0.0000 C   0  0  0  0  0  0           0  0  0
    0.5167   -2.2625    0.0000 O   0  0  0  0  0  0           0  0  0
    0.9167    0.6833    0.0000 O   0  0  0  0  0  0           0  0  0
   -1.4833   -0.5917    0.0000 C   0  0  0  0  0  0           0  0  0
    3.3042   -0.8625    0.0000 C   0  0  0  0  0  0           0  0  0
   -2.0833   -0.5667    0.0000 C   0  0  0  0  0  0           0  0  0
    3.9042   -0.8917    0.0000 C   0  0  0  0  0  0           0  0  0
   -2.3583   -0.0292    0.0000 C   0  0  0  0  0  0           0  0  0
    4.2375   -0.3917    0.0000 C   0  0  0  0  0  0           0  0  0
    1.7167    0.7583    0.0000 O   0  0  0  0  0  0           0  0  0
   -0.3458   -1.6917    0.0000 O   0  0  0  0  0  0           0  0  0
    4.2917    0.6458    0.0000 C   0  0  0  0  0  0           0  0  0
   -2.3000    1.0083    0.0000 C   0  0  0  0  0  0           0  0  0
    4.1750   -1.4292    0.0000 C   0  0  0  0  0  0           0  0  0
   -2.4083   -1.0667    0.0000 C   0  0  0  0  0  0           0  0  0
  2  6  1  0     0  0
  3  1  1  0     0  0
  4  2  1  0     0  0
  5  1  2  0     0  0
  6 12  2  0     0  0
  7  3  1  0     0  0
  8  4  1  0     0  0
  9  7  1  0     0  0
 10  8  1  0     0  0
 11  5  1  0     0  0
 12  1  1  0     0  0
 13 10  2  0     0  0
 14  9  1  0     0  0
 15  5  1  0     0  0
 16  6  1  0     0  0
 17  4  2  0     0  0
 18  3  2  0     0  0
 19 14  2  0     0  0
 20 13  1  0     0  0
 21 16  2  0     0  0
 22 15  2  0     0  0
 23 10  1  0     0  0
 24  9  2  0     0  0
 25 23  2  0     0  0
 26 24  1  0     0  0
 27 25  1  0     0  0
 28 26  2  0     0  0
 29 15  1  0     0  0
 30 16  1  0     0  0
 31 19  1  0     0  0
 32 20  1  0     0  0
 33 26  1  0     0  0
 34 25  1  0     0  0
 11  2  2  0     0  0
 19 28  1  0     0  0
 20 27  2  0     0  0
M  END