
          11280714462D 1   1.00000     0.00000     0

 27 29  0     0  0            999 V2000
    0.7375   -2.1250    0.0000 N   0  0  3  0  0  0           0  0  0
    1.0000   -1.5875    0.0000 C   0  0  0  0  0  0           0  0  0
    0.1500   -2.0167    0.0000 C   0  0  0  0  0  0           0  0  0
   -0.1375   -2.5417    0.0000 N   0  0  0  0  0  0           0  0  0
    0.4750   -1.2875    0.0000 C   0  0  0  0  0  0           0  0  0
    0.8125   -2.7250    0.0000 C   0  0  0  0  0  0           0  0  0
    0.2750   -2.9750    0.0000 C   0  0  0  0  0  0           0  0  0
    0.4750   -0.6750    0.0000 C   0  0  0  0  0  0           0  0  0
    1.5250   -1.2792    0.0000 C   0  0  0  0  0  0           0  0  0
    1.0000   -0.3667    0.0000 O   0  0  0  0  0  0           0  0  0
    3.1375   -0.9250    0.0000 N   0  0  0  0  0  0           0  0  0
    3.4917   -1.4125    0.0000 C   0  0  3  0  0  0           0  0  0
    2.1042   -0.5125    0.0000 C   0  0  3  0  0  0           0  0  0
    1.5250   -0.6667    0.0000 C   0  0  0  0  0  0           0  0  0
    2.5375   -0.9250    0.0000 C   0  0  0  0  0  0           0  0  0
   -0.0500   -1.5875    0.0000 C   0  0  0  0  0  0           0  0  0
    2.2500    0.0750    0.0000 O   0  0  0  0  0  0           0  0  0
    1.3000   -3.0625    0.0000 C   0  0  0  0  0  0           0  0  0
    0.2250   -3.5750    0.0000 C   0  0  0  0  0  0           0  0  0
   -0.0500   -0.3750    0.0000 C   0  0  0  0  0  0           0  0  0
    3.2500   -1.9625    0.0000 C   0  0  0  0  0  0           0  0  0
    4.0917   -1.3500    0.0000 C   0  0  0  0  0  0           0  0  0
    3.9625   -1.7875    0.0000 C   0  0  0  0  0  0           0  0  0
   -0.5708   -1.2875    0.0000 C   0  0  0  0  0  0           0  0  0
    1.2542   -3.6542    0.0000 C   0  0  0  0  0  0           0  0  0
    0.7125   -3.9125    0.0000 C   0  0  0  0  0  0           0  0  0
   -0.5708   -0.6792    0.0000 C   0  0  0  0  0  0           0  0  0
  2  1  1  0     0  0
  3  1  1  0     0  0
  4  3  2  0     0  0
  5  2  1  0     0  0
  6  1  1  0     0  0
  7  6  2  0     0  0
  8  5  1  0     0  0
  9  2  2  0     0  0
 10  8  1  0     0  0
 11 15  1  0     0  0
 12 11  1  0     0  0
 13 14  1  0     0  0
 14 10  1  0     0  0
 15 13  1  0     0  0
 16  5  2  0     0  0
 17 13  1  0     0  0
 18  6  1  0     0  0
 19  7  1  0     0  0
 20  8  2  0     0  0
 21 12  1  0     0  0
 22 12  1  0     0  0
 23 12  1  0     0  0
 24 16  1  0     0  0
 25 18  2  0     0  0
 26 25  1  0     0  0
 27 24  2  0     0  0
  7  4  1  0     0  0
 26 19  2  0     0  0
 27 20  1  0     0  0
M  END