
  Mrv0541 04051115152D          

 27 30  0  0  0  0            999 V2000
    0.7302    0.6166    0.0000 C   0  0  0  0  0  0  0  0  0  0  0  0
    0.0158    0.2041    0.0000 C   0  0  0  0  0  0  0  0  0  0  0  0
   -0.6987    0.6166    0.0000 C   0  0  0  0  0  0  0  0  0  0  0  0
   -0.6987    1.4416    0.0000 C   0  0  0  0  0  0  0  0  0  0  0  0
    0.0158    1.8541    0.0000 C   0  0  0  0  0  0  0  0  0  0  0  0
    0.7302    1.4416    0.0000 C   0  0  0  0  0  0  0  0  0  0  0  0
    1.4447    1.8541    0.0000 C   0  0  0  0  0  0  0  0  0  0  0  0
    2.1592    1.4416    0.0000 C   0  0  0  0  0  0  0  0  0  0  0  0
    2.1592    0.6166    0.0000 C   0  0  0  0  0  0  0  0  0  0  0  0
    1.4447    0.2041    0.0000 C   0  0  0  0  0  0  0  0  0  0  0  0
   -1.4132    0.2041    0.0000 C   0  0  0  0  0  0  0  0  0  0  0  0
   -1.1310   -0.5712    0.0000 C   0  0  0  0  0  0  0  0  0  0  0  0
   -1.6613   -1.2032    0.0000 N   0  0  0  0  0  0  0  0  0  0  0  0
   -1.3792   -1.9784    0.0000 C   0  0  0  0  0  0  0  0  0  0  0  0
   -0.5667   -2.1217    0.0000 C   0  0  0  0  0  0  0  0  0  0  0  0
   -0.0364   -1.4897    0.0000 C   0  0  0  0  0  0  0  0  0  0  0  0
   -0.3186   -0.7144    0.0000 C   0  0  0  0  0  0  0  0  0  0  0  0
   -0.2845   -2.8969    0.0000 C   0  0  0  0  0  0  0  0  0  0  0  0
   -0.8148   -3.5289    0.0000 O   0  0  0  0  0  0  0  0  0  0  0  0
    0.5279   -3.0402    0.0000 O   0  0  0  0  0  0  0  0  0  0  0  0
   -1.9435    0.8361    0.0000 C   0  0  0  0  0  0  0  0  0  0  0  0
   -2.2257    0.0608    0.0000 C   0  0  0  0  0  0  0  0  0  0  0  0
    1.0574    2.5825    0.0000 C   0  0  0  0  0  0  0  0  0  0  0  0
    1.8320    2.5825    0.0000 C   0  0  0  0  0  0  0  0  0  0  0  0
    1.0574   -0.5244    0.0000 C   0  0  0  0  0  0  0  0  0  0  0  0
    1.8320   -0.5244    0.0000 C   0  0  0  0  0  0  0  0  0  0  0  0
   -1.4132    1.8541    0.0000 C   0  0  0  0  0  0  0  0  0  0  0  0
  1  2  2  0  0  0  0
  1  6  1  0  0  0  0
  1 10  1  0  0  0  0
  2  3  1  0  0  0  0
  3  4  2  0  0  0  0
 11  3  1  0  0  0  0
  4  5  1  0  0  0  0
 27  4  1  0  0  0  0
  5  6  2  0  0  0  0
  6  7  1  0  0  0  0
  7  8  1  0  0  0  0
 23  7  1  0  0  0  0
 24  7  1  0  0  0  0
  8  9  1  0  0  0  0
 10  9  1  0  0  0  0
 10 25  1  0  0  0  0
 10 26  1  0  0  0  0
 11 12  1  0  0  0  0
 11 21  1  0  0  0  0
 11 22  1  0  0  0  0
 12 13  2  0  0  0  0
 12 17  1  0  0  0  0
 14 13  1  0  0  0  0
 14 15  2  0  0  0  0
 15 16  1  0  0  0  0
 15 18  1  0  0  0  0
 16 17  2  0  0  0  0
 18 19  2  0  0  0  0
 18 20  1  0  0  0  0
 21 22  1  0  0  0  0
M  END