
  Mrv0541 04051115152D          

 18 20  0  0  0  0            999 V2000
    2.4282   -1.7600    0.0000 O   0  0  0  0  0  0  0  0  0  0  0  0
    1.8642   -1.1579    0.0000 S   0  0  0  0  0  0  0  0  0  0  0  0
    2.4663   -0.5939    0.0000 O   0  0  0  0  0  0  0  0  0  0  0  0
    1.2621   -1.7219    0.0000 N   0  0  0  0  0  0  0  0  0  0  0  0
    1.3002   -0.5558    0.0000 C   0  0  0  0  0  0  0  0  0  0  0  0
    1.5396    0.2337    0.0000 C   0  0  0  0  0  0  0  0  0  0  0  0
    0.9756    0.8358    0.0000 C   0  0  0  0  0  0  0  0  0  0  0  0
    0.4967   -0.7432    0.0000 C   0  0  0  0  0  0  0  0  0  0  0  0
   -0.0673   -0.1411    0.0000 C   0  0  0  0  0  0  0  0  0  0  0  0
    0.1722    0.6484    0.0000 C   0  0  0  0  0  0  0  0  0  0  0  0
   -0.8921   -0.1573    0.0000 N   0  0  0  0  0  0  0  0  0  0  0  0
   -2.2267   -0.1837    0.0000 S   0  0  0  0  0  0  0  0  0  0  0  0
   -1.5499   -0.6553    0.0000 N   0  0  0  0  0  0  0  0  0  0  0  0
   -1.9873    0.6058    0.0000 C   0  0  0  0  0  0  0  0  0  0  0  0
   -1.1625    0.6221    0.0000 C   0  0  0  0  0  0  0  0  0  0  0  0
   -0.5047    1.1201    0.0000 N   0  0  0  0  0  0  0  0  0  0  0  0
   -2.4853    1.2636    0.0000 S   0  0  0  0  0  0  0  0  0  0  0  0
   -3.3039    1.1612    0.0000 C   0  0  0  0  0  0  0  0  0  0  0  0
  1  2  2  0  0  0  0
  3  2  2  0  0  0  0
  4  2  1  0  0  0  0
  5  2  1  0  0  0  0
  6  5  2  0  0  0  0
  8  5  1  0  0  0  0
  7  6  1  0  0  0  0
  7 10  2  0  0  0  0
  9  8  2  0  0  0  0
 10  9  1  0  0  0  0
  9 11  1  0  0  0  0
 10 16  1  0  0  0  0
 13 11  1  0  0  0  0
 15 11  1  0  0  0  0
 13 12  2  0  0  0  0
 14 12  2  0  0  0  0
 14 15  1  0  0  0  0
 14 17  1  0  0  0  0
 15 16  2  0  0  0  0
 18 17  1  0  0  0  0
M  END