
  Mrv0541 04051115152D          

 12 13  0  0  0  0            999 V2000
   -1.7507   -0.8712    0.0000 C   0  0  0  0  0  0  0  0  0  0  0  0
   -1.0362   -0.4587    0.0000 C   0  0  0  0  0  0  0  0  0  0  0  0
   -0.3217   -0.8713    0.0000 N   0  0  0  0  0  0  0  0  0  0  0  0
    0.3928   -0.4588    0.0000 C   0  0  0  0  0  0  0  0  0  0  0  0
    1.1072   -0.8713    0.0000 C   0  0  0  0  0  0  0  0  0  0  0  0
    1.8217   -0.4587    0.0000 C   0  0  0  0  0  0  0  0  0  0  0  0
    1.8217    0.3663    0.0000 S   0  0  0  0  0  0  0  0  0  0  0  0
    1.1072    0.7788    0.0000 C   0  0  0  0  0  0  0  0  0  0  0  0
    0.3928    0.3662    0.0000 C   0  0  0  0  0  0  0  0  0  0  0  0
   -0.3217    0.7787    0.0000 C   0  0  0  0  0  0  0  0  0  0  0  0
   -0.3217    1.6037    0.0000 O   0  0  0  0  0  0  0  0  0  0  0  0
   -1.0362    0.3663    0.0000 N   0  0  0  0  0  0  0  0  0  0  0  0
  1  2  1  0  0  0  0
  2  3  2  0  0  0  0
  2 12  1  0  0  0  0
  4  3  1  0  0  0  0
  5  4  1  0  0  0  0
  4  9  2  0  0  0  0
  6  5  1  0  0  0  0
  6  7  1  0  0  0  0
  8  7  1  0  0  0  0
  8  9  1  0  0  0  0
  9 10  1  0  0  0  0
 10 11  2  0  0  0  0
 10 12  1  0  0  0  0
M  END