
  Mrv0541 04051115152D          

 26 29  0  0  0  0            999 V2000
    3.3690    3.1056    0.0000 N   0  0  0  0  0  0  0  0  0  0  0  0
    3.3690    2.2806    0.0000 C   0  0  0  0  0  0  0  0  0  0  0  0
    4.0835    1.8681    0.0000 N   0  0  0  0  0  0  0  0  0  0  0  0
    4.0835    1.0431    0.0000 C   0  0  0  0  0  0  0  0  0  0  0  0
    3.3690    0.6306    0.0000 N   0  0  0  0  0  0  0  0  0  0  0  0
    2.6545    1.8681    0.0000 C   0  0  0  0  0  0  0  0  0  0  0  0
    2.6545    1.0431    0.0000 C   0  0  0  0  0  0  0  0  0  0  0  0
    1.8699    2.1230    0.0000 N   0  0  0  0  0  0  0  0  0  0  0  0
    1.3850    1.4556    0.0000 C   0  0  0  0  0  0  0  0  0  0  0  0
    1.8699    0.7881    0.0000 C   0  0  0  0  0  0  0  0  0  0  0  0
    1.6150    0.0035    0.0000 C   0  0  0  0  0  0  0  0  0  0  0  0
    0.8080   -0.1680    0.0000 N   0  0  0  0  0  0  0  0  0  0  0  0
    0.1949    0.3840    0.0000 C   0  0  0  0  0  0  0  0  0  0  0  0
   -0.5196   -0.0285    0.0000 C   0  0  2  0  0  0  0  0  0  0  0  0
   -1.2733    0.3071    0.0000 O   0  0  0  0  0  0  0  0  0  0  0  0
    0.4724   -0.9217    0.0000 C   0  0  0  0  0  0  0  0  0  0  0  0
   -0.3481   -0.8354    0.0000 C   0  0  2  0  0  0  0  0  0  0  0  0
   -0.9001   -1.4485    0.0000 C   0  0  0  0  0  0  0  0  0  0  0  0
   -1.7071   -1.2770    0.0000 S   0  0  0  0  0  0  0  0  0  0  0  0
   -2.2591   -1.8901    0.0000 C   0  0  0  0  0  0  0  0  0  0  0  0
   -3.0661   -1.7186    0.0000 C   0  0  0  0  0  0  0  0  0  0  0  0
   -3.6181   -2.3317    0.0000 C   0  0  0  0  0  0  0  0  0  0  0  0
   -4.4251   -2.1601    0.0000 C   0  0  0  0  0  0  0  0  0  0  0  0
   -4.6800   -1.3755    0.0000 C   0  0  0  0  0  0  0  0  0  0  0  0
   -4.1280   -0.7624    0.0000 C   0  0  0  0  0  0  0  0  0  0  0  0
   -3.3210   -0.9340    0.0000 C   0  0  0  0  0  0  0  0  0  0  0  0
  2  1  1  0  0  0  0
  2  3  2  0  0  0  0
  6  2  1  0  0  0  0
  4  3  1  0  0  0  0
  4  5  2  0  0  0  0
  7  5  1  0  0  0  0
  7  6  2  0  0  0  0
  6  8  1  0  0  0  0
  7 10  1  0  0  0  0
  9  8  1  0  0  0  0
  9 10  2  0  0  0  0
 11 10  1  0  0  0  0
 11 12  1  0  0  0  0
 13 12  1  0  0  0  0
 16 12  1  0  0  0  0
 13 14  1  0  0  0  0
 14 15  1  1  0  0  0
 14 17  1  0  0  0  0
 16 17  1  0  0  0  0
 17 18  1  6  0  0  0
 18 19  1  0  0  0  0
 20 19  1  0  0  0  0
 21 20  1  0  0  0  0
 21 22  2  0  0  0  0
 21 26  1  0  0  0  0
 23 22  1  0  0  0  0
 24 23  2  0  0  0  0
 25 24  1  0  0  0  0
 26 25  2  0  0  0  0
M  END