
  SciTegic12011114592D

 35 39  0  0  0  0            999 V2000
   -5.2796  -26.9038    0.0000 N   0  0
   -4.5644  -26.4941    0.0000 C   0  0
   -4.5615  -25.6682    0.0000 N   0  0
   -5.2798  -25.2538    0.0000 C   0  0
   -5.2803  -24.4288    0.0000 N   0  0
   -4.5657  -24.0158    0.0000 C   0  0
   -3.8513  -26.9090    0.0000 S   0  0
   -3.1355  -26.4990    0.0000 C   0  0
   -2.4266  -26.9170    0.0000 C   0  0
   -1.7112  -26.5077    0.0000 C   0  0
   -1.7080  -25.6818    0.0000 C   0  0
   -2.4260  -25.2670    0.0000 C   0  0
   -3.1385  -25.6788    0.0000 C   0  0
   -0.9926  -25.2708    0.0000 N   0  0
   -3.7800  -24.2639    0.0000 C   0  0
   -3.3009  -23.5922    0.0000 C   0  0
   -3.7916  -22.9291    0.0000 N   0  0
   -4.5740  -23.1908    0.0000 N   0  0
   -2.4759  -23.5850    0.0000 C   0  0
   -6.7670  -25.4147    0.0000 C   0  0
   -7.2526  -26.0758    0.0000 C   0  0
   -6.7744  -26.7376    0.0000 C   0  0
   -5.9895  -26.4854    0.0000 N   0  0
   -5.9889  -25.6678    0.0000 C   0  0
   -0.2790  -25.6848    0.0000 C   0  0
    0.4363  -25.2738    0.0000 C   0  0
    1.1499  -25.6882    0.0000 N   0  0
   -0.2807  -26.5098    0.0000 O   0  0
    1.1412  -26.5086    0.0000 C   0  0
    1.9231  -26.7721    0.0000 C   0  0  2  0  0  0
    2.4152  -26.1099    0.0000 C   0  0
    1.9375  -25.4373    0.0000 C   0  0  1  0  0  0
    2.1989  -24.6548    0.0000 C   0  0
    3.0072  -24.4899    0.0000 O   0  0
    2.1695  -27.5594    0.0000 F   0  0
  7  8  1  0
  6 15  1  0
 16 17  1  0
 18  6  2  0
  3  4  2  0
 16 19  1  0
 23 24  1  0
  8  9  2  0
  4 24  1  0
 21 22  2  0
  9 10  1  0
  1  2  2  0
 10 11  2  0
 20 21  1  0
 22 23  1  0
 24 20  2  0
  4  5  1  0
 14 25  1  0
 11 12  1  0
 25 26  1  0
 23  1  1  0
 26 27  1  0
 12 13  2  0
 25 28  2  0
 27 29  1  0
 13  8  1  0
  5  6  1  0
 11 14  1  0
 17 18  1  0
 29 30  1  0
 30 31  1  0
 31 32  1  0
 32 27  1  0
  2  3  1  0
 32 33  1  6
 15 16  2  0
 33 34  1  0
  2  7  1  0
 30 35  1  6
M  END