
  SciTegic10311316212D

 27 30  0  0  0  0            999 V2000
   25.9093   -1.1349    0.0000 C   0  0
   25.9082   -1.9545    0.0000 C   0  0
   26.6162   -2.3635    0.0000 C   0  0
   26.6144   -0.7261    0.0000 C   0  0
   27.3231   -1.1314    0.0000 C   0  0
   27.3233   -1.9500    0.0000 C   0  0
   28.1020   -2.2027    0.0000 S   0  0
   28.5830   -1.5403    0.0000 C   0  0
   28.1015   -0.8782    0.0000 C   0  0
   25.2047   -2.3616    0.0000 N   0  0
   24.4584   -2.0287    0.0000 C   0  0
   23.9111   -2.6356    0.0000 N   0  0
   24.3192   -3.3437    0.0000 N   0  0
   25.1186   -3.1743    0.0000 C   0  0
   25.7243   -3.7183    0.0000 C   0  0
   25.5522   -4.5183    0.0000 C   0  0
   26.1583   -5.0653    0.0000 C   0  0
   26.9367   -4.8135    0.0000 C   0  0
   27.1055   -4.0096    0.0000 C   0  0
   26.4980   -3.4661    0.0000 C   0  0
   24.2891   -1.2292    0.0000 S   0  0
   29.3981   -1.5378    0.0000 C   0  0
   29.8070   -2.2454    0.0000 O   0  0
   29.8065   -0.8300    0.0000 O   0  0
   28.3538   -0.1009    0.0000 Cl  0  0
   27.8819   -3.7549    0.0000 Cl  0  0
   27.5443   -5.3599    0.0000 Br  0  0
  1  2  2  0
  2  3  1  0
  3  6  2  0
  5  4  2  0
  4  1  1  0
  5  6  1  0
  6  7  1  0
  7  8  1  0
  8  9  2  0
  9  5  1  0
 10 11  1  0
 11 12  2  0
 12 13  1  0
 13 14  2  0
 14 10  1  0
  2 10  1  0
 15 16  2  0
 16 17  1  0
 17 18  2  0
 18 19  1  0
 19 20  2  0
 20 15  1  0
 14 15  1  0
 11 21  1  0
 22 23  1  0
 22 24  2  0
  8 22  1  0
  9 25  1  0
 19 26  1  0
 18 27  1  0
M  END