
  SciTegic10311217562D

 41 39  0  0  0  0            999 V2000
    3.5125   -2.8125    0.0000 C   0  0  2  0  0  0
    3.5125   -3.6375    0.0000 C   0  0  1  0  0  0
    4.2245   -4.0459    0.0000 C   0  0  2  0  0  0
    4.9365   -3.6375    0.0000 O   0  0
    4.9365   -2.8125    0.0000 C   0  0  1  0  0  0
    4.2245   -2.3959    0.0000 C   0  0  1  0  0  0
    5.6522   -2.4021    0.0000 C   0  0
    2.7968   -2.4021    0.0000 O   0  0
    2.7986   -4.0511    0.0000 O   0  0
    4.2245   -1.5709    0.0000 O   0  0
    4.2245   -4.8709    0.0000 O   0  0
    6.3655   -2.8167    0.0000 N   0  0
    4.9390   -5.2834    0.0000 C   0  0
    7.0811   -2.4063    0.0000 C   0  0
    7.7944   -2.8209    0.0000 C   0  0
    7.0836   -1.5813    0.0000 O   0  0
    8.5101   -2.4105    0.0000 N   0  0
    9.2233   -2.8251    0.0000 C   0  0
    9.9390   -2.4147    0.0000 O   0  0
    3.5100   -1.1584    0.0000 S   0  0
    2.7956   -1.5709    0.0000 O   0  5
    3.0917   -0.4417    0.0000 O   0  0
    3.9167   -0.4417    0.0000 O   0  0
    2.0836   -2.8167    0.0000 S   0  0
    1.3679   -2.4063    0.0000 O   0  5
    1.6667   -3.5292    0.0000 O   0  0
    2.4917   -3.5292    0.0000 O   0  0
    2.7998   -4.8761    0.0000 S   0  0
    2.0860   -5.2896    0.0000 O   0  5
    3.6208   -4.8750    0.0000 O   0  0
    3.2042   -5.5875    0.0000 O   0  0
    8.5113   -1.5878    0.0000 C   0  0
    9.2286   -1.1780    0.0000 C   0  0
    9.2314   -0.3538    0.0000 C   0  0
    8.5176    0.0616    0.0000 C   0  0
    7.7996   -0.3532    0.0000 C   0  0
    7.8003   -1.1761    0.0000 C   0  0
    9.2209   -3.6501    0.0000 C   0  0
    0.6875   -0.3750    0.0000 Na  0  3
    0.2167   -5.3083    0.0000 Na  0  3
    0.3417   -2.9333    0.0000 Na  0  3
  6 10  1  6
 20 21  1  0
  3  4  1  0
  3 11  1  6
 20 22  2  0
  4  5  1  0
 20 23  2  0
  7 12  1  0
  8 24  1  0
  5  6  1  0
 24 25  1  0
 11 13  1  0
 24 26  2  0
 24 27  2  0
 12 14  1  0
  5  7  1  1
  9 28  1  0
 14 15  1  0
 28 29  1  0
  1  2  1  0
 28 30  2  0
 14 16  2  0
 28 31  2  0
  1  8  1  1
 15 17  1  0
  1  6  1  0
 32 33  1  0
 17 18  1  0
 33 34  1  0
  2  9  1  1
 34 35  1  0
 18 19  2  0
 35 36  1  0
  2  3  1  0
 36 37  1  0
 37 32  1  0
 17 32  1  0
 10 20  1  0
 18 38  1  0
M  CHG  6  21  -1  25  -1  29  -1  39   1  40   1  41   1
M  END