
  CDK    9/16/09,9:57

 18 21  0  0  0  0  0  0  0  0999 V2000
    1.0230  -16.5403    0.0000 C   0  0  0  0  0  0  0  0  0  0  0  0
    1.0218  -17.3671    0.0000 C   0  0  0  0  0  0  0  0  0  0  0  0
    1.7362  -17.7797    0.0000 C   0  0  0  0  0  0  0  0  0  0  0  0
    1.7344  -16.1277    0.0000 C   0  0  0  0  0  0  0  0  0  0  0  0
    2.4494  -16.5366    0.0000 C   0  0  0  0  0  0  0  0  0  0  0  0
    2.4497  -17.3672    0.0000 C   0  0  0  0  0  0  0  0  0  0  0  0
    3.2396  -17.6236    0.0000 N   0  0  0  0  0  0  0  0  0  0  0  0
    3.2392  -16.2797    0.0000 C   0  0  0  0  0  0  0  0  0  0  0  0
    3.7245  -16.9527    0.0000 C   0  0  0  0  0  0  0  0  0  0  0  0
    4.5480  -16.8682    0.0000 C   0  0  0  0  0  0  0  0  0  0  0  0
    4.8873  -16.1112    0.0000 C   0  0  0  0  0  0  0  0  0  0  0  0
    4.3968  -15.4380    0.0000 N   0  0  0  0  0  0  0  0  0  0  0  0
    3.5750  -15.5260    0.0000 C   0  0  0  0  0  0  0  0  0  0  0  0
    3.0899  -14.8594    0.0000 N   0  0  0  0  0  0  0  0  0  0  0  0
    3.4246  -14.1058    0.0000 C   0  0  0  0  0  0  0  0  0  0  0  0
    2.9394  -13.4392    0.0000 C   0  0  0  0  0  0  0  0  0  0  0  0
    2.8515  -12.6234    0.0000 C   0  0  0  0  0  0  0  0  0  0  0  0
    2.1849  -13.1086    0.0000 C   0  0  0  0  0  0  0  0  0  0  0  0
  5  4  2  0  0  0  0 
  8  9  2  0  0  0  0 
  4  1  1  0  0  0  0 
  9 10  1  0  0  0  0 
  5  6  1  0  0  0  0 
 10 11  2  0  0  0  0 
 11 12  1  0  0  0  0 
  2  3  1  0  0  0  0 
 12 13  2  0  0  0  0 
 13  8  1  0  0  0  0 
  3  6  2  0  0  0  0 
 13 14  1  0  0  0  0 
  6  7  1  0  0  0  0 
 14 15  1  0  0  0  0 
  7  9  1  0  0  0  0 
 15 16  1  0  0  0  0 
 17 16  1  0  0  0  0 
 18 17  1  0  0  0  0 
 16 18  1  0  0  0  0 
  8  5  1  0  0  0  0 
  1  2  2  0  0  0  0 
M  END