
  SciTegic01161211242D

 28 30  0  0  0  0            999 V2000
    2.6361   -0.0666    0.0000 N   0  0
    2.6349   -0.8940    0.0000 C   0  0
    3.3497   -1.3069    0.0000 N   0  0
    3.3479    0.3461    0.0000 C   0  0
    4.8546    0.1956    0.0000 C   0  0
    4.0633   -0.0630    0.0000 C   0  0
    4.0659   -0.8961    0.0000 C   0  0
    4.8597   -1.1498    0.0000 N   0  0
    5.3450   -0.4726    0.0000 N   0  0
    5.1070    0.9811    0.0000 C   0  0
    1.9201   -1.3059    0.0000 C   0  0
    3.3455    1.1711    0.0000 N   0  0
    4.0587    1.5858    0.0000 C   0  0
    4.0562    2.4108    0.0000 C   0  0
    2.6298    1.5815    0.0000 C   0  0
    2.6273    2.4065    0.0000 C   0  0
    1.9116    2.8169    0.0000 O   0  0
    1.9091    3.6419    0.0000 C   0  0
    5.2623   -1.8700    0.0000 C   0  0
    4.8362   -2.5733    0.0000 C   0  0
    5.2375   -3.2932    0.0000 C   0  0
    6.0632   -3.3059    0.0000 C   0  0
    6.4862   -2.5926    0.0000 C   0  0
    6.0825   -1.8755    0.0000 C   0  0
    6.5013   -1.1647    0.0000 C   0  0
    6.4661   -4.0258    0.0000 O   0  0
    4.7695    2.8254    0.0000 C   0  0
    7.2910   -4.0369    0.0000 C   0  0
  3  7  2  0
 13 14  1  0
  1  2  2  0
 12 15  1  0
  6  4  2  0
 15 16  1  0
  5  6  1  0
 16 17  1  0
  7  8  1  0
 17 18  1  0
  8  9  1  0
  8 19  1  0
  9  5  2  0
 19 20  2  0
  4  1  1  0
 20 21  1  0
  5 10  1  0
 21 22  2  0
  6  7  1  0
 22 23  1  0
  2 11  1  0
 23 24  2  0
 24 19  1  0
 24 25  1  0
  4 12  1  0
 22 26  1  0
  2  3  1  0
 14 27  1  0
 12 13  1  0
 26 28  1  0
M  END