
  SciTegic11081110012D

 29 33  0  0  0  0            999 V2000
   -4.1304   -0.2935    0.0000 C   0  0
   -3.3035   -0.2936    0.0000 N   0  0
   -2.8917    0.4214    0.0000 C   0  0
   -4.5438    0.4175    0.0000 N   0  0
   -4.1358    1.1330    0.0000 C   0  0
   -3.3076    1.1334    0.0000 C   0  0
   -2.8956    1.8498    0.0000 C   0  0
   -3.3107    2.5663    0.0000 C   0  0
   -4.1421    2.5619    0.0000 C   0  0
   -4.5504    1.8450    0.0000 C   0  0
   -2.0671    0.4239    0.0000 N   0  0
   -1.6530   -0.2892    0.0000 C   0  0
   -0.8320   -0.2886    0.0000 C   0  0
   -0.4180    0.4250    0.0000 N   0  0
   -0.8312    1.1396    0.0000 C   0  0
   -1.6585    1.1407    0.0000 C   0  0
    0.4066    0.4244    0.0000 C   0  0
    0.8140   -0.2934    0.0000 N   0  0
    1.6378   -0.2943    0.0000 C   0  0
    2.0515    0.4201    0.0000 C   0  0
    1.6353    1.1368    0.0000 C   0  0
    0.8128    1.1343    0.0000 N   0  0
    2.8761    0.4206    0.0000 C   0  0
    3.2880    1.1349    0.0000 C   0  0
    4.1116    1.1305    0.0000 C   0  0
    4.5233    1.8441    0.0000 C   0  0
    4.1107    2.5589    0.0000 C   0  0
    3.2818    2.5558    0.0000 C   0  0
    2.8737    1.8417    0.0000 C   0  0
  1  2  2  0
 11 16  1  0
 12 13  1  0
 13 14  1  0
 14 15  1  0
 15 16  1  0
  7  8  2  0
 14 17  1  0
  5  4  2  0
 17 18  2  0
  8  9  1  0
 18 19  1  0
  4  1  1  0
 19 20  2  0
  9 10  2  0
 20 21  1  0
 10  5  1  0
 21 22  2  0
 22 17  1  0
 20 23  1  0
  3 11  1  0
 23 24  1  0
 11 12  1  0
 24 25  2  0
  2  3  1  0
 25 26  1  0
  5  6  1  0
 26 27  2  0
  3  6  2  0
 27 28  1  0
  6  7  1  0
 28 29  2  0
 29 24  1  0
M  END