
          11280715152D 1   1.00000     0.00000     0

 22 24  0     0  0            999 V2000
    1.3917   -2.2167    0.0000 N   0  0  3  0  0  0           0  0  0
    1.6875   -2.9875    0.0000 C   0  0  0  0  0  0           0  0  0
    0.5667   -2.2625    0.0000 C   0  0  0  0  0  0           0  0  0
    1.8375   -1.5250    0.0000 C   0  0  3  0  0  0           0  0  0
    2.6625   -1.5625    0.0000 C   0  0  0  0  0  0           0  0  0
    3.4875   -1.6042    0.0000 C   0  0  0  0  0  0           0  0  0
    4.7625   -0.9542    0.0000 N   0  0  3  0  0  0           0  0  0
    1.0500   -3.5125    0.0000 C   0  0  0  0  0  0           0  0  0
    0.3625   -3.0625    0.0000 C   0  0  0  0  0  0           0  0  0
    0.0417   -1.6250    0.0000 O   0  0  0  0  0  0           0  0  0
    2.4875   -3.2000    0.0000 O   0  0  0  0  0  0           0  0  0
    1.4625   -0.7875    0.0000 C   0  0  0  0  0  0           0  0  0
    4.3125   -1.6500    0.0000 C   0  0  0  0  0  0           0  0  0
    5.5792   -0.9125    0.0000 C   0  0  0  0  0  0           0  0  0
    4.4625   -0.1875    0.0000 C   0  0  0  0  0  0           0  0  0
    1.9125   -0.0917    0.0000 C   0  0  0  0  0  0           0  0  0
    0.6417   -0.7542    0.0000 C   0  0  0  0  0  0           0  0  0
    5.1000    0.3333    0.0000 C   0  0  0  0  0  0           0  0  0
    5.7917   -0.1125    0.0000 C   0  0  0  0  0  0           0  0  0
    0.2667   -0.0250    0.0000 C   0  0  0  0  0  0           0  0  0
    1.5375    0.6333    0.0000 C   0  0  0  0  0  0           0  0  0
    0.7125    0.6750    0.0000 C   0  0  0  0  0  0           0  0  0
  2  1  1  0     0  0
  3  1  1  0     0  0
  4  1  1  0     0  0
  5  4  1  0     0  0
  6  5  3  0     0  0
  7 13  1  0     0  0
  8  2  1  0     0  0
  9  3  1  0     0  0
 10  3  2  0     0  0
 11  2  2  0     0  0
 12  4  1  0     0  0
 13  6  1  0     0  0
 14  7  1  0     0  0
 15  7  1  0     0  0
 16 12  2  0     0  0
 17 12  1  0     0  0
 18 15  1  0     0  0
 19 14  1  0     0  0
 20 17  2  0     0  0
 21 16  1  0     0  0
 22 20  1  0     0  0
  9  8  1  0     0  0
 21 22  2  0     0  0
 19 18  1  0     0  0
M  END