
  SciTegic12231509382D

 19 19  0  0  1  0            999 V2000
   10.3098  -14.8333    0.0000 O   0  0
   11.7388  -15.6583    0.0000 O   0  0
    6.0230  -13.1833    0.0000 O   0  0
   13.1677  -14.8333    0.0000 N   0  0
    9.5954  -14.4208    0.0000 C   0  0
    8.1664  -13.5958    0.0000 C   0  0
    9.5954  -13.5958    0.0000 C   0  0
    8.8809  -14.8333    0.0000 C   0  0
    8.8809  -13.1833    0.0000 C   0  0
    8.1664  -14.4208    0.0000 C   0  0
    7.4519  -13.1833    0.0000 C   0  0
   11.0243  -14.4208    0.0000 C   0  0
   11.7388  -14.8333    0.0000 C   0  0  1  0  0  0
    6.7375  -13.5958    0.0000 C   0  0
   12.4532  -14.4208    0.0000 C   0  0
   13.8822  -14.4208    0.0000 C   0  0
    5.3085  -13.5958    0.0000 C   0  0
   14.5966  -14.8333    0.0000 C   0  0
   13.8822  -13.5958    0.0000 C   0  0
  1  5  1  0
  1 12  1  0
 13  2  1  1
  3 14  1  0
  3 17  1  0
  4 15  1  0
  4 16  1  0
  5  7  2  0
  5  8  1  0
  6  9  2  0
  6 10  1  0
  6 11  1  0
  7  9  1  0
  8 10  2  0
 11 14  1  0
 12 13  1  0
 13 15  1  0
 16 18  1  0
 16 19  1  0
M  END