
  SciTegic11201309402D

 55 59  0  0  1  0            999 V2000
    1.8542   -3.3500    0.0000 C   0  0
   -0.9833   -0.2542    0.0000 N   0  0
    2.5667   -3.7667    0.0000 N   0  0
    3.3042   -1.0875    0.0000 N   0  0
    3.8917   -1.6667    0.0000 C   0  0
    1.1417   -3.7542    0.0000 C   0  0  2  0  0  0
    3.2875   -3.3625    0.0000 C   0  0
    3.3042   -0.2625    0.0000 C   0  0  2  0  0  0
   -2.4375   -4.9542    0.0000 C   0  0
    2.5917    0.1500    0.0000 C   0  0
   -1.7333    0.0833    0.0000 C   0  0
    1.8792   -0.2542    0.0000 N   0  0
   -0.9833   -1.0792    0.0000 C   0  0
   -2.2833   -0.5292    0.0000 C   0  0
    4.0250    0.1500    0.0000 C   0  0
    0.4292   -3.3375    0.0000 C   0  0  1  0  0  0
   -2.4458   -5.7792    0.0000 C   0  0
   -3.1500   -4.5375    0.0000 C   0  0
   -1.8708   -1.2417    0.0000 C   0  0
    4.7375   -0.2667    0.0000 C   0  0
   -0.2625    0.1583    0.0000 C   0  0
    1.5417   -5.2917    0.0000 C   0  0
    1.1292   -4.5792    0.0000 C   0  0
   -1.7208   -4.5500    0.0000 C   0  0
   -1.9875    0.8708    0.0000 C   0  0
   -0.2875   -3.7417    0.0000 C   0  0
    1.8667   -2.5250    0.0000 O   0  0
    0.4375   -2.5125    0.0000 C   0  0
    4.7167   -1.6667    0.0000 O   0  0
   -3.0958   -0.3625    0.0000 C   0  0
    2.5917    0.9750    0.0000 O   0  0
    0.0292   -1.7917    0.0000 C   0  0
   -3.1458   -3.7125    0.0000 O   0  0
   -1.7333   -6.2000    0.0000 O   0  0
    4.7375   -1.0917    0.0000 O   0  0
    2.3667   -5.2917    0.0000 O   0  0
   -1.0083   -4.9667    0.0000 C   0  0
   -1.7125   -3.7167    0.0000 C   0  0
    0.4500   -0.2542    0.0000 C   0  0  1  0  0  0
   -0.2958   -4.5667    0.0000 C   0  0
   -0.9958   -3.3167    0.0000 C   0  0
    1.1667    0.1583    0.0000 C   0  0
    5.4542    0.1458    0.0000 N   0  0
   -3.1625   -6.1875    0.0000 O   0  0
   -3.8708   -4.9417    0.0000 O   0  0
   -2.7958    1.0375    0.0000 C   0  0
   -3.3458    0.4250    0.0000 C   0  0
    1.1250   -6.0042    0.0000 O   0  0
    3.9917   -2.9417    0.0000 C   0  0
    3.2875   -4.1875    0.0000 C   0  0
    0.4500   -1.0792    0.0000 C   0  0
   -4.1583    0.5958    0.0000 C   0  0
    3.9917   -4.5917    0.0000 C   0  0
    4.7042   -3.3625    0.0000 C   0  0
    4.7042   -4.1875    0.0000 C   0  0
  2 21  1  0
  3  1  1  0
  4  5  1  0
  5  7  1  0
  6  1  1  0
  7  3  1  0
  8  4  1  0
  9 24  1  0
 10  8  1  0
 11  2  1  0
 12 10  1  0
 13  2  1  0
 14 11  2  0
  8 15  1  6
 16  6  1  0
 17  9  1  0
 18  9  1  0
 19 13  2  0
 20 15  1  0
 39 21  1  1
 22 23  1  0
  6 23  1  1
 24 38  2  0
 25 11  1  0
 16 26  1  1
 27  1  2  0
 16 28  1  0
 29  5  2  0
 30 14  1  0
 31 10  2  0
 32 28  2  0
 33 18  2  0
 34 17  2  0
 35 20  2  0
 36 22  2  0
 37 40  2  0
 38 41  1  0
 39 51  1  0
 40 26  1  0
 41 26  2  0
 42 39  1  0
 43 20  1  0
 44 17  1  0
 45 18  1  0
 46 25  2  0
 47 46  1  0
 48 22  1  0
 49  7  1  0
 50  7  1  0
 51 32  1  0
 52 47  1  0
 53 50  1  0
 54 49  1  0
 55 53  1  0
 24 37  1  0
 55 54  1  0
 12 42  1  0
 19 14  1  0
 47 30  2  0
M  END