
  SciTegic06051313522D

 39 43  0  0  0  0            999 V2000
   19.3805   -9.7343    0.0000 C   0  0
   20.2074   -9.7601    0.0000 C   0  0
   19.7348  -11.5563    0.0000 C   0  0
   19.0227  -11.1759    0.0000 C   0  0
   18.8443  -10.3886    0.0000 C   0  0
   18.0746  -10.1509    0.0000 C   0  0
   17.4827  -10.6996    0.0000 C   0  0
   17.6657  -11.4892    0.0000 C   0  0
   18.4351  -11.7231    0.0000 C   0  0
   20.6893  -10.4244    0.0000 C   0  0
   20.4610  -11.2500    0.0000 C   0  0
   21.0612  -11.8583    0.0000 C   0  0
   21.8899  -11.6423    0.0000 C   0  0
   22.1150  -10.8125    0.0000 C   0  0
   21.5131  -10.2077    0.0000 C   0  0
   19.6970  -12.3805    0.0000 O   0  0
   22.9125  -10.6011    0.0000 N   0  0
   17.0629  -12.0525    0.0000 O   0  0
   16.2736  -11.8122    0.0000 C   0  0
   23.4943  -11.1862    0.0000 C   0  0
   23.2752  -11.9806    0.0000 C   0  0
   23.8562  -12.5653    0.0000 C   0  0
   24.6547  -12.3542    0.0000 C   0  0
   24.8690  -11.5531    0.0000 C   0  0
   24.2865  -10.9717    0.0000 C   0  0
   25.2373  -12.9385    0.0000 F   0  0
   25.6657  -11.3389    0.0000 N   0  0
   26.2496  -11.9218    0.0000 C   0  0
   27.0464  -11.7076    0.0000 C   0  0
   26.0367  -12.7190    0.0000 O   0  0
   27.6282  -12.2905    0.0000 C   0  0
   28.4243  -12.0769    0.0000 C   0  0
   28.6379  -11.2791    0.0000 C   0  0
   28.0491  -10.6950    0.0000 C   0  0
   27.2552  -10.9117    0.0000 C   0  0
   15.6709  -12.3757    0.0000 C   0  0  2  0  0  0
   14.8589  -12.2233    0.0000 C   0  0
   14.4597  -12.9453    0.0000 O   0  0
   15.7704  -13.1985    0.0000 O   0  0
  1  5  1  0
  1  2  1  0
 11  3  1  0
  3  4  1  0
  2 10  1  0
  4  5  2  0
  5  6  1  0
  6  7  2  0
  7  8  1  0
  8  9  2  0
  9  4  1  0
 10 11  2  0
 11 12  1  0
 12 13  2  0
 13 14  1  0
 14 15  2  0
 15 10  1  0
  3 16  2  0
 14 17  1  0
  8 18  1  0
 18 19  1  0
 17 20  1  0
 20 21  2  0
 21 22  1  0
 22 23  2  0
 23 24  1  0
 24 25  2  0
 25 20  1  0
 23 26  1  0
 24 27  1  0
 27 28  1  0
 28 29  1  0
 28 30  2  0
 29 31  2  0
 31 32  1  0
 32 33  2  0
 33 34  1  0
 34 35  2  0
 35 29  1  0
 19 36  1  0
 36 37  1  0
 37 38  1  0
 36 39  1  1
M  END