
  SciTegic01161211252D

 38 43  0  0  0  0            999 V2000
   15.8928   -9.3309    0.0000 N   0  0
   17.3192   -9.3381    0.0000 C   0  0
   16.6078   -8.9207    0.0000 C   0  0
   14.5189   -7.6377    0.0000 C   0  0
   15.2196   -8.0737    0.0000 C   0  0
   15.1959   -8.9005    0.0000 C   0  0
   18.0542   -8.9822    0.0000 C   0  0
   18.7549   -9.4141    0.0000 N   0  0
   18.0736   -8.1554    0.0000 O   0  0
   18.7269  -10.2373    0.0000 C   0  0
   19.4236  -10.6729    0.0000 C   0  0
   20.1501  -10.2815    0.0000 N   0  0
   20.1799   -9.4537    0.0000 C   0  0
   19.4748   -9.0174    0.0000 C   0  0
   20.8463  -10.7193    0.0000 C   0  0
   15.9439   -7.6786    0.0000 C   0  0
   13.7946   -8.0328    0.0000 C   0  0
   13.0932   -7.5946    0.0000 C   0  0
   13.0511   -9.2485    0.0000 C   0  0
   13.7762   -8.8559    0.0000 C   0  0
   15.8886  -10.1582    0.0000 C   0  0
   17.3150  -10.1654    0.0000 C   0  0
   16.5968  -10.5765    0.0000 C   0  0
   16.5923  -11.3981    0.0000 C   0  0
   17.3043  -11.8146    0.0000 C   0  0
   18.0227  -11.4076    0.0000 C   0  0
   18.0288  -10.5798    0.0000 C   0  0
   12.3483   -8.8229    0.0000 C   0  0
   12.3687   -7.9909    0.0000 C   0  0
   11.5837   -7.7144    0.0000 O   0  0
   11.0781   -8.3755    0.0000 C   0  0
   11.5507   -9.0604    0.0000 O   0  0
   20.8115  -11.5392    0.0000 C   0  0
   21.5067  -11.9768    0.0000 C   0  0
   22.2350  -11.5928    0.0000 C   0  0
   22.2635  -10.7667    0.0000 C   0  0
   21.5675  -10.3327    0.0000 N   0  0
   22.9342  -12.0312    0.0000 Cl  0  0
 19 20  2  0
 20 17  1  0
  6  1  1  0
  8 14  1  0
 23 21  1  0
 10 11  1  0
 11 12  1  0
 22 23  1  0
 12 13  1  0
 13 14  1  0
 22  2  1  0
  2  7  1  0
  2  3  1  0
 22 27  1  0
 23 24  1  0
 24 25  1  0
 25 26  1  0
 26 27  1  0
  7  8  1  0
  1 21  1  0
  7  9  2  0
 28 29  2  0
 12 15  1  0
  8 10  1  0
  5 16  1  0
  4 17  1  0
 29 30  1  0
 30 31  1  0
 31 32  1  0
 32 28  1  0
  4  5  1  0
 15 33  2  0
 17 18  2  0
 33 34  1  0
 18 29  1  0
 34 35  2  0
  1  3  1  0
 35 36  1  0
 28 19  1  0
 36 37  2  0
 37 15  1  0
  5  6  1  0
 35 38  1  0
M  END