
  SciTegic12231509382D

108114  0  0  0  0            999 V2000
   17.6771   -4.3720    0.0000 N   0  0
   18.1652   -5.0056    0.0000 C   0  0  2  0  0  0
   19.1871   -3.9802    0.0000 O   0  0
   18.9470   -4.7673    0.0000 C   0  0
   17.9251   -5.8046    0.0000 C   0  0
   18.4869   -6.3989    0.0000 S   0  0
   19.5297   -5.3501    0.0000 O   0  0
   13.8156   -4.3220    0.0000 N   0  0
   14.2966   -4.9630    0.0000 C   0  0  2  0  0  0
   15.3212   -3.9287    0.0000 O   0  0
   15.0811   -4.7158    0.0000 C   0  0
   14.0592   -5.7532    0.0000 C   0  0
   15.6664   -5.2959    0.0000 N   0  0
   11.7349   -4.1144    0.0000 N   0  0
   12.4886   -3.8499    0.0000 C   0  0  2  0  0  0
   12.7733   -5.2734    0.0000 O   0  0
   13.0076   -4.4844    0.0000 C   0  0
   12.7267   -3.0598    0.0000 C   0  0
   13.5246   -2.8699    0.0000 C   0  0
   13.7611   -2.0852    0.0000 C   0  0
   14.0889   -3.4704    0.0000 C   0  0
   15.5428   -6.1066    0.0000 C   0  0
   16.2788   -6.4775    0.0000 C   0  0
   16.8589   -5.8920    0.0000 C   0  0
   16.4813   -5.1595    0.0000 C   0  0  1  0  0  0
   16.8505   -4.4228    0.0000 C   0  0
   16.3970   -3.7346    0.0000 O   0  0
   14.4423   -6.4829    0.0000 C   0  0
   15.2670   -6.5132    0.0000 C   0  0
   15.6502   -7.2420    0.0000 C   0  0
   15.2097   -7.9397    0.0000 C   0  0
   14.3820   -7.9039    0.0000 C   0  0
   14.0027   -7.1746    0.0000 C   0  0
   15.5919   -8.6699    0.0000 O   0  0
    9.9078   -1.8797    0.0000 C   0  0
   10.6921   -0.8012    0.0000 C   0  0
    9.9083   -1.0555    0.0000 C   0  0  1  0  0  0
   11.1763   -1.4683    0.0000 C   0  0
   10.6915   -2.1347    0.0000 N   0  0
   11.1763   -2.8009    0.0000 C   0  0  2  0  0  0
   11.9595   -2.5475    0.0000 C   0  0
   11.9599   -1.7234    0.0000 S   0  0
    9.2418   -0.5708    0.0000 N   0  0
    9.2408   -2.3638    0.0000 O   0  0
   11.0764   -3.6190    0.0000 C   0  0
   10.3181   -3.9415    0.0000 O   0  0
    7.1716   -0.9724    0.0000 N   0  0
    7.8262   -0.4972    0.0000 C   0  0  2  0  0  0
    8.5183   -1.7920    0.0000 O   0  0
    8.5153   -0.9598    0.0000 C   0  0
    7.8265    0.3371    0.0000 C   0  0
    2.9549   -0.9724    0.0000 N   0  0
    3.6048   -0.4972    0.0000 C   0  0
    4.2925   -1.7874    0.0000 O   0  0
    4.2894   -0.9598    0.0000 C   0  0
    5.0165   -0.5719    0.0000 N   0  0
    0.8933   -0.5719    0.0000 N   0  0
    1.5433   -1.0472    0.0000 C   0  0  2  0  0  0
    2.2308    0.2431    0.0000 O   0  0
    2.2278   -0.5845    0.0000 C   0  0
    1.5436   -1.8768    0.0000 C   0  0  2  0  0  0
    2.2575   -2.2886    0.0000 O   0  0
    0.8301   -2.2892    0.0000 C   0  0
    5.7601   -1.0472    0.0000 C   0  0  2  0  0  0
    6.4476    0.2431    0.0000 O   0  0
    6.4445   -0.5845    0.0000 C   0  0
    5.7604   -1.8768    0.0000 C   0  0
    6.4863   -3.1145    0.0000 N   0  0
    7.2726   -3.3612    0.0000 C   0  0
    7.7501   -2.6895    0.0000 N   0  0
    7.2590   -2.0278    0.0000 C   0  0
    6.4778   -2.2904    0.0000 C   0  0
   -3.3215   -0.6004    0.0000 N   0  0
   -2.6716   -1.0755    0.0000 C   0  0  2  0  0  0
   -1.9794    0.2192    0.0000 O   0  0
   -1.9825   -0.6129    0.0000 C   0  0
   -2.6712   -1.9099    0.0000 C   0  0
   -1.9537   -3.1579    0.0000 C   0  0
   -1.9537   -2.3292    0.0000 C   0  0
   -1.2354   -1.9125    0.0000 C   0  0
   -0.5171   -2.3292    0.0000 C   0  0
   -0.5171   -3.1579    0.0000 C   0  0
   -1.2354   -3.5700    0.0000 C   0  0
   -1.2508   -1.0008    0.0000 N   0  0
   -3.3093    1.9426    0.0000 N   0  0
   -5.3969   -1.0008    0.0000 N   0  0
   -4.7423   -0.5211    0.0000 C   0  0  2  0  0  0
   -4.0502   -1.8203    0.0000 O   0  0
   -4.0532   -0.9883    0.0000 C   0  0
   -4.7420    0.3133    0.0000 C   0  0
   -4.0236    0.7250    0.0000 C   0  0
   -4.0232    1.5537    0.0000 C   0  0
   -3.2870    2.7710    0.0000 C   0  0
   -2.5624    3.1635    0.0000 N   0  0
   -3.9939    3.2022    0.0000 N   0  0
    0.1783   -0.9904    0.0000 C   0  0
   -0.5396   -0.5785    0.0000 C   0  0  1  0  0  0
   -0.5467    0.2495    0.0000 C   0  0
   -1.3747    0.2426    0.0000 C   0  0
   -0.5496    1.0799    0.0000 C   0  0
    0.2837    0.2526    0.0000 S   0  0
    0.1854   -1.8184    0.0000 O   0  0
    8.5404    0.7489    0.0000 C   0  0
    9.2511    0.3332    0.0000 C   0  0
    9.9646    0.7443    0.0000 C   0  0
    9.9654    1.5693    0.0000 C   0  0
    9.2469    1.9815    0.0000 C   0  0
    8.5364    1.5680    0.0000 C   0  0
 52 53  1  0
 53 55  1  0
 55 54  2  0
 26 27  2  0
  4  7  1  0
 55 56  1  0
 12 28  1  0
  4  3  2  0
 28 29  2  0
 58 57  1  6
 58 60  1  0
 60 59  2  0
 58 61  1  0
 14 15  1  0
 29 30  1  0
 15 17  1  0
 61 62  1  6
 30 31  2  0
 61 63  1  0
 60 52  1  0
 17 16  2  0
 31 32  1  0
 56 64  1  0
 64 66  1  0
 66 65  2  0
 64 67  1  6
 15 18  1  1
 32 33  2  0
 67 72  1  0
 33 28  1  0
  2  5  1  6
 68 69  1  0
 31 34  1  0
 69 70  2  0
 35 39  1  0
 70 71  1  0
 71 72  2  0
 72 68  1  0
 66 47  1  0
  8  9  1  0
 18 19  1  0
 38 36  1  0
 73 74  1  0
 74 76  1  0
 76 75  2  0
 74 77  1  6
 36 37  1  0
 37 35  1  0
 77 79  1  0
 38 39  1  0
  9 11  1  0
 78 79  2  0
 19 20  1  0
 79 80  1  0
 11 10  2  0
 80 81  2  0
 19 21  1  0
 81 82  1  0
 17  8  1  0
 82 83  2  0
 83 78  1  0
 39 40  1  0
 76 84  1  0
 40 41  1  0
 41 42  1  0
 42 38  1  0
 13 22  1  0
 86 87  1  0
 87 89  1  0
 89 88  2  0
 87 90  1  1
 37 43  1  6
  9 12  1  6
 35 44  2  0
 90 91  1  0
 91 92  1  0
 92 85  1  0
 89 73  1  0
 85 93  1  0
  1  2  1  0
 93 94  2  0
 40 45  1  6
 93 95  1  0
  5  6  1  0
 45 46  2  0
 45 14  1  0
 22 23  1  0
 23 24  1  0
 24 25  1  0
 47 48  1  0
 97 84  1  6
 96 97  1  0
 97 98  1  0
 98 99  1  0
 98100  1  0
 98101  1  0
 96102  2  0
 96 57  1  0
 48 50  1  0
 51103  1  0
 50 49  2  0
103104  2  0
 48 51  1  1
104105  1  0
 25 13  1  0
105106  2  0
 11 13  1  0
106107  1  0
 25 26  1  6
107108  2  0
108103  1  0
 50 43  1  0
 26  1  1  0
  2  4  1  0
M  END