
  Mrv0541 04051115152D          

 16 17  0  0  0  0            999 V2000
   19.4603   26.3603    0.0000 C   0  0  0  0  0  0  0  0  0  0  0  0
   19.4603   27.1853    0.0000 C   0  0  0  0  0  0  0  0  0  0  0  0
   18.0313   27.1853    0.0000 C   0  0  0  0  0  0  0  0  0  0  0  0
   18.0313   26.3603    0.0000 C   0  0  0  0  0  0  0  0  0  0  0  0
   18.7458   25.9478    0.0000 C   0  0  0  0  0  0  0  0  0  0  0  0
   18.7458   27.5978    0.0000 C   0  0  0  0  0  0  0  0  0  0  0  0
   19.4603   28.8353    0.0000 O   0  0  0  0  0  0  0  0  0  0  0  0
   18.7458   28.4228    0.0000 C   0  0  0  0  0  0  0  0  0  0  0  0
   18.0313   28.8353    0.0000 C   0  0  0  0  0  0  0  0  0  0  0  0
   18.0313   29.6603    0.0000 C   0  0  0  0  0  0  0  0  0  0  0  0
   17.3168   30.0728    0.0000 C   0  0  0  0  0  0  0  0  0  0  0  0
   16.6024   29.6603    0.0000 C   0  0  0  0  0  0  0  0  0  0  0  0
   16.6024   28.8353    0.0000 C   0  0  0  0  0  0  0  0  0  0  0  0
   17.3168   28.4228    0.0000 C   0  0  0  0  0  0  0  0  0  0  0  0
   18.7458   25.1228    0.0000 O   0  0  0  0  0  0  0  0  0  0  0  0
   15.8879   30.0728    0.0000 O   0  0  0  0  0  0  0  0  0  0  0  0
  4  5  2  0  0  0  0
  4  3  1  0  0  0  0
  2  1  2  0  0  0  0
  6  2  1  0  0  0  0
  1  5  1  0  0  0  0
  5 15  1  0  0  0  0
  8  7  2  0  0  0  0
  8  6  1  0  0  0  0
  8  9  1  0  0  0  0
  3  6  2  0  0  0  0
  9 14  2  0  0  0  0
  9 10  1  0  0  0  0
 14 13  1  0  0  0  0
 13 12  2  0  0  0  0
 12 11  1  0  0  0  0
 12 16  1  0  0  0  0
 11 10  2  0  0  0  0
M  END