
          11280714522D 1   1.00000     0.00000     0

 10 10  0     0  0            999 V2000
    3.7000   -0.2542    0.0000 S   0  0  3  0  0  0           0  0  0
    3.1792   -0.5625    0.0000 C   0  0  3  0  0  0           0  0  0
    3.2750    0.4375    0.0000 O   0  0  0  0  0  0           0  0  0
    4.0875   -0.9667    0.0000 O   0  0  0  0  0  0           0  0  0
    2.1500   -1.1625    0.0000 N   0  0  0  0  0  0           0  0  0
    4.3042   -0.0292    0.0000 O   0  0  0  0  0  0           0  0  0
    3.1792   -1.1625    0.0000 C   0  0  0  0  0  0           0  0  0
    2.6625   -0.2625    0.0000 C   0  0  0  0  0  0           0  0  0
    2.6625   -1.4625    0.0000 C   0  0  0  0  0  0           0  0  0
    2.1500   -0.5625    0.0000 C   0  0  0  0  0  0           0  0  0
  2  1  1  0     0  0
  3  1  2  0     0  0
  4  1  2  0     0  0
  5 10  1  0     0  0
  6  1  1  0     0  0
  7  2  1  0     0  0
  8  2  1  0     0  0
  9  7  1  0     0  0
 10  8  1  0     0  0
  9  5  1  0     0  0
M  END