
  SciTegic01091216402D

 23 24  0  0  0  0            999 V2000
    0.0623   -3.3199    0.0000 N   0  0
    0.0809   -4.1462    0.0000 N   0  0
    0.8694   -4.3795    0.0000 C   0  0
    1.3392   -3.6998    0.0000 C   0  0
    0.8378   -3.0456    0.0000 C   0  0
   -0.6170   -2.8498    0.0000 C   0  0
   -1.3345   -3.2570    0.0000 N   0  0
   -0.6096   -2.0272    0.0000 N   0  0
    2.1655   -3.6813    0.0000 C   0  0
    2.5930   -4.3840    0.0000 C   0  0
    0.1079   -1.6199    0.0000 C   0  0
    0.8179   -2.0352    0.0000 C   0  0
   -2.0452   -2.8405    0.0000 S   0  0
   -1.6292   -2.1317    0.0000 O   0  0
   -2.7476   -3.2755    0.0000 C   0  0
   -2.7215   -4.1001    0.0000 C   0  0
   -3.4239   -4.5350    0.0000 C   0  0
   -4.1525   -4.1454    0.0000 C   0  0
   -4.1786   -3.3208    0.0000 C   0  0
   -3.4762   -2.8859    0.0000 C   0  0
   -2.6333   -2.2500    0.0000 O   0  0
   -4.9056   -2.9308    0.0000 O   0  0
   -4.9314   -2.1062    0.0000 C   0  0
  3  4  1  0
  4  5  1  0
  1  5  1  0
  6  7  2  0
  6  8  1  0
  1  6  1  0
  9 10  1  0
  4  9  1  0
 11 12  1  0
  8 11  1  0
 13 14  2  0
 15 16  1  0
 16 17  2  0
 17 18  1  0
 18 19  2  0
 19 20  1  0
 15 20  2  0
 13 15  1  0
  7 13  1  0
 13 21  2  0
  1  2  1  0
 19 22  1  0
  2  3  2  0
 22 23  1  0
M  END