
  SciTegic02271217242D

 41 44  0  0  0  0            999 V2000
   -0.6264   -6.6458    0.0000 C   0  0
   -0.6276   -7.4732    0.0000 C   0  0
    0.0872   -7.8860    0.0000 C   0  0
    0.8037   -7.4727    0.0000 C   0  0
    0.8008   -6.6422    0.0000 C   0  0
    0.0854   -6.2330    0.0000 C   0  0
    1.5137   -6.2270    0.0000 O   0  0
    2.2297   -6.6368    0.0000 C   0  0
    2.2295   -7.4594    0.0000 C   0  0
    2.9447   -7.8692    0.0000 C   0  0
    3.6586   -7.4539    0.0000 C   0  0
    3.6528   -6.6247    0.0000 C   0  0
    2.9370   -6.2187    0.0000 C   0  0
    4.3751   -7.8628    0.0000 Cl  0  0
    2.9297   -5.3937    0.0000 N   0  0
    3.6404   -4.9748    0.0000 S   0  0
    4.3585   -5.3809    0.0000 C   0  0
    3.2208   -4.2542    0.0000 O   0  0
    4.0458   -4.2542    0.0000 O   0  0
    4.3629   -6.2052    0.0000 C   0  0
    5.0802   -6.6113    0.0000 C   0  0
    5.7920   -6.1923    0.0000 C   0  0
    5.7819   -5.3631    0.0000 C   0  0
    5.0640   -4.9608    0.0000 C   0  0
    6.5106   -6.5974    0.0000 Cl  0  0
   -1.3424   -7.8851    0.0000 C   0  0
   -2.0565   -7.4720    0.0000 N   0  0
   -1.3430   -8.7101    0.0000 O   0  0
   -2.0559   -6.6470    0.0000 C   0  0
   -2.7700   -6.2340    0.0000 C   0  0
   -3.4848   -6.6459    0.0000 N   0  0
   -4.2012   -6.2258    0.0000 C   0  0
   -4.9139   -6.6343    0.0000 C   0  0
   -4.9188   -7.4596    0.0000 C   0  0
   -4.2048   -7.8749    0.0000 C   0  0
   -3.4859   -7.4648    0.0000 C   0  0
    6.4912   -4.9417    0.0000 C   0  0
    7.2107   -5.3453    0.0000 F   0  0
    6.4809   -4.1168    0.0000 F   0  0
    7.2000   -4.5250    0.0000 F   0  0
    1.5188   -7.8841    0.0000 C   0  0
 17 20  2  0
  9 10  1  0
 20 21  1  0
  2  3  1  0
 21 22  2  0
 10 11  2  0
 22 23  1  0
  5  6  2  0
 23 24  2  0
 24 17  1  0
 11 12  1  0
 22 25  1  0
  6  1  1  0
  2 26  1  0
 12 13  2  0
 26 27  1  0
 13  8  1  0
 26 28  2  0
  1  2  2  0
 27 29  1  0
 11 14  1  0
 29 30  1  0
  5  7  1  0
 30 31  1  0
 31 32  1  0
 13 15  1  0
  3  4  2  0
 15 16  1  0
  7  8  1  0
 16 17  1  0
 31 36  1  0
 32 33  1  0
 33 34  1  0
 34 35  1  0
 35 36  1  0
 23 37  1  0
 16 18  2  0
 37 38  1  0
  8  9  2  0
 37 39  1  0
 16 19  2  0
 37 40  1  0
  4  5  1  0
  4 41  1  0
M  END