
          11280715202D 1   1.00000     0.00000     0

 31 31  0     0  0            999 V2000
   -0.2708   -4.4667    0.0000 N   0  0  0  0  0  0           0  0  0
   -0.6833   -5.7417    0.0000 N   0  0  0  0  0  0           0  0  0
   -0.9375   -4.9542    0.0000 C   0  0  0  0  0  0           0  0  0
    0.3917   -4.9542    0.0000 C   0  0  0  0  0  0           0  0  0
   11.6917   -2.0417    0.0000 C   0  0  0  0  0  0           0  0  0
   11.6792   -3.6917    0.0000 C   0  0  0  0  0  0           0  0  0
   10.9792   -2.4542    0.0000 C   0  0  0  0  0  0           0  0  0
   10.9750   -3.2792    0.0000 C   0  0  0  0  0  0           0  0  0
    6.3292   -4.5375    0.0000 C   0  0  0  0  0  0           0  0  0
    6.9417   -5.0917    0.0000 N   0  0  0  0  0  0           0  0  0
    5.5417   -4.7917    0.0000 C   0  0  0  0  0  0           0  0  0
    0.1417   -5.7417    0.0000 C   0  0  0  0  0  0           0  0  0
   11.6917   -1.2167    0.0000 O   0  0  0  0  0  0           0  0  0
   11.6792   -4.5167    0.0000 O   0  0  0  0  0  0           0  0  0
    5.3667   -5.6000    0.0000 C   0  0  0  0  0  0           0  0  0
    4.9250   -4.2375    0.0000 C   0  0  0  0  0  0           0  0  0
    3.9750   -5.3000    0.0000 C   0  0  0  0  0  0           0  0  0
   12.4000   -3.2792    0.0000 O   0  0  0  0  0  0           0  0  0
   12.4042   -2.4542    0.0000 O   0  0  0  0  0  0           0  0  0
    7.7250   -4.8292    0.0000 O   0  0  0  0  0  0           0  0  0
    4.1417   -4.4917    0.0000 C   0  0  0  0  0  0           0  0  0
    4.5875   -5.8542    0.0000 C   0  0  0  0  0  0           0  0  0
    3.1917   -5.5542    0.0000 O   0  0  0  0  0  0           0  0  0
    1.1792   -4.7000    0.0000 C   0  0  0  0  0  0           0  0  0
    6.5000   -3.7292    0.0000 C   0  0  0  0  0  0           0  0  0
    2.5792   -5.0000    0.0000 C   0  0  0  0  0  0           0  0  0
    1.7917   -5.2542    0.0000 C   0  0  0  0  0  0           0  0  0
    5.8875   -3.1792    0.0000 C   0  0  0  0  0  0           0  0  0
    5.4417   -1.8167    0.0000 C   0  0  0  0  0  0           0  0  0
    6.0542   -2.3667    0.0000 C   0  0  0  0  0  0           0  0  0
    5.6167   -1.0125    0.0000 C   0  0  0  0  0  0           0  0  0
  2  3  1  0     0  0
  3  1  2  0     0  0
  4  1  1  0     0  0
  6  8  1  0     0  0
  7  5  1  0     0  0
  8  7  2  0     0  0
  9 11  1  0     0  0
 10  9  2  0     0  0
 11 15  2  0     0  0
 12  4  2  0     0  0
 13  5  2  0     0  0
 14  6  2  0     0  0
 15 22  1  0     0  0
 16 21  2  0     0  0
 17 23  1  0     0  0
 18  6  1  0     0  0
 19  5  1  0     0  0
 20 10  1  0     0  0
 21 17  1  0     0  0
 22 17  2  0     0  0
 23 26  1  0     0  0
 24  4  1  0     0  0
 25  9  1  0     0  0
 26 27  1  0     0  0
 27 24  1  0     0  0
 28 25  1  0     0  0
 29 30  1  0     0  0
 30 28  1  0     0  0
 31 29  1  0     0  0
 12  2  1  0     0  0
 16 11  1  0     0  0
M  END