
          11280715092D 1   1.00000     0.00000     0

 24 26  0     0  0            999 V2000
    2.7917    1.0708    0.0000 C   0  0  0  0  0  0           0  0  0
    2.6292    1.8833    0.0000 N   0  0  0  0  0  0           0  0  0
    3.6167    0.9750    0.0000 C   0  0  0  0  0  0           0  0  0
    2.0792    0.6500    0.0000 C   0  0  0  0  0  0           0  0  0
    3.3417    2.2833    0.0000 O   0  0  0  0  0  0           0  0  0
    3.9500    1.7333    0.0000 C   0  0  0  0  0  0           0  0  0
    2.0792   -0.1792    0.0000 C   0  0  0  0  0  0           0  0  0
    2.7917   -0.5917    0.0000 O   0  0  0  0  0  0           0  0  0
    4.7542    1.9083    0.0000 C   0  0  0  0  0  0           0  0  0
    2.7917   -1.4167    0.0000 C   0  0  0  0  0  0           0  0  0
    2.0667   -2.6625    0.0000 C   0  0  0  0  0  0           0  0  0
    2.0667   -1.8375    0.0000 C   0  0  0  0  0  0           0  0  0
    1.3542   -3.0750    0.0000 C   0  0  0  0  0  0           0  0  0
    1.3542    1.0625    0.0000 C   0  0  0  0  0  0           0  0  0
    1.3625   -3.8917    0.0000 O   0  0  0  0  0  0           0  0  0
    6.1167    1.4625    0.0000 O   0  0  0  0  0  0           0  0  0
    0.6417   -1.8375    0.0000 C   0  0  0  0  0  0           0  0  0
    5.3042    1.2958    0.0000 C   0  0  0  0  0  0           0  0  0
    1.3625   -0.5917    0.0000 C   0  0  0  0  0  0           0  0  0
    1.3542   -1.4250    0.0000 C   0  0  0  0  0  0           0  0  0
    0.6417   -2.6625    0.0000 C   0  0  0  0  0  0           0  0  0
    2.0667   -4.3042    0.0000 C   0  0  0  0  0  0           0  0  0
    0.6417    0.6500    0.0000 C   0  0  0  0  0  0           0  0  0
    0.6417   -0.1792    0.0000 C   0  0  0  0  0  0           0  0  0
  2  1  2  0     0  0
  3  1  1  0     0  0
  4  1  1  0     0  0
  5  2  1  0     0  0
  6  3  2  0     0  0
  7  4  1  0     0  0
  8  7  1  0     0  0
  9  6  1  0     0  0
 10  8  1  0     0  0
 11 12  1  0     0  0
 12 10  1  0     0  0
 13 11  2  0     0  0
 14  4  2  0     0  0
 15 13  1  0     0  0
 16 18  1  0     0  0
 17 20  1  0     0  0
 18  9  1  0     0  0
 19  7  2  0     0  0
 20 12  2  0     0  0
 21 17  2  0     0  0
 22 15  1  0     0  0
 23 14  1  0     0  0
 24 23  2  0     0  0
  5  6  1  0     0  0
 19 24  1  0     0  0
 13 21  1  0     0  0
M  END