
  CDK    9/16/09,9:52

 20 23  0  0  0  0  0  0  0  0999 V2000
    5.8083  -11.5875    0.0000 C   0  0  0  0  0  0  0  0  0  0  0  0
    5.8083  -12.4125    0.0000 C   0  0  0  0  0  0  0  0  0  0  0  0
    6.5204  -12.8208    0.0000 C   0  0  0  0  0  0  0  0  0  0  0  0
    6.5204  -11.1708    0.0000 C   0  0  0  0  0  0  0  0  0  0  0  0
    7.2324  -11.5875    0.0000 C   0  0  0  0  0  0  0  0  0  0  0  0
    7.2369  -12.4089    0.0000 C   0  0  0  0  0  0  0  0  0  0  0  0
    8.0195  -12.6585    0.0000 N   0  0  0  0  0  0  0  0  0  0  0  0
    8.4987  -11.9913    0.0000 C   0  0  0  0  0  0  0  0  0  0  0  0
    8.0122  -11.3294    0.0000 N   0  0  0  0  0  0  0  0  0  0  0  0
    9.3237  -11.9867    0.0000 N   0  0  0  0  0  0  0  0  0  0  0  0
    9.7402  -12.6989    0.0000 C   0  0  0  0  0  0  0  0  0  0  0  0
    9.3286  -13.4111    0.0000 C   0  0  0  0  0  0  0  0  0  0  0  0
    9.7415  -14.1212    0.0000 C   0  0  0  0  0  0  0  0  0  0  0  0
   10.5668  -14.1209    0.0000 C   0  0  0  0  0  0  0  0  0  0  0  0
   10.5630  -12.6880    0.0000 C   0  0  0  0  0  0  0  0  0  0  0  0
   10.9751  -13.4056    0.0000 C   0  0  0  0  0  0  0  0  0  0  0  0
   11.7980  -13.4075    0.0000 C   0  0  0  0  0  0  0  0  0  0  0  0
   12.2150  -12.6935    0.0000 C   0  0  0  0  0  0  0  0  0  0  0  0
   11.8030  -11.9759    0.0000 C   0  0  0  0  0  0  0  0  0  0  0  0
   10.9738  -11.9723    0.0000 C   0  0  0  0  0  0  0  0  0  0  0  0
  5  4  2  0  0  0  0 
  8 10  1  0  0  0  0 
  5  6  1  0  0  0  0 
 11 10  1  1  0  0  0 
 11 12  1  0  0  0  0 
  1  2  2  0  0  0  0 
  1  4  1  0  0  0  0 
 11 15  1  0  0  0  0 
 12 13  1  0  0  0  0 
 13 14  1  0  0  0  0 
 14 16  1  0  0  0  0 
 15 16  2  0  0  0  0 
  2  3  1  0  0  0  0 
  3  6  2  0  0  0  0 
  6  7  1  0  0  0  0 
  7  8  1  0  0  0  0 
  8  9  2  0  0  0  0 
  9  5  1  0  0  0  0 
 15 20  1  0  0  0  0 
 16 17  1  0  0  0  0 
 17 18  2  0  0  0  0 
 18 19  1  0  0  0  0 
 19 20  2  0  0  0  0 
M  END