
          11280715272D 1   1.00000     0.00000     0

 46 47  0     0  0            999 V2000
    4.7792   -4.3500    0.0000 C   0  0  0  0  0  0           0  0  0
   -0.2083   -1.9792    0.0000 C   0  0  0  0  0  0           0  0  0
    0.2542   -1.7542    0.0000 N   0  0  3  0  0  0           0  0  0
    4.4750   -3.8250    0.0000 N   0  0  3  0  0  0           0  0  0
    8.9792   -4.3542    0.0000 C   0  0  0  0  0  0           0  0  0
   -4.3458   -1.9917    0.0000 C   0  0  0  0  0  0           0  0  0
   -0.2250   -2.5792    0.0000 O   0  0  0  0  0  0           0  0  0
    4.6167   -4.9292    0.0000 O   0  0  0  0  0  0           0  0  0
    9.5000   -4.0542    0.0000 C   0  0  0  0  0  0           0  0  0
   -4.8625   -1.6917    0.0000 C   0  0  0  0  0  0           0  0  0
   -3.3083   -1.9917    0.0000 N   0  0  0  0  0  0           0  0  0
    7.9292   -4.3500    0.0000 N   0  0  0  0  0  0           0  0  0
    9.4917   -3.4542    0.0000 O   0  0  0  0  0  0           0  0  0
   -4.8708   -1.0917    0.0000 O   0  0  0  0  0  0           0  0  0
   -3.8250   -1.6917    0.0000 C   0  0  0  0  0  0           0  0  0
    8.4542   -4.0417    0.0000 C   0  0  0  0  0  0           0  0  0
   -0.7208   -1.6875    0.0000 C   0  0  0  0  0  0           0  0  0
    5.3042   -4.0417    0.0000 C   0  0  0  0  0  0           0  0  0
    3.8667   -3.8250    0.0000 C   0  0  0  0  0  0           0  0  0
    0.8542   -1.7542    0.0000 C   0  0  0  0  0  0           0  0  0
   -4.3458   -2.5917    0.0000 C   0  0  0  0  0  0           0  0  0
    8.9792   -4.9542    0.0000 C   0  0  0  0  0  0           0  0  0
    4.7792   -3.3000    0.0000 C   0  0  0  0  0  0           0  0  0
   -0.0458   -1.2375    0.0000 C   0  0  0  0  0  0           0  0  0
   -5.3833   -2.0000    0.0000 C   0  0  0  0  0  0           0  0  0
   10.0167   -4.3542    0.0000 C   0  0  0  0  0  0           0  0  0
   -2.7875   -1.6917    0.0000 C   0  0  0  0  0  0           0  0  0
    7.4042   -4.0417    0.0000 C   0  0  0  0  0  0           0  0  0
   -4.3458   -0.7917    0.0000 C   0  0  0  0  0  0           0  0  0
   10.0042   -3.1500    0.0000 C   0  0  0  0  0  0           0  0  0
    5.8292   -4.3500    0.0000 C   0  0  0  0  0  0           0  0  0
   -1.2375   -1.9875    0.0000 C   0  0  0  0  0  0           0  0  0
    1.1542   -2.2750    0.0000 C   0  0  0  0  0  0           0  0  0
    3.5667   -3.3042    0.0000 C   0  0  0  0  0  0           0  0  0
   -2.2708   -1.9917    0.0000 C   0  0  0  0  0  0           0  0  0
    6.8792   -4.3500    0.0000 C   0  0  0  0  0  0           0  0  0
    6.3542   -4.0417    0.0000 C   0  0  0  0  0  0           0  0  0
    2.0625   -2.7917    0.0000 C   0  0  0  0  0  0           0  0  0
    1.7625   -2.2750    0.0000 C   0  0  0  0  0  0           0  0  0
    2.6667   -2.7917    0.0000 C   0  0  0  0  0  0           0  0  0
   -1.7583   -1.6917    0.0000 C   0  0  0  0  0  0           0  0  0
    2.9667   -3.3042    0.0000 C   0  0  0  0  0  0           0  0  0
    9.5000   -5.2542    0.0000 C   0  0  0  0  0  0           0  0  0
   -4.8583   -2.8917    0.0000 C   0  0  0  0  0  0           0  0  0
   -5.3833   -2.6000    0.0000 C   0  0  0  0  0  0           0  0  0
   10.0167   -4.9625    0.0000 C   0  0  0  0  0  0           0  0  0
  2  3  1  0     0  0
  3 20  1  0     0  0
  4  1  1  0     0  0
  5 16  1  0     0  0
  6 15  1  0     0  0
  7  2  2  0     0  0
  8  1  2  0     0  0
  9  5  1  0     0  0
 10  6  2  0     0  0
 11 27  1  0     0  0
 12 28  1  0     0  0
 13  9  1  0     0  0
 14 10  1  0     0  0
 15 11  1  0     0  0
 16 12  1  0     0  0
 17  2  1  0     0  0
 18  1  1  0     0  0
 19  4  1  0     0  0
 20 33  1  0     0  0
 21  6  1  0     0  0
 22  5  2  0     0  0
 23  4  1  0     0  0
 24  3  1  0     0  0
 25 10  1  0     0  0
 26  9  2  0     0  0
 27 35  1  0     0  0
 28 36  1  0     0  0
 29 14  1  0     0  0
 30 13  1  0     0  0
 31 18  1  0     0  0
 32 17  1  0     0  0
 33 39  1  0     0  0
 34 19  1  0     0  0
 35 41  1  0     0  0
 36 37  1  0     0  0
 37 31  1  0     0  0
 38 40  1  0     0  0
 39 38  1  0     0  0
 40 42  1  0     0  0
 41 32  1  0     0  0
 42 34  1  0     0  0
 43 22  1  0     0  0
 44 21  2  0     0  0
 45 44  1  0     0  0
 46 43  2  0     0  0
 46 26  1  0     0  0
 25 45  2  0     0  0
M  END