
          11280715222D 1   1.00000     0.00000     0

 25 27  0     0  0            999 V2000
    2.6125   -2.3250    0.0000 C   0  0  0  0  0  0           0  0  0
    2.6125   -3.1542    0.0000 C   0  0  0  0  0  0           0  0  0
    3.3250   -1.9042    0.0000 C   0  0  0  0  0  0           0  0  0
    4.0417   -2.3250    0.0000 C   0  0  0  0  0  0           0  0  0
    3.3250   -3.5667    0.0000 C   0  0  0  0  0  0           0  0  0
    1.8875   -1.9042    0.0000 C   0  0  3  0  0  0           0  0  0
    1.8875   -3.5667    0.0000 C   0  0  3  0  0  0           0  0  0
    7.6167   -3.5667    0.0000 C   0  0  0  0  0  0           0  0  0
    4.0500   -3.1542    0.0000 C   0  0  0  0  0  0           0  0  0
    4.7625   -1.9042    0.0000 S   0  0  0  0  0  0           0  0  0
    6.9000   -3.1542    0.0000 C   0  0  0  0  0  0           0  0  0
    1.1792   -2.3250    0.0000 C   0  0  0  0  0  0           0  0  0
    1.1792   -3.1542    0.0000 C   0  0  0  0  0  0           0  0  0
    7.3917   -4.3792    0.0000 O   0  0  0  0  0  0           0  0  0
    6.9042   -2.3250    0.0000 C   0  0  0  0  0  0           0  0  0
    6.1792   -3.5667    0.0000 C   0  0  0  0  0  0           0  0  0
    5.4667   -2.3167    0.0000 C   0  0  0  0  0  0           0  0  0
    8.3250   -3.1542    0.0000 O   0  0  0  0  0  0           0  0  0
    5.4667   -3.1500    0.0000 C   0  0  0  0  0  0           0  0  0
    6.1917   -1.9042    0.0000 C   0  0  0  0  0  0           0  0  0
    1.1667   -1.4917    0.0000 C   0  0  0  0  0  0           0  0  0
    2.6042   -3.9875    0.0000 C   0  0  0  0  0  0           0  0  0
    1.1667   -3.9875    0.0000 C   0  0  0  0  0  0           0  0  0
    2.4750   -1.3167    0.0000 C   0  0  0  0  0  0           0  0  0
    4.7625   -3.5667    0.0000 C   0  0  0  0  0  0           0  0  0
  2  1  2  0     0  0
  3  1  1  0     0  0
  4  3  2  0     0  0
  5  2  1  0     0  0
  6  1  1  0     0  0
  7  2  1  0     0  0
  8 11  1  0     0  0
  9  4  1  0     0  0
 10  4  1  0     0  0
 11 15  1  0     0  0
 12  6  1  0     0  0
 13 12  1  0     0  0
 14  8  2  0     0  0
 15 20  2  0     0  0
 16 19  1  0     0  0
 17 10  1  0     0  0
 18  8  1  0     0  0
 19 17  2  0     0  0
 20 17  1  0     0  0
 21  6  1  0     0  0
 22  7  1  0     0  0
 23  7  1  0     0  0
 24  6  1  0     0  0
 25  9  1  0     0  0
 13  7  1  0     0  0
  5  9  2  0     0  0
 16 11  2  0     0  0
M  END