
          11280715372D 1   1.00000     0.00000     0

 35 36  0     1  0            999 V2000
    3.1250   -2.8667    0.0000 P   0  0  3  0  0  0           0  0  0
    6.2667   -5.0667    0.0000 C   0  0  0  0  0  0           0  0  0
    6.6167   -4.5917    0.0000 N   0  0  0  0  0  0           0  0  0
    7.5792   -4.1792    0.0000 C   0  0  0  0  0  0           0  0  0
    5.6667   -5.0042    0.0000 C   0  0  1  0  0  0           0  0  0
    7.2250   -4.6542    0.0000 C   0  0  2  0  0  0           0  0  0
    5.3125   -5.4792    0.0000 N   0  0  0  0  0  0           0  0  0
    8.1792   -4.2417    0.0000 N   0  0  0  0  0  0           0  0  0
    4.7042   -5.4167    0.0000 C   0  0  0  0  0  0           0  0  0
    3.7167   -2.7542    0.0000 O   0  0  0  0  0  0           0  0  0
    3.0125   -2.2792    0.0000 O   0  0  0  0  0  0           0  0  0
    6.5125   -5.6292    0.0000 O   0  0  0  0  0  0           0  0  0
    5.4250   -4.4417    0.0000 C   0  0  0  0  0  0           0  0  0
    9.2000   -4.4292    0.0000 N   0  0  0  0  0  0           0  0  0
    7.3375   -3.6292    0.0000 O   0  0  0  0  0  0           0  0  0
    7.4667   -5.2167    0.0000 C   0  0  0  0  0  0           0  0  0
    4.4667   -4.8667    0.0000 O   0  0  0  0  0  0           0  0  0
    3.2375   -3.4667    0.0000 O   0  0  0  0  0  0           0  0  0
    2.5292   -2.9917    0.0000 O   0  0  0  0  0  0           0  0  0
    4.1167   -3.2167    0.0000 C   0  0  0  0  0  0           0  0  0
    8.5375   -3.7667    0.0000 C   0  0  0  0  0  0           0  0  0
    4.9042   -4.1417    0.0000 C   0  0  0  0  0  0           0  0  0
    9.1292   -3.8292    0.0000 C   0  0  0  0  0  0           0  0  0
    4.3042   -4.2417    0.0000 C   0  0  0  0  0  0           0  0  0
    5.1000   -3.5667    0.0000 C   0  0  0  0  0  0           0  0  0
    3.9167   -3.7917    0.0000 C   0  0  0  0  0  0           0  0  0
    4.7042   -3.1167    0.0000 C   0  0  0  0  0  0           0  0  0
    7.8375   -5.6792    0.0000 C   0  0  3  0  0  0           0  0  0
    4.3542   -5.8917    0.0000 C   0  0  0  0  0  0           0  0  0
    9.7417   -4.6792    0.0000 C   0  0  0  0  0  0           0  0  0
    9.6167   -3.4792    0.0000 C   0  0  0  0  0  0           0  0  0
    7.6167   -6.2417    0.0000 C   0  0  0  0  0  0           0  0  0
    8.4292   -5.7542    0.0000 C   0  0  0  0  0  0           0  0  0
   10.2292   -4.3167    0.0000 C   0  0  0  0  0  0           0  0  0
   10.1667   -3.7292    0.0000 C   0  0  0  0  0  0           0  0  0
  2  5  1  0     0  0
  3  2  1  0     0  0
  4  6  1  0     0  0
  5 13  1  1     0  0
  6  3  1  0     0  0
  7  5  1  0     0  0
  8  4  1  0     0  0
  9  7  1  0     0  0
 10  1  1  0     0  0
 11  1  2  0     0  0
 12  2  2  0     0  0
 13 22  1  0     0  0
 14 23  1  0     0  0
 15  4  2  0     0  0
  6 16  1  6     0  0
 17  9  2  0     0  0
 18  1  1  0     0  0
 19  1  1  0     0  0
 20 10  1  0     0  0
 21  8  1  0     0  0
 22 25  1  0     0  0
 23 21  1  0     0  0
 24 26  1  0     0  0
 25 27  2  0     0  0
 26 20  2  0     0  0
 27 20  1  0     0  0
 28 16  1  0     0  0
 29  9  1  0     0  0
 30 14  2  0     0  0
 31 23  2  0     0  0
 32 28  1  0     0  0
 33 28  1  0     0  0
 34 35  2  0     0  0
 35 31  1  0     0  0
 24 22  2  0     0  0
 30 34  1  0     0  0
M  END