
          11280715432D 1   1.00000     0.00000     0

 19 20  0     1  0            999 V2000
   -0.8625   -0.6917    0.0000 C   0  0  0  0  0  0           0  0  0
   -0.0375   -0.6542    0.0000 N   0  0  0  0  0  0           0  0  0
   -1.3208   -1.3917    0.0000 N   0  0  0  0  0  0           0  0  0
    0.1792    0.1333    0.0000 C   0  0  0  0  0  0           0  0  0
   -2.1458   -1.3417    0.0000 C   0  0  0  0  0  0           0  0  0
   -1.1458    0.0708    0.0000 S   0  0  0  0  0  0           0  0  0
   -0.5000    0.5958    0.0000 C   0  0  0  0  0  0           0  0  0
    0.9625    0.3958    0.0000 C   0  0  0  0  0  0           0  0  0
    1.6792   -0.0167    0.0000 C   0  0  0  0  0  0           0  0  0
    2.4000    0.3958    0.0000 C   0  0  0  0  0  0           0  0  0
    2.4000    1.2208    0.0000 C   0  0  0  0  0  0           0  0  0
   -2.6000   -2.0292    0.0000 O   0  0  0  0  0  0           0  0  0
    0.9625    1.2208    0.0000 C   0  0  0  0  0  0           0  0  0
   -2.5208   -0.6042    0.0000 C   0  0  1  0  0  0           0  0  0
    1.6792    1.6333    0.0000 C   0  0  0  0  0  0           0  0  0
    3.1167    1.6333    0.0000 Cl  0  0  0  0  0  0           0  0  0
   -3.3458   -0.5542    0.0000 N   0  0  0  0  0  0           0  0  0
    3.1167   -0.0167    0.0000 C   0  0  0  0  0  0           0  0  0
   -2.0625    0.0958    0.0000 C   0  0  0  0  0  0           0  0  0
  2  1  2  0     0  0
  3  1  1  0     0  0
  4  2  1  0     0  0
  5  3  1  0     0  0
  6  1  1  0     0  0
  7  6  1  0     0  0
  8  4  1  0     0  0
  9  8  1  0     0  0
 10  9  2  0     0  0
 11 15  2  0     0  0
 12  5  2  0     0  0
 13  8  2  0     0  0
 14  5  1  0     0  0
 15 13  1  0     0  0
 16 11  1  0     0  0
 17 14  1  0     0  0
 18 10  1  0     0  0
 14 19  1  1     0  0
  7  4  2  0     0  0
 11 10  1  0     0  0
M  END