
  SciTegic12231509382D

 43 49  0  0  1  0            999 V2000
    4.6527   -3.9025    0.0000 N   0  0
    3.9402   -4.3150    0.0000 C   0  0
    3.2277   -3.8900    0.0000 C   0  0
    4.6652   -3.0900    0.0000 C   0  0
    3.9652   -2.6650    0.0000 N   0  0
    6.7652   -7.6275    0.0000 C   0  0
    8.0152   -7.1775    0.0000 N   0  0
    7.5527   -7.8650    0.0000 N   0  0
    7.5152   -6.5275    0.0000 N   0  0
    1.0819   -4.2775    0.0000 C   0  0  1  0  0  0
    6.7402   -6.8025    0.0000 N   0  0
    0.9902   -5.1025    0.0000 O   0  0
    3.2444   -3.0650    0.0000 C   0  0
    0.1819   -5.2650    0.0000 N   0  0
    2.5152   -4.2900    0.0000 C   0  0
    6.0444   -8.0400    0.0000 C   0  0
    0.3402   -3.9400    0.0000 C   0  0
    1.8069   -3.8775    0.0000 C   0  0
    5.3402   -7.6275    0.0000 C   0  0
   -0.2306   -4.5400    0.0000 C   0  0  1  0  0  0
    5.3652   -4.3275    0.0000 C   0  0
    3.9319   -5.1400    0.0000 O   0  0
    5.3444   -6.8025    0.0000 C   0  0
    2.5402   -2.6525    0.0000 C   0  0
    1.8194   -3.0525    0.0000 C   0  0
    4.6277   -6.3775    0.0000 C   0  0
    6.0652   -6.4025    0.0000 C   0  0
    5.3569   -5.1525    0.0000 C   0  0
   -0.3806   -5.8775    0.0000 C   0  0
    5.3902   -2.6775    0.0000 C   0  0
    6.0652   -5.5650    0.0000 C   0  0
    4.6402   -5.5525    0.0000 C   0  0
    1.0819   -3.4525    0.0000 C   0  0
    6.0402   -8.8650    0.0000 C   0  0
    4.6194   -8.0275    0.0000 C   0  0
   -1.0431   -4.7025    0.0000 C   0  0
   -1.1348   -5.5275    0.0000 C   0  0
    6.0944   -3.1025    0.0000 C   0  0
    6.8152   -2.7025    0.0000 C   0  0
    5.3277   -9.2775    0.0000 C   0  0
    4.6152   -8.8650    0.0000 C   0  0
    7.5277   -3.1275    0.0000 C   0  0
   -0.4473   -3.7400    0.0000 H   0  0
  2  1  1  0
  3  2  1  0
  4  1  1  0
  5  4  2  0
  6 16  1  0
  7  8  1  0
  8  6  2  0
  9 11  2  0
 10 18  1  0
 11  6  1  0
 12 10  1  0
 13  5  1  0
 14 12  1  0
 15  3  1  0
 16 19  1  0
 17 10  1  0
 18 15  2  0
 19 23  1  0
 20 17  1  0
 21  1  1  0
 22  2  2  0
 23 26  2  0
 24 13  1  0
 25 24  2  0
 26 32  1  0
 27 31  2  0
 28 21  1  0
 29 14  1  0
 30  4  1  0
 31 28  1  0
 32 28  2  0
 10 33  1  6
 34 16  2  0
 35 19  2  0
 36 20  1  0
 37 36  1  0
 38 30  1  0
 39 38  1  0
 40 41  2  0
 41 35  1  0
 42 39  1  0
 20 43  1  1
  3 13  2  0
 27 23  1  0
 18 25  1  0
 20 14  1  0
 34 40  1  0
 37 29  1  0
  9  7  1  0
M  END