
          11280714562D 1   1.00000     0.00000     0

 46 49  0     1  0            999 V2000
   -1.3625  -13.5708    0.0000 N   0  0  3  0  0  0           0  0  0
   -0.4000  -11.3625    0.0000 C   0  0  0  0  0  0           0  0  0
    1.5292  -13.0958    0.0000 C   0  0  0  0  0  0           0  0  0
   -0.0875  -12.8292    0.0000 C   0  0  0  0  0  0           0  0  0
    1.9958  -14.5250    0.0000 C   0  0  1  0  0  0           0  0  0
    7.0083   -8.9333    0.0000 C   0  0  0  0  0  0           0  0  0
   -2.4833  -12.5833    0.0000 C   0  0  0  0  0  0           0  0  0
    3.0667   -9.4333    0.0000 C   0  0  0  0  0  0           0  0  0
    5.5375   -8.6250    0.0000 C   0  0  1  0  0  0           0  0  0
   -1.8875  -11.2125    0.0000 C   0  0  0  0  0  0           0  0  0
    4.5375   -9.7417    0.0000 N   0  0  0  0  0  0           0  0  0
    2.5333  -11.9792    0.0000 N   0  0  0  0  0  0           0  0  0
    8.0083   -7.8125    0.0000 N   0  0  3  0  0  0           0  0  0
    2.0667  -10.5542    0.0000 C   0  0  2  0  0  0           0  0  0
    0.9917  -15.6417    0.0000 N   0  0  0  0  0  0           0  0  0
    0.5958  -10.2458    0.0000 C   0  0  0  0  0  0           0  0  0
   -1.5000  -15.0625    0.0000 C   0  0  0  0  0  0           0  0  0
    1.4583  -17.0667    0.0000 C   0  0  0  0  0  0           0  0  0
    0.5500  -12.8917    0.0000 O   0  0  0  0  0  0           0  0  0
    9.4792   -8.1208    0.0000 C   0  0  0  0  0  0           0  0  0
    5.0667   -7.2000    0.0000 C   0  0  0  0  0  0           0  0  0
    7.3833  -10.0708    0.0000 O   0  0  0  0  0  0           0  0  0
    2.7583   -8.4833    0.0000 O   0  0  0  0  0  0           0  0  0
    3.4625  -14.8375    0.0000 C   0  0  3  0  0  0           0  0  0
    0.6542  -17.9625    0.0000 O   0  0  0  0  0  0           0  0  0
   -2.5917  -15.5625    0.0000 O   0  0  0  0  0  0           0  0  0
   10.4792   -7.0042    0.0000 C   0  0  0  0  0  0           0  0  0
    3.6000   -6.8958    0.0000 C   0  0  0  0  0  0           0  0  0
    3.8333  -15.9792    0.0000 O   0  0  0  0  0  0           0  0  0
    7.6333   -6.6750    0.0000 C   0  0  0  0  0  0           0  0  0
   -3.9750  -12.7708    0.0000 C   0  0  0  0  0  0           0  0  0
   -2.7708   -9.9958    0.0000 C   0  0  0  0  0  0           0  0  0
    2.6292  -17.3167    0.0000 C   0  0  0  0  0  0           0  0  0
    4.2667  -13.9458    0.0000 C   0  0  0  0  0  0           0  0  0
    2.5958   -8.0125    0.0000 C   0  0  0  0  0  0           0  0  0
    3.1333   -5.4667    0.0000 C   0  0  0  0  0  0           0  0  0
   11.9500   -7.3083    0.0000 C   0  0  0  0  0  0           0  0  0
   10.0083   -5.5792    0.0000 C   0  0  0  0  0  0           0  0  0
   -4.8750  -11.5458    0.0000 C   0  0  0  0  0  0           0  0  0
   -4.2792  -10.1750    0.0000 C   0  0  0  0  0  0           0  0  0
    1.6625   -5.1583    0.0000 C   0  0  0  0  0  0           0  0  0
   12.9458   -6.1875    0.0000 C   0  0  0  0  0  0           0  0  0
   11.0083   -4.4583    0.0000 C   0  0  0  0  0  0           0  0  0
    1.1292   -7.7042    0.0000 C   0  0  0  0  0  0           0  0  0
    0.6625   -6.2750    0.0000 C   0  0  0  0  0  0           0  0  0
   12.4750   -4.7625    0.0000 C   0  0  0  0  0  0           0  0  0
  2  4  2  0     0  0
  3 12  1  0     0  0
  4  1  1  0     0  0
  5  3  1  0     0  0
  6  9  1  0     0  0
  7  1  1  0     0  0
  8 14  1  0     0  0
  9 11  1  1     0  0
 10  7  1  0     0  0
 11  8  1  0     0  0
 14 12  1  6     0  0
 13  6  1  0     0  0
 14 16  1  0     0  0
  5 15  1  6     0  0
 16  2  1  0     0  0
 17  1  1  0     0  0
 18 15  1  0     0  0
 19  3  2  0     0  0
 20 13  1  0     0  0
 21  9  1  0     0  0
 22  6  2  0     0  0
 23  8  2  0     0  0
 24  5  1  0     0  0
 25 18  2  0     0  0
 26 17  2  0     0  0
 27 20  1  0     0  0
 28 21  1  0     0  0
 29 24  1  0     0  0
 30 13  1  0     0  0
 31  7  2  0     0  0
 32 10  2  0     0  0
 33 18  1  0     0  0
 34 24  1  0     0  0
 35 28  2  0     0  0
 36 28  1  0     0  0
 37 27  2  0     0  0
 38 27  1  0     0  0
 39 31  1  0     0  0
 40 32  1  0     0  0
 41 36  2  0     0  0
 42 37  1  0     0  0
 43 38  2  0     0  0
 44 35  1  0     0  0
 45 41  1  0     0  0
 46 43  1  0     0  0
  2 10  1  0     0  0
 40 39  2  0     0  0
 45 44  2  0     0  0
 46 42  2  0     0  0
M  END