
  CDK    9/16/09,9:48

 43 46  0  0  0  0  0  0  0  0999 V2000
    0.4701  -13.6294    0.0000 C   0  0  0  0  0  0  0  0  0  0  0  0
    0.4592  -11.9867    0.0000 C   0  0  0  0  0  0  0  0  0  0  0  0
   -0.2516  -12.4073    0.0000 C   0  0  0  0  0  0  0  0  0  0  0  0
   -0.2423  -13.2267    0.0000 C   0  0  0  0  0  0  0  0  0  0  0  0
    1.1743  -12.3930    0.0000 C   0  0  0  0  0  0  0  0  0  0  0  0
    1.1836  -13.2163    0.0000 C   0  0  0  0  0  0  0  0  0  0  0  0
    1.8972  -13.6177    0.0000 C   0  0  0  0  0  0  0  0  0  0  0  0
    2.6062  -13.2004    0.0000 C   0  0  0  0  0  0  0  0  0  0  0  0
    2.5970  -12.3771    0.0000 C   0  0  0  0  0  0  0  0  0  0  0  0
    1.8788  -11.9711    0.0000 N   0  0  0  0  0  0  0  0  0  0  0  0
    1.8684  -11.1454    0.0000 C   0  0  0  0  0  0  0  0  0  0  0  0
    2.5783  -10.7237    0.0000 O   0  0  0  0  0  0  0  0  0  0  0  0
    1.1482  -10.7416    0.0000 C   0  0  0  0  0  0  0  0  0  0  0  0
    3.3079  -11.9570    0.0000 C   0  0  0  0  0  0  0  0  0  0  0  0
    4.0272  -12.3625    0.0000 C   0  0  0  0  0  0  0  0  0  0  0  0
    3.3254  -13.6062    0.0000 O   0  0  0  0  0  0  0  0  0  0  0  0
    4.0355  -13.1882    0.0000 O   0  0  0  0  0  0  0  0  0  0  0  0
    4.7381  -11.9424    0.0000 O   0  0  0  0  0  0  0  0  0  0  0  0
    1.9052  -14.4434    0.0000 N   0  0  0  0  0  0  0  0  0  0  0  0
    1.1942  -14.8633    0.0000 C   0  0  0  0  0  0  0  0  0  0  0  0
    0.4752  -14.4574    0.0000 O   0  0  0  0  0  0  0  0  0  0  0  0
    1.2024  -15.6890    0.0000 O   0  0  0  0  0  0  0  0  0  0  0  0
   -0.9531  -13.6470    0.0000 O   0  0  0  0  0  0  0  0  0  0  0  0
   -1.6724  -13.2414    0.0000 C   0  0  0  0  0  0  0  0  0  0  0  0
   -2.3833  -13.6616    0.0000 O   0  0  0  0  0  0  0  0  0  0  0  0
   -3.1026  -13.2561    0.0000 C   0  0  0  0  0  0  0  0  0  0  0  0
   -3.8134  -13.6763    0.0000 C   0  0  0  0  0  0  0  0  0  0  0  0
   -4.5327  -13.2708    0.0000 O   0  0  0  0  0  0  0  0  0  0  0  0
   -5.2435  -13.6910    0.0000 C   0  0  0  0  0  0  0  0  0  0  0  0
    1.1418   -9.9170    0.0000 C   0  0  0  0  0  0  0  0  0  0  0  0
   -0.2754  -10.7650    0.0000 C   0  0  0  0  0  0  0  0  0  0  0  0
    0.4446  -11.1650    0.0000 C   0  0  0  0  0  0  0  0  0  0  0  0
    0.4914  -16.1089    0.0000 C   0  0  0  0  0  0  0  0  0  0  0  0
    0.4994  -16.9345    0.0000 C   0  0  0  0  0  0  0  0  0  0  0  0
   -0.2116  -17.3544    0.0000 C   0  0  0  0  0  0  0  0  0  0  0  0
   -0.2885   -9.9351    0.0000 C   0  0  0  0  0  0  0  0  0  0  0  0
    0.4267   -9.5140    0.0000 C   0  0  0  0  0  0  0  0  0  0  0  0
   -1.0064   -9.5336    0.0000 C   0  0  0  0  0  0  0  0  0  0  0  0
   -1.0151   -8.7069    0.0000 C   0  0  0  0  0  0  0  0  0  0  0  0
   -1.7344   -8.3028    0.0000 C   0  0  0  0  0  0  0  0  0  0  0  0
   -2.4454   -8.7244    0.0000 C   0  0  0  0  0  0  0  0  0  0  0  0
   -2.4326   -9.5543    0.0000 C   0  0  0  0  0  0  0  0  0  0  0  0
   -1.7129   -9.9546    0.0000 C   0  0  0  0  0  0  0  0  0  0  0  0
 20 21  2  0  0  0  0 
  9 10  1  0  0  0  0 
 20 22  1  0  0  0  0 
  5  6  1  0  0  0  0 
  4 23  1  0  0  0  0 
 10 11  1  0  0  0  0 
 23 24  1  0  0  0  0 
  5  2  2  0  0  0  0 
 24 25  1  0  0  0  0 
 11 12  2  0  0  0  0 
 25 26  1  0  0  0  0 
  1  6  2  0  0  0  0 
 26 27  1  0  0  0  0 
 11 13  1  0  0  0  0 
 27 28  1  0  0  0  0 
  2  3  1  0  0  0  0 
 28 29  1  0  0  0  0 
  9 14  1  1  0  0  0 
 13 30  2  0  0  0  0 
 30 37  1  0  0  0  0 
 36 31  1  0  0  0  0 
 14 15  1  0  0  0  0 
 31 32  2  0  0  0  0 
 32 13  1  0  0  0  0 
  3  4  2  0  0  0  0 
 22 33  1  0  0  0  0 
  8 16  1  6  0  0  0 
 33 34  1  0  0  0  0 
  4  1  1  0  0  0  0 
 34 35  2  0  0  0  0 
 15 17  2  0  0  0  0 
  5 10  1  0  0  0  0 
 36 37  2  0  0  0  0 
 15 18  1  0  0  0  0 
  6  7  1  0  0  0  0 
 38 39  2  0  0  0  0 
  7 19  1  1  0  0  0 
 39 40  1  0  0  0  0 
  7  8  1  0  0  0  0 
 40 41  2  0  0  0  0 
 19 20  1  0  0  0  0 
 41 42  1  0  0  0  0 
  8  9  1  0  0  0  0 
 42 43  2  0  0  0  0 
 43 38  1  0  0  0  0 
 36 38  1  0  0  0  0 
M  END