
  SciTegic06051315212D

 22 24  0  0  0  0            999 V2000
   18.9054  -24.4662    0.0000 N   0  0
   18.1919  -24.0576    0.0000 C   0  0
   19.6189  -24.0535    0.0000 C   0  0
   19.6189  -23.2322    0.0000 C   0  0
   18.9054  -22.8236    0.0000 C   0  0
   18.1919  -23.2322    0.0000 C   0  0
   17.4825  -22.8236    0.0000 C   0  0
   16.7689  -23.2322    0.0000 C   0  0
   16.7689  -24.0576    0.0000 C   0  0
   17.4825  -24.4662    0.0000 C   0  0
   20.3293  -24.4585    0.0000 C   0  0
   21.0371  -24.0479    0.0000 C   0  0
   21.7445  -24.4555    0.0000 C   0  0
   21.7453  -25.2736    0.0000 C   0  0
   21.0328  -25.6823    0.0000 C   0  0
   20.3283  -25.2723    0.0000 C   0  0
   18.9054  -22.0064    0.0000 O   0  0
   16.0619  -22.8223    0.0000 N   0  0
   15.3535  -23.2297    0.0000 C   0  0
   14.6465  -22.8198    0.0000 C   0  0
   15.3521  -24.0469    0.0000 O   0  0
   14.6480  -22.0026    0.0000 C   0  0
 10  2  1  0
  2  6  2  0
  2  1  1  0
  1  3  2  0
  3  4  1  0
  4  5  2  0
  5  6  1  0
  6  7  1  0
  7  8  2  0
  8  9  1  0
  9 10  2  0
 11 12  2  0
 12 13  1  0
 13 14  2  0
 14 15  1  0
 15 16  2  0
 16 11  1  0
  3 11  1  0
  5 17  1  0
  8 18  1  0
 18 19  1  0
 19 20  1  0
 19 21  2  0
 20 22  1  0
M  END