
  SciTegic10311217562D

 30 33  0  0  0  0            999 V2000
   -3.2639   -2.7541    0.0000 C   0  0
   -3.2651   -3.5815    0.0000 C   0  0
   -2.5503   -3.9943    0.0000 C   0  0
   -2.5521   -2.3413    0.0000 C   0  0
   -1.8367   -2.7505    0.0000 C   0  0
   -1.8379   -3.5835    0.0000 C   0  0
   -1.1210   -3.9988    0.0000 N   0  0
   -0.3983   -3.5856    0.0000 C   0  0
   -0.3971   -2.7525    0.0000 C   0  0
   -1.1186   -2.3327    0.0000 C   0  0
    0.3150   -4.0001    0.0000 O   0  0
   -2.5506   -4.8193    0.0000 O   0  0
   -2.5545   -1.5163    0.0000 C   0  0  2  0  0  0
   -1.8413   -1.1017    0.0000 C   0  0
   -1.8438   -0.2767    0.0000 N   0  0
   -1.1305    0.1379    0.0000 C   0  0
   -0.3789   -0.1945    0.0000 C   0  0
   -1.0498    0.9595    0.0000 C   0  0
   -0.2434    1.1335    0.0000 C   0  0
    0.1674    0.4208    0.0000 C   0  0
    0.9882    0.4213    0.0000 C   0  0
    1.3991    1.1336    0.0000 C   0  0
    0.9832    1.8470    0.0000 C   0  0
    0.1639    1.8431    0.0000 C   0  0
    2.2241    1.1355    0.0000 C   0  0
   -3.2702   -1.1059    0.0000 O   0  0
    1.3925    2.5633    0.0000 C   0  0
   -1.8500    0.5542    0.0000 C   0  0
    2.2175    2.5670    0.0000 C   0  0
    2.6350    1.8509    0.0000 C   0  0
 15 16  1  0
  4  1  1  0
 16 17  1  0
  5 10  1  0
  6  7  1  0
 17 20  1  0
 19 18  1  0
 18 16  1  0
  7  8  1  0
  8  9  1  0
 19 20  2  0
  9 10  2  0
 20 21  1  0
  5  6  1  0
 21 22  2  0
  8 11  2  0
 22 23  1  0
 23 24  2  0
 24 19  1  0
  3 12  1  0
  2  3  1  0
  4 13  1  0
 22 25  1  0
  3  6  2  0
 13 26  1  1
 13 14  1  0
 23 27  1  0
  1  2  2  0
 16 28  1  0
 14 15  1  0
 27 29  1  0
  5  4  2  0
 25 30  1  0
M  END