
  SciTegic01181116592D

 48 50  0  0  0  0            999 V2000
   18.1766    2.3222    0.0000 N   0  0
   11.7517    2.8104    0.0000 C   0  0
   12.4613    2.3895    0.0000 C   0  0
   13.1805    2.7936    0.0000 C   0  0
   13.8901    2.3727    0.0000 C   0  0
   14.6094    2.7768    0.0000 C   0  0
   15.3189    2.3559    0.0000 C   0  0
   16.0382    2.7599    0.0000 C   0  0
   16.7478    2.3390    0.0000 C   0  0
   17.4671    2.7431    0.0000 C   0  0
   -2.6362    0.9484    0.0000 C   0  0
   -3.0574    0.2362    0.0000 C   0  0
   -2.6513   -0.4825    0.0000 C   0  0
   -1.8242   -0.4902    0.0000 C   0  0
   -1.4049    0.2267    0.0000 C   0  0
   -1.8134    0.9424    0.0000 C   0  0
   -1.3961    1.6540    0.0000 N   0  0
   -0.5751    1.7353    0.0000 N   0  0
   -0.3987    2.5412    0.0000 C   0  0
   -1.1107    2.9581    0.0000 C   0  0
   -1.7270    2.4097    0.0000 C   0  0
   -2.5475    2.4081    0.0000 C   0  0
   -2.9599    3.1239    0.0000 C   0  0
   -3.7842    3.1236    0.0000 C   0  0
   -4.1969    2.4083    0.0000 C   0  0
   -3.7794    1.6918    0.0000 C   0  0
   -2.9566    1.6956    0.0000 C   0  0
   -1.1920    3.7791    0.0000 C   0  0
    0.3210    2.9451    0.0000 C   0  0
    1.0305    2.5242    0.0000 N   0  0
    0.3307    3.7701    0.0000 O   0  0
   -0.5799    0.2223    0.0000 Cl  0  0
   -3.0704   -1.1931    0.0000 Cl  0  0
   -5.0219    2.4066    0.0000 Cl  0  0
    1.7498    2.9283    0.0000 C   0  0
    2.4594    2.5074    0.0000 C   0  0
    3.1786    2.9115    0.0000 C   0  0
    3.8882    2.4906    0.0000 C   0  0
    4.6075    2.8946    0.0000 C   0  0
    5.3171    2.4737    0.0000 C   0  0
    6.0363    2.8778    0.0000 C   0  0
    6.7459    2.4569    0.0000 C   0  0
    7.4652    2.8609    0.0000 C   0  0
    8.1747    2.4401    0.0000 C   0  0
    8.8940    2.8441    0.0000 C   0  0
    9.6036    2.4232    0.0000 N   0  0
   10.3229    2.8273    0.0000 C   0  0
   11.0324    2.4064    0.0000 C   0  0
 12 13  1  0
 24 25  2  0
  2  3  1  0
 25 26  1  0
 13 14  2  0
 26 27  2  0
 27 22  1  0
 21 22  1  0
  7  8  1  0
 20 28  1  0
 14 15  1  0
 19 29  1  0
  4  5  1  0
 29 30  1  0
 15 16  2  0
 29 31  2  0
 16 11  1  0
 15 32  1  0
 17 18  1  0
 13 33  1  0
  8  9  1  0
 25 34  1  0
 30 35  1  0
  9 10  1  0
 35 36  1  0
 10  1  1  0
 36 37  1  0
  5  6  1  0
 37 38  1  0
 18 19  2  0
 38 39  1  0
 19 20  1  0
 39 40  1  0
 20 21  2  0
 40 41  1  0
 21 17  1  0
 41 42  1  0
 16 17  1  0
 42 43  1  0
  3  4  1  0
 43 44  1  0
 11 12  2  0
 44 45  1  0
 22 23  2  0
 45 46  1  0
  6  7  1  0
 46 47  1  0
 23 24  1  0
 47 48  1  0
 48  2  1  0
M  END