
  SciTegic12231509382D

 10 10  0  0  0  0            999 V2000
   26.4027   -9.1250    0.0000 C   0  0
   26.4016   -9.9523    0.0000 C   0  0
   27.1164  -10.3652    0.0000 C   0  0
   27.8328   -9.9519    0.0000 C   0  0
   27.8300   -9.1213    0.0000 C   0  0
   27.1146   -8.7122    0.0000 C   0  0
   27.1162  -11.1902    0.0000 O   0  0
   28.5429   -8.7061    0.0000 C   0  0
   28.5398   -7.8811    0.0000 N   0  0
   29.2527   -7.4660    0.0000 N   0  0
  6  1  1  0
  3  7  1  0
  2  3  1  0
  5  8  1  0
  8  9  1  0
  3  4  2  0
  9 10  1  0
  4  5  1  0
  1  2  2  0
  5  6  2  0
M  END