
  SciTegic11111309142D

 47 53  0  0  1  0            999 V2000
    4.5424    2.5639    0.0000 C   0  0  1  0  0  0
    5.2577    2.1513    0.0000 C   0  0
    5.9727    2.5621    0.0000 C   0  0
    5.9777    3.3902    0.0000 C   0  0  2  0  0  0
    5.2582    3.8050    0.0000 C   0  0
    4.5379    3.3895    0.0000 O   0  0
   -3.9669    0.7207    0.0000 C   0  0  1  0  0  0
   -3.9669   -0.1109    0.0000 C   0  0  1  0  0  0
   -3.2545   -0.5236    0.0000 C   0  0  2  0  0  0
   -2.5357   -0.1109    0.0000 C   0  0  1  0  0  0
   -2.5357    0.7207    0.0000 O   0  0
   -3.2545    1.1354    0.0000 C   0  0  2  0  0  0
   -1.8183   -0.5274    0.0000 O   0  0
   -1.0991   -0.1099    0.0000 C   0  0  2  0  0  0
   -0.3833   -0.5322    0.0000 C   0  0
   -0.3804    1.1254    0.0000 C   0  0
   -1.1016    0.7130    0.0000 C   0  0
    0.3409    0.7079    0.0000 C   0  0  2  0  0  0
    0.3310   -0.1190    0.0000 C   0  0
    1.0426   -0.5365    0.0000 C   0  0
    1.7563   -0.1278    0.0000 C   0  0
    0.3311    1.5397    0.0000 C   0  0
    1.0541    1.1172    0.0000 C   0  0  2  0  0  0
    1.7625    0.6982    0.0000 C   0  0  2  0  0  0
    1.7840    2.3470    0.0000 C   0  0
    1.0590    1.9405    0.0000 C   0  0
    2.4924    1.9217    0.0000 C   0  0  1  0  0  0
    2.4818    1.1017    0.0000 C   0  0  1  0  0  0
    3.2615    0.8382    0.0000 C   0  0
    3.2771    2.1716    0.0000 C   0  0  2  0  0  0
    3.7528    1.4995    0.0000 C   0  0  1  0  0  0
    4.5342    1.7434    0.0000 O   0  0
    3.7664    2.8277    0.0000 C   0  0  2  0  0  0
    6.6912    3.8022    0.0000 C   0  0
    3.5207    3.6163    0.0000 C   0  0
    4.3371    0.9133    0.0000 H   0  0
    2.4812    2.7523    0.0000 C   0  0
    1.7453    1.4061    0.0000 H   0  0
   -3.2519    1.9608    0.0000 C   0  0
    3.0568    2.9682    0.0000 H   0  0
    2.4936    0.3134    0.0000 H   0  0
    1.0256    0.4083    0.0000 H   0  0
   -2.5427   -0.9337    0.0000 H   0  0
   -4.6793   -0.5228    0.0000 O   0  0
   -2.5407    2.3748    0.0000 O   0  0
   -4.6808    1.1301    0.0000 O   0  0
   -3.2519   -1.3489    0.0000 O   0  0
  4  5  1  0
  5  6  1  0
  7  8  1  0
  7 12  1  0
  8  9  1  0
  9 10  1  0
 10 11  1  0
 11 12  1  0
 10 13  1  0
 14 13  1  1
 14 15  1  0
 14 17  1  0
 15 19  1  0
 18 16  1  0
 16 17  1  0
 18 19  1  0
 18 23  1  0
 19 20  2  0
 20 21  1  0
 21 24  1  0
 18 22  1  1
 23 24  1  0
 23 26  1  0
 24 28  1  0
 27 25  1  0
 25 26  1  0
 27 28  1  0
 28 29  1  0
 29 31  1  0
 30 27  1  0
 30 31  1  0
 31 32  1  0
 32  1  1  0
  1 33  1  0
 33 30  1  0
  4 34  1  6
 33 35  1  6
 31 36  1  6
 27 37  1  1
 24 38  1  1
 12 39  1  1
 30 40  1  6
 28 41  1  6
 23 42  1  6
 10 43  1  6
  1  2  1  0
  1  6  1  6
  2  3  1  0
  4  3  1  0
 39 45  1  0
  8 44  1  1
  7 46  1  6
  9 47  1  6
M  END