
  SciTegic12121614472D

176183  0  0  0  0            999 V2000
  -55.9238   32.8011   -0.0003 N   0  0
  -55.1699   33.8714   -0.0003 N   0  0
  -56.0897   35.1314   -0.0003 N   0  0
  -57.4637   34.6732   -0.0003 C   0  0
  -57.4353   33.1587   -0.0003 C   0  0
  -68.9169   67.1823   -0.0002 C   0  0
  -69.1901   65.7066   -0.0002 C   0  0
  -68.0493   64.7314   -0.0002 N   0  0
  -70.3214   65.3061   -0.0002 O   0  0
  -67.5041   67.6863   -0.0002 C   0  0
  -67.2341   69.1618   -0.0002 C   0  0
  -68.3768   70.1334   -0.0002 C   0  0
  -69.7897   69.6295   -0.0002 C   0  0
  -70.0597   68.1540   -0.0002 C   0  0
  -65.8205   69.6659   -0.0001 C   0  0
  -62.9876   70.6543   -0.0001 O   0  0
  -64.1240   71.6333   -0.0001 C   0  0
  -65.5402   71.1387   -0.0001 C   0  0
  -66.6766   72.1177   -0.0002 C   0  0
  -66.3967   73.5913   -0.0001 C   0  0
  -64.9805   74.0859   -0.0001 C   0  0
  -63.8441   73.1069   -0.0001 C   0  0
  -64.6898   68.7034   -0.0001 C   0  0
  -63.2735   69.1980   -0.0001 C   0  0
  -62.1311   68.2017   -0.0001 C   0  0
  -62.4109   66.7281   -0.0001 C   0  0
  -63.8272   66.2335   -0.0001 C   0  0
  -64.9636   67.2125   -0.0001 C   0  0
  -61.5019   65.9448   -0.0001 O   0  0
  -64.7567   75.2648   -0.0001 O   0  0
  -68.1097   71.6103   -0.0002 C   0  0
  -69.0250   72.3863   -0.0002 O   0  0
  -67.1684   71.9478   -0.0002 O   0  0
  -78.0074   -0.7778   -0.0002 C   0  0
  -78.3412    0.3749   -0.0002 C   0  0
  -77.3012    1.4569   -0.0002 N   0  0
  -79.5064    0.6617   -0.0002 O   0  0
  -75.8439    1.0982   -0.0002 C   0  0  2  0  0  0
  -74.8039    2.1803   -0.0002 C   0  0
  -75.4234   -0.3425   -0.0002 C   0  0  2  0  0  0
  -74.2578   -0.6281   -0.0002 O   0  0
  -76.2531   -1.2094   -0.0002 C   0  0
  -75.1377    3.3329   -0.0002 O   0  0
  -73.3466    1.8215   -0.0002 N   0  0
  -72.3065    2.9036   -0.0002 C   0  0  2  0  0  0
  -70.8492    2.5449   -0.0002 C   0  0
  -72.7211    4.3460   -0.0002 C   0  0  1  0  0  0
  -73.8858    4.6353   -0.0002 C   0  0
  -71.8886    5.2103   -0.0002 O   0  0
  -69.8092    3.6269   -0.0002 N   0  0
  -70.5710    1.5844   -0.0002 O   0  0
  -68.3519    3.2682   -0.0002 C   0  0  2  0  0  0
  -67.3107    4.3491   -0.0002 C   0  0
  -67.9373    1.8258   -0.0002 C   0  0
  -67.7252    5.7915   -0.0002 N   0  0
  -66.1460    4.0599   -0.0002 O   0  0
  -66.6840    6.8725   -0.0002 C   0  0
  -67.0986    8.3149   -0.0002 C   0  0
  -66.0574    9.3958   -0.0002 N   0  0
  -68.2632    8.6041   -0.0002 O   0  0
  -66.4720   10.8382   -0.0002 C   0  0  2  0  0  0
  -65.4308   11.9191   -0.0002 C   0  0
  -67.9278   11.2029   -0.0002 C   0  0
  -68.3408   12.6458   -0.0002 C   0  0
  -69.7966   13.0105   -0.0002 S   0  0
  -70.1268   14.1642   -0.0002 C   0  0
  -64.2662   11.6299   -0.0002 O   0  0
  -65.8454   13.3616   -0.0002 N   0  0
  -64.8041   14.4425   -0.0002 C   0  0  2  0  0  0
  -65.2187   15.8849   -0.0002 C   0  0
  -64.1775   16.9658   -0.0002 N   0  0
  -66.3834   16.1741   -0.0002 O   0  0
  -64.5921   18.4082   -0.0002 C   0  0  2  0  0  0
  -63.5509   19.4891   -0.0002 C   0  0
  -66.0479   18.7730   -0.0002 C   0  0  2  0  0  0
  -66.3781   19.9266   -0.0002 O   0  0
  -66.8822   17.9104   -0.0002 C   0  0
  -62.3863   19.1999   -0.0002 O   0  0
  -63.9655   20.9316   -0.0002 N   0  0
  -62.9243   22.0125   -0.0002 C   0  0  2  0  0  0
  -63.3388   23.4549   -0.0002 C   0  0
  -61.4669   21.6538   -0.0002 C   0  0
  -60.4269   22.7358   -0.0002 C   0  0
  -59.2617   22.4490   -0.0002 C   0  0
  -60.7608   23.8884   -0.0002 C   0  0
  -62.2976   24.5358   -0.0002 N   0  0
  -64.5035   23.7441   -0.0002 O   0  0
  -62.7122   25.9782   -0.0002 C   0  0  2  0  0  0
  -61.6710   27.0592   -0.0002 C   0  0
  -64.1681   26.3430   -0.0002 C   0  0
  -64.5810   27.7858   -0.0002 C   0  0
  -66.0369   28.1506   -0.0002 C   0  0
  -66.4498   29.5935   -0.0002 C   0  0
  -67.6139   29.8851   -0.0002 N   0  0
  -62.0856   28.5016   -0.0002 N   0  0
  -63.3468   14.0837   -0.0002 C   0  0
  -62.3068   15.1658   -0.0002 C   0  0
  -60.8495   14.8071   -0.0002 S   0  0
  -60.0179   15.6723   -0.0002 C   0  0
  -60.5064   26.7699   -0.0002 O   0  0
  -61.0500   29.5792   -0.0002 C   0  0  2  0  0  0
  -61.4168   31.2181   -0.0003 C   0  0
  -59.0667   29.3555   -0.0003 C   0  0
  -62.4206   32.6272   -0.0003 N   0  0
  -60.3209   31.7069   -0.0003 O   0  0
  -61.6650   33.9835   -0.0003 C   0  0  2  0  0  0
  -61.6692   35.5157   -0.0003 C   0  0
  -60.5031   33.6834   -0.0003 C   0  0
  -60.5422   35.9279   -0.0003 O   0  0
  -62.6166   36.6441   -0.0003 N   0  0
  -62.2206   38.0351   -0.0003 C   0  0  2  0  0  0
  -60.7507   38.3281   -0.0003 C   0  0
  -63.2502   39.1266   -0.0003 C   0  0
  -64.7107   38.7812   -0.0003 C   0  0
  -65.7417   39.8708   -0.0003 C   0  0
  -67.2008   39.5229   -0.0003 C   0  0
  -67.6290   38.0853   -0.0003 C   0  0
  -66.5981   36.9956   -0.0003 C   0  0
  -65.1391   37.3436   -0.0003 C   0  0
  -59.5519   40.2307   -0.0003 N   0  0
  -60.0705   37.3395   -0.0003 O   0  0
  -58.1403   40.6544   -0.0003 C   0  0  2  0  0  0
  -56.9036   39.7744   -0.0003 C   0  0
  -57.9127   42.1398   -0.0003 C   0  0
  -56.5145   42.6853   -0.0003 C   0  0
  -56.2869   44.1687   -0.0003 C   0  0
  -54.8887   44.7142   -0.0003 C   0  0
  -54.7068   45.9003   -0.0003 N   0  0
  -55.7955   40.2348   -0.0003 O   0  0
  -57.1401   38.3513   -0.0003 N   0  0
  -58.5117   37.7710   -0.0003 C   0  0  1  0  0  0
  -59.6464   38.7462   -0.0003 C   0  0
  -58.6520   35.5886   -0.0003 C   0  0
  -59.3732   40.2219   -0.0003 N   0  0
  -60.5891   38.4125   -0.0003 O   0  0
  -60.5140   41.1971   -0.0003 C   0  0  2  0  0  0
  -60.2408   42.6729   -0.0003 C   0  0
  -61.9298   40.6992   -0.0003 C   0  0
  -63.0696   41.6757   -0.0003 C   0  0
  -64.2016   41.2775   -0.0003 C   0  0
  -62.8487   42.8552   -0.0003 C   0  0
  -59.1096   43.0733   -0.0003 O   0  0
  -61.3816   43.6481   -0.0003 N   0  0
  -61.1084   45.1238   -0.0003 C   0  0  2  0  0  0
  -62.2492   46.0990   -0.0003 C   0  0
  -59.6946   45.6276   -0.0002 C   0  0
  -59.4775   46.8077   -0.0002 O   0  0
  -63.3804   45.6986   -0.0003 O   0  0
  -61.9760   47.5748   -0.0002 N   0  0
  -63.1168   48.5500   -0.0002 C   0  0
  -62.8436   50.0257   -0.0002 C   0  0
  -63.9844   51.0009   -0.0002 C   0  0
  -63.7112   52.4767   -0.0002 N   0  0
  -65.1157   50.6005   -0.0002 O   0  0
  -64.8521   53.4519   -0.0002 C   0  0
  -64.5789   54.9276   -0.0002 C   0  0
  -65.7197   55.9028   -0.0002 C   0  0
  -65.4465   57.3785   -0.0002 N   0  0
  -66.8509   55.5024   -0.0002 O   0  0
  -66.5873   58.3537   -0.0002 C   0  0
  -66.3141   59.8295   -0.0002 C   0  0
  -68.0031   57.8558   -0.0002 C   0  0
  -68.9144   58.6366   -0.0002 O   0  0
  -68.2240   56.6763   -0.0002 N   0  0
  -67.4549   60.8047   -0.0002 C   0  0
  -67.1817   62.2804   -0.0002 C   0  0
  -68.3225   63.2556   -0.0002 C   0  0
  -57.9917   30.5117   -0.0003 C   0  0
  -56.3277   30.0301   -0.0003 C   0  0
  -55.5051   31.3115   -0.0003 C   0  0
  -68.9785    0.7449   -0.0002 C   0  0
  -70.4352    1.1029   -0.0002 C   0  0
  -71.4736    0.0205   -0.0002 C   0  0
  -71.0554   -1.4201   -0.0002 C   0  0
  -69.5988   -1.7782   -0.0002 C   0  0
  -68.5604   -0.6957   -0.0002 C   0  0
  1  2  1  0
  2  3  2  0
  3  4  1  0
  4  5  2  0
  5  1  1  0
  6  7  1  0
  7  8  1  0
  7  9  2  0
  6 10  2  0
 10 11  1  0
 11 12  2  0
 12 13  1  0
 13 14  2  0
 14  6  1  0
 11 15  1  0
 15 18  1  0
 15 23  2  0
 17 16  1  0
 16 24  1  0
 17 18  2  0
 18 19  1  0
 19 20  2  0
 20 21  1  0
 21 22  2  0
 22 17  1  0
 23 24  1  0
 23 28  1  0
 24 25  2  0
 25 26  1  0
 26 27  1  0
 27 28  2  0
 26 29  2  0
 21 30  1  0
 12 31  1  0
 31 32  2  0
 31 33  1  0
 34 35  1  0
 35 36  1  0
 35 37  2  0
 38 36  1  6
 38 39  1  0
 38 40  1  0
 40 41  1  6
 40 42  1  0
 39 43  2  0
 39 44  1  0
 45 44  1  1
 45 46  1  0
 45 47  1  0
 47 48  1  1
 47 49  1  0
 46 50  1  0
 46 51  2  0
 52 50  1  6
 52 53  1  0
 52 54  1  0
 53 55  1  0
 53 56  2  0
 55 57  1  0
 57 58  1  0
 58 59  1  0
 58 60  2  0
 61 59  1  1
 61 62  1  0
 61 63  1  0
 63 64  1  0
 64 65  1  0
 65 66  1  0
 62 67  2  0
 62 68  1  0
 69 68  1  6
 69 70  1  0
 70 71  1  0
 70 72  2  0
 73 71  1  1
 73 74  1  0
 73 75  1  0
 75 76  1  1
 75 77  1  0
 74 78  2  0
 74 79  1  0
 80 79  1  6
 80 81  1  0
 80 82  1  0
 82 83  1  0
 83 84  1  0
 83 85  1  0
 81 86  1  0
 81 87  2  0
 88 86  1  1
 88 89  1  0
 88 90  1  0
 90 91  1  0
 91 92  1  0
 92 93  1  0
 93 94  1  0
 89 95  1  0
 69 96  1  0
 96 97  1  0
 97 98  1  0
 98 99  1  0
 89100  2  0
101 95  1  6
101102  1  0
101103  1  0
102104  1  0
102105  2  0
104106  1  0
106107  1  0
106108  1  6
107109  2  0
107110  1  0
110111  1  0
111112  1  0
111113  1  1
113114  1  0
114115  2  0
115116  1  0
116117  2  0
117118  1  0
118119  2  0
119114  1  0
112120  1  0
112121  2  0
120122  1  0
122123  1  0
122124  1  1
124125  1  0
125126  1  0
126127  1  0
127128  1  0
123129  2  0
123130  1  0
131130  1  0
131132  1  6
131133  1  0
132134  1  0
132135  2  0
136134  1  1
136137  1  0
136138  1  0
138139  1  0
139140  1  0
139141  1  0
137142  2  0
137143  1  0
144143  1  6
144145  1  0
144146  1  0
146147  1  0
145148  2  0
145149  1  0
149150  1  0
150151  1  0
151152  1  0
152153  1  0
152154  2  0
153155  1  0
155156  1  0
156157  1  0
157158  1  0
157159  2  0
158160  1  0
160161  1  0
160162  1  0
162163  2  0
162164  1  0
161165  1  0
165166  1  0
166167  1  0
167  8  1  0
103168  1  0
168169  1  0
169170  1  0
170  1  1  0
133  4  1  0
 54171  1  0
171172  2  0
172173  1  0
173174  2  0
174175  1  0
175176  2  0
176171  1  0
M  END