
  SciTegic11201309402D

 77 81  0  0  1  0            999 V2000
    6.8000   -2.5792    0.0000 N   0  0
    0.7417   -3.6042    0.0000 N   0  0
    6.1875   -3.1292    0.0000 C   0  0
    1.3292   -4.1917    0.0000 C   0  0
    0.2417   -2.0542    0.0000 C   0  0
    5.3917   -2.8667    0.0000 C   0  0  2  0  0  0
    5.5250   -2.0542    0.0000 N   0  0
    0.3667   -1.2375    0.0000 N   0  0
    0.3667   -2.8667    0.0000 C   0  0  2  0  0  0
    4.4375    0.0833    0.0000 N   0  0
    2.0667    0.4583    0.0000 N   0  0
    5.3917   -1.2375    0.0000 C   0  0
    1.3292    0.0833    0.0000 C   0  0
    7.7500   -1.4500    0.0000 C   0  0
    3.7000    0.4583    0.0000 C   0  0
    5.0250   -0.5042    0.0000 C   0  0  1  0  0  0
    7.5625   -2.2542    0.0000 C   0  0  2  0  0  0
    0.7417   -0.5042    0.0000 C   0  0  1  0  0  0
    2.0667   -4.5667    0.0000 C   0  0
    8.5417   -1.2042    0.0000 N   0  0
    5.6000    0.0458    0.0000 C   0  0
    2.8792    0.5875    0.0000 C   0  0  2  0  0  0
    7.2917    2.9000    0.0000 C   0  0
    4.4375   -4.1917    0.0000 S   0  0
    9.5167   -0.1667    0.0000 C   0  0
    3.7000   -4.5667    0.0000 S   0  0
    5.3792    0.8458    0.0000 C   0  0
    2.8792   -4.7000    0.0000 C   0  0
    8.7292   -0.4042    0.0000 C   0  0  2  0  0  0
    3.6000    2.6583    0.0000 C   0  0
    7.4792    3.7083    0.0000 N   0  0
    6.3542   -3.9375    0.0000 O   0  0
   -0.4208   -3.1292    0.0000 C   0  0
    0.8417   -4.8625    0.0000 O   0  0
   -0.5875   -2.0542    0.0000 O   0  0
    5.0250   -3.6042    0.0000 C   0  0
    7.1417   -0.8875    0.0000 O   0  0
    0.8417    0.7500    0.0000 O   0  0
    6.1875   -0.9792    0.0000 O   0  0
    3.9542    1.2458    0.0000 O   0  0
    0.0750   -0.0167    0.0000 C   0  0
   10.1167   -0.7292    0.0000 O   0  0
    5.8875    1.4958    0.0000 O   0  0
    4.3167    3.0708    0.0000 O   0  0
    2.8792    1.4125    0.0000 C   0  0
    7.8917    2.3333    0.0000 N   0  0
    9.7042    0.6458    0.0000 N   0  0
    6.5000    2.6625    0.0000 N   0  0
    6.8667   -3.4042    0.0000 C   0  0
    4.5667    0.9458    0.0000 N   0  0
    3.6000    1.8333    0.0000 C   0  0
   -1.0333   -2.5750    0.0000 C   0  0
    2.8792    3.0708    0.0000 N   0  0
    0.0750   -4.0917    0.0000 C   0  0
   -2.2583   -1.4667    0.0000 C   0  0
    0.1625    0.8083    0.0000 C   0  0
   -0.8583   -1.7667    0.0000 C   0  0
   -1.8208   -2.8292    0.0000 C   0  0
   -1.4750   -1.2125    0.0000 C   0  0
   -2.4333   -2.2750    0.0000 C   0  0
    8.1000   -2.8792    0.0000 C   0  0
   -2.8750   -0.9167    0.0000 O   0  0
    7.6750   -3.5875    0.0000 C   0  0
    2.1667   -5.0042    0.0000 C   0  0
    3.6000   -5.0042    0.0000 C   0  0
    8.1250    0.1583    0.0000 C   0  0
    7.7125    1.5333    0.0000 C   0  0
   10.4917    0.8833    0.0000 C   0  0
   -0.5083    1.2958    0.0000 C   0  0
    0.9167    1.1458    0.0000 C   0  0
    8.3125    0.9708    0.0000 C   0  0
    3.6000   -5.8292    0.0000 C   0  0
    2.1667   -5.8292    0.0000 C   0  0
    1.0042    1.9625    0.0000 C   0  0
   -0.4208    2.1125    0.0000 C   0  0
    2.8792   -6.2417    0.0000 C   0  0
    0.3292    2.4583    0.0000 C   0  0
  2  4  1  0
  3  1  1  0
  4 19  1  0
  5  9  1  0
  6  3  1  1
  7  6  1  0
  8  5  1  0
  9  2  1  0
 10 16  1  0
 11 22  1  0
 12  7  1  0
 13 11  1  0
 17 14  1  6
 15 10  1  0
 16 12  1  0
 17  1  1  0
 18 13  1  0
 19 28  1  0
 20 14  1  0
 16 21  1  6
 22 15  1  0
 23 46  2  0
 24 36  1  0
 25 29  1  0
 26 24  1  0
 27 21  1  0
 28 26  1  0
 29 20  1  1
 30 51  1  0
 31 23  1  0
 32  3  2  0
  9 33  1  1
 34  4  2  0
 35  5  2  0
  6 36  1  0
 37 14  2  0
 38 13  2  0
 39 12  2  0
 40 15  2  0
 18 41  1  6
 42 25  2  0
 43 27  2  0
 44 30  2  0
 22 45  1  1
 46 67  1  0
 47 25  1  0
 48 23  1  0
 49  1  1  0
 50 27  1  0
 51 45  1  0
 52 33  1  0
 53 30  1  0
 54  2  1  0
 55 60  1  0
 56 41  1  0
 57 52  2  0
 58 52  1  0
 59 57  1  0
 60 58  2  0
 17 61  1  0
 62 55  1  0
 63 49  1  0
 64 28  1  0
 65 28  1  0
 29 66  1  0
 67 71  1  0
 68 47  1  0
 69 56  1  0
 70 56  2  0
 71 66  1  0
 72 65  1  0
 73 64  1  0
 74 70  1  0
 75 69  2  0
 76 72  1  0
 77 74  2  0
 61 63  1  0
 76 73  1  0
 18  8  1  0
 59 55  2  0
 77 75  1  0
M  END