
          08180812482D 1   1.00000     0.00000     0

 19 20  0     0  0            999 V2000
    7.8527  -15.6083    0.0000 N   0  0  0  0  0  0           0  0  0
    7.8516  -16.4357    0.0000 C   0  0  0  0  0  0           0  0  0
    8.5664  -16.8485    0.0000 C   0  0  0  0  0  0           0  0  0
    8.5646  -15.1955    0.0000 C   0  0  0  0  0  0           0  0  0
    9.2800  -15.6047    0.0000 C   0  0  0  0  0  0           0  0  0
    9.2802  -16.4357    0.0000 C   0  0  0  0  0  0           0  0  0
   10.0363  -15.2753    0.0000 C   0  0  0  0  0  0           0  0  0
   10.6998  -15.7656    0.0000 N   0  3  0  0  0  0           0  0  0
   10.6902  -16.5899    0.0000 C   0  0  0  0  0  0           0  0  0
   11.4727  -16.8511    0.0000 S   0  0  0  0  0  0           0  0  0
   11.9631  -16.1876    0.0000 C   0  0  0  0  0  0           0  0  0
   11.4835  -15.5164    0.0000 C   0  0  0  0  0  0           0  0  0
   11.7440  -14.7336    0.0000 C   0  0  0  0  0  0           0  0  0
   12.7880  -16.1942    0.0000 C   0  0  0  0  0  0           0  0  0
   13.1948  -16.9120    0.0000 C   0  0  0  0  0  0           0  0  0
   14.0198  -16.9186    0.0000 O   0  0  0  0  0  0           0  0  0
    7.1368  -16.8476    0.0000 C   0  0  0  0  0  0           0  0  0
    8.5621  -14.3705    0.0000 N   0  0  0  0  0  0           0  0  0
    9.9949  -16.8478    0.0000 C   0  0  0  0  0  0           0  0  0
  4  1  1  0     0  0
  5  6  1  0     0  0
  9 10  1  0     0  0
 10 11  1  0     0  0
 11 12  2  0     0  0
 12  8  1  0     0  0
  2  3  1  0     0  0
 12 13  1  0     0  0
  3  6  2  0     0  0
 11 14  1  0     0  0
  5  7  1  0     0  0
 14 15  1  0     0  0
  1  2  2  0     0  0
 15 16  1  0     0  0
  7  8  1  0     0  0
  2 17  1  0     0  0
  8  9  2  0     0  0
  4 18  1  0     0  0
  5  4  2  0     0  0
  6 19  1  0     0  0
M  CHG  1   8   1
M  END