
  SciTegic01161211212D

 20 21  0  0  0  0            999 V2000
   -1.8810    1.5362    0.0000 C   0  0
   -2.2669    0.8063    0.0000 C   0  0
   -1.8304    0.1082    0.0000 C   0  0
   -1.0034    0.1340    0.0000 C   0  0
   -0.6152    0.8689    0.0000 C   0  0
   -1.0588    1.5682    0.0000 C   0  0
    0.2093    0.8982    0.0000 C   0  0
    0.6487    0.1979    0.0000 F   0  0
    0.5899    1.6280    0.0000 F   0  0
    1.0303    0.9026    0.0000 F   0  0
   -2.3130    2.2336    0.0000 C   0  0
   -1.9296    2.9618    0.0000 O   0  0
   -3.1376    2.2074    0.0000 C   0  0
   -3.6440    2.8578    0.0000 C   0  0
   -4.4194    2.5772    0.0000 S   0  0
   -4.3933    1.7525    0.0000 C   0  0
   -3.5988    1.5259    0.0000 C   0  0
   -3.3117    0.7511    0.0000 C   0  0
   -3.4120    3.6475    0.0000 N   0  0
   -5.0411    1.2430    0.0000 C   0  0
  7 10  1  0
  2  3  1  0
  1 11  1  0
  5  6  2  0
 11 12  2  0
  6  1  1  0
 11 13  1  0
 13 14  2  0
  1  2  2  0
  5  7  1  0
  3  4  2  0
  7  8  1  0
 14 15  1  0
 15 16  1  0
 16 17  2  0
 17 13  1  0
 17 18  1  0
  7  9  1  0
 14 19  1  0
  4  5  1  0
 16 20  1  0
M  END