
  SciTegic10011413212D

 24 28  0  0  0  0            999 V2000
    2.7900  -28.3876    0.0000 C   0  0
    3.5022  -27.9712    0.0000 C   0  0
    3.3262  -27.1652    0.0000 N   0  0
    2.5052  -27.0834    0.0000 C   0  0
    2.1740  -27.8390    0.0000 N   0  0
    0.5732  -28.6563    0.0000 C   0  0
    0.5721  -29.4833    0.0000 C   0  0
    1.2865  -29.8959    0.0000 C   0  0
    1.2848  -28.2438    0.0000 C   0  0
    1.9998  -28.6527    0.0000 C   0  0
    2.0047  -29.4833    0.0000 C   0  0
    2.7962  -29.7354    0.0000 N   0  0
    3.2805  -29.0606    0.0000 C   0  0
    4.1051  -29.0575    0.0000 O   0  0
    4.2574  -28.3024    0.0000 N   0  0
    4.3481  -29.1219    0.0000 C   0  0
    5.1032  -29.4532    0.0000 C   0  0
    5.5916  -30.1152    0.0000 C   0  0
    5.9229  -29.3601    0.0000 C   0  0
    1.3684  -28.0149    0.0000 C   0  0
    0.8132  -27.4052    0.0000 C   0  0
    0.6340  -26.5969    0.0000 C   0  0
    0.0243  -27.1520    0.0000 C   0  0
    2.0889  -26.3716    0.0000 S   0  0
  1  2  1  0
  2  3  1  0
  3  4  1  0
  4  5  1  0
  5  1  1  0
  6  7  2  0
  7  8  1  0
  8 11  2  0
 10  9  2  0
  9  6  1  0
 10 11  1  0
 11 12  1  0
 12 13  1  0
 13  1  1  0
  1 10  1  0
 13 14  2  0
  2 15  2  0
 15 16  1  0
 16 17  1  0
 18 17  1  0
 19 18  1  0
 17 19  1  0
  5 20  1  0
 20 21  1  0
 22 21  1  0
 23 22  1  0
 21 23  1  0
  4 24  2  0
M  END