
  SciTegic06271217572D

 24 25  0  0  0  0            999 V2000
   21.8745   -6.3610    0.0000 S   0  0
   22.2868   -7.0756    0.0000 O   0  0
   22.6995   -6.3612    0.0000 O   0  0
   21.1611   -4.2958    0.0000 C   0  0
   21.1599   -5.1232    0.0000 C   0  0
   21.8747   -5.5360    0.0000 C   0  0
   22.5912   -5.1227    0.0000 C   0  0
   22.5883   -4.2922    0.0000 C   0  0
   21.8729   -3.8830    0.0000 C   0  0
   23.3012   -3.8770    0.0000 C   0  0
   24.0172   -4.2868    0.0000 C   0  0
   23.2981   -3.0520    0.0000 O   0  0
   24.7302   -3.8716    0.0000 S   0  0
   25.4462   -4.2814    0.0000 C   0  0
   25.4462   -5.1053    0.0000 N   0  0
   26.1613   -5.5150    0.0000 C   0  0
   26.8752   -5.0997    0.0000 C   0  0
   26.8695   -4.2705    0.0000 C   0  0
   26.1537   -3.8645    0.0000 N   0  0
   20.4451   -5.5351    0.0000 Cl  0  0
   21.1600   -6.7734    0.0000 N   0  0
   27.5918   -5.5086    0.0000 C   0  0
   27.5960   -6.3336    0.0000 C   0  0
   28.3126   -6.7424    0.0000 C   0  0
  6  7  2  0
 11 13  1  0
  2  1  2  0
 13 14  1  0
  7  8  1  0
 14 15  2  0
  4  5  2  0
 15 16  1  0
  8  9  2  0
 16 17  2  0
  9  4  1  0
 17 18  1  0
  1  3  2  0
 18 19  2  0
 19 14  1  0
  8 10  1  0
  5 20  1  0
  6  1  1  0
  5  6  1  0
  1 21  1  0
 10 11  1  0
 17 22  1  0
 22 23  1  0
 10 12  2  0
 23 24  1  0
M  END