
  SciTegic09261414482D

 17 19  0  0  0  0            999 V2000
   12.1918   -8.8050    0.0000 N   0  0
   11.7793   -9.5195    0.0000 C   0  0
   12.6043   -9.5195    0.0000 C   0  0
   11.0648   -9.9320    0.0000 C   0  0
   10.3504   -9.5195    0.0000 C   0  0
   10.3504   -8.6945    0.0000 C   0  0
    9.6359   -8.2820    0.0000 C   0  0
    8.9214   -8.6945    0.0000 C   0  0
    8.9214   -9.5195    0.0000 C   0  0
    9.6359   -9.9320    0.0000 C   0  0
   11.0648  -10.7570    0.0000 O   0  0
   13.0168  -10.2340    0.0000 C   0  0
   13.4293   -9.5195    0.0000 C   0  0
    8.2069   -8.2820    0.0000 C   0  0
    7.4925   -8.6945    0.0000 C   0  0
    7.4925   -9.5195    0.0000 C   0  0
    8.2069   -9.9320    0.0000 C   0  0
  1  2  1  0
  2  3  1  0
  1  3  1  0
  4  5  1  0
  5  6  1  0
  6  7  2  0
  7  8  1  0
  8  9  2  0
  9 10  1  0
  5 10  2  0
  4 11  1  0
  2  4  1  0
  3 12  1  0
 13  3  1  0
  8 14  1  0
 14 15  2  0
 15 16  1  0
 16 17  2  0
 17  9  1  0
M  END