
  CDK    9/16/09,10:0

 26 28  0  0  0  0  0  0  0  0999 V2000
   15.8299   -8.5949    0.0000 N   0  0  0  0  0  0  0  0  0  0  0  0
   15.4254   -7.8785    0.0000 C   0  0  0  0  0  0  0  0  0  0  0  0
   14.6041   -7.8731    0.0000 C   0  0  0  0  0  0  0  0  0  0  0  0
   14.1848   -8.5839    0.0000 C   0  0  0  0  0  0  0  0  0  0  0  0
   14.5930   -9.3019    0.0000 C   0  0  0  0  0  0  0  0  0  0  0  0
   15.4205   -9.3090    0.0000 C   0  0  0  0  0  0  0  0  0  0  0  0
   16.6549   -8.5975    0.0000 C   0  0  0  0  0  0  0  0  0  0  0  0
   17.0651   -9.3134    0.0000 C   0  0  0  0  0  0  0  0  0  0  0  0
   17.0697   -7.8846    0.0000 C   0  0  0  0  0  0  0  0  0  0  0  0
    7.9500   -9.0195    0.0000 C   0  0  0  0  0  0  0  0  0  0  0  0
    7.9488   -9.8470    0.0000 C   0  0  0  0  0  0  0  0  0  0  0  0
    8.6617  -10.2599    0.0000 C   0  0  0  0  0  0  0  0  0  0  0  0
    9.3810   -9.8465    0.0000 C   0  0  0  0  0  0  0  0  0  0  0  0
    9.3778   -9.0154    0.0000 C   0  0  0  0  0  0  0  0  0  0  0  0
    8.6597   -8.6067    0.0000 C   0  0  0  0  0  0  0  0  0  0  0  0
   10.0903   -8.5994    0.0000 C   0  0  0  0  0  0  0  0  0  0  0  0
   10.8066   -9.0084    0.0000 C   0  0  0  0  0  0  0  0  0  0  0  0
   10.8996   -9.8281    0.0000 C   0  0  0  0  0  0  0  0  0  0  0  0
   11.7074   -9.9957    0.0000 N   0  0  0  0  0  0  0  0  0  0  0  0
   12.1159   -9.2796    0.0000 C   0  0  0  0  0  0  0  0  0  0  0  0
   11.5612   -8.6690    0.0000 N   0  0  0  0  0  0  0  0  0  0  0  0
    7.2337  -10.2584    0.0000 Cl  0  0  0  0  0  0  0  0  0  0  0  0
   11.7292   -7.8614    0.0000 C   0  0  0  0  0  0  0  0  0  0  0  0
   12.9409   -9.2871    0.0000 O   0  0  0  0  0  0  0  0  0  0  0  0
   10.0861   -7.7745    0.0000 O   0  0  0  0  0  0  0  0  0  0  0  0
   13.3598   -8.5764    0.0000 C   0  0  0  0  0  0  0  0  0  0  0  0
  1  2  1  0  0  0  0 
 13 14  1  0  0  0  0 
  1  7  1  0  0  0  0 
 14 15  2  0  0  0  0 
 15 10  1  0  0  0  0 
 14 16  1  0  0  0  0 
  7  8  1  0  0  0  0 
 16 17  1  0  0  0  0 
 17 18  2  0  0  0  0 
  1  6  1  0  0  0  0 
  7  9  1  0  0  0  0 
  2  3  1  0  0  0  0 
  3  4  1  0  0  0  0 
 18 19  1  0  0  0  0 
 19 20  2  0  0  0  0 
 20 21  1  0  0  0  0 
 21 17  1  0  0  0  0 
 10 11  2  0  0  0  0 
 11 22  1  0  0  0  0 
  4  5  1  0  0  0  0 
 21 23  1  0  0  0  0 
 11 12  1  0  0  0  0 
 20 24  1  0  0  0  0 
  5  6  1  0  0  0  0 
 16 25  2  0  0  0  0 
 12 13  2  0  0  0  0 
 24 26  1  0  0  0  0 
 26  4  1  0  0  0  0 
M  END