
  Mrv0541 04051115152D          

 16 18  0  0  0  0            999 V2000
    7.7995    0.3710    0.0000 C   0  0  0  0  0  0  0  0  0  0  0  0
    8.4669    0.8560    0.0000 C   0  0  0  0  0  0  0  0  0  0  0  0
    8.4669    1.6810    0.0000 C   0  0  0  0  0  0  0  0  0  0  0  0
    8.0544   -0.4136    0.0000 C   0  0  0  0  0  0  0  0  0  0  0  0
    8.8794    2.9505    0.0000 N   0  0  0  0  0  0  0  0  0  0  0  0
    8.0544    2.9505    0.0000 C   0  0  0  0  0  0  0  0  0  0  0  0
    7.5695    3.6179    0.0000 C   0  0  0  0  0  0  0  0  0  0  0  0
    6.7490    3.5317    0.0000 C   0  0  0  0  0  0  0  0  0  0  0  0
    6.2641    4.1991    0.0000 C   0  0  0  0  0  0  0  0  0  0  0  0
    6.5996    4.9528    0.0000 C   0  0  0  0  0  0  0  0  0  0  0  0
    7.4201    5.0391    0.0000 C   0  0  0  0  0  0  0  0  0  0  0  0
    7.9050    4.3716    0.0000 C   0  0  0  0  0  0  0  0  0  0  0  0
    9.1343    0.3710    0.0000 N   0  0  0  0  0  0  0  0  0  0  0  0
    7.7995    2.1659    0.0000 S   0  0  0  0  0  0  0  0  0  0  0  0
    9.1343    2.1659    0.0000 C   0  0  0  0  0  0  0  0  0  0  0  0
    8.8794   -0.4136    0.0000 N   0  0  0  0  0  0  0  0  0  0  0  0
  1  2  1  0  0  0  0
  1  4  2  0  0  0  0
  2  3  1  0  0  0  0
  2 13  2  0  0  0  0
  3 14  1  0  0  0  0
  3 15  2  0  0  0  0
  4 16  1  0  0  0  0
  6  5  2  0  0  0  0
 15  5  1  0  0  0  0
  6  7  1  0  0  0  0
  6 14  1  0  0  0  0
  7  8  1  0  0  0  0
  7 12  2  0  0  0  0
  8  9  2  0  0  0  0
  9 10  1  0  0  0  0
 10 11  2  0  0  0  0
 11 12  1  0  0  0  0
 16 13  1  0  0  0  0
M  END