
  SciTegic06051313522D

 36 40  0  0  0  0            999 V2000
   16.8705  -20.2013    0.0000 C   0  0
   17.5839  -20.6138    0.0000 C   0  0
   17.5839  -21.4388    0.0000 C   0  0
   18.2973  -21.8513    0.0000 C   0  0
   19.0107  -21.4388    0.0000 C   0  0
   19.0107  -20.6138    0.0000 C   0  0
   18.2973  -20.2013    0.0000 C   0  0
   16.8705  -19.3763    0.0000 O   0  0
   16.1529  -20.6138    0.0000 N   0  0
   16.8705  -21.8513    0.0000 N   0  0
   17.5839  -23.9137    0.0000 C   0  0
   17.5839  -23.0887    0.0000 C   0  0
   16.8705  -22.6763    0.0000 C   0  0
   16.1529  -23.0887    0.0000 C   0  0
   16.1529  -23.9137    0.0000 C   0  0
   16.8705  -24.3262    0.0000 N   0  0
   18.3701  -24.1701    0.0000 N   0  0
   18.3701  -22.8324    0.0000 C   0  0
   18.8530  -23.5012    0.0000 C   0  0
   15.4394  -22.6763    0.0000 C   0  0
   20.0905  -22.7879    0.0000 C   0  0
   19.6780  -23.5012    0.0000 C   0  0
   20.0905  -24.2147    0.0000 C   0  0
   20.9155  -24.2147    0.0000 C   0  0
   21.3280  -23.5012    0.0000 C   0  0
   20.9155  -22.7879    0.0000 C   0  0
   22.1530  -23.5012    0.0000 N   0  0
   22.5656  -24.2147    0.0000 C   0  0
   23.3906  -24.2147    0.0000 C   0  0
   23.8031  -23.5012    0.0000 O   0  0
   23.3906  -22.7879    0.0000 C   0  0
   22.5656  -22.7879    0.0000 C   0  0
   16.1529  -21.4388    0.0000 C   0  0
   15.4399  -21.8513    0.0000 F   0  0
   14.7247  -23.0883    0.0000 F   0  0
   14.7207  -22.2624    0.0000 F   0  0
  1  2  1  0
  2  3  1  0
  3  4  2  0
  4  5  1  0
  5  6  2  0
  6  7  1  0
  2  7  2  0
  1  8  2  0
  1  9  1  0
 11 12  1  0
 12 13  2  0
 13 14  1  0
 14 15  2  0
 15 16  1  0
 11 16  2  0
 18 19  2  0
 17 19  1  0
 11 17  1  0
 12 18  1  0
 10 13  1  0
 14 20  1  0
 21 22  1  0
 22 23  2  0
 23 24  1  0
 24 25  2  0
 25 26  1  0
 21 26  2  0
 27 28  1  0
 28 29  1  0
 29 30  1  0
 30 31  1  0
 31 32  1  0
 27 32  1  0
 25 27  1  0
 19 22  1  0
  3 10  1  0
  9 33  1  0
 20 34  1  0
 20 35  1  0
 20 36  1  0
M  END