
  SciTegic11201309402D

112120  0  0  0  0            999 V2000
   -3.2284  -10.3930    0.0000 C   0  0
   -4.0153  -11.8486    0.0000 O   0  0
   10.3652  -11.8171    0.0000 C   0  0
   11.1902  -11.8205    0.0000 N   0  0
    9.9498  -12.5299    0.0000 O   0  0
   11.5998  -12.5367    0.0000 C   0  0  2  0  0  0
   12.4247  -12.5400    0.0000 C   0  0
   11.1843  -13.2494    0.0000 C   0  0  1  0  0  0
   10.3594  -13.2461    0.0000 C   0  0
   11.5939  -13.9656    0.0000 O   0  0
   12.8343  -13.2562    0.0000 N   0  0
   12.8402  -11.8272    0.0000 O   0  0
    9.1357  -11.0967    0.0000 N   0  0
    9.9560  -11.1012    0.0000 C   0  0  1  0  0  0
   10.2136  -10.3222    0.0000 C   0  0
    9.5523   -9.8365    0.0000 C   0  0
    8.8861  -10.3154    0.0000 C   0  0
   13.6593  -13.2595    0.0000 C   0  0  2  0  0  0
   14.0689  -13.9757    0.0000 C   0  0
   14.0747  -12.5467    0.0000 C   0  0
   13.6535  -14.6884    0.0000 O   0  0
   14.8914  -13.9789    0.0000 N   0  0
   14.8841  -14.8027    0.0000 C   0  0
   15.6650  -15.0689    0.0000 C   0  0
   16.1595  -14.4085    0.0000 C   0  0
   15.6845  -13.7326    0.0000 C   0  0  1  0  0  0
   16.0737  -13.0052    0.0000 C   0  0
   16.8975  -12.9786    0.0000 N   0  0
   15.6383  -12.3044    0.0000 O   0  0
   17.1770  -13.7541    0.0000 C   0  0
   18.0016  -13.7301    0.0000 C   0  0
   18.2337  -12.9384    0.0000 C   0  0
   17.5527  -12.4719    0.0000 C   0  0  1  0  0  0
   17.2626  -11.6996    0.0000 C   0  0
   17.7850  -11.0537    0.0000 N   0  0
   16.4487  -11.5647    0.0000 O   0  0
   10.5998  -12.5325    0.0000 H   0  0
    8.7260  -11.8128    0.0000 C   0  0
    7.9010  -11.8160    0.0000 C   0  0  1  0  0  0
    9.1412  -12.5257    0.0000 O   0  0
    7.4857  -11.1032    0.0000 N   0  0
    7.4913  -12.5321    0.0000 C   0  0
   17.3823  -10.3339    0.0000 C   0  0  2  0  0  0
   16.5574  -10.3223    0.0000 C   0  0
   17.8038   -9.6254    0.0000 C   0  0
   18.6287   -9.6113    0.0000 C   0  0
   19.0533  -10.3187    0.0000 C   0  0
   18.6546  -11.0411    0.0000 O   0  0
   19.8797  -10.3057    0.0000 O   0  0
   16.1546   -9.6022    0.0000 N   0  0
   16.1349  -11.0309    0.0000 O   0  0
   16.4745   -8.8407    0.0000 C   0  0
    7.9065  -13.2450    0.0000 C   0  0
    6.6607  -11.1064    0.0000 C   0  0
    6.2454  -10.3935    0.0000 C   0  0
    6.2510  -11.8225    0.0000 O   0  0
    4.6991   -9.9942    0.0000 C   0  0
    3.9916  -10.4186    0.0000 C   0  0
    4.6853   -9.1693    0.0000 O   0  0
    3.2703  -10.0181    0.0000 C   0  0
    2.5629  -10.4425    0.0000 C   0  0
    1.8416  -10.0420    0.0000 C   0  0
    1.1341  -10.4664    0.0000 N   0  0
    0.4128  -10.0660    0.0000 C   0  0
   -0.2946  -10.4904    0.0000 N   0  0
    0.3990   -9.2411    0.0000 S   0  0
   -1.0159  -10.0899    0.0000 C   0  0
   -1.0245   -9.2674    0.0000 C   0  0
   -1.7449   -8.8670    0.0000 C   0  0
   -1.7159  -10.5172    0.0000 C   0  0
   -2.4368  -10.1206    0.0000 C   0  0
   -2.4526   -9.2868    0.0000 C   0  0
   -3.2505   -9.0442    0.0000 C   0  0
   -3.7278   -9.7280    0.0000 O   0  0
   -3.5202   -8.2645    0.0000 O   0  0
   -2.7912  -11.0944    0.0000 C   0  0
   -3.1892  -11.8223    0.0000 C   0  0
   -2.7580  -12.5288    0.0000 C   0  0
   -1.9289  -12.5087    0.0000 C   0  0
   -1.5329  -11.7761    0.0000 C   0  0
   -1.9664  -11.0726    0.0000 C   0  0
   -4.4481  -11.1425    0.0000 C   0  0
   -4.0555  -10.4199    0.0000 C   0  0
   -4.4848   -9.7206    0.0000 C   0  0
   -5.3067   -9.7428    0.0000 C   0  0
   -5.6973  -10.4701    0.0000 C   0  0
   -5.2657  -11.1663    0.0000 C   0  0
   -1.4979  -13.2121    0.0000 O   0  0
   -6.5281  -10.4957    0.0000 O   0  0
    7.4968  -13.9610    0.0000 C   0  0
    6.6701  -13.9654    0.0000 O   0  0
    7.9103  -14.6750    0.0000 O   0  0
    6.6499   -9.6708    0.0000 C   0  0
    7.0551   -8.9521    0.0000 C   0  0
   15.3296   -9.5975    0.0000 C   0  0
   14.9212   -8.8807    0.0000 C   0  0
   14.0962   -8.8760    0.0000 C   0  0
   13.6796   -9.5881    0.0000 C   0  0
   12.8546   -9.5834    0.0000 C   0  0
   12.4449   -8.8665    0.0000 C   0  0
    5.8250   -9.6792    0.0000 C   0  0
    5.4198  -10.3979    0.0000 N   0  0
   11.6199   -8.8630    0.0000 C   0  0
   11.2043   -9.5756    0.0000 C   0  0
   10.3793   -9.5721    0.0000 C   0  0
    9.8157   -8.9433    0.0000 C   0  0
   17.1833   -8.4208    0.0000 C   0  0
   17.9024   -8.8253    0.0000 O   0  0
   17.1741   -7.5959    0.0000 N   0  0
   18.3398  -11.8550    0.0000 H   0  0
   16.6827  -13.6720    0.0000 H   0  0
   10.9510  -11.0014    0.0000 H   0  0
 25 26  1  0
 26 22  1  0
 42 53  1  0
  7 12  2  0
 41 54  1  0
 26 27  1  0
 54 55  1  0
 13 14  1  0
 54 56  2  0
 55102  1  0
 27 28  1  0
102 57  1  0
  3  5  2  0
 57 58  1  0
 27 29  2  0
 57 59  2  0
 28 30  1  0
 58 60  1  0
 82  2  1  0
 60 61  1  0
  4  6  1  0
 61 62  1  0
  2 77  1  0
 62 63  1  0
  6  7  1  0
 63 64  1  0
 30 31  1  0
 64 65  1  0
 31 32  1  0
 64 66  2  0
 32 33  1  0
 65 67  1  0
 33 28  1  0
 67 68  2  0
 14 15  1  0
 68 69  1  0
 69 72  2  0
 33 34  1  0
 71 70  2  0
 70 67  1  0
 71 72  1  0
 15 16  1  0
 34 35  1  0
 16 17  1  0
 34 36  2  0
 72 73  1  0
 73 74  1  0
 74  1  1  0
  1 71  1  0
 17 13  1  0
 73 75  2  0
  6 37  1  1
 76 77  2  0
 13 38  1  0
 77 78  1  0
 11 18  1  0
 78 79  2  0
 38 39  1  0
 79 80  1  0
  6  8  1  0
 80 81  2  0
 81 76  1  0
 38 40  2  0
 18 19  1  0
 82 83  2  0
 39 41  1  0
 83 84  1  0
 14  3  1  0
 84 85  2  0
 39 42  1  6
 85 86  1  0
 18 20  1  1
 86 87  2  0
 87 82  1  0
 35 43  1  0
 79 88  1  0
  8  9  1  6
 86 89  1  0
 43 44  1  0
 53 90  1  0
 19 21  2  0
 43 45  1  6
 90 91  1  0
 90 92  2  0
  1 83  1  0
 45 46  1  0
 93 94  1  0
 19 22  1  0
 50 95  1  0
 46 47  1  0
 95 96  1  0
 22 23  1  0
 96 97  1  0
  8 10  1  0
 97 98  1  0
 47 48  1  0
 98 99  1  0
 47 49  2  0
 99100  1  0
  3  4  1  0
 93101  1  0
 44 50  1  0
101102  1  0
  7 11  1  0
100103  1  0
 44 51  2  0
103104  1  0
  1 76  1  0
104105  1  0
 50 52  1  0
105106  1  0
 94106  2  0
 52107  1  0
 23 24  1  0
107108  2  0
 24 25  1  0
107109  1  0
 33110  1  1
 26111  1  1
 14112  1  6
M  END