
          03140815522D 1   1.00000     0.00000     0

 17 18  0     0  0            999 V2000
    6.7986   -9.7750    0.0000 C   0  0  0  0  0  0           0  0  0
    6.7974  -10.6023    0.0000 C   0  0  0  0  0  0           0  0  0
    7.5122  -11.0152    0.0000 C   0  0  0  0  0  0           0  0  0
    8.2287  -10.6019    0.0000 C   0  0  0  0  0  0           0  0  0
    8.2258   -9.7713    0.0000 C   0  0  0  0  0  0           0  0  0
    7.5104   -9.3622    0.0000 C   0  0  0  0  0  0           0  0  0
    7.5080   -8.5372    0.0000 Cl  0  0  0  0  0  0           0  0  0
    7.5120  -11.8402    0.0000 Cl  0  0  0  0  0  0           0  0  0
    8.9387   -9.3561    0.0000 C   0  0  0  0  0  0           0  0  0
    9.6547   -9.7659    0.0000 N   0  0  0  0  0  0           0  0  0
    8.9356   -8.5311    0.0000 O   0  0  0  0  0  0           0  0  0
   10.3677   -9.3508    0.0000 C   0  0  0  0  0  0           0  0  0
   10.4482   -8.5342    0.0000 N   0  0  0  0  0  0           0  0  0
   11.1317   -9.6894    0.0000 N   0  0  0  0  0  0           0  0  0
   11.6704   -9.0789    0.0000 N   0  0  0  0  0  0           0  0  0
   11.2574   -8.3655    0.0000 C   0  0  0  0  0  0           0  0  0
    8.9438  -11.0132    0.0000 Cl  0  0  0  0  0  0           0  0  0
  5  9  1  0     0  0
  4  5  1  0     0  0
  9 10  1  0     0  0
  2  3  1  0     0  0
  9 11  2  0     0  0
  5  6  2  0     0  0
 10 12  1  0     0  0
  6  1  1  0     0  0
  1  2  2  0     0  0
  6  7  1  0     0  0
  3  4  2  0     0  0
 13 12  1  0     0  0
 12 14  2  0     0  0
 14 15  1  0     0  0
 15 16  2  0     0  0
 16 13  1  0     0  0
  3  8  1  0     0  0
  4 17  1  0     0  0
M  END