
  SciTegic04191613082D

 24 26  0  0  0  0            999 V2000
    1.2990   -0.7500    0.0000 C   0  0
    1.2990    0.7500    0.0000 C   0  0
    0.0000    1.5000    0.0000 C   0  0
   -1.2990    0.7500    0.0000 C   0  0
   -1.2990   -0.7500    0.0000 C   0  0
    0.0000   -1.5000    0.0000 C   0  0
   -2.6003    1.4977    0.0000 C   0  0
   -2.6024    2.6977    0.0000 O   0  0
   -3.8990    0.7455    0.0000 C   0  0
   -5.2007    1.4909    0.0000 C   0  0
   -6.4972    0.7364    0.0000 C   0  0
   -6.4920   -0.7636    0.0000 N   0  3
   -5.1903   -1.5091    0.0000 C   0  0
   -3.8939   -0.7546    0.0000 C   0  0
   -6.4504   -2.2434    0.0000 C   0  0
   -5.1484   -2.9899    0.0000 C   0  0
   -5.1428   -4.4907    0.0000 C   0  0
   -3.8426   -5.2387    0.0000 C   0  0
   -3.8401   -6.7387    0.0000 C   0  0
   -5.1380   -7.4908    0.0000 C   0  0
   -6.4382   -6.7429    0.0000 C   0  0
   -6.4407   -5.2429    0.0000 C   0  0
   -7.5183   -0.1419    0.0000 C   0  0
    2.3383   -1.3500    0.0000 Cl  0  0
  1  2  2  0
  2  3  1  0
  3  4  2  0
  4  5  1  0
  5  6  2  0
  6  1  1  0
  4  7  1  0
  7  8  2  0
  7  9  1  0
  9 10  1  0
  9 14  1  0
 10 11  1  0
 11 12  1  0
 12 13  1  0
 13 14  1  0
 12 15  1  0
 15 16  1  0
 16 17  1  0
 17 18  2  0
 18 19  1  0
 19 20  2  0
 20 21  1  0
 21 22  2  0
 22 17  1  0
 12 23  1  0
  1 24  1  0
M  CHG  1  12   1
M  END