
          11280715422D 1   1.00000     0.00000     0

 31 34  0     1  0            999 V2000
    0.0000    0.8000    0.0000 C   0  0  0  0  0  0           0  0  0
   -0.9958   -0.0917    0.0000 C   0  0  0  0  0  0           0  0  0
   -0.8208    0.7083    0.0000 N   0  0  0  0  0  0           0  0  0
   -0.2833   -0.5125    0.0000 N   0  0  3  0  0  0           0  0  0
    0.3292    0.0458    0.0000 C   0  0  0  0  0  0           0  0  0
   -1.7208   -0.1792    0.0000 C   0  0  0  0  0  0           0  0  0
    0.4125    1.5083    0.0000 C   0  0  0  0  0  0           0  0  0
   -2.1333    0.5458    0.0000 C   0  0  0  0  0  0           0  0  0
    1.2375    1.5083    0.0000 N   0  0  0  0  0  0           0  0  0
   -0.2833   -1.3375    0.0000 C   0  0  0  0  0  0           0  0  0
   -2.1333   -0.8917    0.0000 C   0  0  0  0  0  0           0  0  0
   -2.9625    0.5458    0.0000 C   0  0  0  0  0  0           0  0  0
    0.3792    2.3333    0.0000 O   0  0  0  0  0  0           0  0  0
    0.4167   -1.7375    0.0000 C   0  0  0  0  0  0           0  0  0
   -1.0000   -1.7375    0.0000 C   0  0  0  0  0  0           0  0  0
   -3.3708   -0.1750    0.0000 C   0  0  0  0  0  0           0  0  0
   -1.7208    1.2500    0.0000 Cl  0  0  0  0  0  0           0  0  0
    1.1375   -0.1292    0.0000 C   0  0  0  0  0  0           0  0  0
    2.0542    1.5083    0.0000 C   0  0  2  0  0  0           0  0  0
   -2.9625   -0.8917    0.0000 C   0  0  0  0  0  0           0  0  0
   -0.3000   -2.9750    0.0000 C   0  0  0  0  0  0           0  0  0
   -1.0083   -2.5542    0.0000 C   0  0  0  0  0  0           0  0  0
    0.4167   -2.5667    0.0000 C   0  0  0  0  0  0           0  0  0
   -4.1958   -0.1667    0.0000 Cl  0  0  0  0  0  0           0  0  0
   -0.3083   -3.8000    0.0000 Cl  0  0  0  0  0  0           0  0  0
    3.7042    1.5083    0.0000 C   0  0  2  0  0  0           0  0  0
    2.4667    0.8000    0.0000 C   0  0  0  0  0  0           0  0  0
    2.4667    2.2250    0.0000 C   0  0  0  0  0  0           0  0  0
    3.2917    0.8000    0.0000 C   0  0  0  0  0  0           0  0  0
    3.3000    2.2208    0.0000 C   0  0  0  0  0  0           0  0  0
    4.5292    1.5000    0.0000 O   0  0  0  0  0  0           0  0  0
  2  3  2  0     0  0
  3  1  1  0     0  0
  4  5  1  0     0  0
  5  1  2  0     0  0
  6  2  1  0     0  0
  7  1  1  0     0  0
  8  6  2  0     0  0
  9  7  1  0     0  0
 10  4  1  0     0  0
 11  6  1  0     0  0
 12  8  1  0     0  0
 13  7  2  0     0  0
 14 10  1  0     0  0
 15 10  2  0     0  0
 16 20  1  0     0  0
 17  8  1  0     0  0
 18  5  1  0     0  0
 19  9  1  1     0  0
 20 11  2  0     0  0
 21 22  2  0     0  0
 22 15  1  0     0  0
 23 14  2  0     0  0
 24 16  1  0     0  0
 25 21  1  0     0  0
 26 30  1  0     0  0
 27 19  1  0     0  0
 28 19  1  0     0  0
 29 27  1  0     0  0
 30 28  1  0     0  0
 26 31  1  6     0  0
  4  2  1  0     0  0
 26 29  1  0     0  0
 21 23  1  0     0  0
 16 12  2  0     0  0
M  END