
  SciTegic01161211262D

 40 43  0  0  0  0            999 V2000
   -0.0125   -4.3500    0.0000 N   0  3
    6.4167   -5.5625    0.0000 C   0  0
    2.8500   -5.1708    0.0000 C   0  0
    9.2833   -6.3667    0.0000 N   0  0
    7.1250   -5.1458    0.0000 C   0  0
    3.5667   -5.5792    0.0000 N   0  0
    2.1375   -5.5875    0.0000 C   0  0
    6.4250   -6.3917    0.0000 C   0  0
    9.3083   -8.0167    0.0000 N   0  0
    7.8417   -5.5583    0.0000 C   0  0
    5.7000   -5.1583    0.0000 C   0  0
    1.4208   -5.1750    0.0000 C   0  0
   -0.0083   -2.7042    0.0000 N   0  0
   -0.0083   -5.1750    0.0000 C   0  0
    2.8458   -4.3458    0.0000 O   0  0
    9.2708   -5.5458    0.0000 C   0  0
    0.7042   -5.5875    0.0000 C   0  0
    8.5542   -5.1417    0.0000 C   0  0
    8.5708   -6.7958    0.0000 C   0  0
    5.7083   -6.8083    0.0000 C   0  0
    4.9958   -5.5750    0.0000 C   0  0
    4.2792   -5.1667    0.0000 C   0  0
    8.5875   -7.6167    0.0000 C   0  0  2  0  0  0
    7.1417   -6.8042    0.0000 F   0  0
   10.0167   -7.5917    0.0000 C   0  0
    4.9958   -6.4000    0.0000 C   0  0
    0.7000   -3.9417    0.0000 C   0  0
   -0.7292   -3.9417    0.0000 C   0  0
   -0.6000   -4.9333    0.0000 C   0  0
   10.0042   -6.7625    0.0000 C   0  0
    7.1167   -4.3250    0.0000 C   0  0
    2.1375   -6.4167    0.0000 C   0  0
    0.7042   -3.1208    0.0000 C   0  0
   -0.7250   -3.1167    0.0000 C   0  0
    7.8250   -3.9083    0.0000 C   0  0
    1.4208   -6.8292    0.0000 C   0  0
    0.7083   -6.4167    0.0000 C   0  0
    8.5500   -4.3125    0.0000 C   0  0
    7.8792   -8.0417    0.0000 C   0  0
    3.5208   -8.9917    0.0000 I   0  5
  2 11  2  0
  3  7  1  0
  4 16  1  0
  5  2  1  0
  6  3  1  0
  7 12  2  0
  8  2  1  0
  9 25  1  0
 10  5  2  0
 11 21  1  0
 12 17  1  0
 13 34  1  0
 14  1  1  0
 15  3  2  0
 16 18  1  0
 17 14  1  0
 18 10  1  0
 19  4  1  0
 20 26  1  0
 21 22  1  0
 22  6  1  0
 23 19  1  0
 24  8  1  0
 25 30  1  0
 26 21  2  0
 27  1  1  0
 28  1  1  0
 29  1  1  0
 30  4  1  0
 31  5  1  0
 32 36  2  0
 33 27  1  0
 34 28  1  0
 35 31  2  0
 36 37  1  0
 37 17  2  0
 38 18  2  0
 23 39  1  1
 13 33  1  0
  7 32  1  0
  8 20  2  0
 35 38  1  0
  9 23  1  0
M  CHG  2   1   1  40  -1
M  END