
  SciTegic11201309402D

 91 96  0  0  1  0            999 V2000
    9.0876   -2.6969    0.0000 N   0  0
    9.3037   -3.4931    0.0000 C   0  0
   10.4287   -2.0945    0.0000 C   0  0
    5.1666   -4.6161    0.0000 C   0  0
    3.7876   -4.9905    0.0000 N   0  0
    3.2062   -5.5758    0.0000 C   0  0
    9.6047   -2.0540    0.0000 C   0  0  1  0  0  0
    7.3433   -4.4527    0.0000 C   0  0
    1.0295   -5.7392    0.0000 C   0  0
   12.1468   -0.7482    0.0000 C   0  0
    5.9642   -4.8270    0.0000 N   0  0
    2.4755   -8.3387    0.0000 C   0  0
    1.8271   -5.9501    0.0000 N   0  0
    4.5852   -5.2014    0.0000 C   0  0  1  0  0  0
    7.9247   -3.8674    0.0000 N   0  0
   10.8757   -1.4011    0.0000 N   0  0
    6.5457   -4.2418    0.0000 C   0  0  1  0  0  0
   12.9708   -0.7887    0.0000 N   0  0
    6.3295   -3.4456    0.0000 C   0  0
    2.4086   -5.3648    0.0000 C   0  0  1  0  0  0
    8.7223   -4.0783    0.0000 C   0  0  1  0  0  0
    0.4481   -6.3245    0.0000 C   0  0  2  0  0  0
   16.7840    1.1700    0.0000 C   0  0
   11.9365   -5.0299    0.0000 C   0  0
    1.4618   -7.3316    0.0000 C   0  0
    0.6642   -7.1207    0.0000 N   0  0
   13.0409    0.6385    0.0000 C   0  0
    6.9110   -2.8603    0.0000 C   0  0
   11.6998   -1.4416    0.0000 C   0  0  1  0  0  0
   13.4179   -0.0953    0.0000 C   0  0  2  0  0  0
   11.4894   -5.7233    0.0000 N   0  0
   17.2311    1.8633    0.0000 N   0  0
    3.2110   -7.2176    0.0000 C   0  0
    3.9466   -8.3387    0.0000 C   0  0
    2.7615   -8.7553    0.0000 C   0  0
   10.1013   -3.7040    0.0000 O   0  0
   10.8056   -2.8284    0.0000 O   0  0
    4.9505   -3.8199    0.0000 O   0  0
    1.6779   -8.1278    0.0000 C   0  0
    3.4223   -6.3719    0.0000 O   0  0
    7.5594   -5.2489    0.0000 O   0  0
    0.8134   -4.9430    0.0000 O   0  0
   11.7699   -0.0144    0.0000 O   0  0
    2.0261   -9.1290    0.0000 C   0  0
    3.2110   -8.7124    0.0000 C   0  0
    2.4755   -7.5913    0.0000 C   0  0
   -0.3495   -6.1136    0.0000 C   0  0
    2.1924   -4.5687    0.0000 C   0  0
   13.4880    1.3319    0.0000 O   0  0
    2.0433   -6.7463    0.0000 O   0  0
    7.7086   -3.0712    0.0000 O   0  0
    3.9466   -7.5913    0.0000 C   0  0
    2.7615   -8.0079    0.0000 C   0  0
    3.4971   -9.1290    0.0000 C   0  0
   11.5595   -4.2960    0.0000 N   0  0
   15.9600    1.2104    0.0000 N   0  0
   12.7605   -5.0704    0.0000 N   0  0
   17.1610    0.4361    0.0000 N   0  0
   12.2169    0.6790    0.0000 N   0  0
    8.3164   -2.4037    0.0000 C   0  0
    4.8013   -5.9976    0.0000 C   0  0
    6.6948   -2.0641    0.0000 N   0  0
   -0.9309   -6.6988    0.0000 C   0  0
   -2.0938   -7.8694    0.0000 C   0  0
    2.7739   -3.9834    0.0000 C   0  0
   -1.7285   -6.4879    0.0000 C   0  0
   -0.7148   -7.4950    0.0000 C   0  0
    7.9917   -6.8412    0.0000 N   0  0
   -2.3100   -7.0732    0.0000 C   0  0
   -1.2963   -8.0803    0.0000 C   0  0
    9.1531   -1.3636    0.0000 C   0  0
   -2.6753   -8.4546    0.0000 O   0  0
    8.3569   -1.5797    0.0000 C   0  0
    8.9384   -4.8745    0.0000 C   0  0
   12.0767   -2.1755    0.0000 C   0  0
   14.2419   -0.1358    0.0000 C   0  0
   12.0066   -3.6027    0.0000 C   0  0
   15.5129    0.5171    0.0000 C   0  0
    8.5731   -6.2560    0.0000 C   0  0
    5.5989   -6.2085    0.0000 C   0  0
    4.2199   -6.5829    0.0000 C   0  0
   -3.4729   -8.2437    0.0000 C   0  0
    3.5715   -4.1943    0.0000 C   0  0
    2.5577   -3.1872    0.0000 C   0  0
    8.3570   -5.4598    0.0000 C   0  0
   11.6296   -2.8688    0.0000 C   0  0
   14.6889    0.5576    0.0000 C   0  0
   -4.0543   -8.8290    0.0000 C   0  0
    3.1392   -2.6019    0.0000 C   0  0
    4.1529   -3.6090    0.0000 C   0  0
    3.9368   -2.8128    0.0000 C   0  0
  2  1  1  0
  7  3  1  6
  4 11  1  0
 14  5  1  6
  6  5  1  0
  7  1  1  0
  8 15  1  0
  9 13  1  0
 10 29  1  0
 17 11  1  1
 12 39  1  0
 20 13  1  1
 14  4  1  0
 21 15  1  6
 16  3  1  0
 17  8  1  0
 18 10  1  0
 17 19  1  0
 20  6  1  0
 21  2  1  0
 22  9  1  0
 23 56  2  0
 24 55  2  0
 25 26  1  0
 22 26  1  6
 30 27  1  0
 28 19  1  0
 29 16  1  6
 30 18  1  6
 31 24  1  0
 32 23  1  0
 33 46  1  0
 34 45  1  0
 35 44  1  0
 36  2  2  0
 37  3  2  0
 38  4  2  0
 39 25  1  0
 40  6  2  0
 41  8  2  0
 42  9  2  0
 43 10  2  0
 44 12  1  0
 45 12  1  0
 35 54  1  0
 22 47  1  0
 20 48  1  0
 49 27  2  0
 50 25  2  0
 51 28  2  0
 33 52  1  0
 33 53  1  0
 54 34  1  0
 55 77  1  0
 56 78  1  0
 57 24  1  0
 58 23  1  0
 59 27  1  0
 60  1  1  0
 14 61  1  0
 62 28  1  0
 63 47  1  0
 64 70  1  0
 65 48  1  0
 66 63  2  0
 67 63  1  0
 68 79  1  0
 69 66  1  0
 70 67  2  0
  7 71  1  0
 72 64  1  0
 73 60  1  0
 21 74  1  0
 29 75  1  0
 30 76  1  0
 77 86  1  0
 78 87  1  0
 79 85  1  0
 80 61  1  0
 81 61  1  0
 82 72  1  0
 83 65  2  0
 84 65  1  0
 85 74  1  0
 86 75  1  0
 87 76  1  0
 88 82  1  0
 89 84  2  0
 90 83  1  0
 91 89  1  0
 73 71  1  0
 91 90  2  0
 64 69  2  0
 35 53  1  0
 34 52  1  0
 46 12  1  0
M  END