
  SciTegic12201110432D

  7  6  0  0  0  0            999 V2000
    0.4714    0.0064    0.0000 C   0  0
    0.0589    0.7208    0.0000 C   0  0
    0.0589   -0.7081    0.0000 C   0  0
    0.4714    1.4353    0.0000 O   0  0
   -0.7661    0.7208    0.0000 O   0  0
    0.4714   -1.4226    0.0000 O   0  0
   -0.7661   -0.7081    0.0000 O   0  0
  1  2  1  0
  1  3  1  0
  2  4  2  0
  2  5  1  0
  3  6  2  0
  3  7  1  0
M  END