
          11280714482D 1   1.00000     0.00000     0

 21 24  0     0  0            999 V2000
   -2.0042   -1.7500    0.0000 N   0  0  0  0  0  0           0  0  0
   -1.4417   -1.3125    0.0000 N   0  0  3  0  0  0           0  0  0
   -1.7583   -2.4208    0.0000 C   0  0  0  0  0  0           0  0  0
   -1.0583   -2.3917    0.0000 C   0  0  3  0  0  0           0  0  0
   -0.8583   -1.7083    0.0000 C   0  0  0  0  0  0           0  0  0
   -1.0167   -3.6250    0.0000 N   0  0  0  0  0  0           0  0  0
   -2.0958   -3.0417    0.0000 C   0  0  0  0  0  0           0  0  0
   -0.6750   -2.9958    0.0000 C   0  0  0  0  0  0           0  0  0
   -1.7250   -3.6458    0.0000 C   0  0  0  0  0  0           0  0  0
   -1.4708   -0.6042    0.0000 C   0  0  0  0  0  0           0  0  0
   -0.2542   -1.3375    0.0000 O   0  0  0  0  0  0           0  0  0
   -0.8667   -0.2292    0.0000 C   0  0  0  0  0  0           0  0  0
   -2.0958   -0.2667    0.0000 C   0  0  0  0  0  0           0  0  0
   -1.5208    0.8167    0.0000 C   0  0  0  0  0  0           0  0  0
   -2.1208    0.4333    0.0000 C   0  0  0  0  0  0           0  0  0
   -0.8958    0.4875    0.0000 C   0  0  0  0  0  0           0  0  0
   -1.5333    1.5333    0.0000 Cl  0  0  0  0  0  0           0  0  0
   -2.8042   -3.0625    0.0000 C   0  0  0  0  0  0           0  0  0
   -2.0542   -4.2750    0.0000 C   0  0  0  0  0  0           0  0  0
   -3.1458   -3.6875    0.0000 C   0  0  0  0  0  0           0  0  0
   -2.7708   -4.2958    0.0000 C   0  0  0  0  0  0           0  0  0
  2  1  1  0     0  0
  3  1  2  0     0  0
  4  3  1  0     0  0
  5  2  1  0     0  0
  6  9  1  0     0  0
  7  3  1  0     0  0
  8  4  1  0     0  0
  9  7  1  0     0  0
 10  2  1  0     0  0
 11  5  2  0     0  0
 12 10  2  0     0  0
 13 10  1  0     0  0
 14 15  1  0     0  0
 15 13  2  0     0  0
 16 12  1  0     0  0
 17 14  1  0     0  0
 18  7  2  0     0  0
 19  9  2  0     0  0
 20 18  1  0     0  0
 21 20  2  0     0  0
  4  5  1  0     0  0
  8  6  2  0     0  0
 16 14  2  0     0  0
 21 19  1  0     0  0
M  END