
  SciTegic04191613082D

175184  0  0  1  0            999 V2000
   -4.8663   -8.5173    0.0000 C   0  0  2  0  0  0
   -5.8316   -7.3691    0.0000 N   0  0
   -7.0083   -6.4388    0.0000 C   0  0
   -8.3481   -5.7643    0.0000 C   0  0  1  0  0  0
   -9.7963   -5.3734    0.0000 N   0  0
  -11.2935   -5.2820    0.0000 C   0  0
  -11.3419   -4.0830    0.0000 O   0  0
  -12.7784   -5.4939    0.0000 C   0  0  1  0  0  0
  -14.1904   -6.0004    0.0000 N   0  0
  -15.4714   -6.7807    0.0000 C   0  0
  -16.5692   -7.8029    0.0000 C   0  0  2  0  0  0
  -17.2945   -6.4755    0.0000 C   0  0
  -18.7949   -6.4394    0.0000 C   0  0
  -19.5277   -5.1172    0.0000 C   0  0
  -21.0244   -5.0827    0.0000 C   0  0
  -21.7426   -3.7692    0.0000 C   0  0
  -23.2392   -3.7346    0.0000 C   0  0
  -24.0177   -5.0136    0.0000 C   0  0
  -23.2995   -6.3271    0.0000 C   0  0
  -21.8029   -6.3617    0.0000 C   0  0
  -21.0847   -7.6752    0.0000 C   0  0
  -19.5724   -7.7193    0.0000 C   0  0
  -17.4387   -9.0251    0.0000 N   0  0
  -18.0444  -10.3974    0.0000 C   0  0
  -19.1856  -10.0264    0.0000 O   0  0
  -18.3615  -11.8635    0.0000 C   0  0  1  0  0  0
  -18.3769  -13.3634    0.0000 N   0  0
  -18.0901  -14.8357    0.0000 C   0  0
  -19.2410  -15.1756    0.0000 O   0  0
  -17.5308  -16.2285    0.0000 C   0  0  1  0  0  0
  -18.1504  -14.8624    0.0000 N   0  0
  -18.5002  -13.4038    0.0000 C   0  0
  -18.5676  -11.9053    0.0000 C   0  0  2  0  0  0
  -18.3502  -10.4211    0.0000 N   0  0
  -17.8559   -9.0049    0.0000 C   0  0
  -17.1025   -7.7079    0.0000 C   0  0  2  0  0  0
  -17.9156   -7.1257    0.0000 C   0  0
  -16.1173   -6.5768    0.0000 N   0  0
  -14.9357   -5.6527    0.0000 C   0  0
  -13.6007   -4.9688    0.0000 C   0  0  1  0  0  0
  -12.1604   -4.5500    0.0000 N   0  0
  -10.6668   -4.4113    0.0000 C   0  0
  -10.6636   -3.2114    0.0000 O   0  0
   -9.1739   -4.5578    0.0000 C   0  0  2  0  0  0
   -8.8866   -3.0726    0.0000 C   0  0
   -7.4683   -2.5819    0.0000 C   0  0
   -6.3194   -3.5643    0.0000 C   0  0
   -4.9052   -3.0733    0.0000 C   0  0
   -4.6231   -1.6028    0.0000 C   0  0
   -3.2088   -1.1118    0.0000 C   0  0
   -2.0767   -2.0913    0.0000 C   0  0
   -2.3588   -3.5618    0.0000 C   0  0
   -3.7730   -4.0528    0.0000 C   0  0
   -5.7552   -0.6233    0.0000 C   0  0
   -7.1874   -1.1109    0.0000 C   0  0
   -7.7358   -4.9842    0.0000 N   0  0
   -6.4044   -5.6751    0.0000 C   0  0
   -5.7530   -4.6673    0.0000 O   0  0
   -5.2277   -6.6054    0.0000 C   0  0  1  0  0  0
   -4.7258   -5.1826    0.0000 C   0  0
   -3.2522   -4.9026    0.0000 C   0  0
   -2.2729   -6.0388    0.0000 C   0  0
   -2.7672   -7.4550    0.0000 C   0  0
   -4.2484   -7.7416    0.0000 N   0  0
   -3.5018   -9.0426    0.0000 C   0  0
   -2.4090   -8.5469    0.0000 O   0  0
   -3.0149  -10.4614    0.0000 C   0  0  1  0  0  0
   -1.5432  -10.1114    0.0000 C   0  0  1  0  0  0
   -0.7186  -10.9832    0.0000 O   0  0
   -1.2003   -8.9615    0.0000 C   0  0
   -2.8054  -11.9467    0.0000 N   0  0
   -2.8807  -13.4448    0.0000 C   0  0
   -3.2381  -14.9015    0.0000 C   0  0  2  0  0  0
   -2.0647  -15.8562    0.0000 C   0  0
   -0.6620  -15.3224    0.0000 C   0  0
    0.5030  -16.2674    0.0000 C   0  0
    1.9038  -15.7310    0.0000 C   0  0
    2.1398  -14.2497    0.0000 C   0  0
    0.9749  -13.3047    0.0000 C   0  0
   -0.4260  -13.8411    0.0000 C   0  0
    3.2604  -13.8206    0.0000 F   0  0
   -3.8648  -16.2644    0.0000 N   0  0
   -4.7381  -17.4839    0.0000 C   0  0
   -3.9841  -18.1408    0.0000 O   0  0
   -5.8264  -18.5162    0.0000 C   0  0  1  0  0  0
   -5.0871  -19.4614    0.0000 C   0  0
   -7.0904  -19.3239    0.0000 N   0  0
   -8.4844  -19.8777    0.0000 C   0  0
   -9.9581  -20.1577    0.0000 C   0  0
   -9.3505  -20.1552    0.0000 C   0  0
   -9.9472  -20.0285    0.0000 C   0  0
  -11.4459  -20.0890    0.0000 C   0  0
  -12.9302  -19.8660    0.0000 C   0  0
  -11.4581  -20.1538    0.0000 C   0  0
  -14.3213  -19.3049    0.0000 C   0  0
  -14.8740  -20.3701    0.0000 O   0  0
  -15.5810  -18.4906    0.0000 N   0  0
  -16.6639  -17.4527    0.0000 C   0  0
   -8.4913  -19.6675    0.0000 C   0  0
   -8.1536  -20.6087    0.0000 O   0  0
   -7.1378  -19.0208    0.0000 N   0  0
   -5.9423  -18.1149    0.0000 C   0  0
   -4.9535  -16.9869    0.0000 C   0  0  1  0  0  0
   -3.4947  -17.3865    0.0000 C   0  0
   -2.6417  -16.5424    0.0000 O   0  0
   -3.1134  -18.8380    0.0000 N   0  0
   -1.6659  -19.2346    0.0000 C   0  0  1  0  0  0
   -1.2846  -20.6861    0.0000 C   0  0
    0.1629  -21.0826    0.0000 C   0  0
    0.5441  -22.5342    0.0000 C   0  0
    1.9916  -22.9307    0.0000 C   0  0
    2.2965  -24.0914    0.0000 N   0  0
   -0.5969  -18.1811    0.0000 C   0  0
    0.5601  -18.4994    0.0000 O   0  0
   -0.8994  -17.0198    0.0000 O   0  0
   -4.2121  -15.6829    0.0000 N   0  0
   -3.7484  -14.2564    0.0000 C   0  0
   -3.5812  -12.7657    0.0000 C   0  0  2  0  0  0
   -2.0688  -12.7843    0.0000 C   0  0
   -1.3017  -11.4942    0.0000 C   0  0
    0.1990  -11.5126    0.0000 C   0  0
    0.9660  -10.2226    0.0000 N   0  0
    2.4667  -10.2409    0.0000 C   0  0
    3.0800   -9.2095    0.0000 N   0  0
    3.0537  -11.2876    0.0000 N   0  0
   -3.7176  -11.2720    0.0000 N   0  0
   -4.1519   -9.8362    0.0000 C   0  0
   -3.0443   -9.3744    0.0000 O   0  0
   -2.5755  -14.5101    0.0000 O   0  0
   -8.2052  -20.8379    0.0000 O   0  0
   -1.6933  -13.6187    0.0000 O   0  0
  -14.1620   -3.5641    0.0000 C   0  0
  -15.6472   -3.3485    0.0000 C   0  0
  -16.2041   -1.9548    0.0000 C   0  0
  -17.6893   -1.7393    0.0000 N   0  0
  -18.2462   -0.3456    0.0000 C   0  0
  -17.5035    0.5969    0.0000 N   0  0
  -19.2358   -0.2020    0.0000 N   0  0
  -15.4742   -4.8100    0.0000 O   0  0
  -18.9462   -8.5036    0.0000 O   0  0
  -19.5664  -11.8551    0.0000 C   0  0
  -19.6884  -13.5714    0.0000 O   0  0
  -19.7150  -11.1884    0.0000 C   0  0
  -20.9672  -12.0158    0.0000 C   0  0
  -22.3105  -11.3483    0.0000 C   0  0
  -23.5603  -12.1779    0.0000 C   0  0
  -23.4668  -13.6749    0.0000 C   0  0
  -22.1235  -14.3425    0.0000 C   0  0
  -20.8737  -13.5130    0.0000 C   0  0
  -16.1961   -5.8242    0.0000 O   0  0
  -13.1396   -4.0251    0.0000 C   0  0
  -12.4782   -2.6779    0.0000 C   0  0
  -13.3134   -1.4309    0.0000 C   0  0
  -12.6520   -0.0837    0.0000 N   0  0
  -13.4872    1.1632    0.0000 C   0  0
  -13.0465    2.0609    0.0000 N   0  0
  -14.6845    1.0830    0.0000 N   0  0
   -8.3211   -4.2520    0.0000 C   0  0
   -9.6068   -3.4777    0.0000 C   0  0
   -9.5800   -1.9771    0.0000 C   0  0
  -10.8656   -1.2028    0.0000 N   0  0
  -10.8389    0.2977    0.0000 C   0  0
   -9.7889    0.8788    0.0000 N   0  0
  -11.8668    0.9168    0.0000 N   0  0
   -6.4706   -5.5956    0.0000 O   0  0
   -3.9849   -7.2880    0.0000 C   0  0
   -2.6315   -7.9367    0.0000 C   0  0
   -1.3925   -7.0897    0.0000 C   0  0
   -0.0391   -7.7383    0.0000 N   0  0
    1.1999   -6.8913    0.0000 C   0  0
    2.2820   -7.4099    0.0000 N   0  0
    1.1083   -5.6948    0.0000 N   0  0
   -2.1888  -11.0248    0.0000 H   0  0
   -5.5053   -5.6447    0.0000 H   0  0
  -17.9237  -15.3090    0.0000 H   0  0
  1  2  1  0
  3  2  1  0
  4  3  1  0
  5  4  1  0
  6  5  1  0
  6  7  2  0
  8  6  1  0
  9  8  1  0
 10  9  1  0
 11 10  1  0
 11 12  1  1
 12 13  1  0
 13 14  2  0
 14 15  1  0
 15 16  2  0
 16 17  1  0
 17 18  2  0
 18 19  1  0
 19 20  2  0
 20 21  1  0
 21 22  2  0
 22 13  1  0
 20 15  1  0
 23 11  1  0
 24 23  1  0
 24 25  2  0
 26 24  1  0
 27 26  1  0
 28 27  1  0
 28 29  2  0
 30 28  1  0
 31 30  1  0
 32 31  1  0
 33 32  1  0
 34 33  1  0
 35 34  1  0
 36 35  1  0
 36 37  1  6
 38 36  1  0
 39 38  1  0
 40 39  1  0
 41 40  1  0
 42 41  1  0
 42 43  2  0
 44 42  1  0
 44 45  1  6
 45 46  1  0
 46 47  2  0
 47 48  1  0
 49 48  1  0
 50 49  2  0
 51 50  1  0
 52 51  2  0
 53 52  1  0
 48 53  2  0
 49 54  1  0
 54 55  2  0
 55 46  1  0
 44 56  1  0
 56 57  1  0
 57 58  2  0
 59 57  1  0
 59 60  1  0
 60 61  1  0
 61 62  1  0
 62 63  1  0
 63 64  1  0
 64 65  1  0
 65 66  2  0
 65 67  1  0
 67 68  1  0
 68 69  1  6
 68 70  1  0
 67 71  1  0
 71 72  1  0
 72 73  1  0
 73 74  1  6
 74 75  1  0
 75 76  2  0
 76 77  1  0
 77 78  2  0
 78 79  1  0
 79 80  2  0
 80 75  1  0
 78 81  1  0
 73 82  1  0
 82 83  1  0
 83 84  2  0
 85 83  1  0
 85 86  1  1
 87 85  1  0
 87 88  1  0
 88 89  1  0
 89 90  2  0
 90 91  1  0
 91 92  2  0
 92 93  1  0
 93 94  2  0
 94 89  1  0
 93 95  1  0
 95 96  2  0
 95 97  1  0
 98 97  1  0
 30 98  1  0
 91 99  1  0
 99100  2  0
 99101  1  0
101102  1  0
103102  1  0
103104  1  6
104105  2  0
104106  1  0
107106  1  6
107108  1  0
108109  1  0
109110  1  0
110111  1  0
111112  1  0
107113  1  0
113114  2  0
113115  1  0
103116  1  0
116117  1  0
117118  1  0
118119  1  1
119120  1  0
120121  1  0
121122  1  0
122123  1  0
123124  2  0
123125  1  0
118126  1  0
126127  1  0
127  1  1  0
127128  2  0
117129  2  0
 88130  2  0
 72131  2  0
 59 64  1  0
 40132  1  6
132133  1  0
133134  1  0
134135  1  0
135136  1  0
136137  1  0
136138  2  0
 39139  2  0
 35140  2  0
 33141  1  1
 32142  2  0
 26143  1  1
143144  1  0
144145  2  0
145146  1  0
146147  2  0
147148  1  0
148149  2  0
149144  1  0
 10150  2  0
  8151  1  1
151152  1  0
152153  1  0
153154  1  0
154155  1  0
155156  2  0
155157  1  0
  4158  1  1
158159  1  0
159160  1  0
160161  1  0
161162  1  0
162163  1  0
162164  2  0
  3165  2  0
  1166  1  1
166167  1  0
167168  1  0
168169  1  0
169170  1  0
170171  2  0
170172  1  0
 67173  1  6
 59174  1  6
 30175  1  1
M  END