
  SciTegic12011114592D

 27 29  0  0  0  0            999 V2000
   11.0171  -12.1834    0.0000 C   0  0
   11.8418  -12.1834    0.0000 C   0  0
   11.4295  -11.4692    0.0000 C   0  0
   11.1365  -13.4246    0.0000 C   0  0
   11.1354  -14.2517    0.0000 C   0  0
   11.8499  -14.6645    0.0000 C   0  0
   11.8481  -13.0120    0.0000 C   0  0
   12.5633  -13.4210    0.0000 C   0  0
   12.5621  -14.2538    0.0000 C   0  0
   13.2788  -14.6689    0.0000 C   0  0
   14.0011  -14.2558    0.0000 C   0  0
   14.0023  -13.4231    0.0000 C   0  0
   13.2812  -13.0033    0.0000 O   0  0
   13.2764  -15.4936    0.0000 O   0  0
   14.7159  -13.0150    0.0000 C   0  0
   15.4293  -13.4309    0.0000 C   0  0
   16.1441  -13.0209    0.0000 C   0  0
   16.1466  -12.1953    0.0000 C   0  0
   15.4283  -11.7814    0.0000 C   0  0
   14.7166  -12.1937    0.0000 C   0  0
   11.8496  -15.4892    0.0000 O   0  0
   14.7142  -14.6703    0.0000 O   0  0
   10.4222  -13.0124    0.0000 O   0  0
   15.4296  -14.2599    0.0000 C   0  0
   12.5587  -11.7728    0.0000 C   0  0
   12.5562  -10.9480    0.0000 C   0  0
    9.7080  -13.4250    0.0000 C   0  0
  8  7  2  0
 10 14  2  0
  7  4  1  0
  8  9  1  0
 15 16  2  0
  2  1  1  0
 16 17  1  0
  4  5  2  0
 17 18  2  0
  3  2  1  0
 18 19  1  0
  5  6  1  0
 19 20  2  0
 20 15  1  0
 12 15  1  0
  6  9  2  0
  6 21  1  0
 11 22  1  0
  8 13  1  0
  4 23  1  0
  9 10  1  0
 22 24  1  0
  7  2  1  0
 10 11  1  0
  2 25  1  0
 11 12  2  0
 25 26  2  0
 12 13  1  0
 23 27  1  0
M  END