
  SciTegic10041313202D

 38 42  0  0  0  0            999 V2000
    7.1792   -2.5292    0.0000 N   0  0
    7.6667   -1.8542    0.0000 C   0  0
    7.1792   -1.1792    0.0000 C   0  0
    6.3875   -1.4417    0.0000 C   0  0
    6.3875   -2.2667    0.0000 C   0  0
    8.4917   -1.7750    0.0000 C   0  0
    7.3875   -3.3292    0.0000 C   0  0
    1.8475   -6.8276    0.0000 C   0  0
    2.5292   -6.4250    0.0000 C   0  0
    5.6750   -2.6792    0.0000 C   0  0
    9.7250   -2.4792    0.0000 C   0  0
    5.6750   -1.0292    0.0000 C   0  0
    8.9000   -2.4792    0.0000 C   0  0
   -0.2948   -7.3395    0.0000 N   0  0
    6.8000   -3.9042    0.0000 C   0  0
   10.1417   -1.7750    0.0000 O   0  0
    7.5125   -0.4167    0.0000 C   0  0
    4.9625   -1.4417    0.0000 C   0  0
    1.1251   -7.2925    0.0000 C   0  0
    4.9625   -2.2667    0.0000 C   0  0
    6.8000   -4.7292    0.0000 C   0  0
   10.1375   -3.2000    0.0000 O   0  0
    6.0875   -5.1417    0.0000 C   0  0
    4.2292   -1.0292    0.0000 F   0  0
    8.8375   -1.0125    0.0000 C   0  0
    6.0917   -5.9667    0.0000 O   0  0
    3.2417   -6.0042    0.0000 C   0  0
    0.3986   -6.9156    0.0000 C   0  0
    8.3500   -0.3292    0.0000 C   0  0
    5.3750   -3.9042    0.0000 C   0  0
   -0.2677   -8.1631    0.0000 C   0  0
    6.0875   -3.4917    0.0000 C   0  0
    5.3625   -4.7292    0.0000 C   0  0
    1.1599   -8.1212    0.0000 C   0  0
    5.3917   -6.3917    0.0000 C   0  0
    3.9542   -6.4042    0.0000 C   0  0
    4.6667   -5.9792    0.0000 C   0  0
    0.4557   -8.5514    0.0000 C   0  0
  2  1  1  0
  3  2  2  0
  4  5  1  0
  5  1  1  0
  6  2  1  0
  7  1  1  0
  8  9  3  0
  9 27  1  0
 10  5  2  0
 11 13  1  0
 12  4  2  0
 13  6  1  0
 14 28  2  0
 15  7  1  0
 16 11  2  0
 17  3  1  0
 18 20  2  0
 19  8  1  0
 20 10  1  0
 21 15  1  0
 22 11  1  0
 23 21  2  0
 24 18  1  0
 25  6  1  0
 26 23  1  0
 27 36  1  0
 28 19  1  0
 29 25  1  0
 30 32  1  0
 31 38  2  0
 32 15  2  0
 33 30  2  0
 34 19  2  0
 35 26  1  0
 36 37  1  0
 37 35  1  0
 38 34  1  0
  3  4  1  0
 12 18  1  0
 17 29  1  0
 33 23  1  0
 31 14  1  0
M  END