
          11280716012D 1   1.00000     0.00000     0

 80 87  0     0  0            999 V2000
   -5.0333   -2.2000    0.0000 N   0  0  3  0  0  0           0  0  0
    3.3417   -0.2750    0.0000 S   0  0  3  0  0  0           0  0  0
    3.3542    1.5875    0.0000 C   0  0  0  0  0  0           0  0  0
    2.4917    1.0208    0.0000 S   0  0  3  0  0  0           0  0  0
    2.9542    2.2875    0.0000 C   0  0  0  0  0  0           0  0  0
    2.9542    1.8208    0.0000 C   0  0  0  0  0  0           0  0  0
    3.3542    1.1208    0.0000 C   0  0  0  0  0  0           0  0  0
   -5.4208   -1.9375    0.0000 C   0  0  0  0  0  0           0  0  0
    2.9417    0.8958    0.0000 C   0  0  0  0  0  0           0  0  0
   -4.6250   -1.9542    0.0000 C   0  0  0  0  0  0           0  0  0
   -6.0292   -2.5042    0.0000 C   0  0  0  0  0  0           0  0  0
   -5.0000   -2.6542    0.0000 C   0  0  0  0  0  0           0  0  0
   -5.8625   -2.0792    0.0000 C   0  0  0  0  0  0           0  0  0
   -5.7958   -2.9125    0.0000 N   0  0  0  0  0  0           0  0  0
    2.5542    2.5208    0.0000 C   0  0  0  0  0  0           0  0  0
    3.7542    2.2875    0.0000 C   0  0  0  0  0  0           0  0  0
    3.3542    2.5208    0.0000 O   0  0  0  0  0  0           0  0  0
    3.7542    1.8208    0.0000 C   0  0  0  0  0  0           0  0  0
    3.3417    0.1958    0.0000 C   0  0  0  0  0  0           0  0  0
    2.9417    0.4333    0.0000 C   0  0  0  0  0  0           0  0  0
    2.1417    2.2875    0.0000 C   0  0  0  0  0  0           0  0  0
    2.5542    1.5875    0.0000 C   0  0  0  0  0  0           0  0  0
   -5.3333   -2.9792    0.0000 C   0  0  0  0  0  0           0  0  0
    1.6917    2.4083    0.0000 N   0  3  0  0  0  0           0  0  0
    4.1625    2.5208    0.0000 C   0  0  0  0  0  0           0  0  0
    2.1417    1.8208    0.0000 C   0  0  0  0  0  0           0  0  0
    3.1042   -0.6792    0.0000 N   0  0  3  0  0  0           0  0  0
   -4.2333   -1.2417    0.0000 N   0  0  3  0  0  0           0  0  0
    3.7542    0.8875    0.0000 C   0  0  0  0  0  0           0  0  0
    4.5667    2.2875    0.0000 C   0  0  0  0  0  0           0  0  0
   -4.6333   -1.4875    0.0000 C   0  0  0  0  0  0           0  0  0
    2.8750   -0.2750    0.0000 O   0  0  0  0  0  0           0  0  0
    3.8042   -0.2750    0.0000 O   0  0  0  0  0  0           0  0  0
    2.0917    0.7875    0.0000 O   0  5  0  0  0  0           0  0  0
    4.1625    1.5875    0.0000 C   0  0  0  0  0  0           0  0  0
   -4.5458   -2.7917    0.0000 N   0  0  0  0  0  0           0  0  0
   -3.4208   -0.7667    0.0000 N   0  0  3  0  0  0           0  0  0
    2.4917    0.5583    0.0000 O   0  0  0  0  0  0           0  0  0
    2.0917    1.2583    0.0000 O   0  0  0  0  0  0           0  0  0
   -4.2958   -2.2792    0.0000 O   0  0  0  0  0  0           0  0  0
   -6.5000   -2.5000    0.0000 O   0  0  0  0  0  0           0  0  0
    0.6250   -0.7792    0.0000 C   0  0  0  0  0  0           0  0  0
    3.7542    0.4208    0.0000 C   0  0  0  0  0  0           0  0  0
    4.9667    2.5208    0.0000 N   0  0  3  0  0  0           0  0  0
    4.5667    1.8208    0.0000 C   0  0  0  0  0  0           0  0  0
    0.6250   -1.2500    0.0000 O   0  0  0  0  0  0           0  0  0
    0.2167   -0.5500    0.0000 N   0  0  0  0  0  0           0  0  0
   -4.2375   -0.7792    0.0000 C   0  0  0  0  0  0           0  0  0
   -3.8250   -1.4750    0.0000 C   0  0  0  0  0  0           0  0  0
   -3.8458   -0.5417    0.0000 C   0  0  0  0  0  0           0  0  0
   -3.4208   -1.2375    0.0000 C   0  0  0  0  0  0           0  0  0
   -6.2000   -1.7667    0.0000 C   0  0  0  0  0  0           0  0  0
   -5.3208   -1.4750    0.0000 C   0  0  0  0  0  0           0  0  0
    1.6917    2.8833    0.0000 C   0  0  0  0  0  0           0  0  0
    1.2917    2.1833    0.0000 C   0  0  0  0  0  0           0  0  0
   -5.2250   -3.4375    0.0000 C   0  0  0  0  0  0           0  0  0
   -3.0208   -0.5375    0.0000 C   0  0  0  0  0  0           0  0  0
    2.6542   -0.5542    0.0000 C   0  0  0  0  0  0           0  0  0
   -0.9958   -0.3125    0.0000 O   0  0  0  0  0  0           0  0  0
   -2.2125   -0.5417    0.0000 O   0  0  0  0  0  0           0  0  0
   -4.4458   -3.2417    0.0000 C   0  0  0  0  0  0           0  0  0
    3.1000   -1.1417    0.0000 C   0  0  0  0  0  0           0  0  0
    1.0292   -0.5500    0.0000 C   0  0  0  0  0  0           0  0  0
    4.9667    2.9875    0.0000 C   0  0  0  0  0  0           0  0  0
    5.3667    2.2875    0.0000 C   0  0  0  0  0  0           0  0  0
   -0.1875   -0.3167    0.0000 C   0  0  0  0  0  0           0  0  0
   -2.6208   -0.7750    0.0000 C   0  0  0  0  0  0           0  0  0
   -0.5958   -0.5417    0.0000 C   0  0  0  0  0  0           0  0  0
   -1.8083   -0.3042    0.0000 C   0  0  0  0  0  0           0  0  0
   -1.4000   -0.5417    0.0000 C   0  0  0  0  0  0           0  0  0
    1.4375   -0.7792    0.0000 C   0  0  0  0  0  0           0  0  0
    2.2417   -0.7875    0.0000 C   0  0  0  0  0  0           0  0  0
    1.2875    3.1208    0.0000 C   0  0  0  0  0  0           0  0  0
    0.8375    2.3000    0.0000 C   0  0  0  0  0  0           0  0  0
   -4.7833   -3.5667    0.0000 C   0  0  0  0  0  0           0  0  0
   -6.1042   -1.3042    0.0000 C   0  0  0  0  0  0           0  0  0
   -5.6625   -1.1625    0.0000 C   0  0  0  0  0  0           0  0  0
    1.8417   -0.5542    0.0000 C   0  0  0  0  0  0           0  0  0
    5.3667    3.2208    0.0000 C   0  0  0  0  0  0           0  0  0
    5.7750    2.5208    0.0000 C   0  0  0  0  0  0           0  0  0
  2 27  1  0     0  0
  3  7  1  0     0  0
  4  9  1  0     0  0
  5  6  1  0     0  0
  6  3  2  0     0  0
  7 29  1  0     0  0
  8  1  1  0     0  0
  9 20  1  0     0  0
 10  1  1  0     0  0
 11 13  1  0     0  0
 12  1  1  0     0  0
 13  8  2  0     0  0
 14 23  1  0     0  0
 15  5  2  0     0  0
 16 18  2  0     0  0
 17 16  1  0     0  0
 18  3  1  0     0  0
 19  2  1  0     0  0
 20 19  2  0     0  0
 21 26  1  0     0  0
 22  6  1  0     0  0
 23 12  2  0     0  0
 24 21  2  0     0  0
 25 16  1  0     0  0
 26 22  2  0     0  0
 27 58  1  0     0  0
 28 31  1  0     0  0
 29 43  2  0     0  0
 30 45  1  0     0  0
 31 10  1  0     0  0
 32  2  2  0     0  0
 33  2  2  0     0  0
 34  4  1  0     0  0
 35 18  1  0     0  0
 36 12  1  0     0  0
 37 51  1  0     0  0
 38  4  2  0     0  0
 39  4  2  0     0  0
 40 10  2  0     0  0
 41 11  2  0     0  0
 42 47  1  0     0  0
 43 19  1  0     0  0
 44 30  1  0     0  0
 45 35  2  0     0  0
 46 42  2  0     0  0
 47 66  1  0     0  0
 48 28  1  0     0  0
 49 28  1  0     0  0
 50 48  1  0     0  0
 51 49  1  0     0  0
 52 13  1  0     0  0
 53  8  1  0     0  0
 54 24  1  0     0  0
 55 24  1  0     0  0
 56 23  1  0     0  0
 57 37  1  0     0  0
 58 72  1  0     0  0
 59 70  1  0     0  0
 60 67  1  0     0  0
 61 36  2  0     0  0
 62 27  1  0     0  0
 63 42  1  0     0  0
 64 44  1  0     0  0
 65 44  1  0     0  0
 66 68  1  0     0  0
 67 57  1  0     0  0
 68 59  1  0     0  0
 69 60  1  0     0  0
 70 69  1  0     0  0
 71 63  1  0     0  0
 72 78  1  0     0  0
 73 54  1  0     0  0
 74 55  1  0     0  0
 75 61  1  0     0  0
 76 77  1  0     0  0
 77 53  2  0     0  0
 78 71  1  0     0  0
 79 64  1  0     0  0
 80 65  1  0     0  0
 11 14  1  0     0  0
 56 75  2  0     0  0
 52 76  2  0     0  0
 50 37  1  0     0  0
  7  9  2  0     0  0
  5 17  1  0     0  0
 25 30  2  0     0  0
 15 21  1  0     0  0
M  CHG  2  24   1  34  -1
M  END