
  SciTegic05161214222D

 52 55  0  0  0  0            999 V2000
   14.1194  -11.3291    0.0000 C   0  0
   10.5542  -10.9250    0.0000 C   0  0
   10.5542  -11.7500    0.0000 C   0  0
   11.2662  -12.1583    0.0000 O   0  0
   11.9782  -11.7500    0.0000 C   0  0
   11.9782  -10.9250    0.0000 C   0  0
   11.2662  -10.5083    0.0000 C   0  0
    9.8365  -10.5198    0.0000 S   0  0
    9.4282  -11.2366    0.0000 O   0  0
   10.2531  -11.2318    0.0000 O   0  0
    6.9694   -5.5833    0.0000 C   0  0
    6.9682   -6.4107    0.0000 C   0  0
    7.6831   -6.8235    0.0000 C   0  0
    7.6813   -5.1705    0.0000 C   0  0
    8.3966   -5.5797    0.0000 C   0  0
    8.3974   -6.4065    0.0000 C   0  0
    9.1127   -6.8175    0.0000 N   0  0
    9.8277   -6.4027    0.0000 C   0  0
    9.8230   -5.5727    0.0000 C   0  0
    9.1071   -5.1655    0.0000 C   0  0
   10.5438   -6.8124    0.0000 C   0  0
    9.1027   -4.3405    0.0000 C   0  0
    7.6850   -7.6485    0.0000 O   0  0
    8.4004   -8.0594    0.0000 C   0  0
    8.4023   -8.8844    0.0000 C   0  0
    7.6862   -9.2942    0.0000 C   0  0
    7.6878  -10.1184    0.0000 C   0  0
    8.4037  -10.5301    0.0000 C   0  0
    9.1196  -10.1115    0.0000 C   0  0
    9.1145   -9.2886    0.0000 C   0  0
    6.9721   -8.8810    0.0000 Cl  0  0
    9.8262   -8.8713    0.0000 Cl  0  0
   10.5485  -10.1031    0.0000 N   0  0
   11.9774  -10.0948    0.0000 C   0  0
   12.6932  -10.5051    0.0000 N   0  0
   11.9749   -9.2698    0.0000 O   0  0
   12.6921  -11.3300    0.0000 C   0  0
   13.4037  -11.7403    0.0000 C   0  0
   14.1188  -10.5031    0.0000 C   0  0
   13.4026  -10.0883    0.0000 C   0  0
   14.8335  -11.7421    0.0000 C   0  0
   15.5483  -11.3301    0.0000 N   0  3
   16.2625  -11.7431    0.0000 C   0  0
   15.5489  -10.5051    0.0000 C   0  0
   15.5417  -12.1542    0.0000 C   0  0
   14.4097   -8.9301    0.0000 F   0  0
   15.1241   -8.5176    0.0000 C   0  0
   15.8386   -8.9301    0.0000 F   0  0
   15.1180   -9.3384    0.0000 F   0  0
   15.1272   -7.6926    0.0000 C   0  0
   15.8432   -7.2828    0.0000 O   0  5
   14.4143   -7.2774    0.0000 O   0  0
 13 23  1  0
 12 13  1  0
 23 24  1  0
 13 16  2  0
 24 25  1  0
  6  7  1  0
 25 26  2  0
 15 14  2  0
 26 27  1  0
 14 11  1  0
 27 28  2  0
  9  8  2  0
 28 29  1  0
  8 10  2  0
 29 30  2  0
 30 25  1  0
 15 16  1  0
 26 31  1  0
 30 32  1  0
 29  8  1  0
 16 17  1  0
  8 33  1  0
 33  7  1  0
  2  3  1  0
  7 34  1  0
 17 18  2  0
 34 35  1  0
  2  7  1  0
 34 36  2  0
 35 37  1  0
 18 19  1  0
  3  4  1  0
 19 20  2  0
 20 15  1  0
 35 40  1  0
 37 38  1  0
 38  1  1  0
  1 39  1  0
 39 40  1  0
  4  5  1  0
  1 41  1  0
 18 21  1  0
 41 42  1  0
 11 12  2  0
 42 43  1  0
 20 22  1  0
 42 44  1  0
  5  6  1  0
 42 45  1  0
 46 47  1  0
 47 49  1  0
 47 50  1  0
 47 48  1  0
 50 51  1  0
 50 52  2  0
M  CHG  2  42   1  51  -1
M  END