
  SciTegic03291108582D

 24 27  0  0  0  0            999 V2000
   -1.0806    2.1506    0.0000 S   0  0
    0.4185   -0.1668    0.0000 S   0  0
    1.1329    1.0707    0.0000 N   0  0
    0.4185    2.3082    0.0000 N   0  0
    1.8866   -0.2438    0.0000 N   0  0
    1.2192   -1.3998    0.0000 N   0  0
    2.4386   -0.8569    0.0000 N   0  0
    2.0261   -1.5713    0.0000 N   0  0
    0.0656   -2.5928    0.0000 N   0  0
   -0.2960    1.0707    0.0000 C   0  0
   -1.0806    0.8157    0.0000 C   0  0
   -0.2960    1.8957    0.0000 C   0  0
    0.4185    0.6582    0.0000 C   0  0
   -1.3356    0.0311    0.0000 C   0  0
   -1.5656    1.4832    0.0000 C   0  0
    1.1329   -0.5793    0.0000 C   0  0
    1.1329    1.8957    0.0000 C   0  0
   -0.7835   -0.5820    0.0000 C   0  0
   -2.1425   -0.1404    0.0000 C   0  0
   -1.0385   -1.3666    0.0000 C   0  0
   -2.3975   -0.9250    0.0000 C   0  0
   -1.8454   -1.5381    0.0000 C   0  0
    2.0581    0.5632    0.0000 C   0  0
   -0.4864   -1.9797    0.0000 C   0  0
  1 12  1  0
  1 15  1  0
  2 13  1  0
  2 16  1  0
  3 13  1  0
  3 17  2  0
  4 12  2  0
  4 17  1  0
  5  7  1  0
  5 16  1  0
  5 23  1  0
  6  8  1  0
  6 16  2  0
  7  8  2  0
  9 24  3  0
 10 11  1  0
 10 12  1  0
 10 13  2  0
 11 14  1  0
 11 15  2  0
 14 18  2  0
 14 19  1  0
 18 20  1  0
 19 21  2  0
 20 22  2  0
 20 24  1  0
 21 22  1  0
M  END