
          11280714512D 1   1.00000     0.00000     0

 26 28  0     0  0            999 V2000
    0.9292   -0.6667    0.0000 C   0  0  0  0  0  0           0  0  0
    0.5042   -1.0917    0.0000 N   0  0  3  0  0  0           0  0  0
    1.4625   -0.9417    0.0000 C   0  0  0  0  0  0           0  0  0
    1.3667   -1.5292    0.0000 C   0  0  0  0  0  0           0  0  0
    2.0167   -0.7292    0.0000 C   0  0  0  0  0  0           0  0  0
    0.7750   -1.6250    0.0000 C   0  0  0  0  0  0           0  0  0
    3.0375   -0.8917    0.0000 C   0  0  0  0  0  0           0  0  0
    2.4792   -1.1042    0.0000 C   0  0  0  0  0  0           0  0  0
    5.0917   -1.2167    0.0000 C   0  0  0  0  0  0           0  0  0
    0.8375   -0.0750    0.0000 O   0  0  0  0  0  0           0  0  0
   -0.0708   -0.9042    0.0000 C   0  0  0  0  0  0           0  0  0
   -2.2250   -0.7417    0.0000 N   0  0  0  0  0  0           0  0  0
    4.5292   -1.4292    0.0000 C   0  0  0  0  0  0           0  0  0
    1.8250   -1.9042    0.0000 C   0  0  0  0  0  0           0  0  0
    3.1292   -0.3000    0.0000 O   0  0  0  0  0  0           0  0  0
    2.3792   -1.6917    0.0000 C   0  0  0  0  0  0           0  0  0
    5.1875   -0.6167    0.0000 O   0  0  0  0  0  0           0  0  0
    3.5042   -1.2667    0.0000 N   0  0  0  0  0  0           0  0  0
    4.0667   -1.0542    0.0000 C   0  0  0  0  0  0           0  0  0
    5.5542   -1.5917    0.0000 O   0  0  0  0  0  0           0  0  0
   -0.5125   -1.3042    0.0000 C   0  0  0  0  0  0           0  0  0
   -1.0833   -1.1167    0.0000 C   0  0  3  0  0  0           0  0  0
   -2.1000   -1.3292    0.0000 C   0  0  0  0  0  0           0  0  0
   -1.7833   -0.3417    0.0000 C   0  0  0  0  0  0           0  0  0
   -1.5333   -1.5167    0.0000 C   0  0  0  0  0  0           0  0  0
   -1.2083   -0.5292    0.0000 C   0  0  0  0  0  0           0  0  0
  2  1  1  0     0  0
  3  1  1  0     0  0
  4  3  2  0     0  0
  5  3  1  0     0  0
  6  2  1  0     0  0
  7  8  1  0     0  0
  8  5  2  0     0  0
  9 13  1  0     0  0
 10  1  2  0     0  0
 11  2  1  0     0  0
 12 24  1  0     0  0
 13 19  1  0     0  0
 14  4  1  0     0  0
 15  7  2  0     0  0
 16  8  1  0     0  0
 17  9  2  0     0  0
 18  7  1  0     0  0
 19 18  1  0     0  0
 20  9  1  0     0  0
 21 11  1  0     0  0
 22 21  1  0     0  0
 23 25  1  0     0  0
 24 26  1  0     0  0
 25 22  1  0     0  0
 26 22  1  0     0  0
  4  6  1  0     0  0
 16 14  2  0     0  0
 12 23  1  0     0  0
M  END