
          11280715522D 1   1.00000     0.00000     0

 43 48  0     1  0            999 V2000
    6.7194  -20.9500    0.0000 C   0  0  0  0  0  0           0  0  0
    6.7182  -21.7773    0.0000 C   0  0  0  0  0  0           0  0  0
    7.4331  -22.1902    0.0000 C   0  0  0  0  0  0           0  0  0
    7.4313  -20.5372    0.0000 C   0  0  0  0  0  0           0  0  0
    8.1515  -21.7744    0.0000 C   0  0  0  0  0  0           0  0  0
    8.1466  -20.9463    0.0000 C   0  0  0  0  0  0           0  0  0
    8.7937  -20.4204    0.0000 N   0  0  3  0  0  0           0  0  0
    8.8077  -22.2889    0.0000 C   0  0  0  0  0  0           0  0  0
    9.6059  -20.5947    0.0000 C   0  0  0  0  0  0           0  0  0
    9.6184  -22.0959    0.0000 N   0  0  0  0  0  0           0  0  0
    9.9707  -21.3411    0.0000 C   0  0  1  0  0  0           0  0  0
    8.6332  -23.0905    0.0000 C   0  0  0  0  0  0           0  0  0
    7.8456  -23.3397    0.0000 C   0  0  0  0  0  0           0  0  0
    7.6689  -24.1448    0.0000 C   0  0  0  0  0  0           0  0  0
    8.2790  -24.7015    0.0000 C   0  0  0  0  0  0           0  0  0
    9.0684  -24.4475    0.0000 C   0  0  0  0  0  0           0  0  0
    9.2413  -23.6430    0.0000 C   0  0  0  0  0  0           0  0  0
    8.6012  -19.6182    0.0000 C   0  0  0  0  0  0           0  0  0
   10.1142  -19.9449    0.0000 O   0  0  0  0  0  0           0  0  0
   10.7957  -21.3338    0.0000 N   0  0  0  0  0  0           0  0  0
   11.2145  -22.0445    0.0000 C   0  0  0  0  0  0           0  0  0
   12.0395  -22.0372    0.0000 N   0  0  3  0  0  0           0  0  0
   10.8084  -22.7626    0.0000 O   0  0  0  0  0  0           0  0  0
   12.4531  -22.7472    0.0000 C   0  0  0  0  0  0           0  0  0
   13.2745  -22.7419    0.0000 C   0  0  0  0  0  0           0  0  0
   13.6845  -22.0256    0.0000 C   0  0  3  0  0  0           0  0  0
   13.2669  -21.3130    0.0000 C   0  0  0  0  0  0           0  0  0
   12.4392  -21.3167    0.0000 C   0  0  0  0  0  0           0  0  0
   14.5095  -22.0213    0.0000 N   0  0  3  0  0  0           0  0  0
   14.9231  -22.7357    0.0000 C   0  0  0  0  0  0           0  0  0
   15.7445  -22.7334    0.0000 N   0  0  0  0  0  0           0  0  0
   14.9146  -21.3051    0.0000 C   0  0  0  0  0  0           0  0  0
   14.5120  -23.4509    0.0000 O   0  0  0  0  0  0           0  0  0
   15.7422  -21.3045    0.0000 C   0  0  0  0  0  0           0  0  0
   16.1540  -22.0161    0.0000 C   0  0  0  0  0  0           0  0  0
   16.9743  -22.0142    0.0000 C   0  0  0  0  0  0           0  0  0
   17.3838  -21.3015    0.0000 C   0  0  0  0  0  0           0  0  0
   16.9669  -20.5892    0.0000 C   0  0  0  0  0  0           0  0  0
   16.1480  -20.5946    0.0000 C   0  0  0  0  0  0           0  0  0
    7.8102  -19.3838    0.0000 C   0  0  3  0  0  0           0  0  0
    7.0083  -19.1667    0.0000 F   0  0  0  0  0  0           0  0  0
    8.0352  -18.5901    0.0000 F   0  0  0  0  0  0           0  0  0
    7.5909  -20.1791    0.0000 F   0  0  0  0  0  0           0  0  0
  8 10  2  0     0  0
 20 21  1  0     0  0
 21 22  1  0     0  0
  9 11  1  0     0  0
 21 23  2  0     0  0
 22 24  1  0     0  0
 10 11  1  0     0  0
  2  3  1  0     0  0
  5  6  1  0     0  0
 12 13  2  0     0  0
  3  5  2  0     0  0
 22 28  1  0     0  0
 24 25  1  0     0  0
 25 26  1  0     0  0
 26 27  1  0     0  0
 27 28  1  0     0  0
 13 14  1  0     0  0
 26 29  1  0     0  0
 29 30  1  0     0  0
  6  7  1  0     0  0
 14 15  2  0     0  0
  1  2  2  0     0  0
 29 32  1  0     0  0
 30 31  1  0     0  0
 31 35  1  0     0  0
 34 32  1  0     0  0
 15 16  1  0     0  0
 30 33  2  0     0  0
  5  8  1  0     0  0
 16 17  2  0     0  0
 34 35  2  0     0  0
 17 12  1  0     0  0
 35 36  1  0     0  0
  8 12  1  0     0  0
 36 37  2  0     0  0
  6  4  2  0     0  0
 37 38  1  0     0  0
  7 18  1  0     0  0
 38 39  2  0     0  0
 39 34  1  0     0  0
  7  9  1  0     0  0
 18 40  1  0     0  0
  9 19  2  0     0  0
 40 41  1  0     0  0
  4  1  1  0     0  0
 40 42  1  0     0  0
 11 20  1  6     0  0
 40 43  1  0     0  0
M  END