
  SciTegic12011114592D

 23 25  0  0  0  0            999 V2000
    2.2071  -15.1087    0.0000 C   0  0
    1.5019  -16.3497    0.0000 C   0  0
    1.5008  -17.1766    0.0000 C   0  0
    2.2152  -17.5892    0.0000 C   0  0
    2.2134  -15.9371    0.0000 C   0  0
    2.9285  -16.3461    0.0000 C   0  0
    2.9273  -17.1786    0.0000 C   0  0
    3.6438  -17.5937    0.0000 C   0  0
    4.3660  -17.1807    0.0000 C   0  0
    4.3672  -16.3481    0.0000 C   0  0
    3.6462  -15.9285    0.0000 O   0  0
    3.6414  -18.4183    0.0000 O   0  0
    5.0806  -15.9402    0.0000 C   0  0
    5.7939  -16.3559    0.0000 C   0  0
    6.5086  -15.9461    0.0000 C   0  0
    6.5111  -15.1206    0.0000 C   0  0
    5.7929  -14.7067    0.0000 C   0  0
    5.0813  -15.1190    0.0000 C   0  0
    2.2149  -18.4138    0.0000 O   0  0
    0.7878  -15.9376    0.0000 O   0  0
    2.9239  -14.6982    0.0000 C   0  0
    3.6365  -15.1128    0.0000 C   0  0
    2.9266  -13.8736    0.0000 C   0  0
  6  7  1  0
  8 12  2  0
  3  4  1  0
 13 14  2  0
  4  7  2  0
 14 15  1  0
  2  3  2  0
 15 16  2  0
  6  5  2  0
 16 17  1  0
  5  2  1  0
 17 18  2  0
 18 13  1  0
 10 13  1  0
  6 11  1  0
  4 19  1  0
  7  8  1  0
  2 20  1  0
  5  1  1  0
  8  9  1  0
  1 21  2  0
  9 10  2  0
 21 22  1  0
 10 11  1  0
 21 23  1  0
M  END