
  SciTegic06141115222D

 35 39  0  0  0  0            999 V2000
    4.2749  -10.1339    0.0000 N   0  0
    4.4136   -2.9848    0.0000 S   0  3
    4.4166   -4.6390    0.0000 N   0  0
    4.6890   -8.7665    0.0000 C   0  0
    3.4807   -9.9090    0.0000 C   0  0
    4.6204   -5.4480    0.0000 C   0  0
    4.8965   -6.5849    0.0000 N   0  0
    4.8820   -9.5678    0.0000 C   0  0
    5.4813   -9.0126    0.0000 C   0  0
    5.3280   -5.8744    0.0000 C   0  0
    4.1848   -6.1573    0.0000 C   0  0
    6.8754   -8.6954    0.0000 C   0  0
    6.0831   -8.4493    0.0000 C   0  0
    4.4707  -10.9405    0.0000 C   0  0
    3.6986   -3.4004    0.0000 C   0  0
    5.1381   -3.3987    0.0000 C   0  0
    3.7001   -4.2276    0.0000 C   0  0
    5.1425   -4.2311    0.0000 C   0  0
    4.4121   -2.1577    0.0000 O   0  5
    7.0659   -9.5048    0.0000 C   0  0
    3.8955   -8.5244    0.0000 C   0  0
    3.2926   -9.0916    0.0000 C   0  0
    2.8777  -10.4763    0.0000 O   0  0
    4.4973   -7.9611    0.0000 C   0  0
    5.6598   -9.8184    0.0000 C   0  0
    6.4521  -10.0645    0.0000 C   0  0
    5.0894   -7.3862    0.0000 C   0  0
    7.4863   -8.1305    0.0000 Cl  0  0
    7.8582   -9.7509    0.0000 Cl  0  0
    3.8665  -11.5118    0.0000 C   0  0
    3.0678  -11.2725    0.0000 C   0  0
    4.0559  -12.3251    0.0000 C   0  0
    2.4624  -11.8478    0.0000 C   0  0
    3.4529  -12.8924    0.0000 C   0  0
    2.6542  -12.6531    0.0000 C   0  0
  2 16  1  0
  3  6  1  0
  4  8  1  0
  5  1  1  0
  6 11  1  0
  7 27  1  0
  8  1  1  0
  9  4  1  0
 10  7  1  0
 11  7  1  0
 12 13  2  0
 13  9  1  0
 14  1  1  0
 15 17  1  0
 16 18  1  0
 17  3  1  0
 18  3  1  0
 19  2  1  0
 20 26  2  0
 21  4  1  0
 22  5  1  0
 23  5  2  0
 24  4  1  0
 25  9  2  0
 26 25  1  0
 27 24  1  0
 28 12  1  0
 29 20  1  0
 30 14  1  0
 31 30  1  0
 32 30  2  0
 33 31  2  0
 34 32  1  0
 35 34  2  0
 21 22  1  0
 33 35  1  0
 10  6  1  0
 12 20  1  0
  2 15  1  0
M  CHG  2   2   1  19  -1
M  END