
  SciTegic01161211232D

 69 77  0  0  0  0            999 V2000
   18.7842   -6.9518    0.0000 O   0  0
   18.3551   -8.7566    0.0000 C   0  0
   19.1824   -8.7625    0.0000 C   0  0
   19.5255   -7.3172    0.0000 C   0  0  2  0  0  0
   19.7056   -8.1242    0.0000 C   0  0  2  0  0  0
   20.4902   -8.3704    0.0000 O   0  0
   20.1301   -6.7564    0.0000 C   0  0
   20.9201   -7.0060    0.0000 C   0  0  2  0  0  0
   21.0987   -7.8094    0.0000 C   0  0  2  0  0  0
   21.8795   -8.0552    0.0000 C   0  0
   22.4871   -7.5008    0.0000 C   0  0  2  0  0  0
   22.3085   -6.6973    0.0000 C   0  0  1  0  0  0
   21.5222   -6.4482    0.0000 O   0  0
   17.8453   -8.1043    0.0000 C   0  0  1  0  0  0
   18.0403   -7.3022    0.0000 C   0  0  1  0  0  0
   17.4466   -6.7354    0.0000 C   0  0
   17.0564   -8.3396    0.0000 O   0  0
   16.4592   -7.7672    0.0000 C   0  0  1  0  0  0
   16.6537   -6.9682    0.0000 C   0  0  1  0  0  0
   16.0622   -6.4036    0.0000 O   0  0
   15.6734   -8.0015    0.0000 C   0  0
   15.2727   -6.6348    0.0000 C   0  0  1  0  0  0
   15.0786   -7.4313    0.0000 C   0  0  1  0  0  0
   14.3309   -7.7811    0.0000 O   0  0
   14.7659   -5.9831    0.0000 C   0  0
   13.9410   -5.9740    0.0000 C   0  0
   13.5909   -7.4208    0.0000 C   0  0  1  0  0  0
   13.4215   -6.6143    0.0000 C   0  0  1  0  0  0
   12.6427   -6.3592    0.0000 O   0  0
   12.0278   -6.9069    0.0000 C   0  0  1  0  0  0
   12.1972   -7.7135    0.0000 C   0  0  2  0  0  0
   12.9814   -7.9722    0.0000 C   0  0
   11.2429   -6.6486    0.0000 C   0  0
   10.6266   -7.1993    0.0000 O   0  0
   11.5812   -8.2644    0.0000 O   0  0
   22.9180   -6.1392    0.0000 C   0  0
   23.7062   -6.3880    0.0000 C   0  0
   24.3156   -5.8299    0.0000 O   0  0
   25.1037   -6.0788    0.0000 C   0  0
   25.7133   -5.5206    0.0000 C   0  0
   26.4987   -5.7730    0.0000 C   0  0
   27.1078   -5.2158    0.0000 C   0  0
   26.9295   -4.4078    0.0000 C   0  0
   26.1366   -4.1602    0.0000 C   0  0
   25.5308   -4.7193    0.0000 C   0  0
   23.2751   -7.7499    0.0000 O   0  0
   23.8849   -7.1920    0.0000 C   0  0
   24.6729   -7.4412    0.0000 C   0  0
   24.8477   -8.2469    0.0000 C   0  0
   25.6348   -8.4961    0.0000 C   0  0
   26.2455   -7.9379    0.0000 C   0  0
   26.0637   -7.1273    0.0000 C   0  0
   25.2768   -6.8819    0.0000 C   0  0
   22.6982   -8.2979    0.0000 H   0  0
   21.3082   -8.6026    0.0000 H   0  0
   19.9183   -8.9199    0.0000 C   0  0
   17.6268   -8.8989    0.0000 H   0  0
   16.2410   -8.5608    0.0000 H   0  0
   14.8594   -8.2270    0.0000 H   0  0
   13.8035   -8.2144    0.0000 H   0  0
   12.4093   -8.5066    0.0000 H   0  0
   11.8082   -6.1024    0.0000 H   0  0
   13.4153   -5.7852    0.0000 H   0  0
   15.6818   -5.9146    0.0000 C   0  0
   16.8629   -6.1650    0.0000 H   0  0
   18.2529   -6.4989    0.0000 H   0  0
   19.5176   -6.4906    0.0000 H   0  0
   20.6989   -6.2026    0.0000 H   0  0
   22.0888   -5.8937    0.0000 H   0  0
 30 31  1  0
 31 32  1  0
  4  7  1  0
 30 33  1  0
  5  6  1  0
 33 34  1  0
  6  9  1  0
 31 35  1  0
 14 17  1  0
 12 36  1  0
 15 16  1  0
 36 37  1  0
 16 19  1  0
 37 38  1  0
 18 17  1  0
 38 39  1  0
 18 19  1  0
 39 40  1  0
  8  7  1  0
 40 41  2  0
  8  9  1  0
 41 42  1  0
  5  3  1  0
 42 43  2  0
  2  3  1  0
 43 44  1  0
 18 21  1  0
 44 45  2  0
 45 40  1  0
 19 20  1  0
 11 46  1  0
 20 22  1  0
 46 47  1  0
 23 21  1  0
 47 48  1  0
  4  5  1  0
 48 49  2  0
  1  4  1  0
 49 50  1  0
 22 23  1  0
 50 51  2  0
 51 52  1  0
 23 24  1  0
 52 53  2  0
 53 48  1  0
 14  2  1  0
 11 54  1  1
 22 25  1  0
  9 55  1  1
 24 27  1  0
  5 56  1  1
  8 13  1  0
 14 57  1  1
 25 26  1  0
 18 58  1  1
 26 28  1  0
 23 59  1  1
 27 28  1  0
 27 60  1  1
  9 10  1  0
 31 61  1  1
 10 11  1  0
 30 62  1  6
 11 12  1  0
 28 63  1  6
 12 13  1  0
 22 64  1  6
 14 15  1  0
 19 65  1  6
 15  1  1  0
 15 66  1  6
 27 32  1  0
  4 67  1  6
 28 29  1  0
  8 68  1  6
 29 30  1  0
 12 69  1  6
M  END