
          11280715422D 1   1.00000     0.00000     0

 31 34  0     0  0            999 V2000
    0.0167    0.7958    0.0000 C   0  0  0  0  0  0           0  0  0
   -0.9708   -0.0917    0.0000 C   0  0  0  0  0  0           0  0  0
   -0.8000    0.7083    0.0000 N   0  0  0  0  0  0           0  0  0
   -0.2625   -0.5125    0.0000 N   0  0  3  0  0  0           0  0  0
    0.3542    0.0458    0.0000 C   0  0  0  0  0  0           0  0  0
   -1.7000   -0.1792    0.0000 C   0  0  0  0  0  0           0  0  0
    0.4375    1.5083    0.0000 C   0  0  0  0  0  0           0  0  0
   -2.1083    0.5375    0.0000 C   0  0  0  0  0  0           0  0  0
    1.2542    1.5083    0.0000 N   0  0  0  0  0  0           0  0  0
   -0.2625   -1.3375    0.0000 C   0  0  0  0  0  0           0  0  0
   -2.1083   -0.8917    0.0000 C   0  0  0  0  0  0           0  0  0
   -2.9375    0.5375    0.0000 C   0  0  0  0  0  0           0  0  0
    0.4000    2.3333    0.0000 O   0  0  0  0  0  0           0  0  0
    0.4375   -1.7417    0.0000 C   0  0  0  0  0  0           0  0  0
   -0.9833   -1.7375    0.0000 C   0  0  0  0  0  0           0  0  0
   -3.3458   -0.1750    0.0000 C   0  0  0  0  0  0           0  0  0
   -1.7000    1.2500    0.0000 Cl  0  0  0  0  0  0           0  0  0
    1.1625   -0.1292    0.0000 C   0  0  0  0  0  0           0  0  0
   -2.9375   -0.8917    0.0000 C   0  0  0  0  0  0           0  0  0
   -0.2833   -2.9750    0.0000 C   0  0  0  0  0  0           0  0  0
    2.0792    1.5083    0.0000 C   0  0  3  0  0  0           0  0  0
   -0.9833   -2.5542    0.0000 C   0  0  0  0  0  0           0  0  0
    0.4375   -2.5667    0.0000 C   0  0  0  0  0  0           0  0  0
   -4.1708   -0.1667    0.0000 Cl  0  0  0  0  0  0           0  0  0
   -0.2833   -3.8000    0.0000 Cl  0  0  0  0  0  0           0  0  0
    2.4375    0.7708    0.0000 C   0  0  0  0  0  0           0  0  0
    2.4375    2.2583    0.0000 C   0  0  0  0  0  0           0  0  0
    3.2375    0.5833    0.0000 C   0  0  0  0  0  0           0  0  0
    3.2500    2.4375    0.0000 C   0  0  0  0  0  0           0  0  0
    3.8917    1.0958    0.0000 C   0  0  0  0  0  0           0  0  0
    3.8917    1.9250    0.0000 C   0  0  0  0  0  0           0  0  0
  2  3  2  0     0  0
  3  1  1  0     0  0
  4  5  1  0     0  0
  5  1  2  0     0  0
  6  2  1  0     0  0
  7  1  1  0     0  0
  8  6  2  0     0  0
  9  7  1  0     0  0
 10  4  1  0     0  0
 11  6  1  0     0  0
 12  8  1  0     0  0
 13  7  2  0     0  0
 14 10  1  0     0  0
 15 10  2  0     0  0
 16 19  1  0     0  0
 17  8  1  0     0  0
 18  5  1  0     0  0
 19 11  2  0     0  0
 20 22  2  0     0  0
 21  9  1  0     0  0
 22 15  1  0     0  0
 23 14  2  0     0  0
 24 16  1  0     0  0
 25 20  1  0     0  0
 26 21  1  0     0  0
 27 21  1  0     0  0
 28 26  1  0     0  0
 29 27  1  0     0  0
 30 28  1  0     0  0
 31 29  1  0     0  0
  4  2  1  0     0  0
 20 23  1  0     0  0
 31 30  1  0     0  0
 16 12  2  0     0  0
M  END