
          11280715092D 1   1.00000     0.00000     0

 40 44  0     0  0            999 V2000
    4.3250   -5.8167    0.0000 C   0  0  0  0  0  0           0  0  0
    5.7667   -6.1500    0.0000 N   0  0  0  0  0  0           0  0  0
    4.9750   -4.4792    0.0000 N   0  0  3  0  0  0           0  0  0
    4.9667   -6.3292    0.0000 C   0  0  0  0  0  0           0  0  0
    5.7750   -4.6667    0.0000 C   0  0  0  0  0  0           0  0  0
    4.3292   -4.9917    0.0000 C   0  0  0  0  0  0           0  0  0
    6.1292   -5.4042    0.0000 C   0  0  3  0  0  0           0  0  0
    3.6125   -6.2292    0.0000 C   0  0  0  0  0  0           0  0  0
    2.1792   -6.2292    0.0000 N   0  0  3  0  0  0           0  0  0
    2.9000   -5.8167    0.0000 C   0  0  0  0  0  0           0  0  0
    3.6125   -4.5792    0.0000 C   0  0  0  0  0  0           0  0  0
    6.2875   -4.0167    0.0000 O   0  0  0  0  0  0           0  0  0
    4.7875   -7.1375    0.0000 C   0  0  0  0  0  0           0  0  0
    2.1792   -7.0542    0.0000 C   0  0  0  0  0  0           0  0  0
    1.4667   -5.8167    0.0000 C   0  0  0  0  0  0           0  0  0
    2.9000   -4.9917    0.0000 C   0  0  0  0  0  0           0  0  0
    4.7917   -3.6792    0.0000 C   0  0  0  0  0  0           0  0  0
    6.9542   -5.4042    0.0000 C   0  0  0  0  0  0           0  0  0
    1.4667   -7.4667    0.0000 C   0  0  0  0  0  0           0  0  0
    1.4667   -4.9917    0.0000 C   0  0  0  0  0  0           0  0  0
    5.8292   -1.7542    0.0000 N   0  0  0  0  0  0           0  0  0
    8.1917   -4.6875    0.0000 N   0  0  0  0  0  0           0  0  0
    5.4000   -3.1167    0.0000 C   0  0  0  0  0  0           0  0  0
    7.3667   -4.6875    0.0000 C   0  0  0  0  0  0           0  0  0
    5.2167   -2.3125    0.0000 C   0  0  0  0  0  0           0  0  0
    5.3917   -7.6917    0.0000 C   0  0  0  0  0  0           0  0  0
    3.9917   -7.3750    0.0000 C   0  0  0  0  0  0           0  0  0
    0.7542   -7.0542    0.0000 C   0  0  0  0  0  0           0  0  0
    1.4667   -8.2917    0.0000 C   0  0  0  0  0  0           0  0  0
    2.1875   -4.5875    0.0000 C   0  0  0  0  0  0           0  0  0
    0.7542   -4.5875    0.0000 C   0  0  0  0  0  0           0  0  0
    3.8125   -8.1792    0.0000 C   0  0  0  0  0  0           0  0  0
    5.2042   -8.4917    0.0000 C   0  0  0  0  0  0           0  0  0
    0.7625   -8.7042    0.0000 C   0  0  0  0  0  0           0  0  0
    2.1875   -3.7625    0.0000 C   0  0  0  0  0  0           0  0  0
    0.7542   -3.7667    0.0000 C   0  0  0  0  0  0           0  0  0
    0.0417   -7.4667    0.0000 C   0  0  0  0  0  0           0  0  0
    0.0417   -8.2917    0.0000 C   0  0  0  0  0  0           0  0  0
    1.4750   -3.3500    0.0000 C   0  0  0  0  0  0           0  0  0
    4.4167   -8.7417    0.0000 C   0  0  0  0  0  0           0  0  0
  2  4  2  0     0  0
  3  6  1  0     0  0
  4  1  1  0     0  0
  5  3  1  0     0  0
  6  1  1  0     0  0
  7  2  1  0     0  0
  8  1  2  0     0  0
  9 10  1  0     0  0
 10  8  1  0     0  0
 11  6  2  0     0  0
 12  5  2  0     0  0
 13  4  1  0     0  0
 14  9  1  0     0  0
 15  9  1  0     0  0
 16 10  2  0     0  0
 17  3  1  0     0  0
 18  7  1  0     0  0
 19 14  1  0     0  0
 20 15  1  0     0  0
 21 25  1  0     0  0
 22 24  1  0     0  0
 23 17  1  0     0  0
 24 18  1  0     0  0
 25 23  1  0     0  0
 26 13  1  0     0  0
 27 13  2  0     0  0
 28 19  2  0     0  0
 29 19  1  0     0  0
 30 20  2  0     0  0
 31 20  1  0     0  0
 32 27  1  0     0  0
 33 26  2  0     0  0
 34 29  2  0     0  0
 35 30  1  0     0  0
 36 31  2  0     0  0
 37 28  1  0     0  0
 38 34  1  0     0  0
 39 36  1  0     0  0
 40 32  2  0     0  0
 16 11  1  0     0  0
  7  5  1  0     0  0
 40 33  1  0     0  0
 39 35  2  0     0  0
 38 37  2  0     0  0
M  END