
          08180812492D 1   1.00000     0.00000     0

 23 25  0     0  0            999 V2000
   -5.0806  -12.6583    0.0000 N   0  0  0  0  0  0           0  0  0
   -5.0818  -13.4857    0.0000 C   0  0  0  0  0  0           0  0  0
   -4.3669  -13.8985    0.0000 N   0  0  0  0  0  0           0  0  0
   -3.6505  -13.4852    0.0000 C   0  0  0  0  0  0           0  0  0
   -3.6534  -12.6547    0.0000 C   0  0  0  0  0  0           0  0  0
   -4.3687  -12.2455    0.0000 C   0  0  0  0  0  0           0  0  0
   -2.9404  -12.2395    0.0000 C   0  0  0  0  0  0           0  0  0
   -2.2244  -12.6493    0.0000 C   0  0  0  0  0  0           0  0  0
   -2.1314  -13.4683    0.0000 C   0  0  0  0  0  0           0  0  0
   -1.3238  -13.6368    0.0000 C   0  0  0  0  0  0           0  0  0
   -0.9140  -12.9208    0.0000 S   0  0  0  0  0  0           0  0  0
   -1.4684  -12.3099    0.0000 C   0  0  0  0  0  0           0  0  0
   -2.7411  -14.0241    0.0000 C   0  0  0  0  0  0           0  0  0
   -0.9854  -14.3892    0.0000 C   0  0  0  0  0  0           0  0  0
   -0.1646  -14.4724    0.0000 C   0  0  0  0  0  0           0  0  0
    0.1738  -15.2248    0.0000 O   0  0  0  0  0  0           0  0  0
   -4.3712  -11.4205    0.0000 N   0  0  0  0  0  0           0  0  0
   -5.7966  -13.8976    0.0000 C   0  0  0  0  0  0           0  0  0
   -6.5159  -13.4831    0.0000 C   0  0  0  0  0  0           0  0  0
   -7.2266  -13.8943    0.0000 C   0  0  0  0  0  0           0  0  0
   -7.2255  -14.7202    0.0000 C   0  0  0  0  0  0           0  0  0
   -6.5114  -15.1331    0.0000 C   0  0  0  0  0  0           0  0  0
   -5.7939  -14.7195    0.0000 C   0  0  0  0  0  0           0  0  0
 10 11  1  0     0  0
 11 12  1  0     0  0
 12  8  2  0     0  0
  6  1  1  0     0  0
  9 13  1  0     0  0
  1  2  2  0     0  0
 10 14  1  0     0  0
  5  7  1  0     0  0
 14 15  1  0     0  0
  3  4  2  0     0  0
 15 16  1  0     0  0
  7  8  1  0     0  0
  6 17  1  0     0  0
  8  9  1  0     0  0
  2 18  1  0     0  0
 18 19  2  0     0  0
  4  5  1  0     0  0
 19 20  1  0     0  0
  2  3  1  0     0  0
 20 21  2  0     0  0
  5  6  2  0     0  0
 21 22  1  0     0  0
  9 10  2  0     0  0
 22 23  2  0     0  0
 23 18  1  0     0  0
M  END