
  SciTegic11201309402D

 88 92  0  0  1  0            999 V2000
    5.6910   -4.4787    0.0000 N   0  0
    4.8869   -4.6537    0.0000 C   0  0
    3.1121    0.5082    0.0000 N   0  0
    4.3287   -4.0412    0.0000 C   0  0  1  0  0  0
    4.5245   -0.3042    0.0000 C   0  0
    4.8494   -3.3913    0.0000 N   0  0
    4.9744   -0.9916    0.0000 N   0  0
    0.7916   -0.1042    0.0000 N   0  0
    2.2872    0.5582    0.0000 C   0  0
    5.1494   -2.6164    0.0000 C   0  0
    0.2750   -0.7541    0.0000 C   0  0
    6.2243   -5.8410    0.0000 C   0  0
    3.8871    0.2083    0.0000 C   0  0  2  0  0  0
    5.1911   -1.7915    0.0000 C   0  0  2  0  0  0
   -0.0625   -2.3539    0.0000 N   0  0
    6.3035   -5.0286    0.0000 C   0  0  2  0  0  0
    1.4873    0.3458    0.0000 C   0  0  2  0  0  0
    0.1500   -3.1413    0.0000 C   0  0
   -0.0250   -1.5290    0.0000 C   0  0  2  0  0  0
    6.8909   -6.3285    0.0000 N   0  0
    6.0118   -1.7040    0.0000 C   0  0
    8.3657   -6.3910    0.0000 C   0  0
    8.8115   -2.5539    0.0000 C   0  0
    0.5999   -3.8413    0.0000 C   0  0
    2.8372   -4.7037    0.0000 S   0  0
   12.3236   -8.4032    0.0000 C   0  0
    2.0373   -4.7037    0.0000 S   0  0
    6.5992   -2.2914    0.0000 C   0  0
    9.0782   -5.9785    0.0000 N   0  0
    1.2374   -4.3537    0.0000 C   0  0
    7.6491   -5.9910    0.0000 C   0  0  2  0  0  0
   11.6112   -8.8157    0.0000 C   0  0  1  0  0  0
   10.4571   -5.9035    0.0000 C   0  0
    4.6245   -5.4411    0.0000 O   0  0
    8.8990   -3.3788    0.0000 N   0  0
    5.1411    0.2458    0.0000 O   0  0
    3.6371   -4.4912    0.0000 C   0  0
    5.4744   -6.1910    0.0000 O   0  0
    2.1331    1.1707    0.0000 O   0  0
    5.9535   -2.7914    0.0000 O   0  0
   -0.4457   -0.3417    0.0000 O   0  0
    1.1499    1.0957    0.0000 C   0  0
   -0.8332   -1.3540    0.0000 C   0  0
   -0.6124   -3.4788    0.0000 O   0  0
    8.3740   -7.2159    0.0000 O   0  0
   12.3236   -7.5783    0.0000 O   0  0
    6.4118   -2.9164    0.0000 O   0  0
   10.3780   -5.0786    0.0000 O   0  0
    9.7989   -6.3785    0.0000 C   0  0
    8.0616   -2.2164    0.0000 N   0  0
    9.4864   -2.0665    0.0000 N   0  0
    4.2995    0.9332    0.0000 C   0  0  2  0  0  0
    6.0285   -3.7163    0.0000 C   0  0
   11.2154   -6.2410    0.0000 N   0  0
   10.8945   -8.4032    0.0000 N   0  0
    7.4116   -2.2039    0.0000 N   0  0
   13.0360   -8.8157    0.0000 O   0  0
   11.6029   -9.6406    0.0000 C   0  0
    1.6373    1.7706    0.0000 C   0  0
   -1.5498   -1.7540    0.0000 C   0  0
    7.0242   -4.6162    0.0000 C   0  0
    6.8492   -3.8038    0.0000 C   0  0
    8.2283   -3.8538    0.0000 C   0  0
    0.4666   -4.2662    0.0000 C   0  0
    1.7123   -4.9786    0.0000 C   0  0
    7.6408   -5.1661    0.0000 C   0  0
   11.3737   -7.0534    0.0000 C   0  0
   10.7488   -7.5908    0.0000 C   0  0
    5.1244    0.9332    0.0000 C   0  0
    3.8871    1.6456    0.0000 C   0  0
   10.8863  -10.0405    0.0000 C   0  0
   12.3153  -10.0530    0.0000 C   0  0
   -2.2622   -1.3415    0.0000 C   0  0
   -1.5498   -2.5789    0.0000 C   0  0
    2.4622    1.6831    0.0000 C   0  0
    1.2999    2.5205    0.0000 C   0  0
    8.3115   -4.6787    0.0000 C   0  0
    5.5369    1.6456    0.0000 C   0  0
    1.2916   -5.7035    0.0000 C   0  0
    0.0542   -4.9786    0.0000 C   0  0
    2.9414    2.3580    0.0000 C   0  0
    1.7873    3.1954    0.0000 C   0  0
   -2.9747   -1.7415    0.0000 C   0  0
   -2.2747   -2.9914    0.0000 C   0  0
    2.6039    3.1079    0.0000 C   0  0
    0.4666   -5.7035    0.0000 C   0  0
   -2.9872   -2.5664    0.0000 C   0  0
    3.5516    1.1503    0.0000 H   0  0
  2  1  1  0
  3 13  1  0
  4  2  1  6
  5  7  1  0
  6  4  1  0
  7 14  1  0
  8 11  1  0
  9  3  1  0
 10  6  1  0
 11 19  1  0
 16 12  1  1
 13  5  1  0
 14 10  1  0
 15 18  1  0
 16  1  1  0
 17  9  1  0
 18 24  1  0
 19 15  1  0
 20 12  1  0
 14 21  1  1
 22 31  1  0
 23 35  2  0
 24 30  1  0
 25 37  1  0
 26 32  1  0
 27 25  1  0
 28 21  1  0
 29 22  1  0
 30 27  1  0
 31 20  1  1
 32 55  1  6
 33 49  1  0
 34  2  2  0
 35 63  1  0
 36  5  2  0
  4 37  1  0
 38 12  2  0
 39  9  2  0
 40 10  2  0
 41 11  2  0
 17 42  1  1
 19 43  1  6
 44 18  2  0
 45 22  2  0
 46 26  2  0
 47 28  2  0
 48 33  2  0
 49 29  1  0
 50 23  1  0
 51 23  1  0
 13 52  1  0
 53  1  1  0
 54 33  1  0
 55 68  1  0
 56 28  1  0
 57 26  1  0
 32 58  1  0
 59 42  1  0
 60 43  1  0
 61 16  1  0
 62 53  1  0
 63 77  1  0
 64 30  1  0
 65 30  1  0
 31 66  1  0
 67 54  1  0
 68 67  1  0
 69 52  1  0
 52 70  1  1
 71 58  1  0
 72 58  1  0
 73 60  2  0
 74 60  1  0
 75 59  1  0
 76 59  2  0
 77 66  1  0
 78 69  1  0
 79 65  1  0
 80 64  1  0
 81 75  2  0
 82 76  1  0
 83 73  1  0
 84 74  2  0
 85 82  2  0
 86 79  1  0
 87 84  1  0
 61 62  1  0
 80 86  1  0
  8 17  1  0
 83 87  2  0
 81 85  1  0
 13 88  1  6
M  END