
  SciTegic04151115542D

 40 43  0  0  0  0            999 V2000
   -2.0669    0.0125    0.0000 C   0  0
   -1.6585    0.7293    0.0000 C   0  0
   -0.8334    0.7340    0.0000 C   0  0
   -2.0751    1.4415    0.0000 C   0  0
   -1.6667    2.1584    0.0000 O   0  0
   -2.9002    1.4368    0.0000 C   0  0
   -3.3169    2.1490    0.0000 O   0  0
   -4.1419    2.1443    0.0000 C   0  0
   -3.3087    0.7199    0.0000 O   0  0
   -0.4168    0.0218    0.0000 O   0  0
   -0.4249    1.4509    0.0000 C   0  0
    0.4001    1.4556    0.0000 N   0  0
   -0.8416    2.1631    0.0000 O   0  0
    0.8086    2.1725    0.0000 C   0  0
    1.6320    2.1743    0.0000 C   0  0
    2.0403    2.8903    0.0000 C   0  0
    1.6237    3.6035    0.0000 C   0  0
    0.7943    3.5961    0.0000 C   0  0
    0.3896    2.8794    0.0000 C   0  0
    2.0471    1.4613    0.0000 C   0  0
    1.6373    0.7452    0.0000 O   0  0
    2.8722    1.4643    0.0000 N   0  0
   -2.8929    0.0106    0.0000 N   0  0
   -2.0554   -1.4110    0.0000 N   0  0
   -1.6509   -0.6945    0.0000 C   0  0
   -2.8846   -1.4184    0.0000 C   0  0
   -3.2983   -0.7070    0.0000 C   0  0
   -4.1193   -0.7105    0.0000 C   0  0
   -4.5276   -1.4247    0.0000 C   0  0
   -4.1090   -2.1367    0.0000 C   0  0
   -3.2894   -2.1297    0.0000 C   0  0
   -0.8258   -0.6872    0.0000 O   0  0
   -4.5156   -2.8546    0.0000 C   0  0
   -5.3407   -2.8614    0.0000 O   0  0
   -4.0963   -3.5630    0.0000 C   0  0
   -4.5046   -4.2812    0.0000 C   0  0
   -4.0870   -4.9919    0.0000 C   0  0
   -3.2610   -4.9856    0.0000 C   0  0
   -2.8545   -4.2626    0.0000 C   0  0
   -3.2746   -3.5549    0.0000 C   0  0
 15 20  1  0
  2  3  1  0
 20 21  2  0
  3 11  1  0
 20 22  1  0
  4  6  1  0
  1 23  1  0
 23 27  2  0
 11 12  1  0
 26 24  2  0
  1  2  1  0
 24 25  1  0
 25  1  2  0
 11 13  2  0
  6  7  1  0
 26 27  1  0
 12 14  1  0
 27 28  1  0
  2  4  1  0
 28 29  2  0
 14 15  2  0
 29 30  1  0
  7  8  1  0
 30 31  2  0
 31 26  1  0
 15 16  1  0
 25 32  1  0
 30 33  1  0
 16 17  2  0
 33 34  2  0
  6  9  2  0
 17 18  1  0
 35 36  2  0
  4  5  2  0
 36 37  1  0
 18 19  2  0
 37 38  2  0
 19 14  1  0
 38 39  1  0
  3 10  2  0
 39 40  2  0
 40 35  1  0
 33 35  1  0
M  END