
  SciTegic03291108542D

 21 23  0  0  0  0            999 V2000
    0.6369   -1.6463    0.0000 O   0  0
    2.0659    0.8287    0.0000 O   0  0
   -0.7920    0.8287    0.0000 N   0  0
    1.3514   -0.4088    0.0000 N   0  0
   -0.7920   -0.8213    0.0000 N   0  0
    0.6369    0.8287    0.0000 N   0  0
   -1.5065    0.4162    0.0000 N   0  0
   -0.0775   -0.4088    0.0000 C   0  0
   -0.0775    0.4162    0.0000 C   0  0
    0.6369   -0.8213    0.0000 C   0  0
   -1.5065   -0.4088    0.0000 C   0  0
    1.3514    0.4162    0.0000 C   0  0
   -2.2209   -0.8213    0.0000 C   0  0
   -0.7920    1.6537    0.0000 C   0  0
    2.0659   -0.8213    0.0000 C   0  0
   -2.2209   -1.6463    0.0000 C   0  0
   -2.9354   -0.4088    0.0000 C   0  0
   -2.9354   -2.0588    0.0000 C   0  0
   -3.6499   -0.8213    0.0000 C   0  0
   -0.0775    2.0662    0.0000 C   0  0
   -3.6499   -1.6463    0.0000 C   0  0
  1 10  2  0
  2 12  2  0
  3  7  1  0
  3  9  1  0
  3 14  1  0
  4 10  1  0
  4 12  1  0
  4 15  1  0
  5  8  2  0
  5 11  1  0
  6  9  2  0
  6 12  1  0
  7 11  2  0
  8  9  1  0
  8 10  1  0
 11 13  1  0
 13 16  2  0
 13 17  1  0
 14 20  1  0
 16 18  1  0
 17 19  2  0
 18 21  2  0
 19 21  1  0
M  END