
          11280714472D 1   1.00000     0.00000     0

 34 36  0     1  0            999 V2000
   -2.3708    0.0583    0.0000 N   0  3  0  0  0  0           0  0  0
   -2.7750   -0.6667    0.0000 C   0  0  0  0  0  0           0  0  0
    0.3292   -2.0417    0.0000 O   0  0  0  0  0  0           0  0  0
   -0.3833   -1.6375    0.0000 C   0  0  1  0  0  0           0  0  0
    1.0375   -1.6125    0.0000 C   0  0  1  0  0  0           0  0  0
   -2.3458   -1.3750    0.0000 C   0  0  0  0  0  0           0  0  0
   -1.1000   -2.0625    0.0000 C   0  0  3  0  0  0           0  0  0
   -0.3958   -0.8167    0.0000 O   0  0  0  0  0  0           0  0  0
   -1.5208   -1.3542    0.0000 O   0  0  0  0  0  0           0  0  0
   -1.5583    0.0708    0.0000 O   0  5  0  0  0  0           0  0  0
    1.0292   -0.7917    0.0000 C   0  0  1  0  0  0           0  0  0
    1.7542   -2.0167    0.0000 C   0  0  0  0  0  0           0  0  0
   -3.6000   -0.6792    0.0000 C   0  0  0  0  0  0           0  0  0
   -2.7958    0.7625    0.0000 O   0  0  0  0  0  0           0  0  0
    5.4250   -0.4042    0.0000 C   0  0  0  0  0  0           0  0  0
    0.3125   -0.3792    0.0000 C   0  0  0  0  0  0           0  0  0
    2.4667   -3.2417    0.0000 N   0  0  0  0  0  0           0  0  0
   -2.7500   -2.0917    0.0000 C   0  0  0  0  0  0           0  0  0
    6.1292   -0.8417    0.0000 O   0  0  0  0  0  0           0  0  0
    2.4625   -0.7667    0.0000 C   0  0  0  0  0  0           0  0  0
    3.2792   -0.7667    0.0000 C   0  0  0  0  0  0           0  0  0
   -3.9958   -1.3917    0.0000 C   0  0  0  0  0  0           0  0  0
    5.4500    0.4083    0.0000 O   0  0  0  0  0  0           0  0  0
   -3.5708   -2.1125    0.0000 C   0  0  0  0  0  0           0  0  0
    1.7542   -2.8375    0.0000 C   0  0  0  0  0  0           0  0  0
    1.7375   -0.3667    0.0000 C   0  0  0  0  0  0           0  0  0
   -0.6708   -2.7667    0.0000 C   0  0  0  0  0  0           0  0  0
   -1.8083   -2.4875    0.0000 C   0  0  0  0  0  0           0  0  0
    4.7000   -0.8042    0.0000 C   0  0  0  0  0  0           0  0  0
    2.4542   -1.5917    0.0000 C   0  0  0  0  0  0           0  0  0
    3.1792   -2.8250    0.0000 C   0  0  0  0  0  0           0  0  0
    4.0000   -0.3750    0.0000 C   0  0  0  0  0  0           0  0  0
   -4.8333   -1.4000    0.0000 C   0  0  0  0  0  0           0  0  0
    3.1667   -2.0000    0.0000 C   0  0  0  0  0  0           0  0  0
  2  1  1  0     0  0
  3  4  1  0     0  0
  4  7  1  1     0  0
  5  3  1  0     0  0
  6  2  2  0     0  0
  7  9  1  0     0  0
  8  4  1  0     0  0
  9  6  1  0     0  0
 10  1  1  0     0  0
 11 16  1  0     0  0
  5 12  1  1     0  0
 13  2  1  0     0  0
 14  1  2  0     0  0
 15 29  1  0     0  0
 16  8  1  0     0  0
 17 25  1  0     0  0
 18  6  1  0     0  0
 19 15  2  0     0  0
 20 26  1  0     0  0
 21 20  2  0     0  0
 22 13  2  0     0  0
 23 15  1  0     0  0
 24 22  1  0     0  0
 25 12  2  0     0  0
 11 26  1  1     0  0
 27  7  1  0     0  0
 28  7  1  0     0  0
 29 32  1  0     0  0
 30 12  1  0     0  0
 31 34  1  0     0  0
 32 21  1  0     0  0
 33 22  1  0     0  0
 34 30  2  0     0  0
 18 24  2  0     0  0
 11  5  1  0     0  0
 17 31  2  0     0  0
M  CHG  2   1   1  10  -1
M  END