
  SciTegic01161211242D

 16 17  0  0  0  0            999 V2000
    6.2756  -18.6975    0.0000 C   0  0
    6.2756  -19.5226    0.0000 O   0  0
    6.9876  -19.9310    0.0000 C   0  0
    7.6997  -19.5226    0.0000 C   0  0
    7.6997  -18.6975    0.0000 N   0  0
    6.9876  -18.2809    0.0000 C   0  0
    6.9872  -20.7552    0.0000 C   0  0
    6.2711  -21.1672    0.0000 C   0  0
    6.2707  -21.9914    0.0000 C   0  0
    6.9857  -22.4049    0.0000 C   0  0
    7.7027  -21.9878    0.0000 C   0  0
    7.6995  -21.1650    0.0000 C   0  0
    5.5559  -22.4037    0.0000 C   0  0
    4.8416  -21.9908    0.0000 F   0  0
    5.5555  -23.2287    0.0000 F   0  0
    4.8379  -22.8104    0.0000 F   0  0
  1  6  1  0
  8  9  1  0
  2  3  1  0
  9 10  2  0
  3  4  1  0
 10 11  1  0
  4  5  1  0
 11 12  2  0
 12  7  1  0
  3  7  1  0
  5  6  1  0
  9 13  1  0
 13 14  1  0
  1  2  1  0
 13 15  1  0
  7  8  2  0
 13 16  1  0
M  END