
  SciTegic11201309402D

109118  0  0  0  0            999 V2000
   -2.0619  -12.8002    0.0000 C   0  0
   -2.0154  -14.4543    0.0000 O   0  0
    1.7508  -10.6831    0.0000 N   0  0
    0.9278  -10.6960    0.0000 C   0  0
    0.5274  -11.4174    0.0000 N   0  0
    0.5033   -9.9886    0.0000 S   0  0
   -0.2975  -11.4313    0.0000 C   0  0
   -0.7162  -10.7233    0.0000 C   0  0
   -1.5404  -10.7368    0.0000 C   0  0
   -0.6899  -12.1514    0.0000 C   0  0
   -1.5126  -12.1684    0.0000 C   0  0
   -1.9433  -11.4543    0.0000 C   0  0
   -2.7555  -11.6432    0.0000 C   0  0
   -2.8269  -12.4741    0.0000 O   0  0
   -3.3790  -11.1029    0.0000 O   0  0
   -1.3325  -13.1889    0.0000 C   0  0
   -1.3132  -14.0183    0.0000 C   0  0
   -0.5865  -14.4145    0.0000 C   0  0
    0.1214  -13.9825    0.0000 C   0  0
    0.0981  -13.1500    0.0000 C   0  0
   -0.6291  -12.7576    0.0000 C   0  0
   -2.7433  -14.0592    0.0000 C   0  0
   -2.7647  -13.2370    0.0000 C   0  0
   -3.4862  -12.8462    0.0000 C   0  0
   -4.1868  -13.2765    0.0000 C   0  0
   -4.1614  -14.1016    0.0000 C   0  0
   -3.4394  -14.4887    0.0000 C   0  0
    0.8465  -14.3761    0.0000 O   0  0
   -4.8627  -14.5362    0.0000 O   0  0
    6.8619  -10.5240    0.0000 C   0  0  2  0  0  0
    7.1283   -9.7477    0.0000 C   0  0
    6.4702   -9.2502    0.0000 C   0  0
    5.7937   -9.7224    0.0000 C   0  0
    6.0326  -10.5116    0.0000 N   0  0
    5.3348  -10.9518    0.0000 C   0  0
    4.6048  -10.5676    0.0000 C   0  0
    5.3671  -11.7761    0.0000 O   0  0
    3.9070  -11.0077    0.0000 C   0  0
    3.1769  -10.6235    0.0000 C   0  0
    2.4791  -11.0637    0.0000 C   0  0
   21.7189  -13.2271    0.0000 C   0  0
   22.4658  -12.8730    0.0000 C   0  0
   23.1422  -13.3454    0.0000 C   0  0
   23.0732  -14.1677    0.0000 O   0  0
   23.8913  -12.9961    0.0000 O   0  0
   21.0185  -12.7911    0.0000 C   0  0  2  0  0  0
   19.6154  -11.9552    0.0000 C   0  0
   20.3328  -11.5478    0.0000 C   0  0
   21.0443  -11.9655    0.0000 N   0  0
   20.3387  -10.7228    0.0000 O   0  0
   20.2900  -13.1784    0.0000 C   0  0
   20.2612  -14.0029    0.0000 N   0  0
   19.5904  -12.7412    0.0000 O   0  0
   16.3013  -15.1536    0.0000 C   0  0
   10.9868  -11.9260    0.0000 C   0  0
   11.8118  -11.9256    0.0000 N   0  0
   10.5746  -12.6406    0.0000 O   0  0
   12.2246  -12.6399    0.0000 C   0  0  2  0  0  0
   13.0496  -12.6395    0.0000 C   0  0
   11.8125  -13.3545    0.0000 C   0  0  1  0  0  0
   10.9875  -13.3549    0.0000 C   0  0
   12.2253  -14.0688    0.0000 O   0  0
   13.4625  -13.3537    0.0000 N   0  0
   13.4618  -11.9248    0.0000 O   0  0
    9.7540  -11.2112    0.0000 N   0  0
   10.5744  -11.2119    0.0000 C   0  0  1  0  0  0
   10.8284  -10.4318    0.0000 C   0  0
   10.1123   -9.9928    0.0000 C   0  0
    9.5009  -10.4310    0.0000 C   0  0
   14.2875  -13.3533    0.0000 C   0  0  2  0  0  0
   14.7003  -14.0676    0.0000 C   0  0
   14.6996  -12.6387    0.0000 C   0  0
   14.2881  -14.7823    0.0000 O   0  0
   15.5228  -14.0671    0.0000 N   0  0
   15.5192  -14.8909    0.0000 C   0  0
   16.7929  -14.4910    0.0000 C   0  0
   16.3148  -13.8172    0.0000 C   0  0  1  0  0  0
   16.7007  -13.0880    0.0000 C   0  0
   17.5243  -13.0577    0.0000 N   0  0
   16.2621  -12.3893    0.0000 O   0  0
   17.8073  -13.8319    0.0000 C   0  0
   18.6319  -13.8042    0.0000 C   0  0
   18.8603  -13.0114    0.0000 C   0  0
   18.1763  -12.5486    0.0000 C   0  0  1  0  0  0
   18.1621  -11.7238    0.0000 C   0  0
   18.9501  -11.4674    0.0000 N   0  0
   17.4406  -11.3236    0.0000 O   0  0
   11.2246  -12.6404    0.0000 H   0  0
    9.3476  -11.9291    0.0000 C   0  0
    8.5226  -11.9361    0.0000 C   0  0
    9.7661  -12.6401    0.0000 O   0  0
    8.1041  -11.2251    0.0000 N   0  0
    7.2791  -11.2321    0.0000 C   0  0
    6.8727  -11.9500    0.0000 O   0  0
    8.0958  -10.4000    0.0000 C   0  0
   18.9458  -10.6417    0.0000 C   0  0
   18.2292  -10.2329    0.0000 C   0  0
   18.2250   -9.4079    0.0000 C   0  0
   17.5084   -8.9991    0.0000 C   0  0
   16.6627   -9.3903    0.0000 C   0  0
   16.0378   -8.7981    0.0000 C   0  0
    8.8061   -9.9804    0.0000 C   0  0
   14.6053   -8.4205    0.0000 C   0  0
    8.7979   -9.1554    0.0000 C   0  0
    9.5082   -8.7358    0.0000 C   0  0
   11.2393   -8.4286    0.0000 C   0  0
   19.0555  -12.0722    0.0000 H   0  0
   17.3127  -13.7521    0.0000 H   0  0
   11.5689  -11.1076    0.0000 H   0  0
 23 24  1  0
 51 52  1  0
 11 12  1  0
 51 53  2  0
 24 25  2  0
  1 16  1  0
 66 55  1  0
 25 26  1  0
 55 56  1  0
  4  5  1  0
 55 57  2  0
 26 27  2  0
 56 58  1  0
 27 22  1  0
 58 59  1  0
 22  2  1  0
 58 60  1  0
 19 28  1  0
 60 61  1  6
  4  6  2  0
 60 62  1  0
 26 29  1  0
 59 63  1  0
 12 13  1  0
 59 64  2  0
 65 66  1  0
 30 31  1  0
 13 14  1  0
 14  1  1  0
  1 11  1  0
  2 17  1  0
 66 67  1  0
 67 68  1  0
 68 69  1  0
 69 65  1  0
 31 32  1  0
 63 70  1  0
 32 33  1  0
 70 71  1  0
 33 34  1  0
 70 72  1  1
 34 30  1  0
 71 73  2  0
 13 15  2  0
 71 74  1  0
 74 75  1  0
 34 35  1  0
  5  7  1  0
 35 36  1  0
 75 54  1  0
 54 76  1  0
 76 77  1  0
 77 74  1  0
 77 78  1  0
 35 37  2  0
 78 79  1  0
 16 17  2  0
 78 80  2  0
 79 81  1  0
 36 38  1  0
  7  8  2  0
 38 39  1  0
 17 18  1  0
 81 82  1  0
 82 83  1  0
 83 84  1  0
 84 79  1  0
 39 40  1  0
 84 85  1  0
 40  3  1  0
 85 86  1  0
  1 23  1  0
 85 87  2  0
 18 19  2  0
 58 88  1  1
 41 42  1  0
 65 89  1  0
  8  9  1  0
 89 90  1  0
 42 43  1  0
 89 91  2  0
 19 20  1  0
 90 92  1  0
  9 12  2  0
 92 93  1  0
 43 44  1  0
 93 94  2  0
 86 47  1  0
 46 41  1  1
 30 93  1  1
 43 45  2  0
 92 95  1  0
 20 21  2  0
 86 96  1  0
 21 16  1  0
 96 97  1  0
  3  4  1  0
 97 98  1  0
 47 48  1  0
 98 99  1  0
 11 10  2  0
 99100  1  0
 48 49  1  0
100101  1  0
 22 23  2  0
 95102  1  0
 48 50  2  0
101103  1  0
 49 46  1  0
102104  1  0
 10  7  1  0
104105  1  0
 46 51  1  0
105106  1  0
106103  2  0
 84107  1  1
 77108  1  1
 66109  1  6
M  END