
          11280714582D 1   1.00000     0.00000     0

 19 21  0     0  0            999 V2000
    6.5167   -2.3875    0.0000 C   0  0  3  0  0  0           0  0  0
    5.7500   -1.9542    0.0000 O   0  0  0  0  0  0           0  0  0
    5.7667   -3.7167    0.0000 O   0  0  0  0  0  0           0  0  0
    4.9917   -2.4042    0.0000 C   0  0  0  0  0  0           0  0  0
    8.0417   -2.3792    0.0000 N   0  0  3  0  0  0           0  0  0
    5.0000   -3.2792    0.0000 C   0  0  0  0  0  0           0  0  0
    7.2792   -2.8292    0.0000 C   0  0  0  0  0  0           0  0  0
    6.5250   -3.2667    0.0000 C   0  0  0  0  0  0           0  0  0
    6.5125   -1.5042    0.0000 O   0  0  0  0  0  0           0  0  0
    8.8042   -2.8250    0.0000 C   0  0  0  0  0  0           0  0  0
    8.0375   -1.5042    0.0000 C   0  0  0  0  0  0           0  0  0
    4.2167   -1.9667    0.0000 C   0  0  0  0  0  0           0  0  0
    4.2417   -3.7375    0.0000 C   0  0  0  0  0  0           0  0  0
    7.2667   -1.0542    0.0000 C   0  0  0  0  0  0           0  0  0
    9.5625   -2.3875    0.0000 C   0  0  0  0  0  0           0  0  0
    8.8042   -1.0625    0.0000 C   0  0  0  0  0  0           0  0  0
    3.4625   -2.4167    0.0000 C   0  0  0  0  0  0           0  0  0
    3.4667   -3.3000    0.0000 C   0  0  0  0  0  0           0  0  0
    9.5667   -1.5042    0.0000 C   0  0  0  0  0  0           0  0  0
  2  1  1  0     0  0
  3  8  1  0     0  0
  4  2  1  0     0  0
  5  7  1  0     0  0
  6  3  1  0     0  0
  7  1  1  0     0  0
  8  1  1  0     0  0
  9  1  1  0     0  0
 10  5  1  0     0  0
 11  5  1  0     0  0
 12  4  1  0     0  0
 13  6  1  0     0  0
 14  9  1  0     0  0
 15 10  1  0     0  0
 16 11  1  0     0  0
 17 12  2  0     0  0
 18 13  2  0     0  0
 19 16  1  0     0  0
  6  4  2  0     0  0
 18 17  1  0     0  0
 19 15  1  0     0  0
M  END