
          11280715462D 1   1.00000     0.00000     0

 34 37  0     1  0            999 V2000
   -0.1583    0.0833    0.0000 N   0  0  3  0  0  0           0  0  0
   -0.3833    0.8208    0.0000 C   0  0  0  0  0  0           0  0  0
    0.2167    1.2833    0.0000 N   0  0  3  0  0  0           0  0  0
   -0.7625   -0.3667    0.0000 C   0  0  0  0  0  0           0  0  0
    0.8292    0.8333    0.0000 C   0  0  0  0  0  0           0  0  0
    0.5917    0.0833    0.0000 C   0  0  1  0  0  0           0  0  0
   -1.1333    0.8333    0.0000 N   0  0  0  0  0  0           0  0  0
   -0.7625   -1.1417    0.0000 S   0  0  3  0  0  0           0  0  0
   -1.3625    0.0958    0.0000 C   0  0  0  0  0  0           0  0  0
    0.2167    2.0708    0.0000 C   0  0  0  0  0  0           0  0  0
    0.8667    2.4583    0.0000 C   0  0  0  0  0  0           0  0  0
   -0.4208    2.4583    0.0000 C   0  0  0  0  0  0           0  0  0
    1.3042   -0.1167    0.0000 C   0  0  0  0  0  0           0  0  0
    1.5375    1.0708    0.0000 O   0  0  0  0  0  0           0  0  0
   -0.0208   -1.1542    0.0000 O   0  0  0  0  0  0           0  0  0
   -1.5083   -1.1417    0.0000 O   0  0  0  0  0  0           0  0  0
    0.8667    3.2333    0.0000 C   0  0  0  0  0  0           0  0  0
   -0.4208    3.2333    0.0000 C   0  0  0  0  0  0           0  0  0
    0.2167    3.6208    0.0000 C   0  0  0  0  0  0           0  0  0
   -0.7708   -1.9292    0.0000 C   0  0  0  0  0  0           0  0  0
    0.5917   -0.6917    0.0000 C   0  0  0  0  0  0           0  0  0
    1.3042   -0.8917    0.0000 C   0  0  0  0  0  0           0  0  0
    1.2917   -2.4417    0.0000 C   0  0  0  0  0  0           0  0  0
   -1.0708    3.6208    0.0000 Cl  0  0  0  0  0  0           0  0  0
    1.5167    3.6208    0.0000 Cl  0  0  0  0  0  0           0  0  0
   -2.8000   -2.2917    0.0000 N   0  0  0  0  0  0           0  0  0
    1.2917   -3.2167    0.0000 Br  0  0  0  0  0  0           0  0  0
    1.9417   -1.2792    0.0000 C   0  0  0  0  0  0           0  0  0
    0.6542   -1.2667    0.0000 C   0  0  0  0  0  0           0  0  0
    1.9417   -2.0542    0.0000 C   0  0  0  0  0  0           0  0  0
    0.6542   -2.0542    0.0000 C   0  0  0  0  0  0           0  0  0
   -1.4458   -2.3042    0.0000 C   0  0  0  0  0  0           0  0  0
   -2.1208   -1.9167    0.0000 C   0  0  0  0  0  0           0  0  0
   -2.8000   -3.0667    0.0000 C   0  0  0  0  0  0           0  0  0
  2  1  1  0     0  0
  3  2  1  0     0  0
  4  1  1  0     0  0
  5  6  1  0     0  0
  6  1  1  0     0  0
  7  2  2  0     0  0
  8  4  1  0     0  0
  9  4  2  0     0  0
 10  3  1  0     0  0
 11 10  2  0     0  0
 12 10  1  0     0  0
  6 13  1  1     0  0
 14  5  2  0     0  0
 15  8  2  0     0  0
 16  8  2  0     0  0
 17 11  1  0     0  0
 18 12  2  0     0  0
 19 18  1  0     0  0
 20  8  1  0     0  0
  6 21  1  6     0  0
 22 13  1  0     0  0
 23 31  2  0     0  0
 24 18  1  0     0  0
 25 17  1  0     0  0
 26 33  1  0     0  0
 27 23  1  0     0  0
 28 22  1  0     0  0
 29 22  2  0     0  0
 30 28  2  0     0  0
 31 29  1  0     0  0
 32 20  1  0     0  0
 33 32  1  0     0  0
 34 26  1  0     0  0
  3  5  1  0     0  0
  7  9  1  0     0  0
 30 23  1  0     0  0
 17 19  2  0     0  0
M  END