
  SciTegic12011114592D

 41 46  0  0  0  0            999 V2000
   18.2725  -20.9937    0.0000 N   0  0
   18.9878  -20.5839    0.0000 C   0  0
   18.9907  -19.7580    0.0000 N   0  0
   18.2723  -19.3435    0.0000 C   0  0
   18.2718  -18.5184    0.0000 N   0  0
   18.9865  -18.1054    0.0000 C   0  0
   19.7009  -20.9989    0.0000 S   0  0
   20.4168  -20.5888    0.0000 C   0  0
   21.1258  -21.0069    0.0000 C   0  0
   21.8413  -20.5976    0.0000 C   0  0
   21.8445  -19.7716    0.0000 C   0  0
   21.1264  -19.3567    0.0000 C   0  0
   20.4138  -19.7686    0.0000 C   0  0
   22.5600  -19.3605    0.0000 N   0  0
   19.7723  -18.3535    0.0000 C   0  0
   20.2514  -17.6817    0.0000 C   0  0
   19.7607  -17.0185    0.0000 N   0  0
   18.9782  -17.2803    0.0000 N   0  0
   21.0765  -17.6745    0.0000 C   0  0
   16.7855  -19.5044    0.0000 C   0  0
   16.3045  -20.1656    0.0000 C   0  0
   16.7847  -20.8275    0.0000 C   0  0
   17.5625  -20.5752    0.0000 N   0  0
   17.5631  -19.7576    0.0000 C   0  0
   23.2737  -19.7746    0.0000 C   0  0
   23.9890  -19.3635    0.0000 C   0  0
   24.7027  -19.7780    0.0000 N   0  0
   23.2720  -20.5997    0.0000 O   0  0
   24.6940  -20.5985    0.0000 C   0  0
   25.4760  -20.8620    0.0000 C   0  0  1  0  0  0
   25.9682  -20.1997    0.0000 C   0  0  2  0  0  0
   25.4904  -19.5270    0.0000 C   0  0
   26.7933  -20.2086    0.0000 O   0  0
   25.7224  -21.6494    0.0000 O   0  0
   26.5275  -21.8297    0.0000 C   0  0
   26.7715  -22.6168    0.0000 C   0  0
   27.5758  -22.7972    0.0000 C   0  0
   28.1354  -22.1897    0.0000 C   0  0
   27.8852  -21.3990    0.0000 C   0  0
   27.0814  -21.2223    0.0000 C   0  0
   27.8219  -23.5848    0.0000 F   0  0
 16 19  1  0
 23 24  1  0
  8  9  2  0
  4 24  1  0
 21 22  2  0
  9 10  1  0
  1  2  2  0
 10 11  2  0
 20 21  1  0
 22 23  1  0
 24 20  2  0
  4  5  1  0
 14 25  1  0
 11 12  1  0
 25 26  1  0
 23  1  1  0
 26 27  1  0
 12 13  2  0
 25 28  2  0
 27 29  1  0
 13  8  1  0
  5  6  1  0
 11 14  1  0
 17 18  1  0
 29 30  1  0
 30 31  1  0
 31 32  1  0
 32 27  1  0
  2  3  1  0
 31 33  1  6
 15 16  2  0
 30 34  1  1
  2  7  1  0
 34 35  1  0
 35 36  2  0
  7  8  1  0
 36 37  1  0
  6 15  1  0
 37 38  2  0
 16 17  1  0
 38 39  1  0
 18  6  2  0
 39 40  2  0
 40 35  1  0
  3  4  2  0
 37 41  1  0
M  END