
          11280715452D 1   1.00000     0.00000     0

 28 30  0     0  0            999 V2000
   -2.5750    0.1625    0.0000 C   0  0  0  0  0  0           0  0  0
    2.3167    1.3250    0.0000 C   0  0  0  0  0  0           0  0  0
   -1.1375   -1.5000    0.0000 C   0  0  0  0  0  0           0  0  0
   -0.3833   -1.1542    0.0000 O   0  0  0  0  0  0           0  0  0
   -1.8583   -0.2542    0.0000 C   0  0  0  0  0  0           0  0  0
   -2.5750    0.9833    0.0000 C   0  0  0  0  0  0           0  0  0
    1.8250    2.0000    0.0000 C   0  0  0  0  0  0           0  0  0
   -1.8583   -1.0792    0.0000 C   0  0  0  0  0  0           0  0  0
   -1.0583   -2.3167    0.0000 C   0  0  0  0  0  0           0  0  0
    0.1625   -1.7625    0.0000 C   0  0  0  0  0  0           0  0  0
    1.3167   -0.9250    0.0000 N   0  0  0  0  0  0           0  0  0
   -0.2500   -2.4792    0.0000 C   0  0  0  0  0  0           0  0  0
   -3.2833   -0.2542    0.0000 C   0  0  0  0  0  0           0  0  0
    3.1375    1.4208    0.0000 C   0  0  0  0  0  0           0  0  0
    1.9875    0.5750    0.0000 C   0  0  0  0  0  0           0  0  0
    0.9792   -1.6792    0.0000 C   0  0  0  0  0  0           0  0  0
   -3.2833    1.3875    0.0000 O   0  0  0  0  0  0           0  0  0
    1.0042    1.9000    0.0000 O   0  0  0  0  0  0           0  0  0
   -2.5750   -1.5000    0.0000 C   0  0  0  0  0  0           0  0  0
   -3.2833   -1.0792    0.0000 C   0  0  0  0  0  0           0  0  0
    2.1292   -0.8375    0.0000 N   0  0  0  0  0  0           0  0  0
    3.6250    0.7583    0.0000 C   0  0  0  0  0  0           0  0  0
    2.4792   -0.0792    0.0000 C   0  0  0  0  0  0           0  0  0
    2.1542    2.7458    0.0000 O   0  0  0  0  0  0           0  0  0
   -1.8625    1.4000    0.0000 O   0  0  0  0  0  0           0  0  0
   -4.0000    0.1583    0.0000 Cl  0  0  0  0  0  0           0  0  0
    3.4792    2.1750    0.0000 Cl  0  0  0  0  0  0           0  0  0
    3.2875    0.0000    0.0000 C   0  0  0  0  0  0           0  0  0
  2 15  2  0     0  0
  3  8  1  0     0  0
  4  3  1  0     0  0
  5  1  2  0     0  0
  6  1  1  0     0  0
  7  2  1  0     0  0
  8  5  1  0     0  0
  9  3  2  0     0  0
 10  4  1  0     0  0
 11 16  2  0     0  0
 12  9  1  0     0  0
 13  1  1  0     0  0
 14 22  2  0     0  0
 15 23  1  0     0  0
 16 10  1  0     0  0
 17  6  2  0     0  0
 18  7  2  0     0  0
 19 20  1  0     0  0
 20 13  2  0     0  0
 21 11  1  0     0  0
 22 28  1  0     0  0
 23 21  1  0     0  0
 24  7  1  0     0  0
 25  6  1  0     0  0
 26 13  1  0     0  0
 27 14  1  0     0  0
 28 23  2  0     0  0
  8 19  2  0     0  0
 10 12  2  0     0  0
  2 14  1  0     0  0
M  END