
  SciTegic11201309402D

 83 85  0  0  1  0            999 V2000
   11.1542  -10.9667    0.0000 N   0  0
   11.9417   -9.6417    0.0000 C   0  0
    4.4167  -11.4667    0.0000 C   0  0
    2.9167  -11.4667    0.0000 N   0  0
    2.1667  -11.0417    0.0000 C   0  0
   -0.0833  -11.4667    0.0000 C   0  0
   11.8792  -10.5042    0.0000 C   0  0  1  0  0  0
   10.5667   -7.8167    0.0000 C   0  0
    5.1667  -11.0417    0.0000 N   0  0
    0.6667  -11.0417    0.0000 N   0  0
    3.6667  -11.0417    0.0000 C   0  0  1  0  0  0
   11.2250   -9.1542    0.0000 N   0  0
   10.6250   -6.9500    0.0000 N   0  0
    5.9167  -11.4667    0.0000 C   0  0  1  0  0  0
   10.4125  -11.4125    0.0000 C   0  0
    5.9167  -12.3292    0.0000 C   0  0
    1.4167  -11.4667    0.0000 C   0  0  1  0  0  0
   -0.8250  -11.0417    0.0000 C   0  0  2  0  0  0
    6.1417   -6.6417    0.0000 C   0  0
   13.7292   -5.4292    0.0000 C   0  0
    6.6667  -11.0417    0.0000 C   0  0
   -1.5750  -12.3292    0.0000 C   0  0
   -1.5750  -11.4667    0.0000 N   0  0
    9.9625   -5.6042    0.0000 C   0  0
    6.6667  -12.7667    0.0000 C   0  0
   11.2792   -8.2917    0.0000 C   0  0  1  0  0  0
    9.9042   -6.4667    0.0000 C   0  0  2  0  0  0
   13.7917   -4.5667    0.0000 N   0  0
    5.4167   -6.1667    0.0000 N   0  0
   12.7167   -9.2625    0.0000 O   0  0
    4.4167  -12.3292    0.0000 O   0  0
    2.1667  -10.1750    0.0000 O   0  0
   -0.0833  -12.3292    0.0000 O   0  0
    9.7875   -8.1917    0.0000 O   0  0
   -0.8250  -10.1750    0.0000 C   0  0
    1.4167  -12.3292    0.0000 C   0  0
   10.4292  -12.2792    0.0000 O   0  0
    6.6667  -10.1750    0.0000 O   0  0
   10.7417   -5.2250    0.0000 O   0  0
   -0.8250  -12.7667    0.0000 O   0  0
    6.6667  -13.6292    0.0000 O   0  0
   -2.2958  -12.7500    0.0000 C   0  0
   12.9542   -5.8125    0.0000 N   0  0
    6.9167   -6.2667    0.0000 N   0  0
    7.4167  -11.4667    0.0000 N   0  0
   -2.2958  -13.5750    0.0000 C   0  0
    6.0792   -7.5042    0.0000 N   0  0
   14.4500   -5.9125    0.0000 N   0  0
    9.2417   -5.1250    0.0000 N   0  0
    3.6667  -10.1750    0.0000 C   0  0
    7.4167  -12.3292    0.0000 N   0  0
   -0.0833   -9.7417    0.0000 C   0  0
   11.3667  -11.8042    0.0000 C   0  0
    1.4167   -8.8792    0.0000 C   0  0
    2.1667  -12.7667    0.0000 C   0  0
    0.6667  -10.1750    0.0000 C   0  0
   -0.0833   -8.8792    0.0000 C   0  0
    1.4167   -9.7417    0.0000 C   0  0
    0.6667   -8.4417    0.0000 C   0  0
   12.5500  -11.0625    0.0000 C   0  0
    9.6542  -10.9917    0.0000 C   0  0
    2.1667   -8.4417    0.0000 O   0  0
   12.2292  -11.8625    0.0000 C   0  0
   12.0625   -7.9167    0.0000 C   0  0
    9.1292   -6.8500    0.0000 C   0  0
   -3.0083  -13.9875    0.0000 C   0  0
   -1.5833  -13.9875    0.0000 C   0  0
   -3.0958  -13.3625    0.0000 C   0  0
   12.8917   -6.6750    0.0000 C   0  0
    7.6292   -6.7500    0.0000 C   0  0
    8.1542  -11.0250    0.0000 C   0  0
    2.9167   -9.7417    0.0000 C   0  0
    4.4167   -9.7417    0.0000 C   0  0
    2.1667   -7.5792    0.0000 C   0  0
    2.9167  -12.3292    0.0000 C   0  0
    2.1667  -13.6292    0.0000 C   0  0
    8.9125  -11.4417    0.0000 C   0  0
   12.1167   -7.0542    0.0000 C   0  0
    8.4125   -6.3667    0.0000 C   0  0
    2.9167   -7.1417    0.0000 C   0  0
    2.9167  -14.0667    0.0000 C   0  0
    3.6667  -12.7667    0.0000 C   0  0
    3.6667  -13.6292    0.0000 C   0  0
  7  2  1  1
  3  9  1  0
 11  4  1  1
  5  4  1  0
  6 10  1  0
  7  1  1  0
  8 26  1  0
 14  9  1  6
 17 10  1  6
 11  3  1  0
 12  2  1  0
 13  8  1  0
 14 21  1  0
 15  1  1  0
 14 16  1  0
 17  5  1  0
 18  6  1  0
 19 44  2  0
 20 43  2  0
 21 45  1  0
 22 23  1  0
 18 23  1  6
 24 27  1  0
 25 16  1  0
 26 12  1  6
 27 13  1  1
 28 20  1  0
 29 19  1  0
 30  2  2  0
 31  3  2  0
 32  5  2  0
 33  6  2  0
 34  8  2  0
 18 35  1  0
 17 36  1  0
 37 15  2  0
 38 21  2  0
 39 24  2  0
 40 22  2  0
 41 25  2  0
 42 22  1  0
 43 69  1  0
 44 70  1  0
 45 71  1  0
 46 42  1  0
 47 19  1  0
 48 20  1  0
 49 24  1  0
 11 50  1  0
 51 25  1  0
 52 35  1  0
 53  1  1  0
 54 59  1  0
 55 36  1  0
 56 52  2  0
 57 52  1  0
 58 56  1  0
 59 57  2  0
  7 60  1  0
 61 15  1  0
 62 54  1  0
 63 53  1  0
 26 64  1  0
 27 65  1  0
 66 46  1  0
 67 46  1  0
 68 46  1  0
 69 78  1  0
 70 79  1  0
 71 77  1  0
 72 50  1  0
 73 50  1  0
 74 62  1  0
 75 55  1  0
 76 55  2  0
 77 61  1  0
 78 64  1  0
 79 65  1  0
 80 74  1  0
 81 76  1  0
 82 75  2  0
 83 81  2  0
 63 60  1  0
 82 83  1  0
 54 58  2  0
M  END