
  SciTegic01161211252D

 41 47  0  0  0  0            999 V2000
    9.4093  -25.7380    0.0000 C   0  0
    9.4082  -26.5649    0.0000 C   0  0
   10.1226  -26.9775    0.0000 C   0  0
   10.1208  -25.3255    0.0000 C   0  0
   10.8357  -25.7344    0.0000 C   0  0
   10.8345  -26.5670    0.0000 C   0  0
   11.5510  -26.9819    0.0000 C   0  0
   12.2731  -26.5690    0.0000 C   0  0
   11.5534  -25.3169    0.0000 C   0  0
   12.2743  -25.7401    0.0000 C   0  0
   12.9973  -25.3296    0.0000 C   0  0
   11.5554  -24.4832    0.0000 N   0  0
   12.2847  -24.0710    0.0000 C   0  0
   13.0028  -24.4964    0.0000 N   0  0
   13.6292  -23.9449    0.0000 C   0  0
   13.2982  -23.1787    0.0000 C   0  0
   12.4674  -23.2567    0.0000 S   0  0
   13.7183  -22.4693    0.0000 C   0  0
   13.3143  -21.7506    0.0000 C   0  0
   14.4337  -24.1253    0.0000 O   0  0
   13.7084  -25.7469    0.0000 C   0  0
   13.5893  -20.9700    0.0000 O   0  0
   12.9337  -20.4686    0.0000 C   0  0
   12.2548  -20.9385    0.0000 C   0  0
   12.4933  -21.7288    0.0000 C   0  0
   12.9532  -19.6443    0.0000 C   0  0
   13.6764  -19.2511    0.0000 C   0  0
   13.6962  -18.4277    0.0000 C   0  0
   12.9917  -17.9977    0.0000 C   0  0
   12.2656  -18.3974    0.0000 C   0  0
   12.2493  -19.2196    0.0000 C   0  0
   14.4201  -18.0328    0.0000 C   0  0
   15.1239  -18.4621    0.0000 O   0  0
   14.4400  -17.2085    0.0000 O   0  0
   13.6995  -26.5719    0.0000 C   0  0
   14.4098  -26.9890    0.0000 C   0  0
   15.1276  -26.5818    0.0000 C   0  0
   15.1308  -25.7530    0.0000 C   0  0
   14.4199  -25.3396    0.0000 C   0  0
   15.8394  -26.9980    0.0000 O   0  0
   15.8347  -27.8225    0.0000 C   0  0
 18 19  1  0
  9 10  2  0
 15 20  2  0
  5  4  2  0
 11 21  1  0
 22 23  1  0
  4  1  1  0
  5  6  1  0
  9 12  1  0
 19 22  1  0
 23 24  2  0
 24 25  1  0
 25 19  2  0
 10 11  1  0
 23 26  1  0
 11 14  1  0
 26 27  2  0
 13 12  2  0
 27 28  1  0
 13 14  1  0
 28 29  2  0
  2  3  1  0
 29 30  1  0
  3  6  2  0
 30 31  2  0
 31 26  1  0
  1  2  2  0
 28 32  1  0
  5  9  1  0
 32 33  1  0
  6  7  1  0
 32 34  2  0
 14 15  1  0
 21 35  2  0
 15 16  1  0
 35 36  1  0
 16 17  1  0
 36 37  2  0
 17 13  1  0
 37 38  1  0
  7  8  1  0
 38 39  2  0
 39 21  1  0
 16 18  2  0
 37 40  1  0
  8 10  1  0
 40 41  1  0
M  END