
          11280714442D 1   1.00000     0.00000     0

 27 28  0     0  0            999 V2000
    3.5500   -4.0667    0.0000 C   0  0  0  0  0  0           0  0  0
    9.9042   -2.5500    0.0000 C   0  0  0  0  0  0           0  0  0
    2.8542   -4.5167    0.0000 C   0  0  0  0  0  0           0  0  0
    4.2792   -4.4417    0.0000 O   0  0  0  0  0  0           0  0  0
   10.6417   -2.9292    0.0000 C   0  0  0  0  0  0           0  0  0
    3.5125   -3.2500    0.0000 O   0  0  0  0  0  0           0  0  0
    9.2167   -2.9917    0.0000 C   0  0  0  0  0  0           0  0  0
    2.8917   -5.3375    0.0000 C   0  0  0  0  0  0           0  0  0
    2.1167   -4.1292    0.0000 C   0  0  0  0  0  0           0  0  0
   10.6792   -3.7542    0.0000 C   0  0  0  0  0  0           0  0  0
    4.9750   -4.0042    0.0000 C   0  0  0  0  0  0           0  0  0
    9.2542   -3.8125    0.0000 C   0  0  0  0  0  0           0  0  0
    5.7042   -4.3792    0.0000 C   0  0  3  0  0  0           0  0  0
    9.9875   -4.1917    0.0000 C   0  0  0  0  0  0           0  0  0
    9.8667   -1.7250    0.0000 O   0  0  0  0  0  0           0  0  0
    1.4292   -4.5792    0.0000 C   0  0  0  0  0  0           0  0  0
    2.2042   -5.7792    0.0000 C   0  0  0  0  0  0           0  0  0
    7.1375   -4.3167    0.0000 N   0  0  0  0  0  0           0  0  0
    1.4667   -5.4042    0.0000 C   0  0  0  0  0  0           0  0  0
   11.3375   -2.4792    0.0000 O   0  0  0  0  0  0           0  0  0
    5.7417   -5.2125    0.0000 O   0  0  0  0  0  0           0  0  0
    6.4042   -3.9417    0.0000 C   0  0  0  0  0  0           0  0  0
    7.8292   -3.8792    0.0000 C   0  0  0  0  0  0           0  0  0
    8.5625   -4.2542    0.0000 C   0  0  0  0  0  0           0  0  0
    0.7667   -5.8500    0.0000 C   0  0  0  0  0  0           0  0  0
   10.5542   -1.2792    0.0000 C   0  0  0  0  0  0           0  0  0
   12.0667   -2.8625    0.0000 C   0  0  0  0  0  0           0  0  0
  2  7  2  0     0  0
  3  1  1  0     0  0
  4  1  1  0     0  0
  5 10  2  0     0  0
  6  1  2  0     0  0
  7 12  1  0     0  0
  8  3  1  0     0  0
  9  3  2  0     0  0
 10 14  1  0     0  0
 11  4  1  0     0  0
 12 24  1  0     0  0
 13 11  1  0     0  0
 14 12  2  0     0  0
 15  2  1  0     0  0
 16  9  1  0     0  0
 17  8  2  0     0  0
 18 22  1  0     0  0
 19 16  2  0     0  0
 20  5  1  0     0  0
 21 13  1  0     0  0
 22 13  1  0     0  0
 23 18  1  0     0  0
 24 23  1  0     0  0
 25 19  1  0     0  0
 26 15  1  0     0  0
 27 20  1  0     0  0
 17 19  1  0     0  0
  5  2  1  0     0  0
M  END