
          11280714582D 1   1.00000     0.00000     0

 21 22  0     1  0            999 V2000
    1.2917   -2.1292    0.0000 C   0  0  0  0  0  0           0  0  0
    1.2917   -1.5292    0.0000 C   0  0  0  0  0  0           0  0  0
    3.3917   -1.4667    0.0000 N   0  0  3  0  0  0           0  0  0
    1.8125   -1.2292    0.0000 N   0  0  0  0  0  0           0  0  0
    1.8167   -2.4292    0.0000 C   0  0  0  0  0  0           0  0  0
    0.7792   -2.4375    0.0000 C   0  0  0  0  0  0           0  0  0
    2.8500   -1.2292    0.0000 C   0  0  2  0  0  0           0  0  0
    0.7667   -1.2375    0.0000 O   0  0  0  0  0  0           0  0  0
    2.3292   -1.5292    0.0000 C   0  0  0  0  0  0           0  0  0
    1.8167   -3.0375    0.0000 C   0  0  0  0  0  0           0  0  0
    0.7792   -3.0375    0.0000 C   0  0  0  0  0  0           0  0  0
    1.2917   -3.3375    0.0000 C   0  0  0  0  0  0           0  0  0
    0.2542   -3.3375    0.0000 I   0  0  0  0  0  0           0  0  0
    3.7917   -1.0250    0.0000 C   0  0  0  0  0  0           0  0  0
    2.3292   -2.1292    0.0000 O   0  0  0  0  0  0           0  0  0
    3.5250   -2.0542    0.0000 C   0  0  0  0  0  0           0  0  0
    3.4917   -0.5042    0.0000 C   0  0  0  0  0  0           0  0  0
    2.9042   -0.6292    0.0000 C   0  0  0  0  0  0           0  0  0
    2.8542   -2.4250    0.0000 C   0  0  0  0  0  0           0  0  0
    4.0917   -2.2417    0.0000 C   0  0  0  0  0  0           0  0  0
    2.4250   -0.8042    0.0000 H   0  0  0  0  0  0           0  0  0
  2  1  1  0     0  0
  3  7  1  0     0  0
  4  2  1  0     0  0
  5  1  2  0     0  0
  6  1  1  0     0  0
  9  7  1  0     0  0
  8  2  2  0     0  0
  9  4  1  0     0  0
 10  5  1  0     0  0
 11  6  2  0     0  0
 12 11  1  0     0  0
 13 11  1  0     0  0
 14  3  1  0     0  0
 15  5  1  0     0  0
 16  3  1  0     0  0
 17 18  1  0     0  0
 18  7  1  0     0  0
 19 15  1  0     0  0
 20 16  1  0     0  0
  7 21  1  1     0  0
 10 12  2  0     0  0
 17 14  1  0     0  0
M  END