
  SciTegic06141115222D

 40 44  0  0  0  0            999 V2000
    8.7664  -10.4238    0.0000 C   0  0
    9.4390  -10.9051    0.0000 N   0  0
    9.1861  -11.6970    0.0000 N   0  0
    8.0982  -10.9150    0.0000 C   0  0
    8.3554  -11.7036    0.0000 C   0  0
    8.7598   -9.5931    0.0000 N   0  0
    8.0378   -9.1896    0.0000 C   0  0
    4.4146   -2.9857    0.0000 S   0  3
    7.3145   -7.9449    0.0000 C   0  0
    8.0312   -8.3589    0.0000 N   0  0
    7.3093   -7.1181    0.0000 C   0  0
    6.5912   -6.7001    0.0000 C   0  0
   10.2183  -10.6465    0.0000 C   0  0
    4.4224   -4.6445    0.0000 N   0  0
    7.8741  -12.3761    0.0000 C   0  0
    5.1393   -3.3972    0.0000 C   0  0
    3.6925   -3.4064    0.0000 C   0  0
    5.8770   -7.1181    0.0000 C   0  0
    4.4160   -2.1524    0.0000 O   0  5
    7.3276   -9.6063    0.0000 O   0  0
    6.6043   -8.3616    0.0000 C   0  0
    5.8849   -7.9529    0.0000 C   0  0
   10.3905   -9.8368    0.0000 C   0  0
   10.8427  -11.1963    0.0000 C   0  0
    3.6991   -4.2371    0.0000 C   0  0
    5.1366   -4.2265    0.0000 C   0  0
    5.1537   -6.7107    0.0000 O   0  0
   11.1725   -9.5729    0.0000 C   0  0
   11.6314  -10.9391    0.0000 C   0  0
   11.7956  -10.1320    0.0000 C   0  0
    4.4290   -5.4752    0.0000 C   0  0
    5.1471   -5.8800    0.0000 C   0  0
    8.0314   -6.6975    0.0000 C   0  0
    6.5806   -5.8707    0.0000 C   0  0
    8.2150  -13.1375    0.0000 C   0  0
    7.4957  -13.1209    0.0000 C   0  0
    7.0518  -12.3006    0.0000 C   0  0
   12.5803   -9.8628    0.0000 C   0  0
    8.0248   -5.8668    0.0000 C   0  0
    7.3028   -5.4501    0.0000 C   0  0
  2  1  1  0
  3  2  1  0
  4  1  2  0
  5  4  1  0
  6  1  1  0
  7  6  1  0
  8 16  1  0
  9 10  1  0
 10  7  1  0
 11  9  2  0
 12 11  1  0
 13  2  1  0
 14 31  1  0
 15  5  1  0
 16 26  1  0
 17 25  1  0
 18 22  1  0
 19  8  1  0
 20  7  2  0
 21  9  1  0
 22 21  2  0
 23 13  1  0
 24 13  2  0
 25 14  1  0
 26 14  1  0
 27 18  1  0
 28 23  2  0
 29 24  1  0
 30 29  2  0
 31 32  1  0
 32 27  1  0
 33 11  1  0
 34 12  1  0
 35 15  1  0
 36 15  1  0
 37 15  1  0
 38 30  1  0
 39 33  2  0
 40 39  1  0
  3  5  2  0
 30 28  1  0
 18 12  2  0
 34 40  2  0
  8 17  1  0
M  CHG  2   8   1  19  -1
M  END