
  SciTegic10301317112D

 66 68  0  0  1  0            999 V2000
    1.3251  -10.1177    0.0000 N   0  0
    2.0818   -9.7891    0.0000 C   0  0
    4.1645  -10.4426    0.0000 C   0  0
    8.4235  -10.9299    0.0000 C   0  0
    0.5358   -8.8774    0.0000 C   0  0
    5.5841  -10.6050    0.0000 N   0  0
    9.8432  -11.0924    0.0000 N   0  0
    2.7448  -10.2801    0.0000 C   0  0  1  0  0  0
    6.3409  -10.2764    0.0000 C   0  0
    0.6145   -9.6986    0.0000 C   0  0  2  0  0  0
   10.5999  -10.7638    0.0000 C   0  0
    3.5015   -9.9515    0.0000 N   0  0
    7.7606  -10.4389    0.0000 N   0  0
   11.8320  -12.5655    0.0000 C   0  0
    9.1802  -10.6013    0.0000 C   0  0  1  0  0  0
    4.9212  -10.1140    0.0000 C   0  0  1  0  0  0
   11.1691  -12.0745    0.0000 N   0  0
    7.0038  -10.7675    0.0000 C   0  0  1  0  0  0
   -0.2148   -8.5349    0.0000 O   0  0
    1.6127  -12.7848    0.0000 N   0  0
   14.8589  -11.2511    0.0000 C   0  0
    2.9089  -11.0886    0.0000 C   0  0
   -1.6372   -8.6712    0.0000 C   0  0
    2.2907  -11.6350    0.0000 C   0  0
    1.4854  -11.4561    0.0000 N   0  0
   11.2629  -11.2548    0.0000 C   0  0  1  0  0  0
    1.0663  -12.1667    0.0000 C   0  0
   -0.8866   -9.0137    0.0000 C   0  0  2  0  0  0
   15.5219  -11.7421    0.0000 N   0  0
    2.3694  -12.4562    0.0000 C   0  0
    2.1756   -8.9694    0.0000 O   0  0
    4.0707  -11.2622    0.0000 O   0  0
    8.3297  -11.7496    0.0000 O   0  0
    1.2077   -8.3986    0.0000 O   0  0
    6.4347   -9.4568    0.0000 O   0  0
   10.6937   -9.9441    0.0000 O   0  0
   12.5887  -12.2369    0.0000 O   0  0
    6.9100  -11.5871    0.0000 C   0  0
   -2.3091   -9.1499    0.0000 O   0  0
   11.7382  -13.3852    0.0000 C   0  0  1  0  0  0
   14.1022  -11.5797    0.0000 N   0  0
   14.9527  -10.4314    0.0000 N   0  0
    1.1462  -10.9230    0.0000 C   0  0
    9.2740   -9.7817    0.0000 C   0  0
    5.0150   -9.2943    0.0000 C   0  0  2  0  0  0
    6.1533  -11.9157    0.0000 C   0  0
   -1.7159   -7.8499    0.0000 O   0  0
    4.6398  -12.5729    0.0000 C   0  0
    5.4904  -11.4247    0.0000 C   0  0
    6.0595  -12.7354    0.0000 C   0  0
    5.3028  -13.0640    0.0000 C   0  0
    4.7336  -11.7533    0.0000 C   0  0
   -0.0037  -10.2450    0.0000 C   0  0
   10.9815  -13.7138    0.0000 O   0  0
    3.8831  -12.9015    0.0000 O   0  0
    0.3249  -11.0017    0.0000 C   0  0
   12.0196  -10.9262    0.0000 C   0  0
   -0.8080   -9.8349    0.0000 C   0  0
   13.4393  -11.0886    0.0000 C   0  0
    4.3520   -8.8033    0.0000 C   0  0
   12.4012  -13.8762    0.0000 C   0  0
    8.6111   -9.2906    0.0000 C   0  0
   10.0308   -9.4531    0.0000 C   0  0
    5.7717   -8.9657    0.0000 C   0  0
   12.6825  -11.4172    0.0000 C   0  0
    4.4458   -7.9836    0.0000 C   0  0
  2  1  1  0
  3 12  1  0
  4 13  1  0
 10  5  1  1
 16  6  1  6
  7 15  1  0
  8  2  1  0
  9  6  1  0
 10  1  1  0
 11  7  1  0
 12  8  1  0
 18 13  1  1
 14 17  1  0
 15  4  1  0
 16  3  1  0
 17 26  1  0
 18  9  1  0
 19  5  1  0
 20 30  1  0
 21 41  2  0
  8 22  1  1
 28 23  1  0
 24 22  1  0
 25 24  1  0
 26 11  1  0
 27 25  2  0
 28 19  1  0
 29 21  1  0
 30 24  2  0
 31  2  2  0
 32  3  2  0
 33  4  2  0
 34  5  2  0
 35  9  2  0
 36 11  2  0
 37 14  2  0
 18 38  1  0
 39 23  2  0
 40 14  1  0
 41 59  1  0
 42 21  1  0
 43  1  1  0
 15 44  1  6
 16 45  1  0
 46 38  1  0
 47 23  1  0
 48 51  2  0
 49 46  1  0
 50 46  2  0
 51 50  1  0
 52 49  2  0
 53 10  1  0
 40 54  1  6
 55 48  1  0
 56 43  1  0
 26 57  1  6
 28 58  1  1
 59 65  1  0
 45 60  1  0
 40 61  1  0
 62 44  1  0
 63 44  1  0
 45 64  1  6
 65 57  1  0
 66 60  1  0
 53 56  1  0
 20 27  1  0
 48 52  1  0
M  END