
          11280714512D 1   1.00000     0.00000     0

 37 39  0     1  0            999 V2000
    8.1917   -1.7792    0.0000 C   0  0  0  0  0  0           0  0  0
   12.4292   -3.5750    0.0000 C   0  0  0  0  0  0           0  0  0
   10.3250   -2.2625    0.0000 C   0  0  0  0  0  0           0  0  0
    8.8917   -2.2167    0.0000 N   0  0  0  0  0  0           0  0  0
    7.4667   -2.1750    0.0000 N   0  0  3  0  0  0           0  0  0
   13.7292   -3.8917    0.0000 N   0  0  0  0  0  0           0  0  0
   11.0542   -1.8750    0.0000 N   0  0  0  0  0  0           0  0  0
   13.1917   -3.2625    0.0000 C   0  0  0  0  0  0           0  0  0
    9.6167   -1.8250    0.0000 C   0  0  1  0  0  0           0  0  0
   11.7542   -2.3125    0.0000 C   0  0  1  0  0  0           0  0  0
   12.4875   -1.9250    0.0000 C   0  0  0  0  0  0           0  0  0
   12.4917   -4.4000    0.0000 C   0  0  0  0  0  0           0  0  0
   11.7292   -3.1375    0.0000 C   0  0  0  0  0  0           0  0  0
   13.2917   -4.6000    0.0000 C   0  0  0  0  0  0           0  0  0
   15.3417   -2.0250    0.0000 C   0  0  0  0  0  0           0  0  0
    8.2167   -0.9625    0.0000 O   0  0  0  0  0  0           0  0  0
   10.3000   -3.0875    0.0000 O   0  0  0  0  0  0           0  0  0
   14.6125   -2.4125    0.0000 C   0  0  0  0  0  0           0  0  0
   12.5125   -1.1000    0.0000 O   0  0  0  0  0  0           0  0  0
    9.6500   -1.0000    0.0000 C   0  0  0  0  0  0           0  0  0
   15.3750   -1.2000    0.0000 O   0  0  0  0  0  0           0  0  0
   13.1792   -2.3542    0.0000 N   0  0  0  0  0  0           0  0  0
   13.9167   -1.9667    0.0000 C   0  0  0  0  0  0           0  0  0
   16.0417   -2.4625    0.0000 O   0  0  0  0  0  0           0  0  0
    6.7875   -1.6375    0.0000 C   0  0  0  0  0  0           0  0  0
    7.5250   -2.9125    0.0000 C   0  0  0  0  0  0           0  0  0
   11.9167   -4.9917    0.0000 C   0  0  0  0  0  0           0  0  0
   10.3792   -0.6125    0.0000 C   0  0  3  0  0  0           0  0  0
   13.5250   -5.3875    0.0000 C   0  0  0  0  0  0           0  0  0
   11.0792   -1.0500    0.0000 C   0  0  0  0  0  0           0  0  0
   10.4042    0.2125    0.0000 C   0  0  0  0  0  0           0  0  0
    6.8875   -3.4625    0.0000 C   0  0  0  0  0  0           0  0  0
    6.0750   -1.7167    0.0000 C   0  0  0  0  0  0           0  0  0
   12.1417   -5.7875    0.0000 C   0  0  0  0  0  0           0  0  0
   12.9542   -5.9875    0.0000 C   0  0  0  0  0  0           0  0  0
    5.6625   -2.4500    0.0000 C   0  0  0  0  0  0           0  0  0
    6.0167   -3.2500    0.0000 C   0  0  0  0  0  0           0  0  0
  2 13  1  0     0  0
  3  9  1  0     0  0
  4  1  1  0     0  0
  5  1  1  0     0  0
  6  8  1  0     0  0
  7  3  1  0     0  0
  8  2  2  0     0  0
  9  4  1  0     0  0
 10  7  1  0     0  0
 11 10  1  0     0  0
 12  2  1  0     0  0
 10 13  1  1     0  0
 14 12  2  0     0  0
 15 18  1  0     0  0
 16  1  2  0     0  0
 17  3  2  0     0  0
 18 23  1  0     0  0
 19 11  2  0     0  0
  9 20  1  1     0  0
 21 15  2  0     0  0
 22 11  1  0     0  0
 23 22  1  0     0  0
 24 15  1  0     0  0
 25  5  1  0     0  0
 26  5  1  0     0  0
 27 12  1  0     0  0
 28 20  1  0     0  0
 29 14  1  0     0  0
 30 28  1  0     0  0
 31 28  1  0     0  0
 32 26  1  0     0  0
 33 25  1  0     0  0
 34 27  2  0     0  0
 35 34  1  0     0  0
 36 33  1  0     0  0
 37 32  1  0     0  0
 37 36  1  0     0  0
  6 14  1  0     0  0
 35 29  2  0     0  0
M  END