
  SciTegic12231509382D

 24 25  0  0  0  0            999 V2000
    2.6747   -6.1134    0.0000 N   0  0
    3.8912   -5.2578    0.0000 C   0  0  1  0  0  0
    5.1017   -6.1218    0.0000 C   0  0
    4.6332   -7.5468    0.0000 C   0  0
    3.1332   -7.5416    0.0000 C   0  0
    3.8933   -3.7570    0.0000 C   0  0
    2.5951   -3.0039    0.0000 N   0  0
    4.9336   -3.1588    0.0000 O   0  0
    2.5973   -1.5031    0.0000 C   0  0
    1.2990   -0.7500    0.0000 C   0  0
    1.2990    0.7500    0.0000 C   0  0
    0.0000    1.5000    0.0000 C   0  0
   -1.2990    0.7500    0.0000 C   0  0
   -1.2990   -0.7500    0.0000 C   0  0
    0.0000   -1.5000    0.0000 C   0  0
    1.2541   -5.6376    0.0000 C   0  0
    0.1290   -6.6309    0.0000 C   0  0  2  0  0  0
    1.0156   -4.4615    0.0000 O   0  0
    0.3674   -7.8070    0.0000 N   0  0
   -1.2941   -6.1541    0.0000 C   0  0
   -2.1936   -6.9484    0.0000 C   0  0
   -2.6003    1.4977    0.0000 C   0  0
   -3.6387    0.8962    0.0000 N   0  0
   -2.6024    2.6977    0.0000 N   0  0
  1  2  1  0
  2  3  1  0
  3  4  1  0
  4  5  1  0
  5  1  1  0
  2  6  1  6
  6  7  1  0
  6  8  2  0
  7  9  1  0
  9 10  1  0
 10 11  2  0
 11 12  1  0
 12 13  2  0
 13 14  1  0
 14 15  2  0
 15 10  1  0
  1 16  1  0
 16 17  1  0
 16 18  2  0
 17 19  1  0
 17 20  1  6
 20 21  1  0
 13 22  1  0
 22 23  2  0
 22 24  1  0
M  END