
  SciTegic10311316212D

 26 29  0  0  0  0            999 V2000
   18.9384  -26.2326    0.0000 C   0  0
   18.9373  -27.0522    0.0000 C   0  0
   19.6453  -27.4611    0.0000 C   0  0
   19.6435  -25.8238    0.0000 C   0  0
   20.3522  -26.2290    0.0000 C   0  0
   20.3524  -27.0477    0.0000 C   0  0
   21.1311  -27.3004    0.0000 S   0  0
   21.6121  -26.6379    0.0000 C   0  0
   21.1307  -25.9759    0.0000 C   0  0
   18.2338  -27.4593    0.0000 N   0  0
   17.4875  -27.1264    0.0000 C   0  0
   16.9402  -27.7332    0.0000 N   0  0
   17.3483  -28.4413    0.0000 N   0  0
   18.1477  -28.2719    0.0000 C   0  0
   18.7534  -28.8159    0.0000 C   0  0
   18.5813  -29.6160    0.0000 C   0  0
   19.1874  -30.1630    0.0000 C   0  0
   19.9658  -29.9112    0.0000 C   0  0
   20.1346  -29.1073    0.0000 C   0  0
   19.5271  -28.5638    0.0000 C   0  0
   17.3182  -26.3269    0.0000 S   0  0
   22.4272  -26.6355    0.0000 C   0  0
   22.8361  -27.3431    0.0000 O   0  0
   22.8356  -25.9277    0.0000 O   0  0
   21.3829  -25.1986    0.0000 Cl  0  0
   20.5734  -30.4576    0.0000 F   0  0
  1  2  2  0
  2  3  1  0
  3  6  2  0
  5  4  2  0
  4  1  1  0
  5  6  1  0
  6  7  1  0
  7  8  1  0
  8  9  2  0
  9  5  1  0
 10 11  1  0
 11 12  2  0
 12 13  1  0
 13 14  2  0
 14 10  1  0
  2 10  1  0
 15 16  2  0
 16 17  1  0
 17 18  2  0
 18 19  1  0
 19 20  2  0
 20 15  1  0
 14 15  1  0
 11 21  1  0
 22 23  1  0
 22 24  2  0
  8 22  1  0
  9 25  1  0
 18 26  1  0
M  END