
  SciTegic01161211252D

145151  0  0  0  0            999 V2000
    1.6503   -6.7461    0.0000 C   0  0  1  0  0  0
    1.6526   -7.5808    0.0000 C   0  0
    2.3649   -8.0070    0.0000 N   0  0
    3.1000   -7.5903    0.0000 C   0  0
    4.5497   -7.6104    0.0000 N   0  0
    3.8212   -8.0161    0.0000 C   0  0
    3.1170   -4.3329    0.0000 C   0  0
    5.9876   -7.6092    0.0000 C   0  0
    5.2542   -8.0319    0.0000 C   0  0  2  0  0  0
    0.9572   -6.3644    0.0000 N   0  0
    6.7017   -8.0179    0.0000 N   0  0
    7.4150   -7.6076    0.0000 C   0  0  2  0  0  0
    8.1291   -8.0164    0.0000 C   0  0
    8.8381   -7.6102    0.0000 N   0  0
    9.5564   -8.0190    0.0000 C   0  0
   10.2697   -7.6087    0.0000 C   0  0
   10.2688   -6.7856    0.0000 N   0  0
   10.9778   -6.3712    0.0000 C   0  0
   10.2661   -4.3121    0.0000 C   0  0
    9.5519   -3.8992    0.0000 N   0  0
    8.8387   -4.3136    0.0000 C   0  0  2  0  0  0
    8.1246   -3.9007    0.0000 C   0  0
    7.4114   -4.3152    0.0000 C   0  0
    5.2698   -3.9039    0.0000 C   0  0
    4.5608   -4.3183    0.0000 N   0  0
    3.8467   -3.9012    0.0000 C   0  0  2  0  0  0
   10.9793   -3.8976    0.0000 C   0  0  1  0  0  0
   11.6943   -5.1336    0.0000 N   0  0
   10.9768   -5.5439    0.0000 C   0  0
    3.8411   -3.0824    0.0000 C   0  0
    4.5562   -2.6681    0.0000 O   0  0
    5.2689   -3.0850    0.0000 O   0  0
    6.7027   -3.9018    0.0000 N   0  0
    5.9867   -4.3118    0.0000 C   0  0  1  0  0  0
    6.1568   -5.1159    0.0000 C   0  0
    6.9713   -5.2063    0.0000 C   0  0
    7.3085   -4.4613    0.0000 C   0  0
    7.8188   -5.0280    0.0000 O   0  0
    8.1237   -3.0819    0.0000 O   0  0
   10.2670   -5.1352    0.0000 O   0  0
   11.1901   -3.1087    0.0000 C   0  0
   11.9868   -2.8920    0.0000 C   0  0
   12.2018   -2.0947    0.0000 C   0  0
   12.5688   -3.4727    0.0000 C   0  0
   10.1525   -5.5372    0.0000 O   0  0
   10.9796   -8.0174    0.0000 O   0  0
    8.1300   -8.8437    0.0000 O   0  0
    8.8287   -3.4901    0.0000 C   0  0
    9.5414   -3.0719    0.0000 C   0  0
   10.2529   -3.4817    0.0000 C   0  0
   10.9649   -3.0605    0.0000 C   0  0
   10.9597   -2.2361    0.0000 C   0  0
   10.2376   -1.8314    0.0000 C   0  0
    9.5300   -2.2479    0.0000 C   0  0
    7.4073   -8.4328    0.0000 C   0  0
    5.9867   -6.7862    0.0000 O   0  0
    6.9958   -9.1394    0.0000 C   0  0
    6.1704   -9.1323    0.0000 C   0  0
    5.7506   -9.8459    0.0000 C   0  0
    6.1627  -10.5650    0.0000 C   0  0
    6.9930  -10.5680    0.0000 C   0  0
    7.4028   -9.8536    0.0000 C   0  0
    5.2479   -8.8549    0.0000 C   0  0
    4.5331   -9.2635    0.0000 C   0  0
    3.7810   -8.9261    0.0000 N   0  0
    3.2269   -9.5328    0.0000 C   0  0
    4.4376  -10.0850    0.0000 C   0  0
    3.2324   -8.5983    0.0000 O   0  0
    0.9372   -7.9840    0.0000 O   0  0
    2.3599   -6.3224    0.0000 C   0  0  2  0  0  0
    3.0775   -6.7259    0.0000 O   0  0
    2.3518   -5.4994    0.0000 C   0  0
    0.2530   -6.7996    0.0000 C   0  0
   -0.4694   -6.4079    0.0000 C   0  0  2  0  0  0
    0.2753   -7.6222    0.0000 O   0  0
   -0.4759   -5.5839    0.0000 C   0  0
   -1.1756   -6.8328    0.0000 N   0  0
   -1.1612   -7.6558    0.0000 C   0  0
   -1.8633   -8.0807    0.0000 C   0  0  2  0  0  0
   -0.4364   -8.0538    0.0000 O   0  0
   -2.5840   -7.6784    0.0000 C   0  0
   -2.6027   -6.8556    0.0000 C   0  0
   -1.8948   -6.4359    0.0000 C   0  0
   -1.9128   -5.6141    0.0000 C   0  0
   -2.6302   -5.2107    0.0000 C   0  0
   -3.3400   -5.6424    0.0000 C   0  0
   -3.3208   -6.4661    0.0000 C   0  0
   -2.5620   -9.3290    0.0000 C   0  0
   -2.5477  -10.1561    0.0000 C   0  0  2  0  0  0
   -3.2869   -8.9352    0.0000 O   0  0
   -1.8269  -10.5541    0.0000 C   0  0
   -1.8125  -11.3771    0.0000 C   0  0
   -1.0918  -11.7750    0.0000 C   0  0
   -0.3586  -12.9988    0.0000 C   0  0
    0.3478  -12.5780    0.0000 N   0  0
   -3.2335  -11.4047    0.0000 C   0  0
   -3.9440  -11.8296    0.0000 C   0  0  2  0  0  0
   -2.5171  -11.8027    0.0000 O   0  0
    4.5604   -3.4919    0.0000 H   0  0
    5.9867   -3.4888    0.0000 H   0  0
    0.9409   -7.1555    0.0000 H   0  0
   -0.4694   -7.2311    0.0000 H   0  0
    2.3852   -3.9201    0.0000 C   0  0
    1.6590   -4.3429    0.0000 C   0  0
    0.9313   -3.9301    0.0000 C   0  0
    0.2456   -5.1560    0.0000 C   0  0
    0.2390   -4.3162    0.0000 N   0  0
    0.9779   -5.5722    0.0000 O   0  0
    9.5510   -6.3742    0.0000 C   0  0
   12.4930   -5.3491    0.0000 C   0  0
    3.1234   -1.8468    0.0000 C   0  0  2  0  0  0
    2.4060   -1.4351    0.0000 C   0  0
    3.8388   -1.4314    0.0000 C   0  0
    3.8367   -0.6041    0.0000 C   0  0
    4.5521   -0.1886    0.0000 O   0  0
    2.4039   -0.6078    0.0000 N   0  0
    1.6905   -1.8505    0.0000 O   0  0
    3.1192   -0.1923    0.0000 N   0  0
    1.6862   -0.1960    0.0000 C   0  0
    1.6841    0.6313    0.0000 C   0  0
    0.9667    1.0430    0.0000 N   0  0
    2.3996    1.0468    0.0000 O   0  0
    0.8795    1.8641    0.0000 C   0  0
    0.0699    2.0341    0.0000 C   0  0
   -0.3420    1.3165    0.0000 C   0  0
    0.2133    0.7032    0.0000 C   0  0  1  0  0  0
    0.0443   -0.1066    0.0000 C   0  0
   -0.7414   -0.3653    0.0000 N   0  0
    0.6612   -0.6578    0.0000 O   0  0
   -4.6667  -11.4269    0.0000 C   0  0
   -3.9312  -12.6567    0.0000 N   0  0
   -4.6413  -13.0814    0.0000 C   0  0
   -4.6286  -13.9085    0.0000 C   0  0
   -5.3640  -12.6788    0.0000 O   0  0
   -4.6795  -10.5998    0.0000 C   0  0
   -5.4021  -10.1972    0.0000 C   0  0
   -5.4149   -9.3700    0.0000 O   0  0
   -6.1167  -10.6218    0.0000 N   0  0
   11.6685   -1.8208    0.0000 O   0  0
    3.6299  -10.2527    0.0000 N   0  0
    3.1256   -2.6718    0.0000 N   0  0
   -1.8541   -8.9055    0.0000 N   0  0
   -3.2553  -10.5801    0.0000 N   0  0
   -1.0806  -12.5999    0.0000 N   0  0
   -0.3441  -13.8217    0.0000 N   0  0
 42 43  1  0
 42 44  1  0
 29 45  2  0
 16 46  2  0
 13 47  2  0
 21 48  1  1
 48 49  1  0
 49 50  2  0
 50 51  1  0
 51 52  2  0
 52 53  1  0
 53 54  2  0
 54 49  1  0
 12 55  1  1
  8 56  2  0
 55 57  1  0
 57 58  2  0
 58 59  1  0
 59 60  2  0
 60 61  1  0
 61 62  2  0
 62 57  1  0
  9 63  1  6
 63 64  1  0
 64 65  1  0
 65 66  2  0
 67 64  2  0
  6 68  2  0
  2 69  2  0
  1 70  1  0
 70 71  1  1
 70 72  1  0
 10 73  1  0
 73 74  1  0
 73 75  2  0
 74 76  1  0
 74 77  1  0
 77 78  1  0
 78 79  1  0
 78 80  2  0
 79 81  1  1
 81 82  1  0
 82 83  2  0
 83 84  1  0
 84 85  2  0
 85 86  1  0
 86 87  2  0
 87 82  1  0
 88 89  1  0
 88 90  2  0
 89 91  1  6
 91 92  1  0
 92 93  1  0
 94 95  2  0
 96 97  1  0
 96 98  2  0
 26 99  1  6
 34100  1  6
  1101  1  6
 74102  1  6
  7103  1  0
  1  2  1  0
103104  1  0
  2  3  1  0
104105  1  0
105107  1  0
  3  4  1  0
 76106  1  0
  5  6  1  0
106107  1  0
  6  4  1  0
106108  2  0
  7 26  1  0
 17109  1  0
  5  9  1  0
 28110  1  0
  9  8  1  0
 10  1  1  0
111112  1  0
  8 11  1  0
111113  1  6
 11 12  1  0
113114  1  0
 12 13  1  0
114115  2  0
114118  1  0
 13 14  1  0
112116  1  0
 14 15  1  0
112117  2  0
 15 16  1  0
 16 17  1  0
116119  1  0
 17 18  1  0
119120  1  0
 18 29  1  0
120121  1  0
 19 20  1  0
120122  2  0
121123  1  0
 20 21  1  0
 21 22  1  0
 22 23  1  0
 23 33  1  0
123124  1  0
124125  1  0
125126  1  0
126121  1  0
 34 24  1  0
126127  1  6
 24 25  1  0
127128  1  0
 25 26  1  0
127129  2  0
 19 27  1  0
 97130  1  0
 28 29  1  0
 97131  1  1
 27 28  1  0
131132  1  0
 26 30  1  0
132133  1  0
 30 31  2  0
132134  2  0
 24 32  2  0
130135  1  0
 33 34  1  0
135136  1  0
 34 35  1  0
136137  2  0
 35 36  1  0
136138  1  0
 36 37  1  0
 37 33  1  0
 23 38  2  0
 22 39  2  0
 19 40  2  0
 27 41  1  6
 41 42  1  0
 79142  1  0
142 88  1  0
 66140  1  0
140 67  1  0
 89143  1  0
143 96  1  0
 52139  1  0
 93144  1  0
144 94  1  0
 30141  1  0
141111  1  0
 94145  1  0
M  END