
  SciTegic01111613442D

 33 35  0  0  0  0            999 V2000
   -2.6111    0.7486    0.0000 N   0  0
   -1.2964   -1.4973    0.0000 N   0  0
    0.0000    0.7486    0.0000 C   0  0
    0.0000   -0.7486    0.0000 C   0  0
   -1.2964    1.4973    0.0000 C   0  0
   -2.6111   -0.7486    0.0000 C   0  0
    1.2964    1.4973    0.0000 N   0  0
   10.3937    3.7396    0.0000 C   0  0
    1.2964   -1.4973    0.0000 N   0  0
   11.6923    2.9873    0.0000 N   0  0
    2.5929    0.7486    0.0000 C   0  0
   12.9994    5.2358    0.0000 C   0  0
    5.1929    0.7441    0.0000 N   0  0
   12.9936    3.7350    0.0000 C   0  0  2  0  0  0
   16.8923    2.9781    0.0000 C   0  0
    9.0923    2.9919    0.0000 C   0  0
    3.8942    1.4964    0.0000 C   0  0
    6.4942    1.4919    0.0000 C   0  0
   10.3958    4.9396    0.0000 O   0  0
   16.8902    1.7781    0.0000 O   0  0
   14.0405    5.8325    0.0000 O   0  0
    2.5929   -0.7486    0.0000 C   0  0
   17.9328    3.5759    0.0000 O   0  0
   -1.2928    2.6973    0.0000 N   0  0
    9.0923    1.4919    0.0000 C   0  0
    7.7933    3.7419    0.0000 C   0  0
    7.7932    0.7419    0.0000 C   0  0
    6.4943    2.9919    0.0000 C   0  0
   -3.6486   -1.3517    0.0000 N   0  0
   14.2923    2.9827    0.0000 C   0  0
   15.5936    3.7304    0.0000 C   0  0
   11.9623    5.8394    0.0000 O   0  0
    5.1908   -0.4559    0.0000 C   0  0
  2  6  1  0
  3  5  2  0
  4  2  2  0
  5  1  1  0
  6  1  2  0
  7  3  1  0
  8 16  1  0
  9  4  1  0
 10  8  1  0
 11  7  2  0
 14 12  1  6
 13 17  1  0
 14 10  1  0
 15 31  1  0
 16 26  1  0
 17 11  1  0
 18 13  1  0
 19  8  2  0
 20 15  1  0
 21 12  2  0
 22  9  2  0
 23 15  2  0
 24  5  1  0
 25 27  1  0
 26 28  2  0
 27 18  2  0
 28 18  1  0
 29  6  1  0
 30 14  1  0
 31 30  1  0
 32 12  1  0
 33 13  1  0
  4  3  1  0
 22 11  1  0
 16 25  2  0
M  END