
  SciTegic11241610372D

 26 29  0  0  0  0            999 V2000
   -0.2437   -6.2419    0.0000 O   0  0
    0.9466   -6.3940    0.0000 S   0  0
    1.4097   -7.5011    0.0000 O   0  0
   -2.3155    0.7475    0.0000 C   0  0
   -1.0028    1.5132    0.0000 N   0  0
    0.2917    0.7475    0.0000 C   0  0
    0.2917   -0.7475    0.0000 C   0  0
   -1.0028   -1.5132    0.0000 C   0  0
   -2.3155   -0.7475    0.0000 N   0  0
    1.7138   -1.2033    0.0000 C   0  0
    2.5889    0.0182    0.0000 C   0  0
    1.7138    1.2033    0.0000 S   0  0
    2.1852   -2.6281    0.0000 C   0  0
    1.2781   -3.8165    0.0000 C   0  0
    1.8565   -5.2005    0.0000 C   0  0
    3.3443   -5.3916    0.0000 C   0  0
    4.2537   -4.1987    0.0000 C   0  0
    3.6753   -2.8147    0.0000 C   0  0
   -0.9971   -3.0138    0.0000 S   0  0
   -4.6475   -4.2692    0.0000 N   0  0
   -3.6464   -3.1521    0.0000 N   0  0
   -2.2935   -3.7700    0.0000 C   0  0
   -2.4279   -5.2511    0.0000 N   0  0
   -3.8944   -5.5664    0.0000 C   0  0
   -1.5295   -6.0466    0.0000 C   0  0
    0.2196   -7.3487    0.0000 C   0  0
  2  1  2  0
  3  2  2  0
  4  5  1  0
  5  6  2  0
  6  7  1  0
  7  8  2  0
  8  9  1  0
  4  9  2  0
 10 11  2  0
 11 12  1  0
  6 12  1  0
  7 10  1  0
 13 14  1  0
 14 15  2  0
 15 16  1  0
 16 17  2  0
 17 18  1  0
 13 18  2  0
 15  2  1  0
 10 13  1  0
 20 21  1  0
 21 22  2  0
 22 23  1  0
 23 24  1  0
 20 24  2  0
 19 22  1  0
 23 25  1  0
  8 19  1  0
  2 26  1  0
M  END