
  SciTegic04021211102D

 30 33  0  0  0  0            999 V2000
    4.6870  -20.7254    0.0000 C   0  0
    5.0940  -21.4379    0.0000 C   0  0
    5.9126  -21.4406    0.0000 C   0  0
    6.3251  -20.7317    0.0000 C   0  0
    5.9132  -20.0185    0.0000 C   0  0
    5.0960  -20.0193    0.0000 C   0  0
    7.1501  -20.7319    0.0000 C   0  0
    7.5614  -21.4495    0.0000 C   0  0
    8.3867  -21.4512    0.0000 C   0  0
    8.8016  -20.7360    0.0000 C   0  0
    7.5615  -20.0194    0.0000 C   0  0
    8.3842  -20.0183    0.0000 C   0  0
    8.7927  -19.3066    0.0000 C   0  0
    8.3799  -18.5953    0.0000 N   0  0
    7.5541  -18.6003    0.0000 N   0  0
    7.1491  -19.3128    0.0000 C   0  0
    9.6187  -19.3046    0.0000 N   0  0
   10.0300  -18.5882    0.0000 C   0  0
   10.8562  -18.5881    0.0000 C   0  0
   11.2673  -17.8726    0.0000 C   0  0
   10.8526  -17.1573    0.0000 C   0  0
   10.0223  -17.1620    0.0000 C   0  0
    9.6148  -17.8781    0.0000 C   0  0
    3.8610  -20.7230    0.0000 C   0  0
    3.4437  -20.0015    0.0000 C   0  0
    3.8560  -19.2859    0.0000 O   0  0
    2.6177  -20.0022    0.0000 N   0  0
    2.2040  -19.2873    0.0000 C   0  0
    2.2052  -20.7180    0.0000 C   0  0
   12.0923  -17.8710    0.0000 O   0  0
 15 16  2  0
 16 11  1  0
 13 17  1  0
  8  9  1  0
 17 18  1  0
  4  5  1  0
 18 19  2  0
  9 10  2  0
 19 20  1  0
 10 12  1  0
 20 21  2  0
 11  7  1  0
 21 22  1  0
  4  7  1  0
 22 23  2  0
 23 18  1  0
  2  3  1  0
  5  6  2  0
 11 12  2  0
  6  1  1  0
 12 13  1  0
  1 24  1  0
  1  2  2  0
 24 25  1  0
 13 14  2  0
 25 26  2  0
  3  4  2  0
 25 27  1  0
 14 15  1  0
 27 28  1  0
  7  8  2  0
 27 29  1  0
 20 30  1  0
M  END