
  SciTegic12231509382D

 25 28  0  0  0  0            999 V2000
    1.7138    1.2033    0.0000 C   0  0
    1.7138   -1.2033    0.0000 C   0  0
    6.5944   -3.5310    0.0000 N   0  0
    0.2917    0.7475    0.0000 C   0  0
    0.2917   -0.7475    0.0000 C   0  0
    2.5889    0.0182    0.0000 C   0  0
    3.6552   -2.9294    0.0000 N   0  0
    8.0646   -3.8320    0.0000 C   0  0
    2.1855   -2.6254    0.0000 C   0  0
    2.0825    2.3453    0.0000 O   0  0
    5.5991   -4.6533    0.0000 C   0  0
    6.1201   -2.1080    0.0000 C   0  0
    8.5412   -5.2544    0.0000 C   0  0
    4.1295   -4.3524    0.0000 C   0  0
    4.6506   -1.8071    0.0000 C   0  0
    7.5495   -6.3809    0.0000 O   0  0
   -1.0028    1.5132    0.0000 C   0  0
   -1.0028   -1.5132    0.0000 C   0  0
    9.0582   -2.7082    0.0000 C   0  0
   10.0112   -5.5528    0.0000 C   0  0
    7.9324   -7.5182    0.0000 C   0  0
   -2.3155    0.7475    0.0000 C   0  0
   -2.3155   -0.7475    0.0000 C   0  0
   10.5282   -3.0067    0.0000 C   0  0
   11.0047   -4.4290    0.0000 C   0  0
  1  4  1  0
  2  5  1  0
  4  5  2  0
  1  6  1  0
  2  6  1  0
  3  8  1  0
  2  9  1  0
  7  9  1  0
  1 10  2  0
  3 11  1  0
  3 12  1  0
  8 13  1  0
  7 14  1  0
 11 14  1  0
  7 15  1  0
 12 15  1  0
 13 16  1  0
  4 17  1  0
  5 18  1  0
  8 19  2  0
 13 20  2  0
 16 21  1  0
 17 22  2  0
 18 23  2  0
 22 23  1  0
 19 24  1  0
 20 25  1  0
 24 25  2  0
M  END