
          05080814032D 1   1.00000     0.00000     0

 30 34  0     1  0            999 V2000
    3.3321   -5.3075    0.0000 C   0  0  0  0  0  0           0  0  0
    3.3321   -6.1371    0.0000 C   0  0  0  0  0  0           0  0  0
    4.0466   -6.5496    0.0000 N   0  0  3  0  0  0           0  0  0
    4.7656   -6.1371    0.0000 C   0  0  0  0  0  0           0  0  0
    4.7656   -5.3075    0.0000 C   0  0  0  0  0  0           0  0  0
    4.0466   -4.8904    0.0000 O   0  0  0  0  0  0           0  0  0
    4.0454   -7.3746    0.0000 C   0  0  0  0  0  0           0  0  0
    4.7593   -7.7881    0.0000 C   0  0  0  0  0  0           0  0  0
    4.7582   -8.6131    0.0000 C   0  0  0  0  0  0           0  0  0
    5.4721   -9.0266    0.0000 O   0  0  0  0  0  0           0  0  0
    6.1871   -8.6151    0.0000 C   0  0  0  0  0  0           0  0  0
    6.8984   -9.0298    0.0000 C   0  0  0  0  0  0           0  0  0
    6.8956   -7.3798    0.0000 C   0  0  0  0  0  0           0  0  0
    6.1840   -7.7929    0.0000 C   0  0  0  0  0  0           0  0  0
    7.6145   -7.7932    0.0000 C   0  0  0  0  0  0           0  0  0
    7.6129   -8.6212    0.0000 C   0  0  0  0  0  0           0  0  0
    9.0455   -7.7959    0.0000 C   0  0  0  0  0  0           0  0  0
    8.3285   -7.3781    0.0000 C   0  0  1  0  0  0           0  0  0
    9.0439   -8.6241    0.0000 N   0  0  3  0  0  0           0  0  0
    8.3251   -9.0300    0.0000 C   0  0  2  0  0  0           0  0  0
    8.4890   -9.8390    0.0000 C   0  0  0  0  0  0           0  0  0
    9.3092   -9.9332    0.0000 C   0  0  0  0  0  0           0  0  0
    9.6520   -9.1822    0.0000 C   0  0  0  0  0  0           0  0  0
    8.3291   -6.5531    0.0000 C   0  0  0  0  0  0           0  0  0
    7.6084   -9.4371    0.0000 H   0  0  0  0  0  0           0  0  0
    9.0437   -6.1455    0.0000 C   0  0  0  0  0  0           0  0  0
    9.0446   -5.3212    0.0000 N   0  0  0  0  0  0           0  0  0
    8.3298   -4.9075    0.0000 C   0  0  0  0  0  0           0  0  0
    7.6128   -5.3240    0.0000 C   0  0  0  0  0  0           0  0  0
    7.6154   -6.1469    0.0000 C   0  0  0  0  0  0           0  0  0
 14 11  1  0     0  0
 15 16  2  0     0  0
  3  7  1  0     0  0
  1  2  1  0     0  0
  7  8  1  0     0  0
  1  6  1  0     0  0
 15 18  1  0     0  0
 16 20  1  0     0  0
 19 17  1  0     0  0
 17 18  1  0     0  0
 19 20  1  0     0  0
  8  9  1  0     0  0
  2  3  1  0     0  0
  9 10  1  0     0  0
  3  4  1  0     0  0
 10 11  1  0     0  0
 20 21  1  0     0  0
 21 22  1  0     0  0
 22 23  1  0     0  0
 23 19  1  0     0  0
  4  5  1  0     0  0
 18 24  1  6     0  0
 11 12  2  0     0  0
 20 25  1  1     0  0
 12 16  1  0     0  0
 24 26  2  0     0  0
  5  6  1  0     0  0
 26 27  1  0     0  0
 15 13  1  0     0  0
 27 28  2  0     0  0
 28 29  1  0     0  0
 13 14  2  0     0  0
 29 30  2  0     0  0
 30 24  1  0     0  0
M  END