
  SciTegic01181116592D

 24 26  0  0  0  0            999 V2000
    3.1777    1.8959    0.0000 C   0  0
    3.1766    1.0685    0.0000 C   0  0
    3.8914    0.6556    0.0000 C   0  0
    4.6078    1.0690    0.0000 C   0  0
    4.6050    1.8995    0.0000 C   0  0
    3.8896    2.3086    0.0000 C   0  0
    2.4618    0.6566    0.0000 Cl  0  0
    5.3179    2.3147    0.0000 C   0  0
    6.0339    1.9049    0.0000 C   0  0
    5.3148    3.1397    0.0000 O   0  0
    3.8912   -0.1694    0.0000 S   0  0
    4.6056   -0.5820    0.0000 N   0  0
    3.0875    0.0500    0.0000 O   0  0
    3.3000   -0.7500    0.0000 O   0  0
    6.7469    2.3202    0.0000 N   0  0
    7.4917    3.4233    0.0000 N   0  0
    6.7164    3.1414    0.0000 C   0  0
    7.9994    2.7729    0.0000 C   0  0
    7.5367    2.0908    0.0000 C   0  0
    7.8961    1.3512    0.0000 C   0  0
    8.7180    1.2924    0.0000 C   0  0
    9.1792    1.9794    0.0000 C   0  0
    8.8172    2.7162    0.0000 C   0  0
    6.0320    3.6021    0.0000 C   0  0
 11 12  1  0
  6  1  1  0
 11 13  2  0
  1  2  2  0
 11 14  2  0
  2  7  1  0
  9 15  1  0
 15 19  1  0
  3  4  2  0
  5  8  1  0
 18 16  1  0
 16 17  2  0
 17 15  1  0
  8  9  1  0
 18 19  2  0
  4  5  1  0
 19 20  1  0
  8 10  2  0
 20 21  2  0
  2  3  1  0
 21 22  1  0
  3 11  1  0
 22 23  2  0
 23 18  1  0
  5  6  2  0
 17 24  1  0
M  END