
  SciTegic09261414462D

 84 89  0  0  0  0            999 V2000
   10.2996  -20.2136    0.0000 C   0  0  2  0  0  0
    8.1445  -18.1877    0.0000 O   0  0
    8.8729  -20.2314    0.0000 O   0  0
    8.8596  -19.4033    0.0000 H   0  0
    8.2246  -22.2769    0.0000 O   0  0
    6.7266  -19.0358    0.0000 C   0  0  1  0  0  0
    8.8882  -21.0184    0.0000 C   0  0
    8.1515  -19.0117    0.0000 O   0  0
    7.4664  -21.0699    0.0000 N   0  0
   11.7157  -20.2050    0.0000 O   0  0
   10.3057  -21.0332    0.0000 O   0  0
   11.7103  -18.5556    0.0000 O   0  0
    7.4157  -17.7925    0.0000 C   0  0
   11.0019  -19.8021    0.0000 C   0  0  1  0  0  0
    7.4325  -18.6141    0.0000 C   0  0  2  0  0  0
    8.1204  -17.3727    0.0000 O   0  0
    8.1575  -19.8314    0.0000 C   0  0  2  0  0  0
   10.9958  -18.9825    0.0000 C   0  0  1  0  0  0
    7.4551  -20.2511    0.0000 C   0  0  1  0  0  0
    6.0093  -18.6349    0.0000 O   0  0
    9.5835  -19.8158    0.0000 C   0  0  2  0  0  0
    9.5780  -18.9940    0.0000 C   0  0  1  0  0  0
    8.1919  -21.4557    0.0000 C   0  0
    6.0373  -20.2709    0.0000 O   0  0
    8.8497  -17.7706    0.0000 O   0  0
    8.8582  -18.5902    0.0000 C   0  0
    6.7433  -19.8531    0.0000 C   0  0  1  0  0  0
   10.2838  -18.5722    0.0000 O   0  0
   11.0941   -9.1087    0.0000 C   0  0  2  0  0  0
   13.1352  -17.7499    0.0000 N   0  0
   10.3520  -11.9718    0.0000 O   0  0
   11.7948  -10.3515    0.0000 O   0  0
   11.0748  -10.7608    0.0000 H   0  0
   13.9004   -9.9378    0.0000 O   0  0
   11.7768  -12.8083    0.0000 C   0  0  1  0  0  0
   11.0126  -17.3220    0.0000 C   0  0  2  0  0  0
   13.1493  -16.1095    0.0000 O   0  0
   10.2996  -17.7307    0.0000 O   0  0
   12.4778   -9.9602    0.0000 C   0  0
   13.8349  -18.9847    0.0000 C   0  0
   11.0714  -11.5700    0.0000 O   0  0
   12.4602  -14.0394    0.0000 O   0  0
   13.2057  -11.1826    0.0000 N   0  0
   13.1297  -18.5695    0.0000 C   0  0
   10.4065   -7.8707    0.0000 O   0  0
   11.8100   -8.7097    0.0000 O   0  0
   14.6023  -13.6641    0.0000 O   0  0
    8.9637   -8.6670    0.0000 O   0  0
   11.7314  -16.0926    0.0000 O   0  0
   10.3553  -12.8009    0.0000 C   0  0
   10.3958   -8.6902    0.0000 C   0  0  1  0  0  0
   10.3135  -15.2650    0.0000 O   0  0
   13.8723  -14.8813    0.0000 C   0  0  1  0  0  0
   12.4769  -13.2275    0.0000 H   0  0
   11.0679  -12.3916    0.0000 C   0  0  2  0  0  0
    9.6487  -12.3844    0.0000 O   0  0
   11.0335  -14.8465    0.0000 O   0  0
   11.7875  -11.1711    0.0000 C   0  0  2  0  0  0
   11.0184  -16.4967    0.0000 C   0  0  2  0  0  0
   12.4346  -16.5109    0.0000 C   0  0  2  0  0  0
   10.3080  -16.0867    0.0000 C   0  0
   12.4157  -18.9719    0.0000 O   0  0
   13.1785  -13.6443    0.0000 C   0  0  1  0  0  0
    9.6799   -9.0892    0.0000 C   0  0  1  0  0  0
   12.4929  -11.5857    0.0000 C   0  0  1  0  0  0
   11.7192  -17.7340    0.0000 C   0  0  1  0  0  0
   11.7696  -13.6299    0.0000 O   0  0
   11.0186  -15.6645    0.0000 O   0  0
   11.0891   -9.9278    0.0000 C   0  0  2  0  0  0
   10.3709  -10.3273    0.0000 C   0  0  1  0  0  0
   14.5797  -15.3036    0.0000 O   0  0
   13.1958  -10.3609    0.0000 C   0  0
   11.7379  -15.2666    0.0000 C   0  0
   13.1912  -12.8198    0.0000 O   0  0
    9.6475  -11.5536    0.0000 O   0  0
   10.3623  -11.1525    0.0000 C   0  0
   13.1614  -15.2849    0.0000 C   0  0  1  0  0  0
   12.4303  -17.3306    0.0000 C   0  0  1  0  0  0
   12.4857  -12.4012    0.0000 C   0  0  1  0  0  0
   12.4526  -14.8609    0.0000 C   0  0  2  0  0  0
    9.6619   -9.9108    0.0000 O   0  0
   13.8817  -14.0623    0.0000 C   0  0  2  0  0  0
   12.4351  -15.6892    0.0000 H   0  0
   10.9908  -18.1639    0.0000 H   0  0
 21  1  1  0
  6 20  1  6
 27 24  1  1
 19 17  1  0
 15  6  1  0
 18 12  1  0
 15 13  1  1
 23  7  1  0
  1 14  1  0
 22 26  1  1
 22 28  1  0
 23  5  2  0
 26  2  2  0
 17  4  1  6
 17  3  1  0
 19  9  1  6
 21  3  1  6
 27 19  1  0
 18 28  1  0
 22 21  1  0
 26 25  1  0
 14 18  1  0
 17  8  1  0
  6 27  1  0
 15  8  1  0
  1 11  1  1
  9 23  1  0
 14 10  1  6
 13 16  1  0
 53 82  1  0
 80 77  1  0
 63 74  1  0
 60 83  1  6
 69 29  1  0
 35 67  1  6
 79 74  1  1
 65 58  1  0
 55 35  1  0
 64 48  1  1
 59 49  1  0
 55 50  1  1
 72 39  1  0
 29 51  1  0
 63 42  1  0
 60 49  1  0
 70 76  1  1
 77 37  1  6
 36 66  1  0
 70 81  1  0
 72 34  2  0
 66 78  1  0
 76 31  2  0
 53 71  1  1
 59 36  1  0
 66 12  1  1
 58 33  1  6
 82 63  1  0
 58 32  1  0
 30 44  1  0
 65 43  1  6
 73 68  2  0
 69 32  1  6
 79 65  1  0
 64 81  1  0
 82 47  1  6
 36 38  1  6
 70 69  1  0
 76 75  1  0
 80 42  1  0
 63 54  1  6
 51 64  1  0
 58 41  1  0
 78 60  1  0
 35 79  1  0
 44 40  1  0
 44 62  2  0
 55 41  1  0
 73 57  1  0
 77 53  1  0
 80 73  1  1
 29 46  1  1
 59 61  1  1
 43 72  1  0
 51 45  1  6
 60 37  1  0
 50 56  1  0
 78 30  1  6
 61 52  1  0
 18 84  1  6
M  END