
  SciTegic03291108532D

 21 22  0  0  1  0            999 V2000
    5.4373   -2.0423    0.0000 O   0  0
    2.5794   -4.5173    0.0000 O   0  0
    1.8649   -1.6298    0.0000 O   0  0
    2.5794   -2.8673    0.0000 N   0  0
    6.8662   -2.8673    0.0000 N   0  0
    4.0084   -2.8673    0.0000 C   0  0
    4.7228   -3.2798    0.0000 C   0  0
    3.2939   -3.2798    0.0000 C   0  0
    5.4373   -2.8673    0.0000 C   0  0  2  0  0  0
    3.2939   -4.1048    0.0000 C   0  0
    4.7228   -4.1048    0.0000 C   0  0
    4.0084   -2.0423    0.0000 C   0  0
    4.0084   -4.5173    0.0000 C   0  0
    6.1518   -3.2798    0.0000 C   0  0  2  0  0  0
    2.5794   -2.0423    0.0000 C   0  0
    3.2939   -1.6298    0.0000 C   0  0
    6.1518   -4.1048    0.0000 C   0  0
    7.5807   -3.2798    0.0000 C   0  0
    5.4373   -4.5173    0.0000 C   0  0
    8.2952   -2.8673    0.0000 C   0  0
    7.5807   -4.1048    0.0000 C   0  0
  9  1  1  1
  2 10  1  0
  3 15  2  0
  4  8  1  0
  4 15  1  0
 14  5  1  1
  5 18  1  0
  6  7  2  0
  6  8  1  0
  6 12  1  0
  7  9  1  0
  7 11  1  0
  8 10  2  0
  9 14  1  0
 10 13  1  0
 11 13  2  0
 12 16  2  0
 14 17  1  0
 15 16  1  0
 17 19  1  0
 18 20  1  0
 18 21  1  0
M  END