
          02060813472D 1   1.00000     0.00000     0

 23 26  0     0  0            999 V2000
   -2.5348  -16.4791    0.0000 C   0  0  0  0  0  0           0  0  0
   -2.5359  -17.3065    0.0000 C   0  0  0  0  0  0           0  0  0
   -1.8211  -17.7194    0.0000 C   0  0  0  0  0  0           0  0  0
   -1.8229  -16.0664    0.0000 C   0  0  0  0  0  0           0  0  0
   -1.1075  -16.4755    0.0000 C   0  0  0  0  0  0           0  0  0
   -1.1073  -17.3065    0.0000 C   0  0  0  0  0  0           0  0  0
   -0.3172  -16.2185    0.0000 N   0  0  0  0  0  0           0  0  0
    0.1715  -16.8906    0.0000 C   0  0  0  0  0  0           0  0  0
   -0.3201  -17.5609    0.0000 N   0  0  3  0  0  0           0  0  0
    0.1655  -18.2356    0.0000 N   0  0  0  0  0  0           0  0  0
    0.9573  -17.9823    0.0000 S   0  0  0  0  0  0           0  0  0
    0.9609  -17.1511    0.0000 C   0  0  0  0  0  0           0  0  0
   -3.2507  -17.7184    0.0000 S   0  0  3  0  0  0           0  0  0
   -3.9708  -18.1250    0.0000 N   0  0  0  0  0  0           0  0  0
   -2.8419  -18.4350    0.0000 O   0  0  0  0  0  0           0  0  0
   -3.6578  -17.0008    0.0000 O   0  0  0  0  0  0           0  0  0
    1.6305  -16.6691    0.0000 S   0  0  0  0  0  0           0  0  0
    2.3824  -17.0083    0.0000 C   0  0  0  0  0  0           0  0  0
    2.4038  -17.8302    0.0000 C   0  0  0  0  0  0           0  0  0
    3.1289  -18.2221    0.0000 C   0  0  0  0  0  0           0  0  0
    3.8323  -17.7893    0.0000 C   0  0  0  0  0  0           0  0  0
    3.8059  -16.9604    0.0000 C   0  0  0  0  0  0           0  0  0
    3.0803  -16.5723    0.0000 C   0  0  0  0  0  0           0  0  0
  9 10  1  0     0  0
 10 11  2  0     0  0
 11 12  2  0     0  0
 12  8  1  0     0  0
  2  3  1  0     0  0
  2 13  1  0     0  0
  3  6  2  0     0  0
 13 14  1  0     0  0
  6  9  1  0     0  0
 13 15  2  0     0  0
  8  7  2  0     0  0
 13 16  2  0     0  0
  7  5  1  0     0  0
 12 17  1  0     0  0
  8  9  1  0     0  0
 17 18  1  0     0  0
  1  2  2  0     0  0
 18 19  2  0     0  0
  5  4  2  0     0  0
 19 20  1  0     0  0
  4  1  1  0     0  0
 20 21  2  0     0  0
  5  6  1  0     0  0
 21 22  1  0     0  0
 22 23  2  0     0  0
 23 18  1  0     0  0
M  END