
  Mrv0541 05211314572D          

 11 10  0  0  0  0            999 V2000
    6.2236   -6.9429    0.0000 P   0  0  0  0  0  0  0  0  0  0  0  0
    5.5091   -7.3554    0.0000 F   0  0  0  0  0  0  0  0  0  0  0  0
    6.6361   -7.6574    0.0000 O   0  0  0  0  0  0  0  0  0  0  0  0
    6.9381   -6.5304    0.0000 O   0  0  0  0  0  0  0  0  0  0  0  0
    5.8111   -6.2284    0.0000 O   0  0  0  0  0  0  0  0  0  0  0  0
    6.2236   -5.5140    0.0000 C   0  0  0  0  0  0  0  0  0  0  0  0
    5.8111   -4.7995    0.0000 C   0  0  0  0  0  0  0  0  0  0  0  0
    7.0486   -5.5140    0.0000 C   0  0  0  0  0  0  0  0  0  0  0  0
    6.2236   -8.3718    0.0000 C   0  0  0  0  0  0  0  0  0  0  0  0
    6.6361   -9.0863    0.0000 C   0  0  0  0  0  0  0  0  0  0  0  0
    5.3986   -8.3718    0.0000 C   0  0  0  0  0  0  0  0  0  0  0  0
  1  4  2  0  0  0  0
  1  3  1  0  0  0  0
  1  5  1  0  0  0  0
  1  2  1  0  0  0  0
  5  6  1  0  0  0  0
  3  9  1  0  0  0  0
  6  7  1  0  0  0  0
  6  8  1  0  0  0  0
  9 10  1  0  0  0  0
  9 11  1  0  0  0  0
M  END