
  SciTegic01061414252D

 25 26  0  0  0  0            999 V2000
   11.6324  -13.4599    0.0000 S   0  0
   11.2194  -14.1740    0.0000 O   0  0
   12.0443  -14.1746    0.0000 O   0  0
   12.3484  -12.2206    0.0000 C   0  0
   12.3472  -13.0480    0.0000 C   0  0
   13.0620  -13.4608    0.0000 C   0  0
   13.7785  -13.0475    0.0000 C   0  0
   13.7756  -12.2169    0.0000 C   0  0
   13.0602  -11.8079    0.0000 C   0  0
   14.4885  -11.8018    0.0000 C   0  0
   15.2045  -12.2116    0.0000 C   0  0
   14.4854  -10.9768    0.0000 O   0  0
   15.9174  -11.7964    0.0000 S   0  0
   16.6334  -12.2062    0.0000 C   0  0
   16.6334  -13.0300    0.0000 N   0  0
   17.3485  -13.4398    0.0000 C   0  0
   18.0625  -13.0246    0.0000 C   0  0
   18.0566  -12.1952    0.0000 C   0  0
   17.3410  -11.7893    0.0000 N   0  0
   10.9183  -13.0468    0.0000 N   0  0
   13.0618  -14.2858    0.0000 Cl  0  0
   18.7682  -11.7776    0.0000 O   0  0
   17.3513  -14.2648    0.0000 C   0  0
   18.0671  -14.6749    0.0000 C   0  0
   18.0698  -15.4999    0.0000 C   0  0
  2  1  2  0
  1  3  2  0
  4  5  2  0
  5  6  1  0
  6  7  2  0
  7  8  1  0
  8  9  2  0
  9  4  1  0
  8 10  1  0
 10 11  1  0
 10 12  2  0
 11 13  1  0
 13 14  1  0
 14 15  2  0
 15 16  1  0
 16 17  2  0
 17 18  1  0
 18 19  1  0
 19 14  1  0
  5  1  1  0
  1 20  1  0
  6 21  1  0
 18 22  2  0
 16 23  1  0
 23 24  1  0
 24 25  1  0
M  END