
  SciTegic05161214222D

 55 58  0  0  0  0            999 V2000
   15.0252  -28.4629    0.0000 C   0  0
   15.7400  -28.0509    0.0000 C   0  0  2  0  0  0
   10.7458  -27.6458    0.0000 C   0  0
   10.7458  -28.4708    0.0000 C   0  0
   11.4579  -28.8792    0.0000 O   0  0
   12.1699  -28.4708    0.0000 C   0  0
   12.1699  -27.6458    0.0000 C   0  0
   11.4579  -27.2292    0.0000 C   0  0
   10.0281  -27.2406    0.0000 S   0  0
    9.6198  -27.9575    0.0000 O   0  0
   10.4448  -27.9527    0.0000 O   0  0
    7.1611  -22.3041    0.0000 C   0  0
    7.1599  -23.1315    0.0000 C   0  0
    7.8747  -23.5444    0.0000 C   0  0
    7.8729  -21.8914    0.0000 C   0  0
    8.5883  -22.3005    0.0000 C   0  0
    8.5891  -23.1273    0.0000 C   0  0
    9.3044  -23.5383    0.0000 N   0  0
   10.0194  -23.1235    0.0000 C   0  0
   10.0146  -22.2936    0.0000 C   0  0
    9.2987  -21.8863    0.0000 C   0  0
   10.7355  -23.5333    0.0000 C   0  0
    9.2944  -21.0614    0.0000 C   0  0
    7.8766  -24.3694    0.0000 O   0  0
    8.5921  -24.7802    0.0000 C   0  0
    8.5940  -25.6052    0.0000 C   0  0
    7.8779  -26.0150    0.0000 C   0  0
    7.8794  -26.8392    0.0000 C   0  0
    8.5954  -27.2509    0.0000 C   0  0
    9.3113  -26.8323    0.0000 C   0  0
    9.3062  -26.0094    0.0000 C   0  0
    7.1638  -25.6018    0.0000 Cl  0  0
   10.0179  -25.5921    0.0000 Cl  0  0
   10.7402  -26.8239    0.0000 N   0  0
   12.1691  -26.8156    0.0000 C   0  0
   12.8848  -27.2259    0.0000 N   0  0
   12.1666  -25.9906    0.0000 O   0  0
   12.8838  -28.0509    0.0000 C   0  0
   13.5954  -28.4611    0.0000 C   0  0
   14.3110  -28.0499    0.0000 N   0  0
   14.3105  -27.2239    0.0000 C   0  0
   13.5943  -26.8092    0.0000 C   0  0
   15.0246  -29.2879    0.0000 O   0  0
   16.4541  -28.4639    0.0000 C   0  0
   17.1689  -28.0519    0.0000 C   0  0
   17.8831  -28.4649    0.0000 C   0  0
   18.5978  -28.0529    0.0000 N   0  0
   15.7405  -27.2259    0.0000 N   0  0
   18.0659  -26.8363    0.0000 F   0  0
   18.7803  -26.4238    0.0000 C   0  0
   19.4948  -26.8363    0.0000 F   0  0
   18.7742  -27.2446    0.0000 F   0  0
   18.7834  -25.5988    0.0000 C   0  0
   19.4994  -25.1890    0.0000 O   0  0
   18.0705  -25.1836    0.0000 O   0  0
  5  6  1  0
 24 25  1  0
 13 14  1  0
 25 26  1  0
 14 17  2  0
 26 27  2  0
  6  7  1  0
 27 28  1  0
 16 15  2  0
 28 29  2  0
 15 12  1  0
 29 30  1  0
  7  8  1  0
 30 31  2  0
 31 26  1  0
 10  9  2  0
 27 32  1  0
 16 17  1  0
 31 33  1  0
 30  9  1  0
  9 11  2  0
  9 34  1  0
 34  8  1  0
 17 18  1  0
  8 35  1  0
 35 36  1  0
 18 19  2  0
 35 37  2  0
 36 38  1  0
  1  2  1  0
 19 20  1  0
  3  4  1  0
 20 21  2  0
 21 16  1  0
 36 42  1  0
 38 39  1  0
 39 40  1  0
 40 41  1  0
 41 42  1  0
 40  1  1  0
  3  8  1  0
  1 43  2  0
 19 22  1  0
  2 44  1  0
  4  5  1  0
 44 45  1  0
 21 23  1  0
 45 46  1  0
 12 13  2  0
 46 47  1  0
 14 24  1  0
  2 48  1  1
 49 50  1  0
 50 52  1  0
 50 53  1  0
 50 51  1  0
 53 54  1  0
 53 55  2  0
M  END