
          11290712382D 1   1.00000     0.00000     0

 20 22  0     0  0            999 V2000
   -5.4020    1.3710    0.0000 C   0  0  0  0  0  0           0  0  0
   -5.4032    0.5436    0.0000 C   0  0  0  0  0  0           0  0  0
   -4.6883    0.1306    0.0000 C   0  0  0  0  0  0           0  0  0
   -4.6901    1.7838    0.0000 C   0  0  0  0  0  0           0  0  0
   -3.9746    1.3746    0.0000 C   0  0  0  0  0  0           0  0  0
   -3.9738    0.5478    0.0000 C   0  0  0  0  0  0           0  0  0
   -3.2585    0.1367    0.0000 N   0  0  0  0  0  0           0  0  0
   -2.5434    0.5516    0.0000 C   0  0  0  0  0  0           0  0  0
   -2.5482    1.3815    0.0000 C   0  0  0  0  0  0           0  0  0
   -3.2642    1.7889    0.0000 C   0  0  0  0  0  0           0  0  0
   -1.8272    0.1417    0.0000 C   0  0  0  0  0  0           0  0  0
   -1.8289   -0.6804    0.0000 C   0  0  0  0  0  0           0  0  0
   -1.1136   -1.0900    0.0000 C   0  0  0  0  0  0           0  0  0
   -0.3997   -0.6747    0.0000 C   0  0  0  0  0  0           0  0  0
   -0.4055    0.1547    0.0000 C   0  0  0  0  0  0           0  0  0
   -1.1214    0.5607    0.0000 C   0  0  0  0  0  0           0  0  0
   -1.8361    1.7985    0.0000 O   0  0  0  0  0  0           0  0  0
   -3.2685    2.6139    0.0000 C   0  0  0  0  0  0           0  0  0
   -2.5578    3.0301    0.0000 O   0  0  0  0  0  0           0  0  0
   -3.9868    3.0226    0.0000 O   0  0  0  0  0  0           0  0  0
  9 10  2  0     0  0
 10  5  1  0     0  0
  8 11  1  0     0  0
  2  3  1  0     0  0
 11 12  2  0     0  0
  5  6  1  0     0  0
 12 13  1  0     0  0
  3  6  2  0     0  0
 13 14  2  0     0  0
  6  7  1  0     0  0
 14 15  1  0     0  0
  1  2  2  0     0  0
 15 16  2  0     0  0
 16 11  1  0     0  0
  7  8  2  0     0  0
  9 17  1  0     0  0
  5  4  2  0     0  0
 10 18  1  0     0  0
  8  9  1  0     0  0
  4  1  1  0     0  0
 18 19  1  0     0  0
 18 20  2  0     0  0
M  END