
  SciTegic04181615532D

 34 38  0  0  0  0            999 V2000
   -1.0028    1.5132    0.0000 C   0  0
   -2.3155    0.7475    0.0000 C   0  0
   -2.3155   -0.7475    0.0000 C   0  0
   -1.0028   -1.5132    0.0000 C   0  0
    0.2917    0.7475    0.0000 C   0  0
    0.2917   -0.7475    0.0000 C   0  0
    1.7138   -1.2033    0.0000 N   0  0
    2.5889    0.0182    0.0000 N   0  0
    1.7138    1.2033    0.0000 C   0  0
    4.0872    0.0382    0.0000 C   0  0
    4.6738    1.0851    0.0000 C   0  0
   -3.6187   -1.4919    0.0000 C   0  0
   -3.6267   -2.9927    0.0000 N   0  0
   -4.6549   -0.8867    0.0000 O   0  0
   -4.9300   -3.7369    0.0000 C   0  0
   -0.9971    3.0138    0.0000 O   0  0
   -2.2935    3.7700    0.0000 C   0  0
   -2.2901    5.2700    0.0000 C   0  0
   -3.5873    6.0231    0.0000 C   0  0
   -4.8881    5.2761    0.0000 C   0  0
   -4.8917    3.7761    0.0000 N   0  0
   -3.5944    3.0231    0.0000 C   0  0
   -3.5845    7.2231    0.0000 F   0  0
   -6.1876    6.0270    0.0000 C   0  0
   -6.1869    7.2270    0.0000 O   0  0
   -7.4881    5.2778    0.0000 N   0  0
   -8.8927    5.6903    0.0000 C   0  0
   -9.2793    4.2409    0.0000 C   0  0
   -7.8300    3.8543    0.0000 C   0  0
   -5.0779   -5.2168    0.0000 N   0  0
   -6.5472   -5.5187    0.0000 N   0  0
   -7.2884   -4.2146    0.0000 C   0  0
   -6.2772   -3.1068    0.0000 C   0  0
   -7.0427   -6.6117    0.0000 C   0  0
  5  1  1  0
  1  2  2  0
  2  3  1  0
  3  4  2  0
  4  6  1  0
  5  6  1  0
  6  7  2  0
  7  8  1  0
  8  9  1  0
  9  5  2  0
  8 10  1  0
 10 11  1  0
  3 12  1  0
 12 13  1  0
 12 14  2  0
 13 15  1  0
  1 16  1  0
 16 17  1  0
 17 18  2  0
 18 19  1  0
 19 20  2  0
 20 21  1  0
 21 22  2  0
 22 17  1  0
 19 23  1  0
 20 24  1  0
 24 25  2  0
 24 26  1  0
 26 27  1  0
 27 28  1  0
 28 29  1  0
 29 26  1  0
 15 30  2  0
 30 31  1  0
 31 32  1  0
 32 33  2  0
 33 15  1  0
 31 34  1  0
M  END