
          05270816392D 1   1.00000     0.00000     0

 35 40  0     1  0            999 V2000
    9.5361  -10.1473    0.0000 C   0  0  0  0  0  0           0  0  0
    9.5348  -10.9703    0.0000 C   0  0  0  0  0  0           0  0  0
   10.9594  -10.1432    0.0000 C   0  0  0  0  0  0           0  0  0
   10.2505   -9.7345    0.0000 C   0  0  0  0  0  0           0  0  0
   10.9626  -10.9697    0.0000 C   0  0  0  0  0  0           0  0  0
   10.2511  -11.3842    0.0000 C   0  0  0  0  0  0           0  0  0
   10.2498  -12.2063    0.0000 C   0  0  0  0  0  0           0  0  0
   10.9628  -12.6202    0.0000 C   0  0  0  0  0  0           0  0  0
    8.9189  -11.5222    0.0000 N   0  0  0  0  0  0           0  0  0
    9.4654  -12.4609    0.0000 C   0  0  0  0  0  0           0  0  0
   11.6772  -11.3819    0.0000 C   0  0  2  0  0  0           0  0  0
   11.6781  -12.2097    0.0000 C   0  0  2  0  0  0           0  0  0
   12.3914  -12.6206    0.0000 N   0  0  3  0  0  0           0  0  0
   13.1085  -12.2082    0.0000 C   0  0  0  0  0  0           0  0  0
   13.1076  -11.3805    0.0000 C   0  0  1  0  0  0           0  0  0
   12.3897  -10.9650    0.0000 C   0  0  0  0  0  0           0  0  0
   11.6689  -13.0301    0.0000 H   0  0  0  0  0  0           0  0  0
   11.6689  -10.5551    0.0000 H   0  0  0  0  0  0           0  0  0
   12.3911  -13.4456    0.0000 C   0  0  0  0  0  0           0  0  0
   13.8221  -10.9679    0.0000 C   0  0  0  0  0  0           0  0  0
   13.8221  -10.1429    0.0000 O   0  0  0  0  0  0           0  0  0
   14.5366  -11.3803    0.0000 N   0  0  3  0  0  0           0  0  0
   14.5314  -12.2106    0.0000 C   0  0  0  0  0  0           0  0  0
   15.2418  -12.6230    0.0000 C   0  0  0  0  0  0           0  0  0
   15.9587  -12.2140    0.0000 N   0  0  3  0  0  0           0  0  0
   15.9606  -11.3882    0.0000 C   0  0  0  0  0  0           0  0  0
   15.2458  -10.9712    0.0000 C   0  0  0  0  0  0           0  0  0
   16.6716  -12.6293    0.0000 C   0  0  0  0  0  0           0  0  0
   16.6635  -13.4530    0.0000 C   0  0  0  0  0  0           0  0  0
   17.3757  -13.8682    0.0000 C   0  0  0  0  0  0           0  0  0
   18.0926  -13.4583    0.0000 C   0  0  0  0  0  0           0  0  0
   18.0931  -12.6290    0.0000 C   0  0  0  0  0  0           0  0  0
   17.3804  -12.2176    0.0000 N   0  0  0  0  0  0           0  0  0
    9.1709  -13.2315    0.0000 S   0  0  0  0  0  0           0  0  0
    8.3564  -13.3618    0.0000 C   0  0  0  0  0  0           0  0  0
 15 16  1  0     0  0
  6  7  1  0     0  0
 12 17  1  1     0  0
  7  8  1  0     0  0
 11 18  1  6     0  0
  8 12  1  0     0  0
 13 19  1  0     0  0
  3  4  2  0     0  0
 15 20  1  1     0  0
  2  9  1  0     0  0
 20 21  2  0     0  0
  4  1  1  0     0  0
 20 22  1  0     0  0
 22 23  1  0     0  0
  7 10  2  0     0  0
  9 10  1  0     0  0
 11 12  1  0     0  0
  5  6  2  0     0  0
  2  6  1  0     0  0
 22 27  1  0     0  0
 23 24  1  0     0  0
 24 25  1  0     0  0
 25 26  1  0     0  0
 26 27  1  0     0  0
 25 28  1  0     0  0
  5  3  1  0     0  0
 28 29  2  0     0  0
  1  2  2  0     0  0
 29 30  1  0     0  0
  5 11  1  0     0  0
 30 31  2  0     0  0
 11 16  1  0     0  0
 31 32  1  0     0  0
 12 13  1  0     0  0
 32 33  2  0     0  0
 33 28  1  0     0  0
 13 14  1  0     0  0
 10 34  1  0     0  0
 14 15  1  0     0  0
 34 35  1  0     0  0
M  END