
          11280715292D 1   1.00000     0.00000     0

 16 18  0     0  0            999 V2000
    5.3167   -1.4167    0.0000 C   0  0  0  0  0  0           0  0  0
    5.8375   -1.1167    0.0000 N   0  0  0  0  0  0           0  0  0
    5.3250   -2.0167    0.0000 C   0  0  0  0  0  0           0  0  0
    4.2875   -1.4292    0.0000 C   0  0  0  0  0  0           0  0  0
    4.8042   -1.1250    0.0000 C   0  0  0  0  0  0           0  0  0
    4.2917   -2.0292    0.0000 C   0  0  0  0  0  0           0  0  0
    5.8375   -2.3167    0.0000 O   0  0  0  0  0  0           0  0  0
    4.8125   -2.3167    0.0000 C   0  0  0  0  0  0           0  0  0
    6.3542   -2.0167    0.0000 C   0  0  0  0  0  0           0  0  0
    6.3542   -1.4167    0.0000 C   0  0  0  0  0  0           0  0  0
    3.7167   -2.2167    0.0000 O   0  0  0  0  0  0           0  0  0
    3.7167   -1.2417    0.0000 C   0  0  0  0  0  0           0  0  0
    3.3667   -1.7292    0.0000 C   0  0  0  0  0  0           0  0  0
    6.8750   -2.3167    0.0000 O   0  0  0  0  0  0           0  0  0
    4.7917   -0.5250    0.0000 O   0  0  0  0  0  0           0  0  0
    5.3167   -0.2167    0.0000 C   0  0  0  0  0  0           0  0  0
  2  1  1  0     0  0
  3  1  2  0     0  0
  4  5  2  0     0  0
  5  1  1  0     0  0
  6  4  1  0     0  0
  7  3  1  0     0  0
  8  3  1  0     0  0
  9  7  1  0     0  0
 10  2  2  0     0  0
 11  6  1  0     0  0
 12  4  1  0     0  0
 13 12  2  0     0  0
 14  9  2  0     0  0
 15  5  1  0     0  0
 16 15  1  0     0  0
  8  6  2  0     0  0
 10  9  1  0     0  0
 13 11  1  0     0  0
M  END