
  SciTegic11111309142D

 53 57  0  0  1  0            999 V2000
   -2.2813   -5.9551    0.0000 C   0  0
   -1.3725  -12.9661    0.0000 C   0  0
   -0.5861  -13.2173    0.0000 C   0  0
   -0.1045  -12.5491    0.0000 C   0  0
   -0.5898  -11.8873    0.0000 C   0  0
   -1.3725  -12.1416    0.0000 C   0  0
   -3.4031   -8.7086    0.0000 O   0  0
   -3.8880   -9.3761    0.0000 C   0  0
   -3.5854  -10.1436    0.0000 C   0  0
   -4.0869  -10.7553    0.0000 C   0  0
   -3.8064  -11.4891    0.0000 C   0  0
   -3.0298  -11.5929    0.0000 C   0  0
   -2.5682  -10.9588    0.0000 C   0  0
   -2.8906  -10.2366    0.0000 C   0  0
   -4.9013  -10.6233    0.0000 Cl  0  0
   -2.3965   -9.5759    0.0000 Cl  0  0
   -1.7477  -11.0450    0.0000 S   0  0
   -1.6614  -10.2246    0.0000 O   0  0
   -1.8338  -11.8655    0.0000 O   0  0
    0.1247  -11.4749    0.0000 C   0  0
    0.8384  -11.8869    0.0000 N   0  0
    0.1247  -10.6489    0.0000 O   0  0
    0.8384  -12.7135    0.0000 C   0  0
    1.5482  -13.1233    0.0000 C   0  0
    2.2586  -12.7132    0.0000 N   0  0
    2.2586  -11.8914    0.0000 C   0  0
    1.5484  -11.4770    0.0000 C   0  0
    2.9696  -13.1237    0.0000 C   0  0
    2.9696  -13.9443    0.0000 O   0  0
    3.6879  -12.7090    0.0000 C   0  0  2  0  0  0
   -3.7397   -7.9526    0.0000 C   0  0
   -4.4107   -6.4452    0.0000 C   0  0
   -4.8975   -7.1196    0.0000 C   0  0
   -4.5589   -7.8724    0.0000 C   0  0
   -3.5869   -6.5321    0.0000 C   0  0
   -3.2549   -7.2888    0.0000 C   0  0
   -2.4355   -7.3783    0.0000 N   0  0
   -1.9471   -6.7122    0.0000 C   0  0
   -3.1025   -5.8684    0.0000 C   0  0
   -1.1242   -6.8007    0.0000 C   0  0
   -3.4383   -5.1121    0.0000 C   0  0
    4.4046  -13.1228    0.0000 C   0  0
    5.1212  -12.7090    0.0000 C   0  0
    5.8379  -13.1228    0.0000 C   0  0
    6.5546  -12.7090    0.0000 N   0  3
    7.2712  -13.1228    0.0000 C   0  0
    6.5546  -11.8815    0.0000 C   0  0
    6.5465  -13.5363    0.0000 C   0  0
    3.6835  -11.8812    0.0000 N   0  3
    4.3980  -11.4636    0.0000 C   0  0
    2.9647  -11.4711    0.0000 C   0  0
    3.6794  -11.0537    0.0000 C   0  0
   -0.9276  -11.1346    0.0000 N   0  0
 20 22  2  0
 21 23  1  0
 21 27  1  0
 23 24  1  0
 24 25  1  0
 25 26  1  0
 26 27  1  0
 25 28  1  0
 28 29  2  0
 28 30  1  0
  7 31  1  0
 31 36  2  0
  2  3  1  0
 35 32  2  0
  3  4  1  0
 32 33  1  0
  4  5  1  0
 33 34  2  0
 34 31  1  0
  5  6  1  0
  6  2  1  0
 35 36  1  0
  7  8  1  0
 36 37  1  0
  8  9  1  0
 37 38  2  0
 38  1  1  0
  9 10  2  0
  1 39  2  0
 39 35  1  0
 10 11  1  0
 38 40  1  0
 11 12  2  0
 39 41  1  0
 12 13  1  0
 30 42  1  0
 13 14  2  0
 42 43  1  0
 14  9  1  0
 43 44  1  0
 10 15  1  0
 44 45  1  0
 14 16  1  0
 45 46  1  0
 13 17  1  0
 45 47  1  0
 17 18  2  0
 45 48  1  0
 17 19  2  0
 30 49  1  1
 49 50  1  0
 49 51  1  0
  5 20  1  0
 49 52  1  0
 20 21  1  0
 17 53  1  0
 53  5  1  0
M  CHG  2  45   1  49   1
M  END