
  CDK    9/16/09,9:58

 19 21  0  0  0  0  0  0  0  0999 V2000
   -5.5198  -10.4498    0.0000 C   0  0  0  0  0  0  0  0  0  0  0  0
   -5.5211  -11.2773    0.0000 C   0  0  0  0  0  0  0  0  0  0  0  0
   -4.8081  -11.6903    0.0000 C   0  0  0  0  0  0  0  0  0  0  0  0
   -4.8101  -10.0370    0.0000 C   0  0  0  0  0  0  0  0  0  0  0  0
   -4.0919  -10.4457    0.0000 C   0  0  0  0  0  0  0  0  0  0  0  0
   -4.0914  -11.2727    0.0000 C   0  0  0  0  0  0  0  0  0  0  0  0
   -3.3047  -11.5278    0.0000 N   0  0  0  0  0  0  0  0  0  0  0  0
   -2.8190  -10.8585    0.0000 C   0  0  0  0  0  0  0  0  0  0  0  0
   -3.3057  -10.1898    0.0000 N   0  0  0  0  0  0  0  0  0  0  0  0
   -1.9940  -10.8578    0.0000 N   0  0  0  0  0  0  0  0  0  0  0  0
   -1.5810  -11.5720    0.0000 C   0  0  0  0  0  0  0  0  0  0  0  0
   -0.7560  -11.5715    0.0000 C   0  0  0  0  0  0  0  0  0  0  0  0
   -0.3466  -12.2855    0.0000 C   0  0  0  0  0  0  0  0  0  0  0  0
    0.4776  -12.2851    0.0000 C   0  0  0  0  0  0  0  0  0  0  0  0
    0.8904  -11.5699    0.0000 C   0  0  0  0  0  0  0  0  0  0  0  0
    0.4730  -10.8534    0.0000 C   0  0  0  0  0  0  0  0  0  0  0  0
   -0.3498  -10.8571    0.0000 C   0  0  0  0  0  0  0  0  0  0  0  0
    1.7154  -11.5682    0.0000 Cl  0  0  0  0  0  0  0  0  0  0  0  0
    0.8825  -10.1372    0.0000 Cl  0  0  0  0  0  0  0  0  0  0  0  0
  9  5  1  0  0  0  0 
  4  1  1  0  0  0  0 
  8 10  1  0  0  0  0 
  5  6  1  0  0  0  0 
 10 11  1  0  0  0  0 
 11 12  1  0  0  0  0 
  2  3  1  0  0  0  0 
 12 13  2  0  0  0  0 
  3  6  2  0  0  0  0 
 13 14  1  0  0  0  0 
  1  2  2  0  0  0  0 
 14 15  2  0  0  0  0 
  5  4  2  0  0  0  0 
 15 16  1  0  0  0  0 
  6  7  1  0  0  0  0 
 16 17  2  0  0  0  0 
 17 12  1  0  0  0  0 
  7  8  1  0  0  0  0 
 15 18  1  0  0  0  0 
  8  9  2  0  0  0  0 
 16 19  1  0  0  0  0 
M  END