
  SciTegic05281317142D

 14 16  0  0  0  0            999 V2000
    0.0159   -0.1751    0.0000 C   0  0  1  0  0  0
    0.0000    1.3375    0.0000 O   0  0
    1.3852    1.7992    0.0000 C   0  0
    2.3087    0.6687    0.0000 N   0  0
    1.4808   -0.5891    0.0000 C   0  0
   -2.6590   -1.7037    0.0000 C   0  0
   -1.3056   -2.4679    0.0000 N   0  0
   -2.6431   -0.1751    0.0000 C   0  0
    0.0159   -1.7037    0.0000 C   0  0
   -0.7006   -1.3852    0.0000 C   0  0
   -1.3056    0.5732    0.0000 C   0  0
   -2.0858   -0.4777    0.0000 C   0  0
    1.6020    2.9795    0.0000 O   0  0
    3.4981    0.8281    0.0000 C   0  0
  3  4  1  0
  4  5  1  0
  5  1  1  0
  1  2  1  1
  6  7  1  0
  6  8  1  0
  7  9  1  0
  7 10  1  0
  8 11  1  0
  9  1  1  0
 10 12  1  0
 11  1  1  0
 11 12  1  0
  3 13  2  0
  2  3  1  0
  4 14  1  0
M  END