
  SciTegic04091416462D

 15 16  0  0  0  0            999 V2000
   12.4753  -23.0919    0.0000 C   0  0
    9.6439  -22.2746    0.0000 C   0  0
    9.6428  -23.0942    0.0000 C   0  0
   10.3508  -23.5031    0.0000 C   0  0
   11.0605  -23.0937    0.0000 C   0  0
   11.0576  -22.2710    0.0000 C   0  0
   10.3490  -21.8658    0.0000 N   0  0
   11.7688  -23.5012    0.0000 N   0  0
   12.4746  -22.2743    0.0000 O   0  0
   13.1133  -23.5980    0.0000 C   0  0
   13.0795  -24.4148    0.0000 O   0  0
   13.8469  -24.6985    0.0000 C   0  0
   14.3528  -24.0552    0.0000 C   0  0
   13.8964  -23.3762    0.0000 C   0  0
   14.1777  -22.6090    0.0000 C   0  0
  2  3  2  0
  3  4  1  0
  4  5  2  0
  5  6  1  0
  6  7  2  0
  7  2  1  0
  5  8  1  0
  8  1  1  0
  1  9  2  0
 11 12  1  0
 10 11  1  0
 12 13  2  0
 13 14  1  0
 14 10  2  0
  1 10  1  0
 14 15  1  0
M  END