
          11280715242D 1   1.00000     0.00000     0

 42 46  0     0  0            999 V2000
    4.4417   -7.8000    0.0000 N   0  0  0  0  0  0           0  0  0
    3.9667   -6.5542    0.0000 N   0  0  3  0  0  0           0  0  0
    5.0875   -7.2792    0.0000 C   0  0  0  0  0  0           0  0  0
    4.7917   -6.5125    0.0000 N   0  0  0  0  0  0           0  0  0
    3.7542   -7.3500    0.0000 C   0  0  0  0  0  0           0  0  0
   -0.1458   -5.1250    0.0000 C   0  0  0  0  0  0           0  0  0
    9.3542   -9.7542    0.0000 C   0  0  0  0  0  0           0  0  0
    9.3542   -8.9292    0.0000 C   0  0  0  0  0  0           0  0  0
    0.2667   -5.8375    0.0000 C   0  0  0  0  0  0           0  0  0
    8.6417  -10.1667    0.0000 C   0  0  0  0  0  0           0  0  0
    0.2667   -4.4125    0.0000 C   0  0  0  0  0  0           0  0  0
    3.5625   -5.8375    0.0000 C   0  0  0  0  0  0           0  0  0
    5.8000   -7.6917    0.0000 S   0  0  0  0  0  0           0  0  0
    1.0917   -5.8375    0.0000 C   0  0  0  0  0  0           0  0  0
    8.6417   -8.5167    0.0000 C   0  0  0  0  0  0           0  0  0
    7.9292   -9.7500    0.0000 O   0  0  0  0  0  0           0  0  0
    1.0917   -4.4042    0.0000 O   0  0  0  0  0  0           0  0  0
    1.5000   -6.5542    0.0000 C   0  0  0  0  0  0           0  0  0
    8.6417   -7.6875    0.0000 C   0  0  0  0  0  0           0  0  0
    1.4917   -5.1250    0.0000 C   0  0  0  0  0  0           0  0  0
    7.9292   -8.9250    0.0000 C   0  0  0  0  0  0           0  0  0
    2.7375   -5.8375    0.0000 C   0  0  0  0  0  0           0  0  0
    8.6417  -10.9917    0.0000 O   0  0  0  0  0  0           0  0  0
   -0.1500   -3.6917    0.0000 O   0  0  0  0  0  0           0  0  0
    6.5125   -7.2792    0.0000 C   0  0  0  0  0  0           0  0  0
    7.2250   -7.6917    0.0000 C   0  0  0  0  0  0           0  0  0
    2.3167   -6.5542    0.0000 C   0  0  0  0  0  0           0  0  0
    2.3167   -5.1167    0.0000 C   0  0  0  0  0  0           0  0  0
    7.2167   -8.5125    0.0000 C   0  0  0  0  0  0           0  0  0
    7.9292   -7.2792    0.0000 C   0  0  0  0  0  0           0  0  0
    3.1667   -7.9292    0.0000 C   0  0  0  0  0  0           0  0  0
   10.0667  -10.1667    0.0000 C   0  0  0  0  0  0           0  0  0
   -0.9708   -5.1292    0.0000 C   0  0  0  0  0  0           0  0  0
   10.0667   -8.5167    0.0000 C   0  0  0  0  0  0           0  0  0
   -0.1458   -6.5500    0.0000 C   0  0  0  0  0  0           0  0  0
    2.3750   -7.7167    0.0000 C   0  0  0  0  0  0           0  0  0
    1.7917   -8.2917    0.0000 C   0  0  0  0  0  0           0  0  0
   10.7875   -9.7542    0.0000 C   0  0  0  0  0  0           0  0  0
   10.7792   -8.9250    0.0000 C   0  0  0  0  0  0           0  0  0
   -0.9708   -6.5500    0.0000 C   0  0  0  0  0  0           0  0  0
   -1.3833   -5.8417    0.0000 C   0  0  0  0  0  0           0  0  0
    0.9917   -8.0792    0.0000 C   0  0  0  0  0  0           0  0  0
  2  5  1  0     0  0
  3  1  1  0     0  0
  4  3  2  0     0  0
  5  1  2  0     0  0
  6  9  2  0     0  0
  7  8  2  0     0  0
  8 15  1  0     0  0
  9 14  1  0     0  0
 10  7  1  0     0  0
 11  6  1  0     0  0
 12  2  1  0     0  0
 13  3  1  0     0  0
 14 20  1  0     0  0
 15 19  1  0     0  0
 16 10  2  0     0  0
 17 11  2  0     0  0
 18 27  1  0     0  0
 19 30  2  0     0  0
 20 28  2  0     0  0
 21 29  1  0     0  0
 22 12  1  0     0  0
 23 10  1  0     0  0
 24 11  1  0     0  0
 25 13  1  0     0  0
 26 25  1  0     0  0
 27 22  2  0     0  0
 28 22  1  0     0  0
 29 26  2  0     0  0
 30 26  1  0     0  0
 31  5  1  0     0  0
 32  7  1  0     0  0
 33  6  1  0     0  0
 34  8  1  0     0  0
 35  9  1  0     0  0
 36 31  1  0     0  0
 37 36  1  0     0  0
 38 39  1  0     0  0
 39 34  2  0     0  0
 40 35  2  0     0  0
 41 40  1  0     0  0
 42 37  1  0     0  0
  2  4  1  0     0  0
 18 14  2  0     0  0
 15 21  2  0     0  0
 41 33  2  0     0  0
 38 32  2  0     0  0
M  END