
          11280715492D 1   1.00000     0.00000     0

 34 37  0     0  0            999 V2000
   -4.1598  -13.6375    0.0000 N   0  0  0  0  0  0           0  0  0
   -4.1609  -14.4648    0.0000 C   0  0  0  0  0  0           0  0  0
   -3.4461  -14.8777    0.0000 C   0  0  0  0  0  0           0  0  0
   -2.7297  -14.4644    0.0000 C   0  0  0  0  0  0           0  0  0
   -2.7325  -13.6338    0.0000 C   0  0  0  0  0  0           0  0  0
   -3.4479  -13.2247    0.0000 C   0  0  0  0  0  0           0  0  0
   -2.0145  -14.8757    0.0000 C   0  0  0  0  0  0           0  0  0
   -1.1231  -15.8715    0.0000 N   0  0  0  0  0  0           0  0  0
   -0.7115  -15.1600    0.0000 C   0  0  0  0  0  0           0  0  0
   -1.2721  -14.5376    0.0000 N   0  0  0  0  0  0           0  0  0
   -1.9302  -15.6932    0.0000 C   0  0  0  0  0  0           0  0  0
   -2.5458  -16.2412    0.0000 C   0  0  0  0  0  0           0  0  0
   -3.2673  -15.8388    0.0000 C   0  0  0  0  0  0           0  0  0
   -3.9744  -16.2622    0.0000 C   0  0  0  0  0  0           0  0  0
   -3.9614  -17.0880    0.0000 C   0  0  0  0  0  0           0  0  0
   -3.2352  -17.4885    0.0000 C   0  0  0  0  0  0           0  0  0
   -2.5310  -17.0627    0.0000 C   0  0  0  0  0  0           0  0  0
   -4.6684  -17.5131    0.0000 Cl  0  0  0  0  0  0           0  0  0
   -3.2188  -18.3133    0.0000 O   0  0  0  0  0  0           0  0  0
    0.1125  -15.1583    0.0000 C   0  0  3  0  0  0           0  0  0
    0.9375  -15.1583    0.0000 C   0  0  0  0  0  0           0  0  0
    0.1116  -14.3333    0.0000 C   0  0  0  0  0  0           0  0  0
    0.1123  -15.9833    0.0000 C   0  0  0  0  0  0           0  0  0
    1.3500  -15.8728    0.0000 N   0  0  0  0  0  0           0  0  0
    2.1750  -15.8728    0.0000 C   0  0  0  0  0  0           0  0  0
    2.5875  -16.5873    0.0000 N   0  0  0  0  0  0           0  0  0
    2.5875  -15.1583    0.0000 O   0  0  0  0  0  0           0  0  0
    2.1750  -17.3017    0.0000 C   0  0  0  0  0  0           0  0  0
    1.3507  -17.2990    0.0000 C   0  0  0  0  0  0           0  0  0
    0.9382  -18.0126    0.0000 C   0  0  0  0  0  0           0  0  0
    1.3508  -18.7281    0.0000 C   0  0  0  0  0  0           0  0  0
    2.1801  -18.7254    0.0000 C   0  0  0  0  0  0           0  0  0
    2.5888  -18.0112    0.0000 C   0  0  0  0  0  0           0  0  0
    0.9393  -19.4431    0.0000 Cl  0  0  0  0  0  0           0  0  0
 16 17  1  0     0  0
 17 12  2  0     0  0
 11 12  1  0     0  0
  4  5  2  0     0  0
 15 18  1  0     0  0
  2  3  2  0     0  0
 16 19  1  0     0  0
  8  9  2  0     0  0
  9 20  1  0     0  0
  9 10  1  0     0  0
 20 21  1  0     0  0
 10  7  1  0     0  0
 20 22  1  0     0  0
  7 11  2  0     0  0
 20 23  1  0     0  0
 11  8  1  0     0  0
 21 24  1  0     0  0
  5  6  1  0     0  0
 24 25  1  0     0  0
  6  1  2  0     0  0
 25 26  1  0     0  0
 12 13  1  0     0  0
 25 27  2  0     0  0
  1  2  1  0     0  0
 26 28  1  0     0  0
 13 14  2  0     0  0
 28 29  2  0     0  0
  4  7  1  0     0  0
 29 30  1  0     0  0
 14 15  1  0     0  0
 30 31  2  0     0  0
  3  4  1  0     0  0
 31 32  1  0     0  0
 15 16  2  0     0  0
 32 33  2  0     0  0
 33 28  1  0     0  0
 31 34  1  0     0  0
M  END