
  SciTegic09261414532D

 46 50  0  0  0  0            999 V2000
   31.6657  -23.7631    0.0000 C   0  0
   32.3066  -24.2673    0.0000 N   0  0
   32.9843  -23.8136    0.0000 C   0  0
   32.7621  -23.0289    0.0000 C   0  0
   31.9473  -22.9978    0.0000 C   0  0
   31.4942  -22.3227    0.0000 C   0  0
   31.8565  -21.5890    0.0000 C   0  0
   31.4025  -20.9105    0.0000 C   0  0
   30.5863  -20.9644    0.0000 C   0  0
   30.2261  -21.7026    0.0000 C   0  0
   30.6822  -22.3781    0.0000 C   0  0
   30.8818  -23.9867    0.0000 C   0  0
   30.2960  -23.4153    0.0000 C   0  0
   29.5103  -23.6373    0.0000 C   0  0
   29.3093  -24.4303    0.0000 C   0  0
   29.9001  -25.0010    0.0000 C   0  0
   30.6835  -24.7760    0.0000 C   0  0
   33.2674  -22.3866    0.0000 C   0  0
   34.0762  -22.5030    0.0000 N   0  0
   32.9638  -21.6279    0.0000 O   0  0
   34.5815  -21.8607    0.0000 C   0  0
   35.3882  -21.9790    0.0000 C   0  0
   35.8933  -21.3375    0.0000 C   0  0
   35.5898  -20.5779    0.0000 C   0  0
   34.7763  -20.4635    0.0000 C   0  0
   34.2749  -21.1060    0.0000 C   0  0
   33.7512  -24.0957    0.0000 C   0  0
   33.8904  -24.9009    0.0000 C   0  0
   34.3790  -23.5725    0.0000 C   0  0
   32.2754  -25.0839    0.0000 C   0  0
   32.9669  -25.5193    0.0000 C   0  0
   32.9357  -26.3359    0.0000 C   0  0  2  0  0  0
   33.6272  -26.7713    0.0000 C   0  0
   32.2128  -26.7171    0.0000 O   0  0
   34.3500  -26.3901    0.0000 C   0  0  2  0  0  0
   35.0416  -26.8254    0.0000 C   0  0
   34.3813  -25.5735    0.0000 O   0  0
   35.7644  -26.4442    0.0000 C   0  0
   36.4560  -26.8796    0.0000 N   0  0
   35.7957  -25.6276    0.0000 O   0  0
   28.5233  -24.6539    0.0000 F   0  0
   36.4227  -27.6937    0.0000 C   0  0
   37.1102  -28.1288    0.0000 C   0  0
   37.8352  -27.7512    0.0000 O   0  0
   37.8685  -26.9337    0.0000 C   0  0
   37.1767  -26.4939    0.0000 C   0  0
  1  2  1  0
  2  3  1  0
  3  4  2  0
  4  5  1  0
  5  1  2  0
  6  7  2  0
  7  8  1  0
  8  9  2  0
  9 10  1  0
 10 11  2  0
 11  6  1  0
  5  6  1  0
 12 13  2  0
 13 14  1  0
 14 15  2  0
 15 16  1  0
 16 17  2  0
 17 12  1  0
  1 12  1  0
  4 18  1  0
 18 19  1  0
 18 20  2  0
 19 21  1  0
 21 22  2  0
 22 23  1  0
 23 24  2  0
 24 25  1  0
 25 26  2  0
 26 21  1  0
  3 27  1  0
 27 28  1  0
 27 29  1  0
  2 30  1  0
 30 31  1  0
 31 32  1  0
 32 33  1  0
 32 34  1  6
 33 35  1  0
 35 36  1  0
 35 37  1  1
 36 38  1  0
 38 39  1  0
 38 40  2  0
 15 41  1  0
 39 42  1  0
 39 46  1  0
 42 43  1  0
 43 44  1  0
 44 45  1  0
 45 46  1  0
M  END