
  SciTegic09261414532D

 33 37  0  0  0  0            999 V2000
   17.3057   -8.3972    0.0000 N   0  0
   18.0208   -7.9825    0.0000 C   0  0
   18.0160   -7.1524    0.0000 C   0  0
   17.3000   -6.7451    0.0000 C   0  0
   18.7369   -8.3923    0.0000 C   0  0
   18.7280   -6.7356    0.0000 C   0  0  1  0  0  0
   19.4450   -7.1438    0.0000 C   0  0
   20.1570   -6.7269    0.0000 O   0  0
   19.4501   -7.9688    0.0000 O   0  0
   18.7230   -5.9105    0.0000 O   0  0
   19.4350   -5.4936    0.0000 C   0  0
   19.4300   -4.6686    0.0000 C   0  0
   20.1520   -5.9018    0.0000 C   0  0
   20.1474   -5.0754    0.0000 C   0  0
   17.2957   -5.9202    0.0000 C   0  0
   18.0091   -5.5096    0.0000 C   0  0
   18.0051   -4.6853    0.0000 C   0  0
   16.5807   -5.5194    0.0000 C   0  0
   16.5732   -4.6964    0.0000 C   0  0
   17.2933   -4.2766    0.0000 C   0  0
   17.2897   -3.4477    0.0000 O   0  0
   16.5678   -3.0323    0.0000 C   0  0
   15.8477   -3.4521    0.0000 C   0  0
   15.8495   -4.2874    0.0000 C   0  0
   16.5904   -7.9863    0.0000 C   0  0
   16.5891   -7.1603    0.0000 C   0  0
   15.8031   -6.9062    0.0000 C   0  0
   15.8052   -8.2426    0.0000 C   0  0
   15.3222   -7.5745    0.0000 C   0  0
   14.5040   -7.6596    0.0000 C   0  0
   14.1678   -8.4121    0.0000 C   0  0
   14.6559   -9.0804    0.0000 C   0  0
   15.4723   -8.9920    0.0000 C   0  0
 25  1  1  0
  1  2  2  0
  2  3  1  0
  3  4  2  0
  4 26  1  0
  2  5  1  0
  3  6  1  0
  6  7  1  0
  7  8  1  0
  7  9  2  0
  6 10  1  6
 10 11  1  0
 11 12  1  0
 11 13  1  0
 11 14  1  0
  4 15  1  0
 15 16  2  0
 16 17  1  0
 17 20  2  0
 19 18  2  0
 18 15  1  0
 19 20  1  0
 19 24  1  0
 20 21  1  0
 21 22  1  0
 22 23  1  0
 23 24  1  0
 25 26  2  0
 26 27  1  0
 27 29  1  0
 28 25  1  0
 28 29  2  0
 29 30  1  0
 30 31  2  0
 31 32  1  0
 32 33  2  0
 33 28  1  0
M  END