
          08180812492D 1   1.00000     0.00000     0

 30 32  0     0  0            999 V2000
    0.3069   -8.1125    0.0000 C   0  0  0  0  0  0           0  0  0
    0.3057   -8.9398    0.0000 C   0  0  0  0  0  0           0  0  0
    1.0206   -9.3527    0.0000 C   0  0  0  0  0  0           0  0  0
    1.7370   -8.9394    0.0000 C   0  0  0  0  0  0           0  0  0
    1.7341   -8.1088    0.0000 C   0  0  0  0  0  0           0  0  0
    1.0188   -7.6997    0.0000 C   0  0  0  0  0  0           0  0  0
   -0.4091   -9.3518    0.0000 C   0  0  0  0  0  0           0  0  0
   -1.1232   -8.9387    0.0000 N   0  0  3  0  0  0           0  0  0
   -0.4097  -10.1768    0.0000 O   0  0  0  0  0  0           0  0  0
   -1.1232   -8.1140    0.0000 C   0  0  0  0  0  0           0  0  0
   -1.8332   -7.7011    0.0000 C   0  0  0  0  0  0           0  0  0
   -2.5504   -8.1095    0.0000 N   0  0  3  0  0  0           0  0  0
   -2.5530   -8.9354    0.0000 C   0  0  0  0  0  0           0  0  0
   -1.8385   -9.3530    0.0000 C   0  0  0  0  0  0           0  0  0
    2.4471   -7.6936    0.0000 O   0  0  0  0  0  0           0  0  0
    2.4439   -6.8686    0.0000 C   0  0  0  0  0  0           0  0  0
    3.1586   -6.4583    0.0000 C   0  0  0  0  0  0           0  0  0
    3.1559   -5.6341    0.0000 C   0  0  0  0  0  0           0  0  0
    2.4393   -5.2234    0.0000 C   0  0  0  0  0  0           0  0  0
    1.7240   -5.6430    0.0000 C   0  0  0  0  0  0           0  0  0
    1.7303   -6.4659    0.0000 C   0  0  0  0  0  0           0  0  0
    2.4521   -9.3507    0.0000 C   0  0  0  0  0  0           0  0  0
    3.1659   -8.9371    0.0000 N   0  0  0  0  0  0           0  0  0
    3.8811   -9.3485    0.0000 C   0  0  0  0  0  0           0  0  0
    2.4351   -4.3984    0.0000 S   0  0  0  0  0  0           0  0  0
    3.1475   -3.9823    0.0000 C   0  0  0  0  0  0           0  0  0
   -3.2630   -7.6937    0.0000 C   0  0  3  0  0  0           0  0  0
   -3.2592   -6.8687    0.0000 C   0  0  0  0  0  0           0  0  0
   -3.9793   -8.1030    0.0000 C   0  0  0  0  0  0           0  0  0
    3.8690   -5.2192    0.0000 C   0  0  0  0  0  0           0  0  0
  2  7  1  0     0  0
  5 15  1  0     0  0
  3  4  2  0     0  0
 15 16  1  0     0  0
  7  8  1  0     0  0
 16 17  2  0     0  0
 17 18  1  0     0  0
  7  9  2  0     0  0
 18 19  2  0     0  0
  8 10  1  0     0  0
 19 20  1  0     0  0
  4  5  1  0     0  0
 20 21  2  0     0  0
 21 16  1  0     0  0
  2  3  1  0     0  0
  4 22  1  0     0  0
  5  6  2  0     0  0
 22 23  1  0     0  0
  6  1  1  0     0  0
 23 24  1  0     0  0
  1  2  2  0     0  0
 19 25  1  0     0  0
  8 14  1  0     0  0
 25 26  1  0     0  0
 10 11  1  0     0  0
 12 27  1  0     0  0
 11 12  1  0     0  0
 27 28  1  0     0  0
 12 13  1  0     0  0
 27 29  1  0     0  0
 13 14  1  0     0  0
 18 30  1  0     0  0
M  END