
          11280714452D 1   1.00000     0.00000     0

 29 31  0     0  0            999 V2000
    1.9667   -4.0042    0.0000 C   0  0  0  0  0  0           0  0  0
    1.2500   -3.6000    0.0000 N   0  0  0  0  0  0           0  0  0
    1.8042   -4.8125    0.0000 S   0  0  0  0  0  0           0  0  0
   11.2667   -3.1250    0.0000 C   0  0  0  0  0  0           0  0  0
    2.7167   -3.6667    0.0000 C   0  0  0  0  0  0           0  0  0
    0.6417   -4.1542    0.0000 C   0  0  0  0  0  0           0  0  0
   11.1000   -3.9292    0.0000 C   0  0  0  0  0  0           0  0  0
    0.9875   -4.9042    0.0000 C   0  0  0  0  0  0           0  0  0
   10.6417   -2.5792    0.0000 C   0  0  0  0  0  0           0  0  0
    3.4292   -4.0792    0.0000 C   0  0  0  0  0  0           0  0  0
    2.7167   -2.8375    0.0000 C   0  0  0  0  0  0           0  0  0
   10.3167   -4.1917    0.0000 C   0  0  0  0  0  0           0  0  0
    4.8625   -2.4292    0.0000 O   0  0  0  0  0  0           0  0  0
    4.1417   -2.8417    0.0000 C   0  0  0  0  0  0           0  0  0
    9.8625   -2.8417    0.0000 C   0  0  0  0  0  0           0  0  0
    6.2917   -2.4292    0.0000 C   0  0  3  0  0  0           0  0  0
    5.5750   -2.8417    0.0000 C   0  0  0  0  0  0           0  0  0
    4.1417   -3.6667    0.0000 C   0  0  0  0  0  0           0  0  0
    3.4292   -2.4292    0.0000 C   0  0  0  0  0  0           0  0  0
    9.7042   -3.6500    0.0000 C   0  0  0  0  0  0           0  0  0
   12.0417   -2.8625    0.0000 O   0  0  0  0  0  0           0  0  0
    7.7167   -2.4292    0.0000 N   0  0  0  0  0  0           0  0  0
   11.7167   -4.4792    0.0000 O   0  0  0  0  0  0           0  0  0
    6.2917   -1.6042    0.0000 O   0  0  0  0  0  0           0  0  0
    7.0042   -2.8417    0.0000 C   0  0  0  0  0  0           0  0  0
    8.4292   -2.8417    0.0000 C   0  0  0  0  0  0           0  0  0
    9.1500   -2.4292    0.0000 C   0  0  0  0  0  0           0  0  0
   12.6667   -3.4042    0.0000 C   0  0  0  0  0  0           0  0  0
   11.5542   -5.2875    0.0000 C   0  0  0  0  0  0           0  0  0
  2  1  2  0     0  0
  3  1  1  0     0  0
  4  9  1  0     0  0
  5  1  1  0     0  0
  6  2  1  0     0  0
  7 12  1  0     0  0
  8  3  1  0     0  0
  9 15  2  0     0  0
 10  5  1  0     0  0
 11  5  2  0     0  0
 12 20  2  0     0  0
 13 14  1  0     0  0
 14 19  2  0     0  0
 15 27  1  0     0  0
 16 17  1  0     0  0
 17 13  1  0     0  0
 18 10  2  0     0  0
 19 11  1  0     0  0
 20 15  1  0     0  0
 21  4  1  0     0  0
 22 25  1  0     0  0
 23  7  1  0     0  0
 24 16  1  0     0  0
 25 16  1  0     0  0
 26 22  1  0     0  0
 27 26  1  0     0  0
 28 21  1  0     0  0
 29 23  1  0     0  0
  6  8  2  0     0  0
 18 14  1  0     0  0
  7  4  2  0     0  0
M  END