
  SciTegic06051313522D

 29 33  0  0  0  0            999 V2000
   20.4738   -5.2663    0.0000 C   0  0
   20.4726   -6.0858    0.0000 C   0  0
   21.1807   -6.4948    0.0000 C   0  0
   21.1789   -4.8574    0.0000 C   0  0
   21.8875   -5.2627    0.0000 C   0  0
   21.8883   -6.0817    0.0000 C   0  0
   22.5968   -6.4888    0.0000 C   0  0
   23.3051   -6.0780    0.0000 C   0  0
   23.3003   -5.2558    0.0000 C   0  0
   22.5912   -4.8525    0.0000 C   0  0
   21.3927   -4.0612    0.0000 C   0  0
   22.3737   -4.0571    0.0000 C   0  0
   22.6730   -3.1228    0.0000 C   0  0
   21.8768   -2.5494    0.0000 C   0  0
   21.0857   -3.1295    0.0000 N   0  0
   21.8726   -1.5684    0.0000 O   0  0
   23.6047   -2.8157    0.0000 N   0  0
   24.3365   -3.4691    0.0000 C   0  0
   25.2682   -3.1620    0.0000 C   0  0
   26.0000   -3.8154    0.0000 C   0  0
   26.9318   -3.5084    0.0000 C   0  0
   27.6636   -4.1617    0.0000 C   0  0
   28.5953   -3.8547    0.0000 C   0  0
   22.5982   -7.3037    0.0000 N   0  0
   21.8895   -7.7126    0.0000 C   0  0
   21.8892   -8.5262    0.0000 C   0  0
   22.5960   -8.9372    0.0000 S   0  0
   23.3047   -8.5283    0.0000 C   0  0
   23.3066   -7.7085    0.0000 C   0  0
  1  2  2  0
  2  3  1  0
  3  6  2  0
  5  4  2  0
  4  1  1  0
  5  6  1  0
  6  7  1  0
  7  8  2  0
  8  9  1  0
  9 10  2  0
 10  5  1  0
  4 11  1  0
 10 12  1  0
 11 12  1  0
 12 13  2  0
 13 14  1  0
 14 15  1  0
 15 11  2  0
 14 16  2  0
 13 17  1  0
 17 18  1  0
 18 19  1  0
 19 20  1  0
 20 21  1  0
 21 22  1  0
 22 23  1  0
 24 25  1  0
 24 29  1  0
 25 26  1  0
 26 27  1  0
 27 28  1  0
 28 29  1  0
  7 24  1  0
M  END