
          11280715272D 1   1.00000     0.00000     0

 16 17  0     0  0            999 V2000
    4.4542   -0.2167    0.0000 C   0  0  0  0  0  0           0  0  0
    4.4542    0.6083    0.0000 C   0  0  0  0  0  0           0  0  0
    3.7417   -0.6292    0.0000 N   0  0  0  0  0  0           0  0  0
    3.7417    1.0208    0.0000 C   0  0  0  0  0  0           0  0  0
    3.0375    0.6083    0.0000 N   0  0  0  0  0  0           0  0  0
    5.1667   -0.6292    0.0000 N   0  0  3  0  0  0           0  0  0
    3.0375   -0.2167    0.0000 C   0  0  3  0  0  0           0  0  0
    5.1667    1.0208    0.0000 C   0  0  0  0  0  0           0  0  0
    5.8792   -0.2167    0.0000 C   0  0  0  0  0  0           0  0  0
    5.1542   -1.4542    0.0000 C   0  0  0  0  0  0           0  0  0
    5.8792    0.6000    0.0000 C   0  0  0  0  0  0           0  0  0
    3.7417    1.8458    0.0000 O   0  0  0  0  0  0           0  0  0
    2.3167   -0.6292    0.0000 N   0  0  0  0  0  0           0  0  0
    4.4417   -1.8667    0.0000 C   0  0  3  0  0  0           0  0  0
    4.4375   -2.6917    0.0000 C   0  0  0  0  0  0           0  0  0
    3.7292   -1.4500    0.0000 C   0  0  0  0  0  0           0  0  0
  2  1  1  0     0  0
  3  1  2  0     0  0
  4  2  1  0     0  0
  5  7  1  0     0  0
  6  1  1  0     0  0
  7  3  1  0     0  0
  8  2  2  0     0  0
  9  6  1  0     0  0
 10  6  1  0     0  0
 11  9  2  0     0  0
 12  4  2  0     0  0
 13  7  1  0     0  0
 14 10  1  0     0  0
 15 14  1  0     0  0
 16 14  1  0     0  0
  8 11  1  0     0  0
  4  5  1  0     0  0
M  END