
          11280714442D 1   1.00000     0.00000     0

 24 27  0     0  0            999 V2000
    2.3625    0.3333    0.0000 C   0  0  0  0  0  0           0  0  0
    1.6542    0.7458    0.0000 C   0  0  0  0  0  0           0  0  0
    0.9417    0.3333    0.0000 C   0  0  0  0  0  0           0  0  0
    3.0750    0.7458    0.0000 C   0  0  0  0  0  0           0  0  0
    3.0750    1.5708    0.0000 C   0  0  0  0  0  0           0  0  0
    0.9417   -0.4875    0.0000 C   0  0  0  0  0  0           0  0  0
    1.6542    1.5708    0.0000 C   0  0  3  0  0  0           0  0  0
    2.3667   -0.4792    0.0000 C   0  0  3  0  0  0           0  0  0
    1.6542   -0.8917    0.0000 C   0  0  0  0  0  0           0  0  0
    2.3625    1.9833    0.0000 C   0  0  0  0  0  0           0  0  0
    0.2417    0.7375    0.0000 C   0  0  0  0  0  0           0  0  0
    3.7875    0.3333    0.0000 C   0  0  0  0  0  0           0  0  0
    0.2417   -0.8917    0.0000 C   0  0  0  0  0  0           0  0  0
    3.7792    1.9833    0.0000 C   0  0  0  0  0  0           0  0  0
    4.4917    1.5708    0.0000 C   0  0  0  0  0  0           0  0  0
   -0.4625   -0.4917    0.0000 C   0  0  0  0  0  0           0  0  0
   -0.4708    0.3333    0.0000 C   0  0  0  0  0  0           0  0  0
    4.5000    0.7458    0.0000 C   0  0  0  0  0  0           0  0  0
    3.0875   -0.8917    0.0000 C   0  0  0  0  0  0           0  0  0
    0.9375    1.9833    0.0000 C   0  0  0  0  0  0           0  0  0
   -1.1750   -0.9042    0.0000 O   0  0  0  0  0  0           0  0  0
    5.2042    1.9875    0.0000 O   0  0  0  0  0  0           0  0  0
    3.0917   -1.7167    0.0000 C   0  0  0  0  0  0           0  0  0
    0.9292    2.8083    0.0000 C   0  0  0  0  0  0           0  0  0
  2  1  2  0     0  0
  3  2  1  0     0  0
  4  1  1  0     0  0
  5  4  2  0     0  0
  6  9  1  0     0  0
  7  2  1  0     0  0
  8  1  1  0     0  0
  9  8  1  0     0  0
 10  5  1  0     0  0
 11  3  1  0     0  0
 12  4  1  0     0  0
 13  6  1  0     0  0
 14  5  1  0     0  0
 15 18  1  0     0  0
 16 13  2  0     0  0
 17 11  2  0     0  0
 18 12  2  0     0  0
 19  8  1  0     0  0
 20  7  1  0     0  0
 21 16  1  0     0  0
 22 15  1  0     0  0
 23 19  1  0     0  0
 24 20  1  0     0  0
  3  6  2  0     0  0
  7 10  1  0     0  0
 15 14  2  0     0  0
 17 16  1  0     0  0
M  END