
  SciTegic10041313212D

 26 28  0  0  0  0            999 V2000
   12.4974   -6.8667    0.0000 C   0  0
   13.2098   -7.2835    0.0000 C   0  0
   13.9235   -6.8711    0.0000 C   0  0
   13.9232   -6.0452    0.0000 C   0  0
   13.2033   -5.6334    0.0000 C   0  0
   12.4926   -6.0483    0.0000 C   0  0
   11.7760   -5.6396    0.0000 O   0  0
   11.0637   -6.0558    0.0000 C   0  0
   10.3480   -5.6453    0.0000 C   0  0
    9.6362   -6.0609    0.0000 C   0  0
    9.6402   -6.8868    0.0000 C   0  0
   10.3619   -7.2953    0.0000 C   0  0
   11.0707   -6.8773    0.0000 C   0  0
    8.9284   -7.3040    0.0000 O   0  0
   14.6381   -7.2832    0.0000 C   0  0
   15.3525   -6.8704    0.0000 C   0  0
   16.1058   -7.2005    0.0000 C   0  0
   16.6575   -6.5872    0.0000 N   0  0
   16.2447   -5.8728    0.0000 C   0  0
   15.4378   -6.0448    0.0000 N   0  0
   16.5799   -5.1190    0.0000 O   0  0
   16.2798   -8.0070    0.0000 O   0  0
   13.1996   -4.8084    0.0000 I   0  0
   11.7829   -7.2793    0.0000 I   0  0
    8.9197   -5.6518    0.0000 C   0  0
    8.2073   -6.0677    0.0000 C   0  0
 12 13  2  0
 13  8  1  0
  1  2  2  0
 11 14  1  0
  6  7  1  0
  3 15  1  0
  3  4  2  0
 16 15  1  0
 16 17  1  0
  7  8  1  0
  8  9  2  0
  4  5  1  0
 17 18  1  0
 18 19  1  0
 19 20  1  0
 20 16  1  0
  9 10  1  0
 19 21  2  0
  2  3  1  0
 17 22  2  0
 10 11  2  0
  5 23  1  0
  5  6  2  0
  1 24  1  0
 11 12  1  0
 10 25  1  0
  6  1  1  0
 25 26  1  0
M  END