
  SciTegic01161211252D

 40 46  0  0  0  0            999 V2000
   19.2081   -1.1037    0.0000 N   0  0
   18.5194   -1.5497    0.0000 C   0  0
   18.5648   -2.3700    0.0000 C   0  0
   19.2994   -2.7416    0.0000 C   0  0
   13.5622   -0.1609    0.0000 N   0  0
   14.9886   -0.1680    0.0000 C   0  0
   14.2773    0.2494    0.0000 C   0  0
   12.1884    1.5323    0.0000 C   0  0
   12.8891    1.0964    0.0000 C   0  0
   12.8654    0.2696    0.0000 C   0  0
   15.7236    0.1879    0.0000 C   0  0
   16.4243   -0.2440    0.0000 N   0  0
   15.7430    1.0146    0.0000 O   0  0
   16.3963   -1.0672    0.0000 C   0  0
   17.0929   -1.5028    0.0000 C   0  0
   17.8195   -1.1114    0.0000 N   0  0
   17.8492   -0.2836    0.0000 C   0  0
   17.1441    0.1527    0.0000 C   0  0
   13.6134    1.4914    0.0000 C   0  0
   11.4641    1.1373    0.0000 C   0  0
   10.7628    1.5754    0.0000 C   0  0
   10.7207   -0.0784    0.0000 C   0  0
   11.4457    0.3142    0.0000 C   0  0
   13.5580   -0.9880    0.0000 C   0  0
   14.9844   -0.9952    0.0000 C   0  0
   14.2663   -1.4064    0.0000 C   0  0
   14.2618   -2.2279    0.0000 C   0  0
   14.9737   -2.6444    0.0000 C   0  0
   15.6920   -2.2374    0.0000 C   0  0
   15.6982   -1.4097    0.0000 C   0  0
   10.0179    0.3472    0.0000 C   0  0
   10.0383    1.1792    0.0000 C   0  0
    9.2533    1.4557    0.0000 O   0  0
    8.7477    0.7946    0.0000 C   0  0
    9.2204    0.1095    0.0000 O   0  0
   19.9346   -1.4623    0.0000 N   0  0
   19.9897   -2.2856    0.0000 C   0  0
   20.7898   -2.4876    0.0000 N   0  0
   21.2291   -1.7891    0.0000 C   0  0
   20.7006   -1.1556    0.0000 C   0  0
 20 21  2  0
 21 32  1  0
  5  7  1  0
 31 22  1  0
  9 10  1  0
 22 23  2  0
 23 20  1  0
 10  5  1  0
 12 18  1  0
 26 24  1  0
 14 15  1  0
 15 16  1  0
 25 26  1  0
 16 17  1  0
 17 18  1  0
 25  6  1  0
  6 11  1  0
  6  7  1  0
 25 30  1  0
 26 27  1  0
 27 28  1  0
 28 29  1  0
 29 30  1  0
 11 12  1  0
  5 24  1  0
 11 13  2  0
 31 32  2  0
  1  2  2  0
  3  4  2  0
  4 37  1  0
 36  1  1  0
 32 33  1  0
 33 34  1  0
 34 35  1  0
 35 31  1  0
 16  2  1  0
 36 37  1  0
  2  3  1  0
 12 14  1  0
  9 19  1  0
  8 20  1  0
  8  9  1  0
 37 38  2  0
 38 39  1  0
 39 40  2  0
 40 36  1  0
M  END