
  SciTegic01161211242D

 35 37  0  0  0  0            999 V2000
   -2.3014  -15.0916    0.0000 C   0  0
   -2.3026  -15.9190    0.0000 C   0  0
   -1.5878  -16.3319    0.0000 C   0  0
   -0.8713  -15.9185    0.0000 C   0  0
   -0.8742  -15.0880    0.0000 C   0  0
   -1.5896  -14.6789    0.0000 C   0  0
   -0.1613  -14.6728    0.0000 C   0  0
    0.5547  -15.0826    0.0000 N   0  0
    1.2677  -14.6674    0.0000 C   0  0
    0.5579  -15.9076    0.0000 C   0  0
    1.9837  -15.0772    0.0000 C   0  0
    1.2645  -13.8424    0.0000 O   0  0
    1.9868  -15.9022    0.0000 C   0  0
    2.6966  -14.6620    0.0000 C   0  0
    1.9792  -14.2500    0.0000 C   0  0
    3.4126  -15.0718    0.0000 C   0  0
    4.1255  -14.6567    0.0000 N   0  0
    4.8387  -15.0678    0.0000 C   0  0
    5.5495  -14.6561    0.0000 C   0  0
    5.5507  -13.8308    0.0000 C   0  0
    4.8348  -13.4188    0.0000 C   0  0
    4.1178  -13.8321    0.0000 C   0  0
    6.2652  -13.4183    0.0000 N   0  0
    6.9245  -13.9091    0.0000 C   0  0
    7.5982  -13.4328    0.0000 C   0  0
    6.9148  -14.7341    0.0000 O   0  0
    1.2738  -16.3151    0.0000 C   0  0
    1.2766  -17.1393    0.0000 C   0  0
    1.9931  -17.5499    0.0000 C   0  0
    2.7084  -17.1303    0.0000 C   0  0
    2.7021  -16.3074    0.0000 C   0  0
    0.5635  -17.5541    0.0000 Cl  0  0
    1.9973  -18.3749    0.0000 Cl  0  0
    6.2211  -12.5944    0.0000 C   0  0
   -1.5920  -13.8539    0.0000 Cl  0  0
 17 18  1  0
  8  9  1  0
  4  5  1  0
  8 10  1  0
  2  3  1  0
 17 22  1  0
 18 19  1  0
 19 20  1  0
 20 21  1  0
 21 22  1  0
  9 11  1  0
 20 23  1  0
 23 24  1  0
  5  6  2  0
  9 12  2  0
 24 25  1  0
  6  1  1  0
 24 26  2  0
 11 13  1  0
 13 27  2  0
  1  2  2  0
 27 28  1  0
 11 14  1  0
 28 29  2  0
  5  7  1  0
 29 30  1  0
 11 15  1  0
 30 31  2  0
 31 13  1  0
  3  4  2  0
 28 32  1  0
 14 16  1  0
 29 33  1  0
  7  8  1  0
 23 34  1  0
 16 17  1  0
  6 35  1  0
M  END