
          03140815512D 1   1.00000     0.00000     0

 18 19  0     0  0            999 V2000
   18.2417  -15.3833    0.0000 N   0  0  3  0  0  0           0  0  0
   18.2417  -16.2083    0.0000 C   0  0  0  0  0  0           0  0  0
   18.9537  -16.6167    0.0000 C   0  0  0  0  0  0           0  0  0
   19.6657  -16.2083    0.0000 O   0  0  0  0  0  0           0  0  0
   19.6657  -15.3833    0.0000 C   0  0  0  0  0  0           0  0  0
   18.9537  -14.9667    0.0000 C   0  0  0  0  0  0           0  0  0
   17.5260  -14.9729    0.0000 C   0  0  0  0  0  0           0  0  0
   17.5236  -14.1479    0.0000 O   0  0  0  0  0  0           0  0  0
   16.8127  -15.3875    0.0000 C   0  0  0  0  0  0           0  0  0
   16.0971  -14.9771    0.0000 O   0  0  0  0  0  0           0  0  0
   15.3838  -15.3917    0.0000 C   0  0  0  0  0  0           0  0  0
   14.6688  -14.9780    0.0000 C   0  0  0  0  0  0           0  0  0
   13.9561  -15.3919    0.0000 C   0  0  0  0  0  0           0  0  0
   13.9580  -16.2178    0.0000 C   0  0  0  0  0  0           0  0  0
   14.6787  -16.6280    0.0000 C   0  0  0  0  0  0           0  0  0
   15.3886  -16.2117    0.0000 C   0  0  0  0  0  0           0  0  0
   13.2453  -16.6333    0.0000 O   0  0  0  0  0  0           0  0  0
   12.5291  -16.2238    0.0000 C   0  0  0  0  0  0           0  0  0
  7  9  1  0     0  0
  2  3  1  0     0  0
  9 10  1  0     0  0
  3  4  1  0     0  0
 10 11  1  0     0  0
  4  5  1  0     0  0
 11 12  2  0     0  0
  5  6  1  0     0  0
 12 13  1  0     0  0
 13 14  2  0     0  0
  1  7  1  0     0  0
 14 15  1  0     0  0
  1  2  1  0     0  0
 15 16  2  0     0  0
 16 11  1  0     0  0
  7  8  2  0     0  0
 14 17  1  0     0  0
  1  6  1  0     0  0
 17 18  1  0     0  0
M  END