
  SciTegic12231509382D

 43 47  0  0  0  0            999 V2000
    8.0069   -6.7598    0.0000 C   0  0
    7.7439   -7.5379    0.0000 C   0  0
    6.9194   -7.5309    0.0000 N   0  0
    6.6699   -6.7465    0.0000 C   0  0
    7.3519   -6.2708    0.0000 N   0  0
    5.8907   -6.4878    0.0000 O   0  0
    7.3519   -5.4418    0.0000 C   0  0
    6.6412   -5.0323    0.0000 C   0  0
    5.9237   -5.4417    0.0000 C   0  0
    5.2089   -5.0292    0.0000 N   0  0
    5.2165   -4.1907    0.0000 C   0  0
    4.5129   -3.7764    0.0000 C   0  0
    3.7985   -4.1781    0.0000 N   0  0
    3.7883   -5.0038    0.0000 C   0  0
    4.4988   -5.4251    0.0000 C   0  0
    3.0844   -3.7665    0.0000 C   0  0
    3.1037   -2.9458    0.0000 C   0  0
    2.3931   -2.5208    0.0000 C   0  0
    1.6713   -2.9255    0.0000 C   0  0
    1.6669   -3.7505    0.0000 C   0  0
    2.3743   -4.1674    0.0000 C   0  0
    6.6412   -4.2095    0.0000 O   0  0
    8.4469   -6.0628    0.0000 C   0  0
    9.2795   -6.1042    0.0000 C   0  0
    9.7275   -5.4034    0.0000 C   0  0
    9.3437   -4.6645    0.0000 C   0  0
    8.5086   -4.6288    0.0000 C   0  0
    8.0661   -5.3309    0.0000 C   0  0
    8.7087   -7.1830    0.0000 C   0  0
    8.6897   -8.0099    0.0000 C   0  0
    9.3969   -8.4367    0.0000 C   0  0
   10.1222   -8.0343    0.0000 C   0  0
   10.1324   -7.2066    0.0000 C   0  0
    9.4289   -6.7818    0.0000 C   0  0
    8.2254   -8.2061    0.0000 O   0  0
    6.5370   -8.2587    0.0000 C   0  0
    6.9402   -8.9765    0.0000 C   0  0
    6.5216   -9.6864    0.0000 O   0  0
    7.7662   -8.9833    0.0000 O   0  0
    5.6998   -9.6790    0.0000 C   0  0
    5.2806  -10.3849    0.0000 C   0  0
    3.8135   -2.5343    0.0000 O   0  0
    4.5298   -2.9453    0.0000 C   0  0
 20 21  2  0
 21 16  1  0
 10 11  1  0
  8 22  1  0
  5  1  1  0
  1 23  1  0
  1  2  1  0
 23 24  2  0
  4  6  2  0
 24 25  1  0
 25 26  2  0
  5  7  1  0
 26 27  1  0
 10 15  1  0
 27 28  2  0
 28 23  1  0
 11 12  1  0
  1 29  1  0
 12 13  1  0
 29 30  2  0
 13 14  1  0
 30 31  1  0
 14 15  1  0
 31 32  2  0
  2  3  1  0
 32 33  1  0
 13 16  1  0
 33 34  2  0
 34 29  1  0
  7  8  1  0
  2 35  2  0
 16 17  2  0
  3 36  1  0
  3  4  1  0
 36 37  1  0
 17 18  1  0
 37 38  1  0
  8  9  1  0
 37 39  2  0
 18 19  2  0
 38 40  1  0
  4  5  1  0
 40 41  1  0
 19 20  1  0
 17 42  1  0
  9 10  1  0
 42 43  1  0
M  END