
  SciTegic03161210572D

 42 44  0  0  0  0            999 V2000
    2.0875   -9.9250    0.0000 F   0  0
    2.5042  -10.6417    0.0000 C   0  0
    2.9165   -9.9225    0.0000 F   0  0
    2.1958  -11.7667    0.0000 F   0  0
    1.7875  -11.0542    0.0000 C   0  0
    1.3746  -11.7640    0.0000 F   0  0
    0.6583   -9.9250    0.0000 F   0  0
    1.0750  -10.6417    0.0000 C   0  0
    1.4873   -9.9225    0.0000 F   0  0
    0.7667  -11.7667    0.0000 F   0  0
    0.3583  -11.0542    0.0000 C   0  0
   -0.0545  -11.7640    0.0000 F   0  0
   -0.7708   -9.9250    0.0000 F   0  0
   -0.3542  -10.6417    0.0000 C   0  0
    0.0582   -9.9225    0.0000 F   0  0
   -0.6625  -11.7667    0.0000 F   0  0
   -1.0708  -11.0542    0.0000 C   0  0
   -1.4837  -11.7640    0.0000 F   0  0
   -2.4958  -11.0583    0.0000 N   0  0
   -1.7814  -10.6458    0.0000 C   0  0
   -1.7814   -9.8208    0.0000 O   0  0
    3.2199  -11.0583    0.0000 C   0  0
    3.9344  -10.6458    0.0000 N   0  0
    3.2199  -11.8833    0.0000 O   0  0
    4.6489  -11.0583    0.0000 O   0  0
   -3.2103  -10.6458    0.0000 C   0  0
   -3.2053   -9.8198    0.0000 C   0  0
   -3.9190   -9.4073    0.0000 C   0  0
   -4.6344   -9.8199    0.0000 C   0  0
   -4.6318  -10.6492    0.0000 C   0  0
   -3.9176  -11.0578    0.0000 C   0  0
   -5.3494   -9.4083    0.0000 C   0  0
   -5.5397   -8.6015    0.0000 C   0  0
   -6.3635   -8.5288    0.0000 N   0  0
   -6.6905   -9.2880    0.0000 N   0  0
   -6.0627   -9.8297    0.0000 N   0  0
   -6.7893   -7.8213    0.0000 C   0  0
   -6.3897   -7.1016    0.0000 C   0  0
   -6.8161   -6.3946    0.0000 C   0  0
   -7.6337   -6.4076    0.0000 C   0  0
   -8.0312   -7.1336    0.0000 C   0  0
   -7.6092   -7.8379    0.0000 C   0  0
 14 13  1  0
  2 22  1  0
 15 14  1  0
 22 23  1  0
  9  8  1  0
 22 24  2  0
  5  4  1  0
 23 25  1  0
  6  5  1  0
 19 26  1  0
 17 16  1  0
 26 27  2  0
 18 17  1  0
 27 28  1  0
 28 29  2  0
 11 10  1  0
 29 30  1  0
 12 11  1  0
 30 31  2  0
 31 26  1  0
  2  1  1  0
 29 32  1  0
 32 33  2  0
  3  2  1  0
 19 20  1  0
 20 17  1  0
  8  7  1  0
 33 34  1  0
 34 35  1  0
 35 36  2  0
 36 32  1  0
 20 21  2  0
 34 37  1  0
 17 14  1  0
 37 38  2  0
 14 11  1  0
 38 39  1  0
 11  8  1  0
 39 40  2  0
  8  5  1  0
 40 41  1  0
  5  2  1  0
 41 42  2  0
 42 37  1  0
M  END