
          02060813482D 1   1.00000     0.00000     0

 46 50  0     1  0            999 V2000
   10.5099  -22.2664    0.0000 N   0  0  0  0  0  0           0  0  0
   11.2243  -21.8539    0.0000 C   0  0  2  0  0  0           0  0  0
   11.9388  -22.2664    0.0000 C   0  0  0  0  0  0           0  0  0
   11.2243  -21.0288    0.0000 C   0  0  0  0  0  0           0  0  0
   10.5099  -20.6163    0.0000 C   0  0  0  0  0  0           0  0  0
   10.5126  -19.7902    0.0000 C   0  0  0  0  0  0           0  0  0
    9.7989  -19.3778    0.0000 C   0  0  0  0  0  0           0  0  0
    9.0834  -19.7903    0.0000 C   0  0  0  0  0  0           0  0  0
    9.0861  -20.6196    0.0000 C   0  0  0  0  0  0           0  0  0
    9.8003  -21.0283    0.0000 C   0  0  0  0  0  0           0  0  0
    9.8030  -21.8533    0.0000 C   0  0  0  0  0  0           0  0  0
   11.2278  -19.3790    0.0000 C   0  0  0  0  0  0           0  0  0
    8.3684  -19.3788    0.0000 O   0  0  0  0  0  0           0  0  0
   11.9388  -23.0914    0.0000 O   0  0  0  0  0  0           0  0  0
   12.6532  -21.8539    0.0000 N   0  0  3  0  0  0           0  0  0
   13.3621  -22.2688    0.0000 C   0  0  1  0  0  0           0  0  0
   14.0745  -21.8598    0.0000 C   0  0  0  0  0  0           0  0  0
   12.6459  -21.0304    0.0000 C   0  0  0  0  0  0           0  0  0
   13.3644  -20.6197    0.0000 C   0  0  0  0  0  0           0  0  0
   14.0758  -21.0341    0.0000 C   0  0  0  0  0  0           0  0  0
   14.7881  -20.6252    0.0000 C   0  0  0  0  0  0           0  0  0
   14.7904  -19.8023    0.0000 C   0  0  0  0  0  0           0  0  0
   14.0744  -19.3899    0.0000 C   0  0  0  0  0  0           0  0  0
   13.3649  -19.8010    0.0000 C   0  0  0  0  0  0           0  0  0
   13.3587  -23.0938    0.0000 C   0  0  0  0  0  0           0  0  0
   12.6425  -23.5033    0.0000 O   0  0  0  0  0  0           0  0  0
   14.0714  -23.5094    0.0000 N   0  0  0  0  0  0           0  0  0
   13.3562  -21.4413    0.0000 H   0  0  0  0  0  0           0  0  0
   14.7876  -23.0998    0.0000 C   0  0  0  0  0  0           0  0  0
   15.5003  -23.5153    0.0000 C   0  0  0  0  0  0           0  0  0
   16.2166  -23.1059    0.0000 C   0  0  0  0  0  0           0  0  0
   16.9294  -23.5214    0.0000 C   0  0  0  0  0  0           0  0  0
   17.6456  -23.1118    0.0000 C   0  0  2  0  0  0           0  0  0
   17.6490  -22.2868    0.0000 N   0  0  0  0  0  0           0  0  0
   18.3582  -23.5275    0.0000 C   0  0  0  0  0  0           0  0  0
   18.3699  -24.3508    0.0000 N   0  0  0  0  0  0           0  0  0
   19.1400  -23.2605    0.0000 N   0  0  0  0  0  0           0  0  0
   19.6339  -23.9212    0.0000 C   0  0  0  0  0  0           0  0  0
   19.1588  -24.5936    0.0000 C   0  0  0  0  0  0           0  0  0
   19.5035  -25.3389    0.0000 C   0  0  0  0  0  0           0  0  0
   20.3232  -25.4134    0.0000 C   0  0  0  0  0  0           0  0  0
   20.7967  -24.7362    0.0000 C   0  0  0  0  0  0           0  0  0
   20.4493  -23.9935    0.0000 C   0  0  0  0  0  0           0  0  0
   18.3652  -21.8774    0.0000 C   0  0  0  0  0  0           0  0  0
   18.3688  -21.0524    0.0000 C   0  0  0  0  0  0           0  0  0
   19.0780  -22.2929    0.0000 O   0  0  0  0  0  0           0  0  0
 10 11  1  0     0  0
 22 23  1  0     0  0
  5  6  2  0     0  0
 23 24  2  0     0  0
 24 19  1  0     0  0
  6 12  1  0     0  0
 16 25  1  0     0  0
  1  2  1  0     0  0
 25 26  2  0     0  0
  8 13  1  0     0  0
 25 27  1  0     0  0
  6  7  1  0     0  0
 16 28  1  6     0  0
  3 14  2  0     0  0
 27 29  1  0     0  0
  2  4  1  1     0  0
 29 30  1  0     0  0
  3 15  1  0     0  0
 30 31  1  0     0  0
 15 16  1  0     0  0
 31 32  1  0     0  0
  7  8  2  0     0  0
 32 33  1  0     0  0
 33 34  1  6     0  0
  8  9  1  0     0  0
 33 35  1  0     0  0
 35 36  2  0     0  0
 15 18  1  0     0  0
 16 17  1  0     0  0
 36 39  1  0     0  0
 38 37  1  0     0  0
 37 35  1  0     0  0
 17 20  1  0     0  0
 19 18  1  0     0  0
 38 39  2  0     0  0
  4  5  1  0     0  0
 39 40  1  0     0  0
  9 10  2  0     0  0
 40 41  2  0     0  0
 19 20  2  0     0  0
 41 42  1  0     0  0
 10  5  1  0     0  0
 42 43  2  0     0  0
 43 38  1  0     0  0
 20 21  1  0     0  0
 34 44  1  0     0  0
  2  3  1  0     0  0
 44 45  1  0     0  0
 21 22  2  0     0  0
 44 46  2  0     0  0
M  END