
          11280715462D 1   1.00000     0.00000     0

 28 29  0     1  0            999 V2000
    5.7917   -3.7250    0.0000 C   0  0  0  0  0  0           0  0  0
    6.5042   -3.3125    0.0000 N   0  0  3  0  0  0           0  0  0
    5.0750   -3.3125    0.0000 C   0  0  2  0  0  0           0  0  0
    5.7792   -1.2375    0.0000 P   0  0  3  0  0  0           0  0  0
    7.2167   -3.7250    0.0000 C   0  0  2  0  0  0           0  0  0
    5.0750   -2.4792    0.0000 C   0  0  2  0  0  0           0  0  0
    4.3625   -3.7250    0.0000 N   0  0  0  0  0  0           0  0  0
    7.3042   -4.5500    0.0000 C   0  0  0  0  0  0           0  0  0
    5.7875   -2.0667    0.0000 O   0  0  0  0  0  0           0  0  0
    4.3542   -4.5542    0.0000 C   0  0  0  0  0  0           0  0  0
    5.7917   -4.5542    0.0000 O   0  0  0  0  0  0           0  0  0
    6.6125   -1.2375    0.0000 O   0  0  0  0  0  0           0  0  0
    6.6292   -5.0292    0.0000 O   0  0  0  0  0  0           0  0  0
    5.0667   -4.9750    0.0000 O   0  0  0  0  0  0           0  0  0
    4.9625   -1.2417    0.0000 O   0  0  0  0  0  0           0  0  0
    5.7875   -0.4167    0.0000 O   0  0  0  0  0  0           0  0  0
    3.6292   -4.9625    0.0000 C   0  0  0  0  0  0           0  0  0
    8.0625   -4.8917    0.0000 N   0  0  0  0  0  0           0  0  0
    6.6792   -2.5042    0.0000 C   0  0  0  0  0  0           0  0  0
    2.9042   -4.5375    0.0000 C   0  0  0  0  0  0           0  0  0
    7.8375   -3.1667    0.0000 C   0  0  0  0  0  0           0  0  0
    4.3542   -2.0667    0.0000 C   0  0  0  0  0  0           0  0  0
    7.4917   -2.4167    0.0000 C   0  0  0  0  0  0           0  0  0
    2.9042   -3.7042    0.0000 C   0  0  0  0  0  0           0  0  0
    2.1917   -4.9500    0.0000 C   0  0  0  0  0  0           0  0  0
    1.4792   -4.5375    0.0000 C   0  0  0  0  0  0           0  0  0
    2.1917   -3.2917    0.0000 C   0  0  0  0  0  0           0  0  0
    1.4792   -3.7042    0.0000 C   0  0  0  0  0  0           0  0  0
  2  1  1  0     0  0
  3  1  1  1     0  0
  4  9  1  0     0  0
  5  2  1  0     0  0
  6  3  1  0     0  0
  7  3  1  0     0  0
  5  8  1  1     0  0
  6  9  1  1     0  0
 10  7  1  0     0  0
 11  1  2  0     0  0
 12  4  2  0     0  0
 13  8  2  0     0  0
 14 10  2  0     0  0
 15  4  1  0     0  0
 16  4  1  0     0  0
 17 10  1  0     0  0
 18  8  1  0     0  0
 19  2  1  0     0  0
 20 17  1  0     0  0
 21  5  1  0     0  0
 22  6  1  0     0  0
 23 19  1  0     0  0
 24 20  2  0     0  0
 25 20  1  0     0  0
 26 25  2  0     0  0
 27 24  1  0     0  0
 28 26  1  0     0  0
 23 21  1  0     0  0
 28 27  2  0     0  0
M  END