
  CDK    9/16/09,10:4

 34 37  0  0  0  0  0  0  0  0999 V2000
    0.7003   -3.1756    0.0000 C   0  0  0  0  0  0  0  0  0  0  0  0
    1.5296   -3.1567    0.0000 C   0  0  0  0  0  0  0  0  0  0  0  0
    1.9257   -2.4329    0.0000 C   0  0  0  0  0  0  0  0  0  0  0  0
    1.4969   -1.7235    0.0000 C   0  0  0  0  0  0  0  0  0  0  0  0
    0.6675   -1.7424    0.0000 C   0  0  0  0  0  0  0  0  0  0  0  0
    0.2670   -2.4708    0.0000 N   0  0  0  0  0  0  0  0  0  0  0  0
    0.9024   -2.7950    0.0000 C   0  0  0  0  0  0  0  0  0  0  0  0
    1.2258   -2.0999    0.0000 C   0  0  0  0  0  0  0  0  0  0  0  0
   -0.5577   -2.4982    0.0000 C   0  0  0  0  0  0  0  0  0  0  0  0
    2.7507   -2.4228    0.0000 C   0  0  0  0  0  0  0  0  0  0  0  0
    3.5756   -2.4085    0.0000 C   0  0  0  0  0  0  0  0  0  0  0  0
    2.7629   -3.2477    0.0000 O   0  0  0  0  0  0  0  0  0  0  0  0
    2.7385   -1.5979    0.0000 C   0  0  0  0  0  0  0  0  0  0  0  0
    3.4475   -1.1776    0.0000 C   0  0  0  0  0  0  0  0  0  0  0  0
    3.4358   -0.3534    0.0000 C   0  0  0  0  0  0  0  0  0  0  0  0
    2.7147    0.0493    0.0000 C   0  0  0  0  0  0  0  0  0  0  0  0
    2.0041   -0.3782    0.0000 C   0  0  0  0  0  0  0  0  0  0  0  0
    2.0194   -1.2009    0.0000 C   0  0  0  0  0  0  0  0  0  0  0  0
    3.9985   -3.1181    0.0000 C   0  0  0  0  0  0  0  0  0  0  0  0
    4.8226   -3.1042    0.0000 C   0  0  0  0  0  0  0  0  0  0  0  0
    5.2236   -2.3822    0.0000 C   0  0  0  0  0  0  0  0  0  0  0  0
    4.7944   -1.6727    0.0000 C   0  0  0  0  0  0  0  0  0  0  0  0
    3.9716   -1.6900    0.0000 C   0  0  0  0  0  0  0  0  0  0  0  0
   -0.9937   -1.7978    0.0000 C   0  0  0  0  0  0  0  0  0  0  0  0
   -1.8183   -1.8253    0.0000 O   0  0  0  0  0  0  0  0  0  0  0  0
   -2.2543   -1.1250    0.0000 C   0  0  0  0  0  0  0  0  0  0  0  0
   -3.0788   -1.1525    0.0000 C   0  0  0  0  0  0  0  0  0  0  0  0
   -3.5112   -0.4508    0.0000 C   0  0  0  0  0  0  0  0  0  0  0  0
   -4.3350   -0.4778    0.0000 C   0  0  0  0  0  0  0  0  0  0  0  0
   -4.7243   -1.2062    0.0000 C   0  0  0  0  0  0  0  0  0  0  0  0
   -4.2837   -1.9087    0.0000 C   0  0  0  0  0  0  0  0  0  0  0  0
   -3.4615   -1.8781    0.0000 C   0  0  0  0  0  0  0  0  0  0  0  0
   -5.5489   -1.2348    0.0000 Cl  0  0  0  0  0  0  0  0  0  0  0  0
   -0.6234    0.9625    0.0000 Br  0  0  0  0  0  0  0  0  0  0  0  0
 15 16  2  0  0  0  0 
 16 17  1  0  0  0  0 
  7  8  1  0  0  0  0 
 17 18  2  0  0  0  0 
 18 13  1  0  0  0  0 
  3  8  1  0  0  0  0 
 11 19  2  0  0  0  0 
  1  2  1  0  0  0  0 
 19 20  1  0  0  0  0 
  6  9  1  0  0  0  0 
 20 21  2  0  0  0  0 
  1  6  1  0  0  0  0 
 21 22  1  0  0  0  0 
  3 10  1  0  0  0  0 
 22 23  2  0  0  0  0 
 23 11  1  0  0  0  0 
  2  3  1  0  0  0  0 
  9 24  1  0  0  0  0 
 10 11  1  0  0  0  0 
 24 25  1  0  0  0  0 
  3  4  1  0  0  0  0 
 25 26  1  0  0  0  0 
 10 12  1  0  0  0  0 
 26 27  1  0  0  0  0 
  4  5  1  0  0  0  0 
 27 28  2  0  0  0  0 
 10 13  1  0  0  0  0 
 28 29  1  0  0  0  0 
  5  6  1  0  0  0  0 
 29 30  2  0  0  0  0 
 13 14  2  0  0  0  0 
 30 31  1  0  0  0  0 
 31 32  2  0  0  0  0 
 32 27  1  0  0  0  0 
 14 15  1  0  0  0  0 
 30 33  1  0  0  0  0 
  6  7  1  0  0  0  0 
M  CHG  1   6   1
M  CHG  1  34  -1
M  END