
          11280714442D 1   1.00000     0.00000     0

 19 19  0     0  0            999 V2000
   10.8250   -0.4250    0.0000 C   0  0  0  0  0  0           0  0  0
   10.1292   -0.8667    0.0000 C   0  0  0  0  0  0           0  0  0
   11.5542   -0.8042    0.0000 O   0  0  0  0  0  0           0  0  0
   14.4125   -0.6750    0.0000 N   0  0  0  0  0  0           0  0  0
    9.3917   -0.4875    0.0000 C   0  0  0  0  0  0           0  0  0
   10.7875    0.3958    0.0000 O   0  0  0  0  0  0           0  0  0
   15.1042   -0.2292    0.0000 C   0  0  3  0  0  0           0  0  0
   12.9792   -0.7417    0.0000 C   0  0  3  0  0  0           0  0  0
    8.7042   -0.9375    0.0000 C   0  0  0  0  0  0           0  0  0
   12.2500   -0.3625    0.0000 C   0  0  0  0  0  0           0  0  0
   13.6792   -0.2917    0.0000 C   0  0  0  0  0  0           0  0  0
    7.9667   -0.5542    0.0000 N   0  0  0  0  0  0           0  0  0
   13.0167   -1.5667    0.0000 O   0  0  0  0  0  0           0  0  0
   10.1667   -1.6917    0.0000 C   0  0  0  0  0  0           0  0  0
    9.4792   -2.1375    0.0000 C   0  0  0  0  0  0           0  0  0
   15.0667    0.5958    0.0000 C   0  0  0  0  0  0           0  0  0
   15.6625    0.3750    0.0000 C   0  0  0  0  0  0           0  0  0
   15.8375   -0.6125    0.0000 C   0  0  0  0  0  0           0  0  0
    8.7417   -1.7542    0.0000 C   0  0  0  0  0  0           0  0  0
  2  1  1  0     0  0
  3  1  1  0     0  0
  4 11  1  0     0  0
  5  2  2  0     0  0
  6  1  2  0     0  0
  7  4  1  0     0  0
  8 10  1  0     0  0
  9  5  1  0     0  0
 10  3  1  0     0  0
 11  8  1  0     0  0
 12  9  1  0     0  0
 13  8  1  0     0  0
 14  2  1  0     0  0
 15 14  2  0     0  0
 16  7  1  0     0  0
 17  7  1  0     0  0
 18  7  1  0     0  0
 19 15  1  0     0  0
 19  9  2  0     0  0
M  END