
  SciTegic01181116592D

 89 99  0  0  0  0            999 V2000
    7.1687  -15.4392    0.0000 O   0  0
    7.1687  -13.7943    0.0000 C   0  0
    4.9954  -15.4055    0.0000 C   0  0
    5.8433  -15.5709    0.0000 C   0  0
    6.4590  -15.0321    0.0000 C   0  0  2  0  0  0
    5.8328  -13.7063    0.0000 O   0  0
    6.4577  -14.2091    0.0000 C   0  0  1  0  0  0
    9.8739  -15.0354    0.0000 C   0  0  1  0  0  0
    8.4648  -13.6244    0.0000 O   0  0
    7.8786  -14.2098    0.0000 C   0  0  1  0  0  0
    7.8780  -15.0340    0.0000 C   0  0  2  0  0  0
    8.4635  -15.6202    0.0000 C   0  0
    9.2876  -15.6209    0.0000 C   0  0
    4.6230  -14.6467    0.0000 C   0  0  1  0  0  0
    4.9833  -13.8986    0.0000 C   0  0  1  0  0  0
    4.5183  -13.2164    0.0000 C   0  0
    3.7977  -14.7125    0.0000 O   0  0
    3.3304  -14.0240    0.0000 C   0  0  1  0  0  0
    3.6904  -13.2718    0.0000 C   0  0  1  0  0  0
    3.2215  -12.5876    0.0000 O   0  0
    2.5014  -14.0921    0.0000 C   0  0
    2.0305  -13.4018    0.0000 C   0  0  1  0  0  0
    2.3896  -12.6462    0.0000 C   0  0  1  0  0  0
    1.9174  -11.9611    0.0000 C   0  0
    1.1990  -13.4724    0.0000 O   0  0
    0.7246  -12.7812    0.0000 C   0  0  1  0  0  0
    1.0851  -12.0218    0.0000 C   0  0  1  0  0  0
    0.6103  -11.3338    0.0000 O   0  0
   -0.2272  -11.3989    0.0000 C   0  0  1  0  0  0
   -0.5878  -12.1582    0.0000 C   0  0  2  0  0  0
   -0.1108  -12.8526    0.0000 C   0  0
    9.2905  -13.6286    0.0000 C   0  0  2  0  0  0
    9.8745  -14.2114    0.0000 C   0  0  2  0  0  0
   10.6666  -13.9980    0.0000 O   0  0
    9.4987  -12.8329    0.0000 C   0  0
   10.2972  -12.6195    0.0000 C   0  0  2  0  0  0
   10.8810  -13.2062    0.0000 C   0  0  2  0  0  0
   11.6765  -12.9952    0.0000 C   0  0  2  0  0  0
   10.5090  -11.8218    0.0000 O   0  0
   11.3110  -11.6109    0.0000 C   0  0  2  0  0  0
   11.8940  -12.2010    0.0000 C   0  0  2  0  0  0
   12.6921  -11.9925    0.0000 O   0  0
   11.5262  -10.8121    0.0000 C   0  0
   12.3308  -10.6035    0.0000 C   0  0  2  0  0  0
   12.9141  -11.1941    0.0000 C   0  0  2  0  0  0
   13.7128  -10.9854    0.0000 C   0  0
   13.9347  -10.1862    0.0000 C   0  0
   13.3514   -9.5956    0.0000 C   0  0  2  0  0  0
   12.5463   -9.8043    0.0000 O   0  0
   10.6335  -15.3508    0.0000 C   0  0
   -0.6935  -10.7214    0.0000 C   0  0
   -1.5133  -10.7863    0.0000 C   0  0
   -1.9794  -10.1087    0.0000 O   0  0
   -1.4076  -12.2235    0.0000 O   0  0
   14.7308   -9.9794    0.0000 C   0  0
   13.5699   -8.8027    0.0000 C   0  0  2  0  0  0
   14.3659   -8.5957    0.0000 C   0  0
   14.5845   -7.8028    0.0000 C   0  0
   15.3804   -7.5956    0.0000 C   0  0
   15.5990   -6.8029    0.0000 C   0  0
   15.9578   -8.1814    0.0000 C   0  0
   16.7537   -7.9743    0.0000 C   0  0
   17.3310   -8.5601    0.0000 C   0  0
   12.7684   -8.5857    0.0000 C   0  0
   13.5617   -7.9793    0.0000 O   0  0
   11.7425  -10.0145    0.0000 H   0  0
   10.7247  -11.0238    0.0000 H   0  0
    9.7113  -12.0331    0.0000 H   0  0
    8.7019  -13.0425    0.0000 H   0  0
    7.8712  -13.3873    0.0000 H   0  0
    6.4506  -13.3831    0.0000 H   0  0
    4.0955  -12.5565    0.0000 H   0  0
    5.1921  -13.1008    0.0000 H   0  0
    2.7954  -11.9293    0.0000 H   0  0
    1.4911  -11.3064    0.0000 H   0  0
    0.1787  -10.6833    0.0000 C   0  0
   -1.0051  -12.8681    0.0000 H   0  0
    0.3074  -13.4911    0.0000 H   0  0
    1.6117  -14.1101    0.0000 H   0  0
    2.9117  -14.7332    0.0000 H   0  0
    4.4029  -15.4392    0.0000 H   0  0
    6.4548  -15.8546    0.0000 C   0  0
    7.8712  -15.8546    0.0000 C   0  0
   10.4548  -14.7913    0.0000 H   0  0
   11.4600  -13.7861    0.0000 H   0  0
   12.2556  -13.5790    0.0000 O   0  0
   12.4735  -12.7808    0.0000 C   0  0
   13.4953  -11.7714    0.0000 H   0  0
   12.7643   -9.0093    0.0000 H   0  0
 18 17  1  0
 18 19  1  0
  7  5  1  0
 40 43  1  0
 41 42  1  0
 42 45  1  0
 44 43  1  0
 44 45  1  0
  7  2  1  0
  5  1  1  0
 18 21  1  0
 19 20  1  0
 20 23  1  0
 22 21  1  0
 44 49  1  0
 45 46  1  0
 46 47  1  0
 47 48  1  0
 48 49  1  0
 22 23  1  0
  8 50  1  1
  1 11  1  0
 29 51  1  0
 10  2  1  0
 51 52  1  0
  3  4  1  0
 52 53  1  0
 33  8  1  0
 30 54  1  0
 22 25  1  0
 47 55  2  0
 23 24  1  0
 48 56  1  0
 24 27  1  0
 56 57  1  0
 26 25  1  0
 57 58  2  0
 26 27  1  0
 58 59  1  0
 32  9  1  0
 59 60  2  0
  9 10  1  0
 59 61  1  0
 10 11  1  0
 61 62  1  0
 11 12  1  0
 62 63  2  0
 12 13  1  0
 56 64  1  1
 13  8  1  0
 56 65  1  0
 26 31  1  0
 44 66  1  6
 27 28  1  0
 40 67  1  6
 28 29  1  0
 36 68  1  6
 29 30  1  0
 32 69  1  6
 30 31  1  0
 10 70  1  6
 32 33  1  0
  7 71  1  6
 14 15  1  0
 19 72  1  6
  4  5  1  0
 15 73  1  6
  3 14  1  0
 23 74  1  6
 15  6  1  0
 27 75  1  6
 32 35  1  0
 29 76  1  6
 33 34  1  0
 30 77  1  1
 34 37  1  0
 26 78  1  1
 36 35  1  0
 22 79  1  1
 36 37  1  0
 18 80  1  1
  6  7  1  0
 14 81  1  1
 14 17  1  0
  5 82  1  1
 15 16  1  0
 11 83  1  1
 16 19  1  0
 33 84  1  1
 36 39  1  0
 37 85  1  1
 37 38  1  0
 38 86  1  6
 38 41  1  0
 41 87  1  1
 40 39  1  0
 45 88  1  1
 40 41  1  0
 48 89  1  1
M  END