
          11280715162D 1   1.00000     0.00000     0

 11 12  0     0  0            999 V2000
    5.0750   -3.2542    0.0000 N   0  0  0  0  0  0           0  0  0
    3.9542   -3.5625    0.0000 C   0  0  0  0  0  0           0  0  0
    4.4750   -3.2542    0.0000 C   0  0  3  0  0  0           0  0  0
    3.4375   -4.4667    0.0000 N   0  0  0  0  0  0           0  0  0
    3.9542   -4.1667    0.0000 C   0  0  0  0  0  0           0  0  0
    5.2625   -2.6792    0.0000 C   0  0  0  0  0  0           0  0  0
    3.4375   -3.2625    0.0000 C   0  0  0  0  0  0           0  0  0
    2.9167   -4.1667    0.0000 C   0  0  0  0  0  0           0  0  0
    4.2875   -2.6792    0.0000 C   0  0  0  0  0  0           0  0  0
    2.9167   -3.5625    0.0000 C   0  0  0  0  0  0           0  0  0
    4.7750   -2.3292    0.0000 C   0  0  0  0  0  0           0  0  0
  2  3  1  0     0  0
  3  1  1  0     0  0
  4  5  2  0     0  0
  5  2  1  0     0  0
  6  1  1  0     0  0
  7  2  2  0     0  0
  8 10  2  0     0  0
  9  3  1  0     0  0
 10  7  1  0     0  0
 11  6  1  0     0  0
  9 11  1  0     0  0
  4  8  1  0     0  0
M  END