
  CDK    9/16/09,9:20

 29 33  0  0  0  0  0  0  0  0999 V2000
    4.1287    1.5074    0.0000 C   0  0  0  0  0  0  0  0  0  0  0  0
    3.8712    0.7277    0.0000 C   0  0  0  0  0  0  0  0  0  0  0  0
    4.4168    0.1170    0.0000 C   0  0  0  0  0  0  0  0  0  0  0  0
    4.9270    1.6759    0.0000 C   0  0  0  0  0  0  0  0  0  0  0  0
    5.4746    1.0689    0.0000 C   0  0  0  0  0  0  0  0  0  0  0  0
    5.2173    0.2850    0.0000 C   0  0  0  0  0  0  0  0  0  0  0  0
    5.8813   -0.1994    0.0000 N   0  0  0  0  0  0  0  0  0  0  0  0
    6.5515    0.2793    0.0000 C   0  0  0  0  0  0  0  0  0  0  0  0
    6.2979    1.0632    0.0000 C   0  0  0  0  0  0  0  0  0  0  0  0
    6.7505    1.7570    0.0000 C   0  0  0  0  0  0  0  0  0  0  0  0
    7.5729    1.8416    0.0000 C   0  0  0  0  0  0  0  0  0  0  0  0
    8.1452    1.2410    0.0000 N   0  0  0  0  0  0  0  0  0  0  0  0
    8.0385    0.4228    0.0000 C   0  0  0  0  0  0  0  0  0  0  0  0
    7.3260   -0.0047    0.0000 C   0  0  0  0  0  0  0  0  0  0  0  0
    7.3375   -0.8293    0.0000 C   0  0  0  0  0  0  0  0  0  0  0  0
    8.0597   -1.2336    0.0000 C   0  0  0  0  0  0  0  0  0  0  0  0
    8.7732   -0.8107    0.0000 C   0  0  0  0  0  0  0  0  0  0  0  0
    8.7635    0.0210    0.0000 C   0  0  0  0  0  0  0  0  0  0  0  0
    7.2549    0.9442    0.0000 C   0  0  0  0  0  0  0  0  0  0  0  0
    6.8685   -0.6815    0.0000 C   0  0  0  0  0  0  0  0  0  0  0  0
    6.1799   -0.6552    0.0000 O   0  0  0  0  0  0  0  0  0  0  0  0
    7.2266   -1.4199    0.0000 O   0  0  0  0  0  0  0  0  0  0  0  0
    5.7464   -1.3815    0.0000 C   0  0  0  0  0  0  0  0  0  0  0  0
    9.5542    0.3714    0.0000 C   0  0  0  0  0  0  0  0  0  0  0  0
   10.2781   -0.0325    0.0000 C   0  0  0  0  0  0  0  0  0  0  0  0
    3.5813    2.1193    0.0000 O   0  0  0  0  0  0  0  0  0  0  0  0
    3.8375    2.8995    0.0000 C   0  0  0  0  0  0  0  0  0  0  0  0
    8.0384   -0.2743    0.0000 H   0  0  0  0  0  0  0  0  0  0  0  0
    8.0395   -2.1611    0.0000 H   0  0  0  0  0  0  0  0  0  0  0  0
  2  3  1  0  0  0  0 
  3  6  2  0  0  0  0 
  6  7  1  0  0  0  0 
  7  8  1  0  0  0  0 
  9  5  1  0  0  0  0 
  1  2  2  0  0  0  0 
 13 18  1  0  0  0  0 
 14 15  1  0  0  0  0 
 15 16  1  0  0  0  0 
 16 17  1  0  0  0  0 
 17 18  1  0  0  0  0 
  5  4  2  0  0  0  0 
 16 19  1  0  0  0  0 
 19 12  1  0  0  0  0 
  8  9  2  0  0  0  0 
 14 20  1  6  0  0  0 
  4  1  1  0  0  0  0 
  9 10  1  0  0  0  0 
 20 21  1  0  0  0  0 
 20 22  2  0  0  0  0 
  8 14  1  0  0  0  0 
 21 23  1  0  0  0  0 
  5  6  1  0  0  0  0 
 18 24  1  1  0  0  0 
 10 11  1  0  0  0  0 
 24 25  1  0  0  0  0 
  1 26  1  0  0  0  0 
 11 12  1  0  0  0  0 
 26 27  1  0  0  0  0 
 13 12  1  0  0  0  0 
 13 28  1  6  0  0  0 
 13 14  1  0  0  0  0 
 16 29  1  6  0  0  0 
M  END