
  SciTegic09291413392D

 43 47  0  0  0  0            999 V2000
   28.7970  -13.2764    0.0000 N   0  0
   29.4546  -13.7643    0.0000 N   0  0
   30.1247  -13.2936    0.0000 C   0  0
   29.8787  -12.5106    0.0000 C   0  0
   29.0591  -12.5001    0.0000 C   0  0
   30.8219  -13.7183    0.0000 N   0  0
   31.5430  -13.3261    0.0000 C   0  0
   32.2452  -13.7509    0.0000 N   0  0
   31.5618  -12.5050    0.0000 O   0  0
   29.4467  -14.5821    0.0000 C   0  0
   28.7279  -14.9849    0.0000 C   0  0
   28.7170  -15.8054    0.0000 C   0  0
   29.4240  -16.2240    0.0000 C   0  0
   30.1434  -15.8203    0.0000 C   0  0
   30.1509  -15.0011    0.0000 C   0  0
   28.5881  -11.8267    0.0000 C   0  0
   28.9317  -11.0811    0.0000 C   0  0
   27.7701  -11.8999    0.0000 C   0  0
   28.1683  -11.1105    0.0000 C   0  0
   32.9663  -13.3588    0.0000 C   0  0
   34.4042  -12.5732    0.0000 C   0  0
   33.6970  -12.1444    0.0000 C   0  0
   32.9792  -12.5424    0.0000 C   0  0
   34.3849  -13.3952    0.0000 C   0  0
   33.6669  -13.7841    0.0000 C   0  0
   33.6478  -14.5990    0.0000 C   0  0
   34.3459  -15.0260    0.0000 C   0  0
   35.0647  -14.6322    0.0000 C   0  0
   35.0803  -13.8185    0.0000 C   0  0
   35.1247  -12.1801    0.0000 O   0  0
   35.8275  -12.6040    0.0000 C   0  0
   36.5439  -12.2109    0.0000 C   0  0
   37.2467  -12.6348    0.0000 N   0  0
   37.2242  -13.4553    0.0000 C   0  0
   37.9229  -13.8831    0.0000 C   0  0
   38.6458  -13.4894    0.0000 O   0  0
   38.6655  -12.6674    0.0000 C   0  0
   37.9624  -12.2390    0.0000 C   0  0
   30.8472  -16.2356    0.0000 N   0  0
   31.5629  -15.8337    0.0000 C   0  0
   32.2709  -16.2531    0.0000 C   0  0
   31.5707  -15.0124    0.0000 O   0  0
   32.2631  -17.0744    0.0000 C   0  0
  1  2  1  0
  2  3  1  0
  3  4  2  0
  4  5  1  0
  5  1  2  0
  3  6  1  0
  6  7  1  0
  7  8  1  0
  7  9  2  0
 10 11  2  0
 11 12  1  0
 12 13  2  0
 13 14  1  0
 14 15  2  0
 15 10  1  0
  2 10  1  0
  5 16  1  0
 16 17  1  0
 16 18  1  0
 16 19  1  0
  8 20  1  0
 20 25  2  0
 24 21  2  0
 21 22  1  0
 22 23  2  0
 23 20  1  0
 24 25  1  0
 25 26  1  0
 26 27  2  0
 27 28  1  0
 28 29  2  0
 29 24  1  0
 21 30  1  0
 30 31  1  0
 31 32  1  0
 32 33  1  0
 33 34  1  0
 33 38  1  0
 34 35  1  0
 35 36  1  0
 36 37  1  0
 37 38  1  0
 14 39  1  0
 39 40  1  0
 40 41  1  0
 40 42  2  0
 41 43  1  0
M  END