
  CDK    12/20/10,15:21

 29 33  0  0  0  0  0  0  0  0999 V2000
    5.2997   -5.2351    0.0000 C   0  0  0  0  0  0  0  0  0  0  0  0
    4.4488   -4.8563    0.0000 C   0  0  0  0  0  0  0  0  0  0  0  0
    4.8260   -4.5536    0.0000 C   0  0  0  0  0  0  0  0  0  0  0  0
    4.4632   -4.1030    0.0000 C   0  0  0  0  0  0  0  0  0  0  0  0
    4.8646   -3.7483    0.0000 C   0  0  0  0  0  0  0  0  0  0  0  0
    4.0452   -3.4617    0.0000 C   0  0  0  0  0  0  0  0  0  0  0  0
    4.0307   -4.8328    0.0000 C   0  0  0  0  0  0  0  0  0  0  0  0
    3.2277   -4.5264    0.0000 C   0  0  0  0  0  0  0  0  0  0  0  0
    3.7037   -5.1200    0.0000 C   0  0  0  0  0  0  0  0  0  0  0  0
    3.2746   -3.7233    0.0000 C   0  0  0  0  0  0  0  0  0  0  0  0
    2.6225   -3.2266    0.0000 N   0  0  0  0  0  0  0  0  0  0  0  0
    1.8022   -3.2266    0.0000 C   0  0  0  0  0  0  0  0  0  0  0  0
    1.1098   -1.2088    0.0000 C   0  0  0  0  0  0  0  0  0  0  0  0
    1.3931   -2.5181    0.0000 C   0  0  0  0  0  0  0  0  0  0  0  0
    1.7304   -1.7652    0.0000 C   0  0  0  0  0  0  0  0  0  0  0  0
    0.3923   -1.6343    0.0000 N   0  0  0  0  0  0  0  0  0  0  0  0
    0.5699   -2.4399    0.0000 N   0  0  0  0  0  0  0  0  0  0  0  0
   -0.3598   -1.3081    0.0000 C   0  0  0  0  0  0  0  0  0  0  0  0
   -0.4533   -0.4937    0.0000 C   0  0  0  0  0  0  0  0  0  0  0  0
   -1.2052   -0.1674    0.0000 C   0  0  0  0  0  0  0  0  0  0  0  0
   -1.2987    0.6470    0.0000 C   0  0  0  0  0  0  0  0  0  0  0  0
    1.3914   -3.9380    0.0000 O   0  0  0  0  0  0  0  0  0  0  0  0
    1.1895   -0.3929    0.0000 C   0  0  0  0  0  0  0  0  0  0  0  0
    1.9498   -0.0492    0.0000 C   0  0  0  0  0  0  0  0  0  0  0  0
    2.0311    0.7793    0.0000 C   0  0  0  0  0  0  0  0  0  0  0  0
    1.3529    1.2651    0.0000 C   0  0  0  0  0  0  0  0  0  0  0  0
    0.5913    0.9163    0.0000 C   0  0  0  0  0  0  0  0  0  0  0  0
    0.5137    0.0888    0.0000 C   0  0  0  0  0  0  0  0  0  0  0  0
   -2.0556    0.9753    0.0000 C   0  0  0  0  0  0  0  0  0  0  0  0
  3  5  1  0  0  0  0 
  4  6  1  0  0  0  0 
  5  6  1  0  0  0  0 
  7  8  1  0  0  0  0 
  3  7  1  0  0  0  0 
  2  9  1  0  0  0  0 
  6 10  1  0  0  0  0 
 10  8  1  0  0  0  0 
  8  9  1  0  0  0  0 
 10 11  1  0  0  0  0 
  1  2  1  0  0  0  0 
  1  3  1  0  0  0  0 
  2  4  1  0  0  0  0 
 16 17  1  0  0  0  0 
 15 13  1  0  0  0  0 
 14 15  1  0  0  0  0 
 13 16  1  0  0  0  0 
 17 14  2  0  0  0  0 
 16 18  1  0  0  0  0 
 18 19  1  0  0  0  0 
 19 20  1  0  0  0  0 
 20 21  1  0  0  0  0 
 14 12  1  0  0  0  0 
 12 22  2  0  0  0  0 
 23 24  2  0  0  0  0 
 24 25  1  0  0  0  0 
 25 26  2  0  0  0  0 
 26 27  1  0  0  0  0 
 27 28  2  0  0  0  0 
 28 23  1  0  0  0  0 
 13 23  1  0  0  0  0 
 12 11  1  0  0  0  0 
 21 29  1  0  0  0  0 
M  END