
          02060813482D 1   1.00000     0.00000     0

 29 30  0     0  0            999 V2000
    0.6569  -14.2041    0.0000 C   0  0  0  0  0  0           0  0  0
    0.6557  -15.0315    0.0000 C   0  0  0  0  0  0           0  0  0
    1.3706  -15.4444    0.0000 N   0  0  0  0  0  0           0  0  0
    2.0870  -15.0310    0.0000 C   0  0  0  0  0  0           0  0  0
    2.0841  -14.2005    0.0000 C   0  0  0  0  0  0           0  0  0
    1.3688  -13.7914    0.0000 C   0  0  0  0  0  0           0  0  0
    2.7971  -13.7853    0.0000 C   0  0  0  0  0  0           0  0  0
    2.7939  -12.9603    0.0000 O   0  0  0  0  0  0           0  0  0
    3.5131  -14.1951    0.0000 N   0  0  0  0  0  0           0  0  0
    4.2260  -13.7799    0.0000 C   0  0  0  0  0  0           0  0  0
    4.9404  -14.1932    0.0000 C   0  0  0  0  0  0           0  0  0
    5.6528  -13.7787    0.0000 C   0  0  0  0  0  0           0  0  0
    5.6502  -12.9528    0.0000 C   0  0  0  0  0  0           0  0  0
    4.9291  -12.5432    0.0000 C   0  0  0  0  0  0           0  0  0
    4.2197  -12.9600    0.0000 C   0  0  0  0  0  0           0  0  0
    4.9415  -15.0182    0.0000 C   0  0  0  0  0  0           0  0  0
    4.2275  -15.4316    0.0000 O   0  0  0  0  0  0           0  0  0
    5.6565  -15.4297    0.0000 O   0  0  0  0  0  0           0  0  0
   -0.0591  -15.4434    0.0000 S   0  0  0  0  0  0           0  0  0
   -0.7732  -15.0304    0.0000 C   0  0  0  0  0  0           0  0  0
   -0.7725  -14.2054    0.0000 C   0  0  0  0  0  0           0  0  0
   -1.4867  -13.7923    0.0000 C   0  0  0  0  0  0           0  0  0
   -1.4860  -12.9673    0.0000 O   0  0  0  0  0  0           0  0  0
   -2.2002  -12.5542    0.0000 C   0  0  0  0  0  0           0  0  0
   -2.1995  -11.7292    0.0000 C   0  0  0  0  0  0           0  0  0
   -2.9137  -11.3162    0.0000 O   0  0  0  0  0  0           0  0  0
   -2.9130  -10.4912    0.0000 C   0  0  0  0  0  0           0  0  0
    6.3625  -12.5366    0.0000 C   0  0  0  0  0  0           0  0  0
    7.0750  -12.1167    0.0000 N   0  0  0  0  0  0           0  0  0
  5  7  1  0     0  0
 14 15  2  0     0  0
 15 10  1  0     0  0
  3  4  2  0     0  0
 11 16  1  0     0  0
  7  8  2  0     0  0
 16 17  2  0     0  0
 16 18  1  0     0  0
  7  9  1  0     0  0
  2 19  1  0     0  0
  4  5  1  0     0  0
 19 20  1  0     0  0
  9 10  1  0     0  0
 20 21  1  0     0  0
  2  3  1  0     0  0
 21 22  1  0     0  0
 10 11  2  0     0  0
 22 23  1  0     0  0
  5  6  2  0     0  0
 23 24  1  0     0  0
 11 12  1  0     0  0
 24 25  1  0     0  0
  6  1  1  0     0  0
 25 26  1  0     0  0
 12 13  2  0     0  0
 26 27  1  0     0  0
  1  2  2  0     0  0
 13 28  1  0     0  0
 13 14  1  0     0  0
 28 29  3  0     0  0
M  END