
  SciTegic06051315212D

 33 38  0  0  0  0            999 V2000
   10.6167  -13.5243    0.0000 C   0  0
   10.0423  -17.2732    0.0000 C   0  0
   13.8083  -15.8709    0.0000 C   0  0
   12.5352  -16.4957    0.0000 C   0  0
   14.6236  -15.9272    0.0000 O   0  0
   12.1365  -14.4416    0.0000 N   0  0
   10.7512  -16.0407    0.0000 C   0  0
    7.9248  -18.4949    0.0000 C   0  0
    9.3413  -19.3116    0.0000 C   0  0
    7.9242  -19.3131    0.0000 C   0  0
    9.9585  -14.7781    0.0000 C   0  0
   13.3494  -16.5564    0.0000 C   0  0
   10.0405  -15.6354    0.0000 C   0  0
   12.1814  -15.7640    0.0000 C   0  0
    8.6349  -19.7218    0.0000 C   0  0
   10.6478  -14.3423    0.0000 C   0  0
   10.7540  -16.8636    0.0000 N   0  0
   11.3691  -14.7191    0.0000 C   0  0
    8.6300  -18.0871    0.0000 C   0  0
    9.3375  -16.0445    0.0000 C   0  0
   12.6419  -15.0836    0.0000 C   0  0
   11.3972  -15.5370    0.0000 N   0  0
   13.4520  -15.1421    0.0000 C   0  0
    9.3364  -18.4990    0.0000 C   0  0
    9.2334  -14.4017    0.0000 C   0  0
    9.3364  -16.8641    0.0000 N   0  0
   10.0421  -18.0905    0.0000 N   0  0
    9.1995  -13.5859    0.0000 C   0  0
    9.8946  -13.1449    0.0000 C   0  0
    9.8592  -12.3244    0.0000 C   0  0
    9.1296  -11.9438    0.0000 C   0  0
    8.4340  -12.3899    0.0000 C   0  0
    8.4728  -13.2089    0.0000 C   0  0
  3  5  1  0
  2 27  1  0
 22 14  1  0
 17  7  1  0
 21  6  1  0
 20 26  2  0
  7 13  2  0
 18 22  1  0
 12  3  1  0
 25 11  2  0
 24 27  1  0
  7 22  1  0
  9 24  1  0
  2 17  2  0
 15  9  1  0
  8 10  1  0
 16  1  2  0
 18 16  1  0
 11 16  1  0
  6 18  2  0
  3 23  2  0
 26  2  1  0
  1 29  1  0
 24 19  1  0
 10 15  1  0
 23 21  1  0
 19  8  1  0
 13 20  1  0
  4 12  2  0
 21 14  2  0
 28 25  1  0
 14  4  1  0
 28 29  1  0
 29 30  2  0
 30 31  1  0
 31 32  2  0
 32 33  1  0
 33 28  2  0
M  END