
  SciTegic10311316212D

 26 29  0  0  0  0            999 V2000
   12.0583  -26.5009    0.0000 C   0  0
   12.0572  -27.3204    0.0000 C   0  0
   12.7652  -27.7294    0.0000 C   0  0
   12.7635  -26.0920    0.0000 C   0  0
   13.4721  -26.4973    0.0000 C   0  0
   13.4723  -27.3159    0.0000 C   0  0
   14.2510  -27.5687    0.0000 S   0  0
   14.7320  -26.9062    0.0000 C   0  0
   14.2506  -26.2441    0.0000 C   0  0
   11.3537  -27.7276    0.0000 N   0  0
   10.6074  -27.3947    0.0000 C   0  0
   10.0601  -28.0015    0.0000 N   0  0
   10.4682  -28.7096    0.0000 N   0  0
   11.2676  -28.5402    0.0000 C   0  0
   11.8733  -29.0842    0.0000 C   0  0
   11.7012  -29.8842    0.0000 C   0  0
   12.3073  -30.4312    0.0000 C   0  0
   13.0857  -30.1794    0.0000 C   0  0
   13.2545  -29.3755    0.0000 C   0  0
   12.6471  -28.8320    0.0000 C   0  0
   10.4381  -26.5952    0.0000 S   0  0
   15.5471  -26.9038    0.0000 C   0  0
   15.9560  -27.6113    0.0000 O   0  0
   15.9555  -26.1959    0.0000 O   0  0
   14.5028  -25.4669    0.0000 Cl  0  0
   13.6933  -30.7259    0.0000 Cl  0  0
  1  2  2  0
  2  3  1  0
  3  6  2  0
  5  4  2  0
  4  1  1  0
  5  6  1  0
  6  7  1  0
  7  8  1  0
  8  9  2  0
  9  5  1  0
 10 11  1  0
 11 12  2  0
 12 13  1  0
 13 14  2  0
 14 10  1  0
  2 10  1  0
 15 16  2  0
 16 17  1  0
 17 18  2  0
 18 19  1  0
 19 20  2  0
 20 15  1  0
 14 15  1  0
 11 21  1  0
 22 23  1  0
 22 24  2  0
  8 22  1  0
  9 25  1  0
 18 26  1  0
M  END