
          11280715422D 1   1.00000     0.00000     0

 31 34  0     0  0            999 V2000
    0.0375    0.6958    0.0000 C   0  0  0  0  0  0           0  0  0
   -0.9583   -0.2000    0.0000 C   0  0  0  0  0  0           0  0  0
   -0.7833    0.6000    0.0000 N   0  0  0  0  0  0           0  0  0
   -0.2458   -0.6167    0.0000 N   0  0  3  0  0  0           0  0  0
    0.3667   -0.0542    0.0000 C   0  0  0  0  0  0           0  0  0
    0.4500    1.4000    0.0000 C   0  0  0  0  0  0           0  0  0
   -1.6833   -0.2792    0.0000 C   0  0  0  0  0  0           0  0  0
   -2.0958    0.4333    0.0000 C   0  0  0  0  0  0           0  0  0
    1.2750    1.4000    0.0000 N   0  0  0  0  0  0           0  0  0
   -0.2458   -1.4417    0.0000 C   0  0  0  0  0  0           0  0  0
    2.0667    1.6208    0.0000 N   0  0  3  0  0  0           0  0  0
   -2.0958   -1.0000    0.0000 C   0  0  0  0  0  0           0  0  0
   -2.9208    0.4333    0.0000 C   0  0  0  0  0  0           0  0  0
    0.4167    2.2333    0.0000 O   0  0  0  0  0  0           0  0  0
    0.4542   -1.8417    0.0000 C   0  0  0  0  0  0           0  0  0
   -0.9625   -1.8417    0.0000 C   0  0  0  0  0  0           0  0  0
   -3.3333   -0.2792    0.0000 C   0  0  0  0  0  0           0  0  0
   -1.6833    1.1458    0.0000 Cl  0  0  0  0  0  0           0  0  0
    1.1792   -0.2375    0.0000 C   0  0  0  0  0  0           0  0  0
   -2.9208   -1.0000    0.0000 C   0  0  0  0  0  0           0  0  0
   -0.2625   -3.0792    0.0000 C   0  0  0  0  0  0           0  0  0
    0.4542   -2.6667    0.0000 C   0  0  0  0  0  0           0  0  0
   -0.9708   -2.6542    0.0000 C   0  0  0  0  0  0           0  0  0
   -4.1583   -0.2667    0.0000 Cl  0  0  0  0  0  0           0  0  0
   -0.2708   -3.9042    0.0000 Cl  0  0  0  0  0  0           0  0  0
    2.6042    1.0000    0.0000 C   0  0  0  0  0  0           0  0  0
    2.2167    2.4458    0.0000 C   0  0  0  0  0  0           0  0  0
    3.4292    1.0333    0.0000 C   0  0  0  0  0  0           0  0  0
    2.9417    2.8333    0.0000 C   0  0  0  0  0  0           0  0  0
    3.9167    1.6958    0.0000 C   0  0  0  0  0  0           0  0  0
    3.7042    2.4958    0.0000 C   0  0  0  0  0  0           0  0  0
  2  3  2  0     0  0
  3  1  1  0     0  0
  4  5  1  0     0  0
  5  1  2  0     0  0
  6  1  1  0     0  0
  7  2  1  0     0  0
  8  7  2  0     0  0
  9  6  1  0     0  0
 10  4  1  0     0  0
 11  9  1  0     0  0
 12  7  1  0     0  0
 13  8  1  0     0  0
 14  6  2  0     0  0
 15 10  1  0     0  0
 16 10  2  0     0  0
 17 20  1  0     0  0
 18  8  1  0     0  0
 19  5  1  0     0  0
 20 12  2  0     0  0
 21 23  2  0     0  0
 22 15  2  0     0  0
 23 16  1  0     0  0
 24 17  1  0     0  0
 25 21  1  0     0  0
 26 11  1  0     0  0
 27 11  1  0     0  0
 28 26  1  0     0  0
 29 27  1  0     0  0
 30 28  1  0     0  0
 31 29  1  0     0  0
  4  2  1  0     0  0
 21 22  1  0     0  0
 31 30  1  0     0  0
 17 13  2  0     0  0
M  END