
  SciTegic02101214292D

 40 44  0  0  0  0            999 V2000
    3.7297    0.6188    0.0000 C   0  0
    3.7297    1.4438    0.0000 O   0  0
    3.0152    0.2062    0.0000 N   0  0
    3.0152   -0.6188    0.0000 C   0  0
    2.3008   -1.0313    0.0000 C   0  0
    1.5863   -0.6188    0.0000 N   0  0
    1.5863    0.2062    0.0000 C   0  0
    2.3008    0.6188    0.0000 C   0  0
    0.8718   -1.0313    0.0000 C   0  0
    0.1573   -0.6188    0.0000 C   0  0
   -0.5571   -1.0313    0.0000 N   0  0
   -0.5571   -1.8563    0.0000 C   0  0
   -1.2716   -0.6188    0.0000 C   0  0
   -1.9861   -1.0313    0.0000 C   0  0
   -2.7005   -0.6188    0.0000 N   0  0
   -2.7005    0.2062    0.0000 C   0  0
   -3.4150    0.6188    0.0000 C   0  0
   -3.4150    1.4438    0.0000 C   0  0
   -2.7005    1.8563    0.0000 C   0  0
   -1.9861    1.4438    0.0000 C   0  0
   -1.9861    0.6188    0.0000 N   0  0
   -3.4150   -1.0313    0.0000 C   0  0
   -4.1295   -0.6188    0.0000 C   0  0
   -4.8440   -1.0313    0.0000 C   0  0
   -5.5584   -0.6188    0.0000 C   0  0
   -5.5584    0.2062    0.0000 C   0  0
   -4.8440    0.6188    0.0000 C   0  0
   -4.1295    0.2062    0.0000 C   0  0
   -6.2729    0.6188    0.0000 O   0  0
   -6.9874    0.2062    0.0000 C   0  0
    4.5304   -0.6142    0.0000 N   0  0
    4.4442    0.2062    0.0000 C   0  0
    5.1978    0.5418    0.0000 C   0  0
    5.7499   -0.0713    0.0000 C   0  0
    6.5749   -0.0713    0.0000 C   0  0
    6.5749   -1.5002    0.0000 C   0  0
    5.7499   -1.5002    0.0000 C   0  0
    5.3374   -0.7858    0.0000 C   0  0
    6.9874   -0.7858    0.0000 C   0  0
    7.8124   -0.7858    0.0000 Cl  0  0
  1  2  2  0
  3  4  1  0
  4  5  1  0
  5  6  1  0
  6  7  1  0
  7  8  1  0
  3  8  1  0
  9 10  1  0
 11 12  1  0
 13 14  1  0
 16 17  1  0
 17 18  2  0
 18 19  1  0
 19 20  2  0
 20 21  1  0
 16 21  2  0
 15 16  1  0
 22 23  1  0
 23 24  1  0
 24 25  2  0
 25 26  1  0
 26 27  2  0
 27 28  1  0
 23 28  2  0
 29 30  1  0
 26 29  1  0
 15 22  1  0
 14 15  1  0
 11 13  1  0
 10 11  1  0
  6  9  1  0
  1  3  1  0
 31 32  1  0
 32 33  2  0
 33 34  1  0
 34 35  1  0
 35 39  2  0
 39 36  1  0
 36 37  2  0
 37 38  1  0
 31 38  1  0
 34 38  2  0
  1 32  1  0
 39 40  1  0
M  END