
  SciTegic01161211252D

 29 32  0  0  0  0            999 V2000
   -4.5410  -12.0998    0.0000 N   0  0
   -3.7400  -11.9208    0.0000 C   0  0
   -3.0941  -12.4371    0.0000 C   0  0
   -4.9018  -12.8441    0.0000 C   0  0
   -3.0924  -13.2607    0.0000 N   0  0
   -4.5440  -13.5890    0.0000 C   0  0
   -3.7384  -13.7715    0.0000 C   0  0
   -2.3785  -13.6741    0.0000 C   0  0
   -2.3805  -14.4991    0.0000 O   0  0
   -1.6633  -13.2640    0.0000 C   0  0  2  0  0  0
   -0.9928  -13.7391    0.0000 N   0  0
   -0.3326  -13.2444    0.0000 C   0  0
   -0.5990  -12.4636    0.0000 C   0  0  2  0  0  0
   -1.4239  -12.4758    0.0000 C   0  0
   -0.1239  -11.7890    0.0000 O   0  0
   -0.5292  -11.0704    0.0000 C   0  0
   -0.1079  -10.3632    0.0000 C   0  0
   -0.5125   -9.6451    0.0000 C   0  0
   -1.3384   -9.6364    0.0000 C   0  0
   -1.7579  -10.3517    0.0000 C   0  0
   -1.3509  -11.0669    0.0000 C   0  0
   -5.1218  -11.5139    0.0000 C   0  0
   -5.1176  -10.6878    0.0000 C   0  0
   -5.9426  -10.6842    0.0000 C   0  0
   -5.9462  -11.5092    0.0000 C   0  0
   -1.7446   -8.9184    0.0000 C   0  0
   -1.3260   -8.2075    0.0000 F   0  0
   -2.5696   -8.9112    0.0000 F   0  0
   -2.1625   -8.2000    0.0000 F   0  0
 14 10  1  0
  6  7  1  0
 13 15  1  6
  1  4  1  0
 15 16  1  0
  5  8  1  0
 16 17  2  0
 17 18  1  0
  8  9  2  0
 18 19  2  0
  3  5  1  0
 19 20  1  0
 10  8  1  1
 20 21  2  0
 21 16  1  0
 10 11  1  0
  1 22  1  0
 22 23  1  0
  2  3  1  0
  4  6  1  0
  1  2  1  0
 23 24  1  0
 24 25  1  0
 25 22  1  0
  5  7  1  0
 19 26  1  0
 11 12  1  0
 26 27  1  0
 12 13  1  0
 26 28  1  0
 13 14  1  0
 26 29  1  0
M  END