
  SciTegic11201309402D

 32 32  0  0  0  0            999 V2000
    2.3042   -4.7042    0.0000 S   0  0
   12.3667   -8.7542    0.0000 C   0  0  1  0  0  0
   13.1917   -8.7375    0.0000 C   0  0
   11.9417   -8.0500    0.0000 N   0  0
    5.6000   -4.6917    0.0000 C   0  0
    3.1292   -4.7042    0.0000 C   0  0
   11.1167   -8.0542    0.0000 C   0  0
    6.0167   -5.4042    0.0000 N   0  0
    2.3042   -5.5292    0.0000 O   0  0
    2.3042   -3.8792    0.0000 O   0  0
    7.2542   -6.1042    0.0000 C   0  0
    9.3917   -6.6792    0.0000 C   0  0
    4.7750   -4.6917    0.0000 C   0  0
    1.4792   -4.7000    0.0000 N   0  0
    9.8750   -7.3500    0.0000 N   0  0
    8.0792   -6.1042    0.0000 N   0  0
   13.5917   -8.0125    0.0000 O   0  0
    6.0042   -3.9750    0.0000 O   0  0
   11.9750   -9.4792    0.0000 C   0  0  2  0  0  0
   10.7042   -8.7750    0.0000 O   0  0
    6.8500   -6.8250    0.0000 O   0  0
    9.7250   -5.9292    0.0000 O   0  0
    3.5292   -3.9917    0.0000 C   0  0
    3.5417   -5.4167    0.0000 C   0  0
    4.3667   -5.4125    0.0000 C   0  0
    4.3542   -3.9792    0.0000 C   0  0
    6.8417   -5.3917    0.0000 C   0  0
   10.7000   -7.3417    0.0000 C   0  0
    8.5667   -6.7667    0.0000 C   0  0
   13.6167   -9.4417    0.0000 O   0  0
   12.4000  -10.1792    0.0000 O   0  0
   11.1500   -9.4917    0.0000 C   0  0
  2  4  1  6
  3  2  1  0
  4  7  1  0
  5 13  1  0
  6  1  1  0
  7 28  1  0
  8  5  1  0
  9  1  2  0
 10  1  2  0
 11 27  1  0
 12 29  1  0
 13 25  2  0
 14  1  1  0
 15 12  1  0
 16 11  1  0
 17  3  2  0
 18  5  2  0
  2 19  1  0
 20  7  2  0
 21 11  2  0
 22 12  2  0
 23  6  1  0
 24  6  2  0
 25 24  1  0
 26 23  2  0
 27  8  1  0
 28 15  1  0
 29 16  1  0
 30  3  1  0
 19 31  1  6
 32 19  1  0
 13 26  1  0
M  END