
  SciTegic02271515012D

 28 30  0  0  0  0            999 V2000
    5.1519   -8.3528    0.0000 C   0  0
    4.8898   -9.1312    0.0000 C   0  0
    5.5489   -9.6240    0.0000 S   0  0
    6.2203   -9.1481    0.0000 C   0  0
    5.9776   -8.3636    0.0000 C   0  0
    6.9983   -9.4146    0.0000 N   0  0
    6.4664   -7.7088    0.0000 C   0  0
    7.2821   -7.8047    0.0000 O   0  0
    6.1437   -6.9539    0.0000 C   0  0
    6.6393   -6.3000    0.0000 C   0  0
    6.3130   -5.5456    0.0000 C   0  0
    5.4966   -5.4492    0.0000 C   0  0
    5.0073   -6.1132    0.0000 C   0  0
    5.3321   -6.8649    0.0000 C   0  0
    5.1728   -4.6947    0.0000 Cl  0  0
    4.1089   -9.3759    0.0000 C   0  0
    3.3286   -9.6189    0.0000 C   0  0
    2.5484   -9.8619    0.0000 C   0  0
    1.9517   -9.3049    0.0000 C   0  0
    1.1721   -9.5474    0.0000 C   0  0
    0.9918  -10.3454    0.0000 C   0  0
    1.5973  -10.9005    0.0000 C   0  0
    2.3746  -10.6551    0.0000 C   0  0
    4.6794   -7.6860    0.0000 C   0  0
    3.8692   -7.7641    0.0000 C   0  0
    3.3946   -7.0989    0.0000 C   0  0
    3.5304   -8.5078    0.0000 C   0  0
    3.0500   -7.7592    0.0000 C   0  0
  1  2  2  0
  2  3  1  0
  3  4  1  0
  4  5  2  0
  5  1  1  0
  4  6  1  0
  5  7  1  0
  7  8  2  0
  7  9  1  0
  9 10  2  0
 10 11  1  0
 11 12  2  0
 12 13  1  0
 13 14  2  0
 14  9  1  0
 12 15  1  0
 16 17  3  0
  2 16  1  0
 17 18  1  0
 18 19  2  0
 19 20  1  0
 20 21  2  0
 21 22  1  0
 22 23  2  0
 23 18  1  0
  1 24  1  0
 25 24  1  0
 25 26  1  0
 25 27  1  0
 25 28  1  0
M  END