
  CDK    9/16/09,9:54

 48 53  0  0  0  0  0  0  0  0999 V2000
   -2.1429  -14.6994    0.0000 C   0  0  0  0  0  0  0  0  0  0  0  0
   -2.1429  -15.5264    0.0000 C   0  0  0  0  0  0  0  0  0  0  0  0
   -1.4291  -15.9358    0.0000 C   0  0  0  0  0  0  0  0  0  0  0  0
   -0.7153  -15.5264    0.0000 C   0  0  0  0  0  0  0  0  0  0  0  0
   -0.7153  -14.6994    0.0000 O   0  0  0  0  0  0  0  0  0  0  0  0
   -1.4291  -14.2816    0.0000 C   0  0  0  0  0  0  0  0  0  0  0  0
   -1.4291  -13.4545    0.0000 C   0  0  0  0  0  0  0  0  0  0  0  0
   -0.7128  -13.0410    0.0000 O   0  0  0  0  0  0  0  0  0  0  0  0
   -2.8604  -14.2879    0.0000 O   0  0  0  0  0  0  0  0  0  0  0  0
   -2.8586  -15.9410    0.0000 O   0  0  0  0  0  0  0  0  0  0  0  0
   -3.5754  -15.5285    0.0000 C   0  0  0  0  0  0  0  0  0  0  0  0
   -4.2911  -15.9431    0.0000 C   0  0  0  0  0  0  0  0  0  0  0  0
   -5.7197  -16.7721    0.0000 C   0  0  0  0  0  0  0  0  0  0  0  0
   -4.9978  -17.1844    0.0000 C   0  0  0  0  0  0  0  0  0  0  0  0
   -4.2856  -16.7680    0.0000 C   0  0  0  0  0  0  0  0  0  0  0  0
   -1.4291  -16.7628    0.0000 O   0  0  0  0  0  0  0  0  0  0  0  0
    0.0004  -15.9410    0.0000 S   0  0  0  0  0  0  0  0  0  0  0  0
    0.7173  -15.5285    0.0000 C   0  0  0  0  0  0  0  0  0  0  0  0
    1.4292  -15.9470    0.0000 O   0  0  0  0  0  0  0  0  0  0  0  0
    2.1439  -15.5380    0.0000 C   0  0  0  0  0  0  0  0  0  0  0  0
    2.1494  -14.7106    0.0000 C   0  0  0  0  0  0  0  0  0  0  0  0
    1.4339  -14.2938    0.0000 C   0  0  0  0  0  0  0  0  0  0  0  0
    0.7129  -14.7045    0.0000 C   0  0  0  0  0  0  0  0  0  0  0  0
    0.7101  -16.3535    0.0000 H   0  0  0  0  0  0  0  0  0  0  0  0
    2.8580  -15.9553    0.0000 C   0  0  0  0  0  0  0  0  0  0  0  0
    2.8537  -16.7823    0.0000 O   0  0  0  0  0  0  0  0  0  0  0  0
    2.8678  -14.3008    0.0000 O   0  0  0  0  0  0  0  0  0  0  0  0
    1.4379  -13.4668    0.0000 O   0  0  0  0  0  0  0  0  0  0  0  0
    2.1561  -13.0566    0.0000 C   0  0  0  0  0  0  0  0  0  0  0  0
    2.1601  -12.2297    0.0000 C   0  0  0  0  0  0  0  0  0  0  0  0
    2.8704  -13.4737    0.0000 O   0  0  0  0  0  0  0  0  0  0  0  0
   -0.0033  -14.2907    0.0000 O   0  0  0  0  0  0  0  0  0  0  0  0
   -3.5766  -14.7015    0.0000 O   0  0  0  0  0  0  0  0  0  0  0  0
    2.1679  -10.5793    0.0000 C   0  0  0  0  0  0  0  0  0  0  0  0
    1.4472  -10.9939    0.0000 C   0  0  0  0  0  0  0  0  0  0  0  0
    1.4464  -11.8188    0.0000 C   0  0  0  0  0  0  0  0  0  0  0  0
   -5.7205  -15.9441    0.0000 C   0  0  0  0  0  0  0  0  0  0  0  0
   -5.0059  -15.5321    0.0000 C   0  0  0  0  0  0  0  0  0  0  0  0
   -5.0063  -14.7091    0.0000 C   0  0  0  0  0  0  0  0  0  0  0  0
   -5.7205  -14.2970    0.0000 C   0  0  0  0  0  0  0  0  0  0  0  0
   -6.4379  -14.7140    0.0000 C   0  0  0  0  0  0  0  0  0  0  0  0
   -6.4335  -15.5357    0.0000 C   0  0  0  0  0  0  0  0  0  0  0  0
    2.8827  -10.9972    0.0000 C   0  0  0  0  0  0  0  0  0  0  0  0
    2.8755  -11.8194    0.0000 C   0  0  0  0  0  0  0  0  0  0  0  0
    3.5829  -12.2350    0.0000 C   0  0  0  0  0  0  0  0  0  0  0  0
    4.2980  -11.8295    0.0000 C   0  0  0  0  0  0  0  0  0  0  0  0
    4.3012  -11.0040    0.0000 C   0  0  0  0  0  0  0  0  0  0  0  0
    3.5932  -10.5922    0.0000 C   0  0  0  0  0  0  0  0  0  0  0  0
 21 22  1  0  0  0  0 
 22 23  1  0  0  0  0 
  4  5  1  0  0  0  0 
 18 24  1  6  0  0  0 
 11 12  1  0  0  0  0 
 20 25  1  1  0  0  0 
 12 38  2  0  0  0  0 
 25 26  1  0  0  0  0 
  5  6  1  0  0  0  0 
 21 27  1  1  0  0  0 
 37 13  2  0  0  0  0 
 22 28  1  1  0  0  0 
 28 29  1  0  0  0  0 
 13 14  1  0  0  0  0 
 29 30  1  0  0  0  0 
  6  7  1  1  0  0  0 
 29 31  2  0  0  0  0 
 14 15  2  0  0  0  0 
 23 32  1  6  0  0  0 
 15 12  1  0  0  0  0 
 11 33  2  0  0  0  0 
 30 44  2  0  0  0  0 
  1  2  1  0  0  0  0 
 43 34  2  0  0  0  0 
  3 16  1  6  0  0  0 
 34 35  1  0  0  0  0 
  7  8  1  0  0  0  0 
 35 36  2  0  0  0  0 
 36 30  1  0  0  0  0 
  4 17  1  1  0  0  0 
  1  6  1  0  0  0  0 
 37 38  1  0  0  0  0 
 17 18  1  0  0  0  0 
 38 39  1  0  0  0  0 
 18 19  1  0  0  0  0 
 39 40  2  0  0  0  0 
  1  9  1  1  0  0  0 
 40 41  1  0  0  0  0 
  2  3  1  0  0  0  0 
 41 42  2  0  0  0  0 
 42 37  1  0  0  0  0 
  2 10  1  1  0  0  0 
  3  4  1  0  0  0  0 
 43 44  1  0  0  0  0 
 10 11  1  0  0  0  0 
 44 45  1  0  0  0  0 
 18 23  1  0  0  0  0 
 45 46  2  0  0  0  0 
 19 20  1  0  0  0  0 
 46 47  1  0  0  0  0 
 20 21  1  0  0  0  0 
 47 48  2  0  0  0  0 
 48 43  1  0  0  0  0 
M  END