
  SciTegic01091216402D

 16 17  0  0  0  0            999 V2000
   -5.4348  -13.2000    0.0000 C   0  0
   -5.4359  -14.0273    0.0000 C   0  0
   -4.7211  -14.4402    0.0000 C   0  0
   -4.0047  -14.0269    0.0000 C   0  0
   -4.0075  -13.1963    0.0000 C   0  0
   -4.7229  -12.7872    0.0000 C   0  0
   -3.2977  -12.7824    0.0000 C   0  0
   -2.5814  -13.1940    0.0000 N   0  0
   -1.8689  -12.7795    0.0000 C   0  0
   -1.8716  -11.9536    0.0000 N   0  0
   -2.5926  -11.5440    0.0000 C   0  0
   -3.3021  -11.9608    0.0000 N   0  0
   -2.5987  -10.7190    0.0000 N   0  0
   -1.1531  -13.1896    0.0000 S   0  0
   -0.4400  -12.7748    0.0000 C   0  0
   -4.7254  -11.9622    0.0000 C   0  0
  8  9  1  0
  4  5  1  0
  9 10  2  0
  2  3  1  0
 10 11  1  0
  5  6  2  0
 11 12  2  0
 12  7  1  0
  5  7  1  0
  6  1  1  0
 11 13  1  0
  1  2  2  0
  9 14  1  0
  3  4  2  0
 14 15  1  0
  7  8  2  0
  6 16  1  0
M  END