
  SciTegic01161211222D

 23 25  0  0  0  0            999 V2000
    5.0697   -0.0746    0.0000 N   0  0
    4.9560   -2.5448    0.0000 N   0  0
    4.2628   -2.0958    0.0000 C   0  0
    4.3021   -1.2749    0.0000 N   0  0
    5.0368   -0.8995    0.0000 C   0  0
    5.7299   -1.3443    0.0000 C   0  0
    6.4624   -0.9724    0.0000 C   0  0
    7.1555   -1.4215    0.0000 C   0  0
    7.1162   -2.2424    0.0000 C   0  0
    6.3815   -2.6178    0.0000 C   0  0
    5.6883   -2.1688    0.0000 C   0  0
    7.8093   -2.6873    0.0000 O   0  0
    7.7677   -3.5117    0.0000 C   0  0
    7.8902   -1.0419    0.0000 O   0  0
    8.5833   -1.4910    0.0000 C   0  0
    5.7823    0.3429    0.0000 C   0  0
    5.7800    1.1648    0.0000 C   0  0
    6.4925    1.5781    0.0000 C   0  0
    7.2074    1.1736    0.0000 C   0  0
    7.2118    0.3481    0.0000 C   0  0
    6.4992   -0.0693    0.0000 C   0  0
    5.0630    1.5729    0.0000 F   0  0
    7.9199    1.5869    0.0000 Cl  0  0
  2  3  1  0
  3  4  2  0
  4  5  1  0
  5  6  2  0
  6  7  1  0
  7  8  2  0
  8  9  1  0
  9 10  2  0
 10 11  1  0
  2 11  2  0
  6 11  1  0
  1  5  1  0
 12 13  1  0
  9 12  1  0
 14 15  1  0
  8 14  1  0
 16 17  1  0
 17 18  2  0
 18 19  1  0
 19 20  2  0
 20 21  1  0
 16 21  2  0
 17 22  1  0
 19 23  1  0
  1 16  1  0
M  END