
          11280715462D 1   1.00000     0.00000     0

 30 33  0     0  0            999 V2000
    6.2042   -0.4167    0.0000 C   0  0  0  0  0  0           0  0  0
    6.2125    0.4083    0.0000 C   0  0  0  0  0  0           0  0  0
    6.9167   -0.8375    0.0000 C   0  0  0  0  0  0           0  0  0
    6.9292    0.8125    0.0000 O   0  0  0  0  0  0           0  0  0
    5.4917   -0.8292    0.0000 C   0  0  0  0  0  0           0  0  0
    1.1792   -1.7250    0.0000 N   0  0  3  0  0  0           0  0  0
    7.6375   -0.4292    0.0000 C   0  0  0  0  0  0           0  0  0
    7.6417    0.3958    0.0000 C   0  0  0  0  0  0           0  0  0
    2.6167   -0.8792    0.0000 N   0  0  3  0  0  0           0  0  0
    0.4750   -2.1375    0.0000 C   0  0  0  0  0  0           0  0  0
    5.5000    0.8208    0.0000 O   0  0  0  0  0  0           0  0  0
    1.8917   -2.1167    0.0000 C   0  0  0  0  0  0           0  0  0
    1.1792   -0.8792    0.0000 C   0  0  0  0  0  0           0  0  0
    5.5042   -1.6542    0.0000 O   0  0  0  0  0  0           0  0  0
    4.7667   -0.4250    0.0000 N   0  0  0  0  0  0           0  0  0
   -0.2458   -1.7292    0.0000 C   0  0  0  0  0  0           0  0  0
    0.4792   -2.9625    0.0000 C   0  0  0  0  0  0           0  0  0
    1.8917   -0.4667    0.0000 C   0  0  0  0  0  0           0  0  0
    2.6167   -1.7250    0.0000 C   0  0  0  0  0  0           0  0  0
   -0.9583   -2.9750    0.0000 C   0  0  0  0  0  0           0  0  0
   -0.2333   -3.3875    0.0000 C   0  0  0  0  0  0           0  0  0
   -0.9625   -2.1417    0.0000 C   0  0  0  0  0  0           0  0  0
    4.0542   -0.8542    0.0000 C   0  0  0  0  0  0           0  0  0
    3.3417   -0.4542    0.0000 C   0  0  0  0  0  0           0  0  0
   -1.6708   -3.3917    0.0000 O   0  0  0  0  0  0           0  0  0
    8.3542   -0.8417    0.0000 C   0  0  0  0  0  0           0  0  0
    8.3625    0.8083    0.0000 C   0  0  0  0  0  0           0  0  0
   -1.6625   -4.2167    0.0000 C   0  0  0  0  0  0           0  0  0
    9.0750    0.3958    0.0000 C   0  0  0  0  0  0           0  0  0
    9.0667   -0.4292    0.0000 C   0  0  0  0  0  0           0  0  0
  2  1  1  0     0  0
  3  1  2  0     0  0
  4  2  1  0     0  0
  5  1  1  0     0  0
  6 12  1  0     0  0
  7  3  1  0     0  0
  8  7  2  0     0  0
  9 24  1  0     0  0
 10  6  1  0     0  0
 11  2  2  0     0  0
 12 19  1  0     0  0
 13 18  1  0     0  0
 14  5  2  0     0  0
 15  5  1  0     0  0
 16 10  2  0     0  0
 17 10  1  0     0  0
 18  9  1  0     0  0
 19  9  1  0     0  0
 20 21  1  0     0  0
 21 17  2  0     0  0
 22 16  1  0     0  0
 23 15  1  0     0  0
 24 23  1  0     0  0
 25 20  1  0     0  0
 26  7  1  0     0  0
 27  8  1  0     0  0
 28 25  1  0     0  0
 29 30  1  0     0  0
 30 26  2  0     0  0
  4  8  1  0     0  0
 27 29  2  0     0  0
  6 13  1  0     0  0
 20 22  2  0     0  0
M  END