
          11280715492D 1   1.00000     0.00000     0

 23 25  0     0  0            999 V2000
    1.4490   -6.1114    0.0000 O   0  0  0  0  0  0           0  0  0
    2.1617   -6.5270    0.0000 C   0  0  0  0  0  0           0  0  0
   -2.1167   -4.0458    0.0000 C   0  0  3  0  0  0           0  0  0
   -2.1167   -4.8708    0.0000 C   0  0  0  0  0  0           0  0  0
   -1.4046   -5.2792    0.0000 C   0  0  0  0  0  0           0  0  0
   -0.6926   -4.8708    0.0000 N   0  0  3  0  0  0           0  0  0
   -0.6926   -4.0458    0.0000 C   0  0  0  0  0  0           0  0  0
   -1.4046   -3.6292    0.0000 C   0  0  0  0  0  0           0  0  0
   -2.8323   -3.6354    0.0000 C   0  0  0  0  0  0           0  0  0
   -3.5456   -4.0500    0.0000 C   0  0  0  0  0  0           0  0  0
   -4.3000   -3.7168    0.0000 C   0  0  0  0  0  0           0  0  0
   -4.8502   -4.3315    0.0000 N   0  0  0  0  0  0           0  0  0
   -4.4356   -5.0448    0.0000 C   0  0  0  0  0  0           0  0  0
   -3.6292   -4.8708    0.0000 N   0  0  0  0  0  0           0  0  0
    0.0212   -5.2844    0.0000 C   0  0  0  0  0  0           0  0  0
    0.0200   -6.1094    0.0000 C   0  0  0  0  0  0           0  0  0
    0.7339   -6.5229    0.0000 C   0  0  0  0  0  0           0  0  0
    2.1561   -7.3511    0.0000 C   0  0  0  0  0  0           0  0  0
    2.8680   -7.7666    0.0000 C   0  0  0  0  0  0           0  0  0
    3.5852   -7.3571    0.0000 C   0  0  0  0  0  0           0  0  0
    3.5862   -6.5279    0.0000 C   0  0  0  0  0  0           0  0  0
    2.8737   -6.1161    0.0000 C   0  0  0  0  0  0           0  0  0
    0.7363   -4.8729    0.0000 O   0  0  0  0  0  0           0  0  0
  4  5  1  0     0  0
  5  6  1  0     0  0
 11 12  1  0     0  0
 12 13  1  0     0  0
 13 14  2  0     0  0
 14 10  1  0     0  0
  6  7  1  0     0  0
  6 15  1  0     0  0
  7  8  1  0     0  0
 15 16  1  0     0  0
 16 17  1  0     0  0
 17  1  1  0     0  0
  3  9  1  0     0  0
  2 18  2  0     0  0
  1  2  1  0     0  0
 18 19  1  0     0  0
  9 10  1  0     0  0
 19 20  2  0     0  0
 10 11  2  0     0  0
 20 21  1  0     0  0
  3  4  1  0     0  0
 21 22  2  0     0  0
 22  2  1  0     0  0
  3  8  1  0     0  0
 15 23  2  0     0  0
M  END