
          03140815522D 1   1.00000     0.00000     0

 34 36  0     0  0            999 V2000
   -1.7625    1.9167    0.0000 N   0  0  3  0  0  0           0  0  0
   -1.7625    1.0917    0.0000 C   0  0  0  0  0  0           0  0  0
   -1.0505    0.6833    0.0000 C   0  0  0  0  0  0           0  0  0
   -0.3385    1.0917    0.0000 N   0  0  3  0  0  0           0  0  0
   -0.3385    1.9167    0.0000 C   0  0  0  0  0  0           0  0  0
   -1.0505    2.3333    0.0000 C   0  0  0  0  0  0           0  0  0
    0.3736    0.6792    0.0000 C   0  0  0  0  0  0           0  0  0
    0.3710   -0.1469    0.0000 C   0  0  0  0  0  0           0  0  0
    1.0841   -0.5604    0.0000 C   0  0  0  0  0  0           0  0  0
    1.8001   -0.1488    0.0000 C   0  0  0  0  0  0           0  0  0
    1.7987    0.6804    0.0000 C   0  0  0  0  0  0           0  0  0
    1.0850    1.0901    0.0000 C   0  0  0  0  0  0           0  0  0
    2.5145   -0.5614    0.0000 O   0  0  0  0  0  0           0  0  0
    3.2291   -0.1490    0.0000 C   0  0  0  0  0  0           0  0  0
    3.9435   -0.5616    0.0000 C   0  0  0  0  0  0           0  0  0
    4.6580   -0.1492    0.0000 C   0  0  0  0  0  0           0  0  0
    5.3724   -0.5618    0.0000 N   0  0  3  0  0  0           0  0  0
    0.3772    2.3271    0.0000 O   0  0  0  0  0  0           0  0  0
   -2.4782    2.3271    0.0000 C   0  0  0  0  0  0           0  0  0
   -2.4806    3.1521    0.0000 O   0  0  0  0  0  0           0  0  0
    5.4621   -1.3801    0.0000 C   0  0  0  0  0  0           0  0  0
    6.2691   -1.5517    0.0000 C   0  0  0  0  0  0           0  0  0
    6.6817   -0.8373    0.0000 C   0  0  0  0  0  0           0  0  0
    6.1297   -0.2242    0.0000 C   0  0  0  0  0  0           0  0  0
   -3.1914    1.9125    0.0000 C   0  0  0  0  0  0           0  0  0
   -3.9065    2.3260    0.0000 C   0  0  0  0  0  0           0  0  0
   -4.6193    1.9121    0.0000 C   0  0  0  0  0  0           0  0  0
   -4.6173    1.0862    0.0000 C   0  0  0  0  0  0           0  0  0
   -3.8966    0.6760    0.0000 C   0  0  0  0  0  0           0  0  0
   -3.1868    1.0923    0.0000 C   0  0  0  0  0  0           0  0  0
   -5.3300    0.6707    0.0000 F   0  0  0  0  0  0           0  0  0
    3.6745    1.6375    0.0000 C   0  0  0  0  0  0           0  0  0
    4.3270    1.2645    0.0000 O   0  0  0  0  0  0           0  0  0
    3.6775    2.3895    0.0000 O   0  0  0  0  0  0           0  0  0
  7  8  2  0     0  0
 16 17  1  0     0  0
  1  2  1  0     0  0
  5 18  2  0     0  0
  8  9  1  0     0  0
  1 19  1  0     0  0
  1  6  1  0     0  0
 19 20  2  0     0  0
 17 21  1  0     0  0
  9 10  2  0     0  0
  2  3  1  0     0  0
 10 11  1  0     0  0
  3  4  1  0     0  0
 21 22  1  0     0  0
 22 23  1  0     0  0
 23 24  1  0     0  0
 24 17  1  0     0  0
 11 12  2  0     0  0
 19 25  1  0     0  0
 12  7  1  0     0  0
 25 26  2  0     0  0
  4  7  1  0     0  0
 26 27  1  0     0  0
  4  5  1  0     0  0
 27 28  2  0     0  0
 10 13  1  0     0  0
 28 29  1  0     0  0
  5  6  1  0     0  0
 29 30  2  0     0  0
 30 25  1  0     0  0
 13 14  1  0     0  0
 28 31  1  0     0  0
 14 15  1  0     0  0
 15 16  1  0     0  0
 32 33  1  0     0  0
 32 34  2  0     0  0
M  END