
  Mrv0541 05211314572D          

 19 20  0  0  0  0            999 V2000
   -1.3122    0.1626    0.0000 C   0  0  0  0  0  0  0  0  0  0  0  0
   -2.0659    0.4982    0.0000 N   0  0  0  0  0  0  0  0  0  0  0  0
   -1.3984   -0.6579    0.0000 N   0  0  0  0  0  0  0  0  0  0  0  0
   -0.5977    0.5751    0.0000 C   0  0  0  0  0  0  0  0  0  0  0  0
    0.8312    0.5751    0.0000 O   0  0  0  0  0  0  0  0  0  0  0  0
    0.8312   -1.0749    0.0000 O   0  0  0  0  0  0  0  0  0  0  0  0
    1.5457    0.1626    0.0000 C   0  0  0  0  0  0  0  0  0  0  0  0
   -2.2054   -0.8294    0.0000 C   0  0  0  0  0  0  0  0  0  0  0  0
    0.1167    0.1626    0.0000 C   0  0  0  0  0  0  0  0  0  0  0  0
    1.5457   -0.6624    0.0000 C   0  0  0  0  0  0  0  0  0  0  0  0
   -2.6179   -0.1149    0.0000 C   0  0  0  0  0  0  0  0  0  0  0  0
    0.1167   -0.6624    0.0000 C   0  0  0  0  0  0  0  0  0  0  0  0
   -2.2374    1.3051    0.0000 C   0  0  0  0  0  0  0  0  0  0  0  0
    2.2602    0.5751    0.0000 C   0  0  0  0  0  0  0  0  0  0  0  0
    2.2602   -1.0749    0.0000 C   0  0  0  0  0  0  0  0  0  0  0  0
   -3.0220    1.5601    0.0000 C   0  0  0  0  0  0  0  0  0  0  0  0
    2.9746    0.1626    0.0000 C   0  0  0  0  0  0  0  0  0  0  0  0
    2.9746   -0.6624    0.0000 C   0  0  0  0  0  0  0  0  0  0  0  0
    5.2139    0.0000    0.0000 Cl  0  0  0  0  0  0  0  0  0  0  0  0
  2  1  1  0  0  0  0
  3  1  2  0  0  0  0
  4  1  1  0  0  0  0
  5  9  1  0  0  0  0
  6 12  1  0  0  0  0
  7  5  1  0  0  0  0
  8  3  1  0  0  0  0
  9  4  1  0  0  0  0
 10  7  1  0  0  0  0
 11  2  1  0  0  0  0
 12  9  1  0  0  0  0
 13  2  1  0  0  0  0
 14  7  2  0  0  0  0
 10 15  2  0  0  0  0
 16 13  1  0  0  0  0
 17 14  1  0  0  0  0
 18 15  1  0  0  0  0
 11  8  2  0  0  0  0
 10  6  1  0  0  0  0
 18 17  2  0  0  0  0
M  END