
          11280715222D 1   1.00000     0.00000     0

 24 26  0     0  0            999 V2000
    4.1292   -4.0417    0.0000 N   0  3  0  0  0  0           0  0  0
    4.1292   -3.2167    0.0000 C   0  0  0  0  0  0           0  0  0
    0.5542   -2.0000    0.0000 N   0  0  0  0  0  0           0  0  0
    3.4125   -1.9875    0.0000 C   0  0  0  0  0  0           0  0  0
    4.8417   -2.8042    0.0000 C   0  0  0  0  0  0           0  0  0
    4.8292   -1.9750    0.0000 C   0  0  0  0  0  0           0  0  0
   -0.1583   -1.5917    0.0000 C   0  0  0  0  0  0           0  0  0
    4.1167   -1.5667    0.0000 C   0  0  0  0  0  0           0  0  0
    2.6917   -1.5792    0.0000 C   0  0  0  0  0  0           0  0  0
    3.4125   -2.8125    0.0000 C   0  0  0  0  0  0           0  0  0
    3.4167   -4.4625    0.0000 O   0  5  0  0  0  0           0  0  0
    1.9792   -1.9917    0.0000 C   0  0  0  0  0  0           0  0  0
    4.8500   -4.4542    0.0000 O   0  0  0  0  0  0           0  0  0
    1.2667   -1.5875    0.0000 C   0  0  0  0  0  0           0  0  0
   -0.8583   -2.0125    0.0000 C   0  0  0  0  0  0           0  0  0
   -0.1583   -0.7750    0.0000 C   0  0  0  0  0  0           0  0  0
    0.5500   -0.3542    0.0000 C   0  0  0  0  0  0           0  0  0
    5.5417   -1.5542    0.0000 Br  0  0  0  0  0  0           0  0  0
    4.1042   -0.7417    0.0000 O   0  0  0  0  0  0           0  0  0
    1.2625   -0.7625    0.0000 C   0  0  0  0  0  0           0  0  0
   -0.8500   -2.8375    0.0000 O   0  0  0  0  0  0           0  0  0
   -1.5833   -0.7792    0.0000 C   0  0  0  0  0  0           0  0  0
   -1.5750   -1.6125    0.0000 C   0  0  0  0  0  0           0  0  0
   -0.8750   -0.3667    0.0000 C   0  0  0  0  0  0           0  0  0
  2  1  1  0     0  0
  3 14  1  0     0  0
  4 10  2  0     0  0
  5  2  2  0     0  0
  6  5  1  0     0  0
  7  3  2  0     0  0
  8  4  1  0     0  0
  9  4  1  0     0  0
 10  2  1  0     0  0
 11  1  1  0     0  0
 12  9  2  0     0  0
 13  1  2  0     0  0
 14 12  1  0     0  0
 15  7  1  0     0  0
 16 17  2  0     0  0
 17 20  1  0     0  0
 18  6  1  0     0  0
 19  8  1  0     0  0
 20 14  2  0     0  0
 21 15  1  0     0  0
 22 24  2  0     0  0
 23 15  2  0     0  0
 24 16  1  0     0  0
  8  6  2  0     0  0
 16  7  1  0     0  0
 22 23  1  0     0  0
M  CHG  2   1   1  11  -1
M  END