
          05270816392D 1   1.00000     0.00000     0

 36 42  0     1  0            999 V2000
    9.4312  -11.7198    0.0000 C   0  0  0  0  0  0           0  0  0
    9.4298  -12.5428    0.0000 C   0  0  0  0  0  0           0  0  0
   10.8545  -11.7158    0.0000 C   0  0  0  0  0  0           0  0  0
   10.1454  -11.3070    0.0000 C   0  0  0  0  0  0           0  0  0
   10.8576  -12.5424    0.0000 C   0  0  0  0  0  0           0  0  0
   10.1462  -12.9569    0.0000 C   0  0  0  0  0  0           0  0  0
   10.1449  -13.7790    0.0000 C   0  0  0  0  0  0           0  0  0
   10.8579  -14.1928    0.0000 C   0  0  0  0  0  0           0  0  0
    8.8139  -13.0949    0.0000 N   0  0  0  0  0  0           0  0  0
    9.3604  -14.0336    0.0000 C   0  0  0  0  0  0           0  0  0
   11.5724  -12.9545    0.0000 C   0  0  2  0  0  0           0  0  0
   11.5731  -13.7824    0.0000 C   0  0  2  0  0  0           0  0  0
   12.2866  -14.1933    0.0000 N   0  0  3  0  0  0           0  0  0
   13.0037  -13.7809    0.0000 C   0  0  0  0  0  0           0  0  0
   13.0028  -12.9530    0.0000 C   0  0  1  0  0  0           0  0  0
   12.2849  -12.5375    0.0000 C   0  0  0  0  0  0           0  0  0
   11.5640  -14.6028    0.0000 H   0  0  0  0  0  0           0  0  0
   11.5640  -12.1278    0.0000 H   0  0  0  0  0  0           0  0  0
   13.7173  -12.5405    0.0000 C   0  0  0  0  0  0           0  0  0
   13.7173  -11.7155    0.0000 O   0  0  0  0  0  0           0  0  0
   14.4318  -12.9530    0.0000 N   0  0  3  0  0  0           0  0  0
   14.4267  -13.7833    0.0000 C   0  0  0  0  0  0           0  0  0
   15.1371  -14.1957    0.0000 C   0  0  0  0  0  0           0  0  0
   15.8540  -13.7867    0.0000 N   0  0  3  0  0  0           0  0  0
   15.8560  -12.9607    0.0000 C   0  0  0  0  0  0           0  0  0
   15.1410  -12.5438    0.0000 C   0  0  0  0  0  0           0  0  0
   16.5669  -14.2019    0.0000 C   0  0  0  0  0  0           0  0  0
   16.5589  -15.0258    0.0000 C   0  0  0  0  0  0           0  0  0
   17.2709  -15.4409    0.0000 C   0  0  0  0  0  0           0  0  0
   17.2758  -13.7903    0.0000 N   0  0  0  0  0  0           0  0  0
   12.2863  -15.0183    0.0000 C   0  0  0  0  0  0           0  0  0
   18.7743  -15.2878    0.0000 N   0  0  0  0  0  0           0  0  0
   19.2627  -14.6184    0.0000 S   0  0  0  0  0  0           0  0  0
   18.7770  -13.9472    0.0000 N   0  0  0  0  0  0           0  0  0
   17.9885  -14.2018    0.0000 C   0  0  0  0  0  0           0  0  0
   17.9868  -15.0303    0.0000 C   0  0  0  0  0  0           0  0  0
  6  7  1  0     0  0
 12 17  1  1     0  0
  7  8  1  0     0  0
 11 18  1  6     0  0
  8 12  1  0     0  0
 15 19  1  1     0  0
  3  4  2  0     0  0
 19 20  2  0     0  0
  2  9  1  0     0  0
 19 21  1  0     0  0
 21 22  1  0     0  0
  4  1  1  0     0  0
  7 10  2  0     0  0
  9 10  1  0     0  0
 11 12  1  0     0  0
  5  6  2  0     0  0
 21 26  1  0     0  0
 22 23  1  0     0  0
 23 24  1  0     0  0
 24 25  1  0     0  0
 25 26  1  0     0  0
  2  6  1  0     0  0
 24 27  1  0     0  0
 27 28  1  0     0  0
  5  3  1  0     0  0
 28 29  2  0     0  0
 29 36  1  0     0  0
  1  2  2  0     0  0
 35 30  1  0     0  0
 30 27  2  0     0  0
  5 11  1  0     0  0
 13 31  1  0     0  0
 35 36  1  0     0  0
 11 16  1  0     0  0
 12 13  1  0     0  0
 33 34  1  0     0  0
 13 14  1  0     0  0
 14 15  1  0     0  0
 15 16  1  0     0  0
 32 33  1  0     0  0
 34 35  2  0     0  0
 36 32  2  0     0  0
M  END