
  SciTegic11021510522D

 11 12  0  0  0  0            999 V2000
   -8.7141    3.0643    0.0000 C   0  0
   -9.4286    3.4768    0.0000 C   0  0
  -10.1430    3.0643    0.0000 C   0  0
  -10.1431    2.2393    0.0000 C   0  0
   -9.4286    1.8268    0.0000 C   0  0
   -8.7141    2.2393    0.0000 C   0  0
   -7.9295    1.9843    0.0000 O   0  0
   -7.4446    2.6518    0.0000 N   0  0
   -7.9294    3.3192    0.0000 C   0  0
   -7.6745    4.1038    0.0000 O   0  0
  -10.8575    1.8268    0.0000 Cl  0  0
  1  2  2  0
  2  3  1  0
  3  4  2  0
  4  5  1  0
  5  6  2  0
  6  7  1  0
  1  6  1  0
  1  9  1  0
  7  8  1  0
  8  9  2  0
  9 10  1  0
  4 11  1  0
M  END