
  SciTegic12231509382D

 31 34  0  0  0  0            999 V2000
  -14.3101    2.9843    0.0000 N   0  0
   -3.9122    1.4966    0.0000 C   0  0
   -2.6111    0.7486    0.0000 C   0  0
  -15.6097    3.7348    0.0000 C   0  0
  -11.7121    1.4840    0.0000 N   0  0
   -1.2964    1.4973    0.0000 C   0  0
    0.0000    0.7486    0.0000 C   0  0
  -13.0110    3.7342    0.0000 C   0  0
  -14.3102    1.4843    0.0000 C   0  0
   -3.9141    2.6966    0.0000 O   0  0
  -15.6120    5.2349    0.0000 C   0  0
   -2.6111   -0.7486    0.0000 C   0  0
    0.0000   -0.7486    0.0000 C   0  0
   -1.2964   -1.4973    0.0000 C   0  0
   -5.2109    0.7445    0.0000 N   0  0
  -13.0113    0.7342    0.0000 C   0  0
  -11.7120    2.9841    0.0000 C   0  0
  -14.3150    5.9900    0.0000 O   0  0
  -10.4109    0.7361    0.0000 C   0  0
  -16.9077    2.9830    0.0000 C   0  0
    1.2964    1.4973    0.0000 C   0  0
  -16.9122    5.9830    0.0000 C   0  0
   -6.5121    1.4924    0.0000 C   0  0
    1.2964   -1.4973    0.0000 C   0  0
  -14.3185    7.1900    0.0000 C   0  0
   -9.1121    1.4882    0.0000 C   0  0
   -7.8109    0.7403    0.0000 C   0  0
  -18.2079    3.7310    0.0000 C   0  0
    2.5929    0.7486    0.0000 C   0  0
  -18.2101    5.2310    0.0000 C   0  0
    2.5929   -0.7486    0.0000 C   0  0
  2  3  1  0
  1  4  1  0
  3  6  2  0
  6  7  1  0
  1  8  1  0
  1  9  1  0
  2 10  2  0
  4 11  1  0
  3 12  1  0
  7 13  1  0
 12 14  2  0
 13 14  1  0
  2 15  1  0
  5 16  1  0
  9 16  1  0
  5 17  1  0
  8 17  1  0
 11 18  1  0
  5 19  1  0
  4 20  2  0
  7 21  2  0
 11 22  2  0
 15 23  1  0
 13 24  2  0
 18 25  1  0
 19 26  1  0
 23 27  1  0
 26 27  1  0
 20 28  1  0
 21 29  1  0
 22 30  1  0
 28 30  2  0
 24 31  1  0
 29 31  2  0
M  END