
  SciTegic06051313552D

 25 27  0  0  0  0            999 V2000
   13.3561   -2.9309    0.0000 C   0  0  1  0  0  0
   14.4379   -3.7426    0.0000 C   0  0  2  0  0  0
   13.9165   -3.3080    0.0000 C   0  0
   12.9320   -3.3080    0.0000 C   0  0  2  0  0  0
   12.7902   -2.4871    0.0000 N   0  0
   14.3003   -2.9117    0.0000 C   0  0
   12.4034   -4.0299    0.0000 C   0  0
   13.0324   -3.6519    0.0000 C   0  0  2  0  0  0
   12.3113   -3.2367    0.0000 O   0  0
   11.5986   -3.6511    0.0000 C   0  0
   11.6004   -4.4728    0.0000 O   0  0
   10.8841   -3.2397    0.0000 C   0  0
   12.3647   -1.7792    0.0000 C   0  0
   14.2188   -4.5363    0.0000 O   0  0
   14.8004   -5.1242    0.0000 C   0  0
   14.5800   -5.9183    0.0000 O   0  0
   15.5983   -4.9140    0.0000 C   0  0
   16.1761   -5.5016    0.0000 C   0  0
   16.9730   -5.2921    0.0000 C   0  0
   17.1945   -4.4970    0.0000 C   0  0
   16.6055   -3.9072    0.0000 C   0  0
   15.8118   -4.1171    0.0000 C   0  0
   13.5641   -2.1296    0.0000 H   0  0
   12.3454   -2.7203    0.0000 H   0  0
   15.9577   -6.2957    0.0000 Cl  0  0
  2  3  1  0
  3  4  1  0
  4  5  1  0
  5  1  1  0
  1  6  1  0
  6  2  1  0
  4  7  1  0
  1  8  1  0
  7  8  1  0
  8  9  1  1
  9 10  1  0
 10 11  2  0
 10 12  1  0
  5 13  1  0
  2 14  1  6
 14 15  1  0
 15 16  2  0
 15 17  1  0
 17 18  2  0
 18 19  1  0
 19 20  2  0
 20 21  1  0
 21 22  2  0
 22 17  1  0
  1 23  1  6
  4 24  1  6
 18 25  1  0
M  END