
          08180812482D 1   1.00000     0.00000     0

 21 22  0     0  0            999 V2000
    8.1652   -4.2541    0.0000 N   0  0  0  0  0  0           0  0  0
    8.1641   -5.0815    0.0000 C   0  0  0  0  0  0           0  0  0
    8.8789   -5.4944    0.0000 C   0  0  0  0  0  0           0  0  0
    8.8771   -3.8414    0.0000 C   0  0  0  0  0  0           0  0  0
    9.5925   -4.2505    0.0000 C   0  0  0  0  0  0           0  0  0
    9.5927   -5.0815    0.0000 C   0  0  0  0  0  0           0  0  0
   10.3488   -3.9211    0.0000 C   0  0  0  0  0  0           0  0  0
   11.0123   -4.4114    0.0000 N   0  3  0  0  0  0           0  0  0
   11.0027   -5.2357    0.0000 C   0  0  0  0  0  0           0  0  0
   11.7852   -5.4970    0.0000 S   0  0  0  0  0  0           0  0  0
   12.2756   -4.8334    0.0000 C   0  0  0  0  0  0           0  0  0
   11.7960   -4.1622    0.0000 C   0  0  0  0  0  0           0  0  0
   12.0565   -3.3794    0.0000 C   0  0  0  0  0  0           0  0  0
   13.1005   -4.8400    0.0000 C   0  0  0  0  0  0           0  0  0
   13.5073   -5.5578    0.0000 C   0  0  0  0  0  0           0  0  0
   14.3323   -5.5644    0.0000 O   0  0  0  0  0  0           0  0  0
    8.8746   -3.0164    0.0000 N   0  0  0  0  0  0           0  0  0
    7.4493   -5.4934    0.0000 C   0  0  3  0  0  0           0  0  0
    6.7292   -5.9000    0.0000 F   0  0  0  0  0  0           0  0  0
    7.8581   -6.2100    0.0000 F   0  0  0  0  0  0           0  0  0
    7.0422   -4.7758    0.0000 F   0  0  0  0  0  0           0  0  0
  9 10  1  0     0  0
 10 11  1  0     0  0
 11 12  2  0     0  0
 12  8  1  0     0  0
  2  3  1  0     0  0
 12 13  1  0     0  0
  3  6  2  0     0  0
 11 14  1  0     0  0
  5  7  1  0     0  0
 14 15  1  0     0  0
  1  2  2  0     0  0
 15 16  1  0     0  0
  7  8  1  0     0  0
  4 17  1  0     0  0
  8  9  2  0     0  0
  2 18  1  0     0  0
  5  4  2  0     0  0
 18 19  1  0     0  0
  4  1  1  0     0  0
 18 20  1  0     0  0
  5  6  1  0     0  0
 18 21  1  0     0  0
M  CHG  1   8   1
M  END