
          11280715352D 1   1.00000     0.00000     0

 29 32  0     0  0            999 V2000
    5.0542   -7.3917    0.0000 C   0  0  0  0  0  0           0  0  0
    5.7792   -6.2792    0.0000 N   0  0  0  0  0  0           0  0  0
    5.0125   -6.5667    0.0000 N   0  0  0  0  0  0           0  0  0
    6.3042   -6.9167    0.0000 N   0  0  0  0  0  0           0  0  0
    5.8542   -7.6125    0.0000 N   0  0  0  0  0  0           0  0  0
    4.3417   -1.1917    0.0000 N   0  0  0  0  0  0           0  0  0
    4.3417   -7.8042    0.0000 C   0  0  0  0  0  0           0  0  0
    5.0542   -2.4292    0.0000 C   0  0  0  0  0  0           0  0  0
    4.3417   -2.8417    0.0000 C   0  0  0  0  0  0           0  0  0
    5.0542   -1.6042    0.0000 C   0  0  0  0  0  0           0  0  0
    3.6292   -7.3917    0.0000 C   0  0  0  0  0  0           0  0  0
    3.6250   -2.4292    0.0000 C   0  0  0  0  0  0           0  0  0
    3.6250   -1.6042    0.0000 C   0  0  0  0  0  0           0  0  0
    3.6292   -6.5667    0.0000 C   0  0  0  0  0  0           0  0  0
    4.3417   -3.6667    0.0000 O   0  0  0  0  0  0           0  0  0
    2.9167   -6.1542    0.0000 C   0  0  0  0  0  0           0  0  0
    4.3417   -6.1542    0.0000 C   0  0  0  0  0  0           0  0  0
    5.7750   -2.8542    0.0000 O   0  0  0  0  0  0           0  0  0
    3.6292   -4.0792    0.0000 C   0  0  0  0  0  0           0  0  0
    3.6292   -4.9125    0.0000 C   0  0  0  0  0  0           0  0  0
    4.3417   -5.3250    0.0000 C   0  0  0  0  0  0           0  0  0
    2.9167   -5.3250    0.0000 C   0  0  0  0  0  0           0  0  0
    4.3417   -8.6375    0.0000 C   0  0  0  0  0  0           0  0  0
    2.9125   -7.8042    0.0000 C   0  0  0  0  0  0           0  0  0
    5.7750   -1.1792    0.0000 C   0  0  0  0  0  0           0  0  0
    2.9042   -1.1792    0.0000 C   0  0  0  0  0  0           0  0  0
    6.4917   -2.4417    0.0000 C   0  0  0  0  0  0           0  0  0
    3.6292   -9.0500    0.0000 C   0  0  0  0  0  0           0  0  0
    2.9125   -8.6375    0.0000 C   0  0  0  0  0  0           0  0  0
  2  3  2  0     0  0
  3  1  1  0     0  0
  4  5  1  0     0  0
  5  1  2  0     0  0
  6 13  1  0     0  0
  7  1  1  0     0  0
  8  9  2  0     0  0
  9 15  1  0     0  0
 10  8  1  0     0  0
 11  7  2  0     0  0
 12  9  1  0     0  0
 13 12  2  0     0  0
 14 11  1  0     0  0
 15 19  1  0     0  0
 16 14  2  0     0  0
 17 14  1  0     0  0
 18  8  1  0     0  0
 19 20  1  0     0  0
 20 21  1  0     0  0
 21 17  2  0     0  0
 22 16  1  0     0  0
 23  7  1  0     0  0
 24 11  1  0     0  0
 25 10  1  0     0  0
 26 13  1  0     0  0
 27 18  1  0     0  0
 28 23  2  0     0  0
 29 28  1  0     0  0
  2  4  1  0     0  0
 29 24  2  0     0  0
 22 20  2  0     0  0
 10  6  2  0     0  0
M  END