
  Mrv0541 04051115152D          

 28 31  0  0  0  0            999 V2000
   -1.7852   -1.8806    0.0000 C   0  0  0  0  0  0  0  0  0  0  0  0
   -2.5736   -2.1238    0.0000 C   0  0  0  0  0  0  0  0  0  0  0  0
   -2.8750   -2.8917    0.0000 C   0  0  0  0  0  0  0  0  0  0  0  0
   -2.4625   -3.6062    0.0000 N   0  0  0  0  0  0  0  0  0  0  0  0
   -1.6467   -3.7292    0.0000 C   0  0  0  0  0  0  0  0  0  0  0  0
   -1.0419   -3.1680    0.0000 C   0  0  0  0  0  0  0  0  0  0  0  0
   -1.1036   -2.3453    0.0000 N   0  0  0  0  0  0  0  0  0  0  0  0
   -0.3891   -1.9328    0.0000 C   0  0  0  0  0  0  0  0  0  0  0  0
    0.3254   -2.3453    0.0000 O   0  0  0  0  0  0  0  0  0  0  0  0
   -0.3891   -1.1078    0.0000 C   0  0  0  0  0  0  0  0  0  0  0  0
    0.3254   -0.6953    0.0000 C   0  0  0  0  0  0  0  0  0  0  0  0
   -1.1036   -0.6953    0.0000 C   0  0  0  0  0  0  0  0  0  0  0  0
   -1.8180   -1.1078    0.0000 F   0  0  0  0  0  0  0  0  0  0  0  0
   -1.1036    0.1297    0.0000 C   0  0  0  0  0  0  0  0  0  0  0  0
   -0.3891    0.5422    0.0000 C   0  0  0  0  0  0  0  0  0  0  0  0
    0.3254    0.1297    0.0000 C   0  0  0  0  0  0  0  0  0  0  0  0
    1.0398    0.5422    0.0000 C   0  0  0  0  0  0  0  0  0  0  0  0
    1.0398    1.3672    0.0000 C   0  0  0  0  0  0  0  0  0  0  0  0
    1.7543    1.7797    0.0000 C   0  0  0  0  0  0  0  0  0  0  0  0
    2.4688    1.3672    0.0000 C   0  0  0  0  0  0  0  0  0  0  0  0
    3.1832    1.7797    0.0000 C   0  0  0  0  0  0  0  0  0  0  0  0
    3.1832    2.6047    0.0000 C   0  0  0  0  0  0  0  0  0  0  0  0
    2.4688    3.0172    0.0000 C   0  0  0  0  0  0  0  0  0  0  0  0
    1.7543    2.6047    0.0000 C   0  0  0  0  0  0  0  0  0  0  0  0
    1.0398    3.0172    0.0000 C   0  0  0  0  0  0  0  0  0  0  0  0
    1.0398    3.8422    0.0000 O   0  0  0  0  0  0  0  0  0  0  0  0
    0.3254    2.6047    0.0000 N   0  0  0  0  0  0  0  0  0  0  0  0
    0.3254    1.7797    0.0000 N   0  0  0  0  0  0  0  0  0  0  0  0
  2  1  1  0  0  0  0
  1  7  1  0  0  0  0
  2  3  1  0  0  0  0
  3  4  1  0  0  0  0
  5  4  1  0  0  0  0
  5  6  1  0  0  0  0
  6  7  1  0  0  0  0
  8  7  1  0  0  0  0
  8  9  2  0  0  0  0
  8 10  1  0  0  0  0
 11 10  2  0  0  0  0
 12 10  1  0  0  0  0
 11 16  1  0  0  0  0
 12 13  1  0  0  0  0
 14 12  2  0  0  0  0
 15 14  1  0  0  0  0
 15 16  2  0  0  0  0
 17 16  1  0  0  0  0
 17 18  1  0  0  0  0
 18 19  1  0  0  0  0
 18 28  2  0  0  0  0
 20 19  2  0  0  0  0
 19 24  1  0  0  0  0
 21 20  1  0  0  0  0
 21 22  2  0  0  0  0
 22 23  1  0  0  0  0
 23 24  2  0  0  0  0
 25 24  1  0  0  0  0
 25 26  2  0  0  0  0
 25 27  1  0  0  0  0
 28 27  1  0  0  0  0
M  END