
  SciTegic01161211212D

 20 22  0  0  0  0            999 V2000
   -3.3982    2.7464    0.0000 C   0  0
   -4.2256    2.7499    0.0000 C   0  0
   -4.6407    2.0362    0.0000 N   0  0
   -4.2293    1.3185    0.0000 C   0  0
   -3.3987    1.3189    0.0000 C   0  0
   -2.9875    2.0332    0.0000 C   0  0
   -2.9856    0.6048    0.0000 C   0  0
   -3.4005   -0.1054    0.0000 N   0  0
   -2.9881   -0.8192    0.0000 C   0  0
   -2.1621   -0.8189    0.0000 C   0  0
   -1.7504   -0.0989    0.0000 C   0  0
   -2.1652    0.6118    0.0000 C   0  0
   -1.7574    1.3290    0.0000 C   0  0
   -0.9324    1.3345    0.0000 C   0  0
   -0.5195    0.6226    0.0000 C   0  0
    0.3049    0.6277    0.0000 C   0  0
    0.7135    1.3455    0.0000 C   0  0
    0.2917    2.0596    0.0000 C   0  0
   -0.5312    2.0510    0.0000 C   0  0
    1.5386    1.3520    0.0000 N   0  0
  9 10  1  0
  2  3  1  0
 10 11  1  0
  5  6  2  0
 11 12  1  0
 12  7  1  0
  6  1  1  0
 12 13  2  0
  1  2  2  0
 13 14  1  0
  5  7  1  0
 14 15  2  0
  3  4  2  0
 15 16  1  0
  7  8  2  0
 16 17  2  0
 17 18  1  0
  8  9  1  0
 18 19  2  0
 19 14  1  0
  4  5  1  0
 17 20  1  0
M  END