
  SciTegic09171211542D

 44 48  0  0  0  0            999 V2000
    1.2917  -12.0250    0.0000 O   0  0
    0.8833  -11.3125    0.0000 P   0  0
    0.4705  -12.0224    0.0000 O   0  0
   -0.1292  -11.8875    0.0000 O   0  0
   -0.5375  -11.1750    0.0000 P   0  0
   -0.9504  -11.8849    0.0000 O   0  0
   -5.9014   -7.6250    0.0000 N   0  0
   -5.9026   -8.4523    0.0000 C   0  0
   -5.1878   -8.8652    0.0000 N   0  0
   -5.1896   -7.2122    0.0000 C   0  0
   -4.4742   -7.6213    0.0000 C   0  0
   -4.4694   -8.4478    0.0000 C   0  0
   -3.6819   -8.6986    0.0000 N   0  0
   -3.1999   -8.0271    0.0000 C   0  0
   -3.6897   -7.3614    0.0000 N   0  0
   -5.1920   -6.3872    0.0000 N   0  0
   -3.4184   -9.4809    0.0000 C   0  0  1  0  0  0
   -3.8994  -10.1512    0.0000 C   0  0  1  0  0  0
   -3.4106  -10.8158    0.0000 C   0  0  1  0  0  0
   -2.6274  -10.5563    0.0000 C   0  0  2  0  0  0
   -2.6324   -9.7313    0.0000 O   0  0
   -1.9572  -11.0373    0.0000 C   0  0
   -1.2055  -10.6973    0.0000 O   0  0
   -3.6610  -11.6019    0.0000 O   0  0
   -4.7244  -10.1560    0.0000 O   0  0
    0.2136  -10.8338    0.0000 O   0  0
    1.6358  -10.9725    0.0000 O   0  0
    2.3059  -11.4538    0.0000 C   0  0
    3.0577  -11.1142    0.0000 C   0  0  2  0  0  0
    3.7719  -11.5192    0.0000 C   0  0  2  0  0  0
    4.3820  -10.9638    0.0000 C   0  0  2  0  0  0
    4.0423  -10.2120    0.0000 C   0  0  1  0  0  0
    3.2223  -10.3028    0.0000 O   0  0
    4.4509   -9.4952    0.0000 N   0  0
    5.2729   -9.4936    0.0000 C   0  0
    5.6814   -8.7809    0.0000 C   0  0
    5.2685   -8.0663    0.0000 C   0  0
    4.4425   -8.0689    0.0000 C   0  0
    4.0295   -8.7861    0.0000 C   0  0
    4.0265   -7.3544    0.0000 C   0  0
    4.4375   -6.6391    0.0000 N   0  0
    3.2015   -7.3562    0.0000 O   0  0
    3.8635  -12.3391    0.0000 O   0  0
    5.1899  -11.1310    0.0000 O   0  0
 20 22  1  6
  5  4  1  0
 22 23  1  0
 23  5  1  0
  6  5  2  0
 19 24  1  1
  7  8  2  0
 18 25  1  1
  5 26  1  0
 26  2  1  0
 12 13  1  0
  2 27  1  0
 13 14  1  0
 27 28  1  0
 14 15  2  0
 29 28  1  1
 29 30  1  0
 15 11  1  0
  8  9  1  0
 10 16  1  0
 17 18  1  0
 30 31  1  0
 31 32  1  0
 32 33  1  0
 33 29  1  0
  9 12  2  0
 32 34  1  1
 34 35  1  0
  2  1  1  0
 11 10  2  0
 10  7  1  0
 11 12  1  0
 18 19  1  0
 34 39  1  0
 35 36  1  0
 36 37  1  0
 37 38  1  0
 38 39  2  0
 19 20  1  0
 20 21  1  0
 21 17  1  0
 40 41  1  0
 40 42  2  0
 38 40  1  0
 17 13  1  6
 30 43  1  6
  3  2  2  0
 31 44  1  6
M  END