
  SciTegic01091216402D

 22 23  0  0  0  0            999 V2000
   -2.2580   -3.8053    0.0000 C   0  0
   -2.6553   -4.5284    0.0000 C   0  0
   -2.2303   -5.2325    0.0000 C   0  0
   -1.4043   -5.2158    0.0000 C   0  0
   -1.0070   -4.4928    0.0000 C   0  0
   -1.4358   -3.7866    0.0000 C   0  0
   -1.5691   -0.9809    0.0000 N   0  0
   -2.3953   -0.9998    0.0000 N   0  0
   -2.6679   -0.2212    0.0000 C   0  0
   -2.0104    0.2789    0.0000 C   0  0
   -1.3303   -0.1939    0.0000 C   0  0
   -1.0690   -1.6383    0.0000 C   0  0
   -1.4663   -2.3612    0.0000 N   0  0
   -0.2468   -1.6195    0.0000 N   0  0
   -2.0255    1.1035    0.0000 C   0  0
   -2.7506    1.5003    0.0000 C   0  0
    0.1505   -0.8965    0.0000 C   0  0
   -0.2745   -0.1923    0.0000 C   0  0
   -1.0388   -3.0668    0.0000 S   0  0
   -0.3047   -3.4619    0.0000 O   0  0
   -0.4669   -2.4668    0.0000 O   0  0
   -2.6862   -3.1002    0.0000 Cl  0  0
  2  3  2  0
  3  4  1  0
  4  5  2  0
  7  8  1  0
  8  9  2  0
  9 10  1  0
 10 11  1  0
  7 11  1  0
 12 13  2  0
 12 14  1  0
  7 12  1  0
 15 16  1  0
 10 15  1  0
 17 18  1  0
 14 17  1  0
  5  6  1  0
 13 19  1  0
 19  6  1  0
  1  6  2  0
 19 20  2  0
 19 21  2  0
  1  2  1  0
  1 22  1  0
M  END