
  Mrv0541 09091309572D          

 34 36  0  0  0  0            999 V2000
   -0.1615   -6.5617    0.0000 N   0  0  0  0  0  0  0  0  0  0  0  0
   -0.1615   -7.3912    0.0000 C   0  0  0  0  0  0  0  0  0  0  0  0
    0.5529   -7.8037    0.0000 N   0  0  0  0  0  0  0  0  0  0  0  0
    0.5529   -6.1446    0.0000 C   0  0  0  0  0  0  0  0  0  0  0  0
    1.2719   -6.5617    0.0000 C   0  0  0  0  0  0  0  0  0  0  0  0
    1.2719   -7.3923    0.0000 C   0  0  0  0  0  0  0  0  0  0  0  0
    2.0618   -7.6490    0.0000 C   0  0  0  0  0  0  0  0  0  0  0  0
    2.5501   -6.9770    0.0000 C   0  0  0  0  0  0  0  0  0  0  0  0
    2.0619   -6.3051    0.0000 N   0  0  0  0  0  0  0  0  0  0  0  0
    0.5518   -5.3196    0.0000 O   0  0  0  0  0  0  0  0  0  0  0  0
   -0.8770   -6.1509    0.0000 C   0  0  0  0  0  0  0  0  0  0  0  0
   -0.8760   -7.8037    0.0000 O   0  0  0  0  0  0  0  0  0  0  0  0
    0.5514   -8.6287    0.0000 C   0  0  0  0  0  0  0  0  0  0  0  0
    3.3751   -6.9770    0.0000 C   0  0  0  0  0  0  0  0  0  0  0  0
    3.7857   -7.6908    0.0000 C   0  0  0  0  0  0  0  0  0  0  0  0
    4.6099   -7.6911    0.0000 C   0  0  0  0  0  0  0  0  0  0  0  0
    5.0232   -6.9762    0.0000 C   0  0  0  0  0  0  0  0  0  0  0  0
    4.6063   -6.2593    0.0000 C   0  0  0  0  0  0  0  0  0  0  0  0
    3.7834   -6.2625    0.0000 C   0  0  0  0  0  0  0  0  0  0  0  0
    5.8482   -6.9751    0.0000 O   0  0  0  0  0  0  0  0  0  0  0  0
   -1.5904   -6.5651    0.0000 C   0  0  0  0  0  0  0  0  0  0  0  0
    6.2617   -7.6891    0.0000 C   0  0  0  0  0  0  0  0  0  0  0  0
    7.0866   -7.6880    0.0000 C   0  0  0  0  0  0  0  0  0  0  0  0
    7.5001   -8.4018    0.0000 O   0  0  0  0  0  0  0  0  0  0  0  0
    7.4981   -6.9729    0.0000 N   0  0  0  0  0  0  0  0  0  0  0  0
    8.3231   -6.9718    0.0000 C   0  0  0  0  0  0  0  0  0  0  0  0
    8.7347   -6.2568    0.0000 C   0  0  0  0  0  0  0  0  0  0  0  0
    9.5597   -6.2557    0.0000 O   0  0  0  0  0  0  0  0  0  0  0  0
   -2.3083   -6.9708    0.0000 C   0  0  0  0  0  0  0  0  0  0  0  0
   -1.1803   -7.2810    0.0000 H   0  0  0  0  0  0  0  0  0  0  0  0
   -2.0007   -5.8494    0.0000 H   0  0  0  0  0  0  0  0  0  0  0  0
   -3.0250   -7.3792    0.0000 H   0  0  0  0  0  0  0  0  0  0  0  0
   -2.7155   -6.2533    0.0000 H   0  0  0  0  0  0  0  0  0  0  0  0
   -1.9010   -7.6883    0.0000 H   0  0  0  0  0  0  0  0  0  0  0  0
  6  7  1  0  0  0  0
 16 17  2  0  0  0  0
  7  8  2  0  0  0  0
 17 18  1  0  0  0  0
  8  9  1  0  0  0  0
 18 19  2  0  0  0  0
 19 14  1  0  0  0  0
  9  5  1  0  0  0  0
 17 20  1  0  0  0  0
  5  4  1  0  0  0  0
 11 21  1  0  0  0  0
  4 10  2  0  0  0  0
  5  6  2  0  0  0  0
 20 22  1  0  0  0  0
  1 11  1  0  0  0  0
 22 23  1  0  0  0  0
 23 24  2  0  0  0  0
  2 12  2  0  0  0  0
 23 25  1  0  0  0  0
  1  2  1  0  0  0  0
 25 26  1  0  0  0  0
  3 13  1  0  0  0  0
 26 27  1  0  0  0  0
  1  4  1  0  0  0  0
 27 28  1  0  0  0  0
 21 29  1  0  0  0  0
  8 14  1  0  0  0  0
 21 30  1  0  0  0  0
  2  3  1  0  0  0  0
 21 31  1  0  0  0  0
 14 15  2  0  0  0  0
 29 32  1  0  0  0  0
  3  6  1  0  0  0  0
 29 33  1  0  0  0  0
 15 16  1  0  0  0  0
 29 34  1  0  0  0  0
M  ISO  5  30   3  31   3  32   3  33   3  34   3
M  END