
          11280715082D 1   1.00000     0.00000     0

 33 37  0     0  0            999 V2000
    7.9500   -4.1542    0.0000 N   0  0  3  0  0  0           0  0  0
    7.2792   -4.6292    0.0000 C   0  0  0  0  0  0           0  0  0
    5.9167   -5.0667    0.0000 C   0  0  3  0  0  0           0  0  0
    6.4792   -4.4625    0.0000 C   0  0  0  0  0  0           0  0  0
    7.5292   -5.4167    0.0000 C   0  0  0  0  0  0           0  0  0
    8.6125   -4.6292    0.0000 C   0  0  0  0  0  0           0  0  0
    8.3542   -5.4167    0.0000 C   0  0  0  0  0  0           0  0  0
    7.9500   -3.3292    0.0000 C   0  0  0  0  0  0           0  0  0
    5.1167   -4.8917    0.0000 C   0  0  0  0  0  0           0  0  0
    5.5042   -5.7792    0.0000 C   0  0  0  0  0  0           0  0  0
    6.1750   -5.8542    0.0000 C   0  0  0  0  0  0           0  0  0
    6.2250   -3.6750    0.0000 O   0  0  0  0  0  0           0  0  0
    6.9792   -6.0292    0.0000 C   0  0  0  0  0  0           0  0  0
    8.6667   -2.9167    0.0000 C   0  0  0  0  0  0           0  0  0
    8.6667   -2.0875    0.0000 C   0  0  0  0  0  0           0  0  0
    4.8625   -4.1042    0.0000 C   0  0  0  0  0  0           0  0  0
    4.6792   -5.7667    0.0000 C   0  0  0  0  0  0           0  0  0
    9.3792   -1.6750    0.0000 C   0  0  0  0  0  0           0  0  0
   10.0917   -0.4375    0.0000 N   0  0  0  0  0  0           0  0  0
   10.0917   -2.9167    0.0000 C   0  0  0  0  0  0           0  0  0
    9.3792   -3.3292    0.0000 C   0  0  0  0  0  0           0  0  0
    9.3750   -0.8500    0.0000 C   0  0  0  0  0  0           0  0  0
   10.0917   -2.0875    0.0000 C   0  0  0  0  0  0           0  0  0
    5.4167   -3.5042    0.0000 C   0  0  0  0  0  0           0  0  0
    4.0542   -3.9417    0.0000 C   0  0  0  0  0  0           0  0  0
    4.2750   -5.0542    0.0000 C   0  0  0  0  0  0           0  0  0
    4.2625   -6.4792    0.0000 C   0  0  0  0  0  0           0  0  0
    3.8042   -3.1542    0.0000 C   0  0  0  0  0  0           0  0  0
    3.4500   -5.0417    0.0000 C   0  0  0  0  0  0           0  0  0
    3.4417   -6.4792    0.0000 C   0  0  0  0  0  0           0  0  0
    5.1667   -2.7167    0.0000 C   0  0  0  0  0  0           0  0  0
    4.3625   -2.5417    0.0000 C   0  0  0  0  0  0           0  0  0
    3.0292   -5.7542    0.0000 C   0  0  0  0  0  0           0  0  0
  2  1  1  0     0  0
  3  4  1  0     0  0
  4  2  1  0     0  0
  5  2  2  0     0  0
  6  1  1  0     0  0
  7  6  2  0     0  0
  8  1  1  0     0  0
  9  3  1  0     0  0
 10  3  1  0     0  0
 11 13  1  0     0  0
 12  4  2  0     0  0
 13  5  1  0     0  0
 14  8  1  0     0  0
 15 14  2  0     0  0
 16  9  1  0     0  0
 17 10  1  0     0  0
 18 15  1  0     0  0
 19 22  1  0     0  0
 20 21  2  0     0  0
 21 14  1  0     0  0
 22 18  1  0     0  0
 23 20  1  0     0  0
 24 16  2  0     0  0
 25 16  1  0     0  0
 26 17  2  0     0  0
 27 17  1  0     0  0
 28 25  2  0     0  0
 29 26  1  0     0  0
 30 27  2  0     0  0
 31 24  1  0     0  0
 32 28  1  0     0  0
 33 30  1  0     0  0
  7  5  1  0     0  0
 11  3  1  0     0  0
 23 18  2  0     0  0
 33 29  2  0     0  0
 32 31  2  0     0  0
M  END