
  CDK    6/4/10,11:42

 19 20  0  0  0  0  0  0  0  0999 V2000
   -1.1750  -13.4708    0.0000 N   0  0  0  0  0  0  0  0  0  0  0  0
   -0.3500  -13.4708    0.0000 N   0  0  0  0  0  0  0  0  0  0  0  0
   -0.0932  -14.2549    0.0000 C   0  0  0  0  0  0  0  0  0  0  0  0
   -0.7625  -14.7417    0.0000 S   0  0  0  0  0  0  0  0  0  0  0  0
   -1.4276  -14.2549    0.0000 C   0  0  0  0  0  0  0  0  0  0  0  0
    0.6167  -14.6667    0.0000 S   0  0  0  0  0  0  0  0  0  0  0  0
    1.3316  -14.2561    0.0000 C   0  0  0  0  0  0  0  0  0  0  0  0
    1.9979  -14.7373    0.0000 S   0  0  0  0  0  0  0  0  0  0  0  0
    2.6649  -14.2516    0.0000 C   0  0  0  0  0  0  0  0  0  0  0  0
    2.4091  -13.4672    0.0000 C   0  0  0  0  0  0  0  0  0  0  0  0
    1.5841  -13.4682    0.0000 N   0  0  0  0  0  0  0  0  0  0  0  0
   -2.1458  -14.6625    0.0000 N   0  0  0  0  0  0  0  0  0  0  0  0
   -2.8572  -14.2447    0.0000 C   0  0  0  0  0  0  0  0  0  0  0  0
   -3.5747  -14.6518    0.0000 C   0  0  0  0  0  0  0  0  0  0  0  0
    3.4541  -14.5042    0.0000 N   0  0  0  0  0  0  0  0  0  0  0  0
    4.0667  -13.9515    0.0000 O   0  0  0  0  0  0  0  0  0  0  0  0
    3.6265  -15.3109    0.0000 O   0  0  0  0  0  0  0  0  0  0  0  0
   -4.2861  -14.2340    0.0000 O   0  0  0  0  0  0  0  0  0  0  0  0
   -5.0036  -14.6411    0.0000 C   0  0  0  0  0  0  0  0  0  0  0  0
  5  1  2  0  0  0  0 
  8  9  1  0  0  0  0 
  9 10  2  0  0  0  0 
 10 11  1  0  0  0  0 
 11  7  2  0  0  0  0 
  1  2  1  0  0  0  0 
  5 12  1  0  0  0  0 
  3  6  1  0  0  0  0 
 12 13  1  0  0  0  0 
 13 14  1  0  0  0  0 
  6  7  1  0  0  0  0 
  7  8  1  0  0  0  0 
  2  3  2  0  0  0  0 
 15 16  2  0  0  0  0 
 15 17  1  0  0  0  0 
  9 15  1  0  0  0  0 
  3  4  1  0  0  0  0 
 14 18  1  0  0  0  0 
  4  5  1  0  0  0  0 
 18 19  1  0  0  0  0 
M  CHG  1  15   1
M  CHG  1  17  -1
M  END