
  SciTegic06051315212D

 16 16  0  0  0  0            999 V2000
   11.4393   -2.7487    0.0000 C   0  0
   11.4381   -3.5682    0.0000 C   0  0
   12.1462   -3.9772    0.0000 C   0  0
   12.8558   -3.5678    0.0000 C   0  0
   12.8530   -2.7451    0.0000 C   0  0
   12.1444   -2.3398    0.0000 C   0  0
   12.1419   -1.5226    0.0000 S   0  0
   12.8484   -1.1119    0.0000 N   0  0
   11.3458   -1.7293    0.0000 O   0  0
   11.7255   -0.8089    0.0000 O   0  0
   13.5592   -2.3338    0.0000 F   0  0
   10.7315   -2.3403    0.0000 F   0  0
   10.7301   -3.9763    0.0000 F   0  0
   13.5642   -3.9752    0.0000 F   0  0
   12.1460   -4.7944    0.0000 N   0  0
   11.4382   -5.2028    0.0000 N   0  0
  1  2  2  0
  2  3  1  0
  3  4  2  0
  4  5  1  0
  5  6  2  0
  6  1  1  0
  6  7  1  0
  7  8  1  0
  7  9  2  0
  7 10  2  0
  5 11  1  0
  1 12  1  0
  2 13  1  0
  4 14  1  0
  3 15  1  0
 15 16  1  0
M  END