
          11280715472D 1   1.00000     0.00000     0

 21 22  0     0  0            999 V2000
    0.9917   -0.7750    0.0000 C   0  0  0  0  0  0           0  0  0
    2.4167   -0.7750    0.0000 N   0  0  0  0  0  0           0  0  0
    0.2792   -1.1875    0.0000 C   0  0  0  0  0  0           0  0  0
    1.7042   -1.1875    0.0000 N   0  0  0  0  0  0           0  0  0
    5.2750    0.0458    0.0000 C   0  0  0  0  0  0           0  0  0
    0.9917    0.0500    0.0000 O   0  0  0  0  0  0           0  0  0
    0.2792   -2.0042    0.0000 C   0  0  0  0  0  0           0  0  0
   -0.4333   -0.7667    0.0000 C   0  0  0  0  0  0           0  0  0
    5.2750   -0.7792    0.0000 C   0  0  0  0  0  0           0  0  0
    4.5542    0.4583    0.0000 C   0  0  0  0  0  0           0  0  0
    3.1292   -1.1875    0.0000 C   0  0  0  0  0  0           0  0  0
    3.8500   -0.7792    0.0000 C   0  0  0  0  0  0           0  0  0
   -1.1458   -2.0042    0.0000 C   0  0  0  0  0  0           0  0  0
    5.9875    0.4583    0.0000 C   0  0  3  0  0  0           0  0  0
    3.8417    0.0458    0.0000 C   0  0  0  0  0  0           0  0  0
    4.5542   -1.1917    0.0000 C   0  0  0  0  0  0           0  0  0
   -0.4333   -2.4167    0.0000 C   0  0  0  0  0  0           0  0  0
   -1.1458   -1.1792    0.0000 C   0  0  0  0  0  0           0  0  0
   -1.8625   -2.4167    0.0000 O   0  0  0  0  0  0           0  0  0
    6.7042    0.0458    0.0000 C   0  0  0  0  0  0           0  0  0
    5.9875    1.2833    0.0000 C   0  0  0  0  0  0           0  0  0
  2  4  1  0     0  0
  3  1  1  0     0  0
  4  1  1  0     0  0
  5  9  2  0     0  0
  6  1  2  0     0  0
  7  3  1  0     0  0
  8  3  2  0     0  0
  9 16  1  0     0  0
 10 15  2  0     0  0
 11  2  2  0     0  0
 12 11  1  0     0  0
 13 18  2  0     0  0
 14  5  1  0     0  0
 15 12  1  0     0  0
 16 12  2  0     0  0
 17  7  2  0     0  0
 18  8  1  0     0  0
 19 13  1  0     0  0
 20 14  1  0     0  0
 21 14  1  0     0  0
 13 17  1  0     0  0
  5 10  1  0     0  0
M  END