
          03140815512D 1   1.00000     0.00000     0

 19 20  0     0  0            999 V2000
    9.8365  -21.0458    0.0000 C   0  0  0  0  0  0           0  0  0
    8.4125  -21.0458    0.0000 N   0  0  3  0  0  0           0  0  0
    8.4125  -21.8708    0.0000 C   0  0  0  0  0  0           0  0  0
    9.1245  -22.2792    0.0000 C   0  0  0  0  0  0           0  0  0
    9.8365  -21.8708    0.0000 O   0  0  0  0  0  0           0  0  0
    9.1245  -20.6292    0.0000 C   0  0  0  0  0  0           0  0  0
    7.6968  -20.6354    0.0000 C   0  0  0  0  0  0           0  0  0
    7.6944  -19.8104    0.0000 O   0  0  0  0  0  0           0  0  0
    6.9836  -21.0500    0.0000 C   0  0  0  0  0  0           0  0  0
    6.2679  -20.6396    0.0000 O   0  0  0  0  0  0           0  0  0
    5.5546  -21.0542    0.0000 C   0  0  0  0  0  0           0  0  0
    4.8397  -20.6405    0.0000 C   0  0  0  0  0  0           0  0  0
    4.1269  -21.0544    0.0000 C   0  0  0  0  0  0           0  0  0
    4.1289  -21.8803    0.0000 C   0  0  0  0  0  0           0  0  0
    4.8496  -22.2905    0.0000 C   0  0  0  0  0  0           0  0  0
    5.5594  -21.8742    0.0000 C   0  0  0  0  0  0           0  0  0
    3.4162  -22.2958    0.0000 O   0  0  0  0  0  0           0  0  0
    2.6999  -21.8863    0.0000 C   0  0  0  0  0  0           0  0  0
    1.9872  -22.3019    0.0000 C   0  0  0  0  0  0           0  0  0
  3  4  1  0     0  0
  9 10  1  0     0  0
  4  5  1  0     0  0
 10 11  1  0     0  0
  5  1  1  0     0  0
 11 12  2  0     0  0
  1  6  1  0     0  0
 12 13  1  0     0  0
  2  3  1  0     0  0
 13 14  2  0     0  0
  2  7  1  0     0  0
 14 15  1  0     0  0
 15 16  2  0     0  0
 16 11  1  0     0  0
  7  8  2  0     0  0
 14 17  1  0     0  0
  2  6  1  0     0  0
 17 18  1  0     0  0
  7  9  1  0     0  0
 18 19  1  0     0  0
M  END