
  SciTegic09261414462D

 21 23  0  0  0  0            999 V2000
   24.2784   -8.2512    0.0000 N   0  0
   24.2634   -9.0695    0.0000 C   0  0
   23.5479   -9.4668    0.0000 N   0  0
   23.5350  -10.2815    0.0000 C   0  0
   24.2355  -10.7024    0.0000 C   0  0
   24.9488  -10.3086    0.0000 C   0  0
   24.9638   -9.4904    0.0000 N   0  0
   25.6493  -10.7295    0.0000 N   0  0
   25.7178  -11.5397    0.0000 C   0  0
   26.5166  -11.7274    0.0000 C   0  0  1  0  0  0
   26.9375  -11.0269    0.0000 C   0  0
   26.3989  -10.4062    0.0000 C   0  0
   26.8343  -12.4785    0.0000 N   0  0
   27.6470  -12.5767    0.0000 C   0  0
   22.8196  -10.6789    0.0000 C   0  0
   22.1188  -10.2586    0.0000 C   0  0
   22.1360   -9.4429    0.0000 C   0  0
   21.4361   -9.0227    0.0000 C   0  0
   20.7207   -9.4195    0.0000 C   0  0
   20.7096  -10.2408    0.0000 C   0  0
   21.4102  -10.6573    0.0000 C   0  0
  2  3  1  0
  3  4  2  0
  4  5  1  0
  5  6  2  0
  6  7  1  0
  2  7  2  0
  1  2  1  0
  8  9  1  0
  9 10  1  0
 10 11  1  0
 11 12  1  0
  8 12  1  0
 13 14  1  0
 10 13  1  1
  6  8  1  0
  4 15  1  0
 15 16  1  0
 16 17  2  0
 17 18  1  0
 18 19  2  0
 19 20  1  0
 20 21  2  0
 21 16  1  0
M  END