
  SciTegic04091414152D

 34 38  0  0  0  0            999 V2000
    4.8833   -2.8076    0.0000 C   0  0
    4.2587   -3.3445    0.0000 C   0  0  2  0  0  0
    4.4139   -4.1512    0.0000 C   0  0
    5.2068   -4.3978    0.0000 N   0  3
    5.8174   -3.8827    0.0000 C   0  0
    5.6626   -3.0697    0.0000 C   0  0
    4.4876   -3.5292    0.0000 C   0  0
    5.2911   -3.7151    0.0000 C   0  0
    3.4796   -3.0731    0.0000 O   0  0
    2.0586   -2.9008    0.0000 C   0  0
    1.5132   -3.5246    0.0000 C   0  0
    2.7241   -3.3986    0.0000 C   0  0
    1.2979   -2.5764    0.0000 C   0  0
    1.0692   -1.7824    0.0000 C   0  0
    1.5510   -1.1093    0.0000 C   0  0
    2.3727   -1.0751    0.0000 C   0  0
    2.9203   -1.6920    0.0000 C   0  0
    2.7798   -2.5074    0.0000 C   0  0
    0.6918   -3.4540    0.0000 C   0  0
    0.3662   -4.2156    0.0000 C   0  0
    0.9899   -4.7607    0.0000 C   0  0
    1.7010   -4.3359    0.0000 C   0  0
    2.6262   -4.2178    0.0000 O   0  0
    5.2628   -5.2209    0.0000 C   0  0
    6.0036   -5.5840    0.0000 C   0  0
    6.0595   -6.4071    0.0000 O   0  0
    6.6885   -5.1241    0.0000 N   0  0
    7.4292   -5.4871    0.0000 C   0  0
    7.4821   -6.3076    0.0000 C   0  0
    8.2220   -6.6708    0.0000 C   0  0
    8.9078   -6.2107    0.0000 C   0  0
    8.8490   -5.3835    0.0000 N   0  0
    8.1087   -5.0242    0.0000 N   0  0
    9.6490   -6.5729    0.0000 Cl  0  0
  1  2  1  0
  1  6  1  0
  2  3  1  0
  3  4  1  0
  4  5  1  0
  5  6  1  0
  1  7  1  0
  4  8  1  0
  7  8  1  0
  2  9  1  6
 11 10  1  0
 10 12  1  0
 13 14  1  0
 14 15  1  0
 15 16  1  0
 13 10  1  0
 16 17  1  0
 10 18  1  0
 17 18  1  0
 11 19  2  0
 19 20  1  0
 20 21  2  0
 21 22  1  0
 22 11  1  0
 12 23  2  0
 12  9  1  0
  4 24  1  0
 24 25  1  0
 25 26  2  0
 25 27  1  0
 27 28  1  0
 28 29  1  0
 29 30  2  0
 30 31  1  0
 31 32  2  0
 32 33  1  0
 33 28  2  0
 31 34  1  0
M  CHG  1   4   1
M  END