
  CDK    9/16/09,9:58

 24 28  0  0  0  0  0  0  0  0999 V2000
    1.7011    1.4503    0.0000 C   0  0  0  0  0  0  0  0  0  0  0  0
    1.6998    0.6216    0.0000 C   0  0  0  0  0  0  0  0  0  0  0  0
    2.4137    0.2082    0.0000 C   0  0  0  0  0  0  0  0  0  0  0  0
    2.4117    1.8637    0.0000 C   0  0  0  0  0  0  0  0  0  0  0  0
    3.1309    1.4543    0.0000 C   0  0  0  0  0  0  0  0  0  0  0  0
    3.1314    0.6262    0.0000 C   0  0  0  0  0  0  0  0  0  0  0  0
    3.9192    0.3708    0.0000 N   0  0  0  0  0  0  0  0  0  0  0  0
    4.4055    1.0411    0.0000 C   0  0  0  0  0  0  0  0  0  0  0  0
    3.9182    1.7107    0.0000 N   0  0  0  0  0  0  0  0  0  0  0  0
    5.2316    1.0416    0.0000 N   0  0  0  0  0  0  0  0  0  0  0  0
    5.6452    0.3266    0.0000 C   0  0  0  0  0  0  0  0  0  0  0  0
    5.2321   -0.3855    0.0000 C   0  0  0  0  0  0  0  0  0  0  0  0
    5.6422   -1.0986    0.0000 C   0  0  0  0  0  0  0  0  0  0  0  0
    6.4686   -1.1022    0.0000 C   0  0  0  0  0  0  0  0  0  0  0  0
    6.4717    0.3325    0.0000 C   0  0  0  0  0  0  0  0  0  0  0  0
    6.8802   -0.3852    0.0000 C   0  0  0  0  0  0  0  0  0  0  0  0
    7.7042   -0.3891    0.0000 C   0  0  0  0  0  0  0  0  0  0  0  0
    8.1206    0.3238    0.0000 C   0  0  0  0  0  0  0  0  0  0  0  0
    6.8843    1.0427    0.0000 C   0  0  0  0  0  0  0  0  0  0  0  0
    7.7056    1.0385    0.0000 C   0  0  0  0  0  0  0  0  0  0  0  0
    8.1180    1.7464    0.0000 C   0  0  0  0  0  0  0  0  0  0  0  0
    7.7104    2.4590    0.0000 C   0  0  0  0  0  0  0  0  0  0  0  0
    6.8861    2.4592    0.0000 C   0  0  0  0  0  0  0  0  0  0  0  0
    6.4773    1.7508    0.0000 C   0  0  0  0  0  0  0  0  0  0  0  0
 11 12  1  0  0  0  0 
  2  3  1  0  0  0  0 
  3  6  2  0  0  0  0 
 11 15  1  0  0  0  0 
 12 13  1  0  0  0  0 
 13 14  1  0  0  0  0 
 14 16  1  0  0  0  0 
  1  2  2  0  0  0  0 
  5  4  2  0  0  0  0 
 15 16  2  0  0  0  0 
  6  7  1  0  0  0  0 
 16 17  1  0  0  0  0 
  7  8  1  0  0  0  0 
 17 18  2  0  0  0  0 
 18 20  1  0  0  0  0 
 19 15  1  0  0  0  0 
  8  9  2  0  0  0  0 
  9  5  1  0  0  0  0 
 19 20  1  0  0  0  0 
  4  1  1  0  0  0  0 
 20 21  2  0  0  0  0 
  8 10  1  0  0  0  0 
 21 22  1  0  0  0  0 
  5  6  1  0  0  0  0 
 22 23  2  0  0  0  0 
 10 11  1  0  0  0  0 
 23 24  1  0  0  0  0 
 24 19  2  0  0  0  0 
M  END