
  SciTegic06081615472D

 27 30  0  0  0  0            999 V2000
   -4.1755    3.1377    0.0000 N   0  0
   -4.8900    2.7252    0.0000 C   0  0  1  0  0  0
   -4.3066    2.1419    0.0000 C   0  0
   -3.5922    2.5544    0.0000 C   0  0  1  0  0  0
   -2.7953    2.3408    0.0000 C   0  0  2  0  0  0
   -3.2078    3.0553    0.0000 C   0  0
   -4.1755    3.9627    0.0000 C   0  0
   -3.3505    3.9627    0.0000 C   0  0
   -5.6045    2.3127    0.0000 C   0  0  1  0  0  0
   -5.6045    1.4877    0.0000 C   0  0
   -6.3189    1.0752    0.0000 C   0  0
   -6.3189    0.2502    0.0000 C   0  0
   -5.6045   -0.1623    0.0000 N   0  0
   -4.8900    0.2502    0.0000 C   0  0
   -4.8900    1.0752    0.0000 C   0  0
   -7.0334    1.4877    0.0000 C   0  0
   -7.7479    1.0753    0.0000 C   0  0
   -7.7479    0.2503    0.0000 C   0  0
   -7.0334   -0.1623    0.0000 C   0  0
   -5.3025    3.4397    0.0000 H   0  0
   -6.0170    3.0272    0.0000 H   0  0
   -6.4014    2.0992    0.0000 O   0  0
   -8.4624    1.4878    0.0000 O   0  0
   -9.1768    1.0753    0.0000 C   0  0
   -2.0808    2.7533    0.0000 H   0  0
   -2.7953    1.5158    0.0000 C   0  0
   -2.0808    1.1033    0.0000 C   0  0
  1  2  1  0
  2  3  1  0
  3  4  1  0
  4  5  1  0
  5  6  1  0
  6  1  1  0
  1  7  1  0
  7  8  1  0
  4  8  1  6
  2  9  1  0
  9 10  1  0
 10 11  1  0
 15 10  2  0
 12 13  1  0
 13 14  2  0
 14 15  1  0
 11 16  2  0
 12 11  1  0
 19 12  2  0
 16 17  1  0
 17 18  2  0
 18 19  1  0
  2 20  1  6
  9 21  1  6
  9 22  1  0
 17 23  1  0
 23 24  1  0
  5 25  1  1
  5 26  1  0
 26 27  2  0
M  END