
          11280715052D 1   1.00000     0.00000     0

 28 31  0     0  0            999 V2000
    1.0917   -4.2542    0.0000 N   0  0  3  0  0  0           0  0  0
    1.3292   -3.7042    0.0000 C   0  0  0  0  0  0           0  0  0
    3.7792   -3.7000    0.0000 C   0  0  0  0  0  0           0  0  0
    0.3625   -3.6167    0.0000 N   0  0  0  0  0  0           0  0  0
    3.1792   -3.6542    0.0000 N   0  0  0  0  0  0           0  0  0
    3.0417   -3.0667    0.0000 N   0  0  0  0  0  0           0  0  0
    0.4917   -4.2042    0.0000 C   0  0  0  0  0  0           0  0  0
    4.0042   -3.1500    0.0000 N   0  0  0  0  0  0           0  0  0
    0.8792   -3.3125    0.0000 N   0  0  0  0  0  0           0  0  0
    3.5542   -2.7542    0.0000 N   0  0  0  0  0  0           0  0  0
    4.0917   -4.2125    0.0000 C   0  0  0  0  0  0           0  0  0
    3.8042   -4.7375    0.0000 C   0  0  0  0  0  0           0  0  0
    1.4042   -4.7792    0.0000 C   0  0  0  0  0  0           0  0  0
    3.2042   -4.7500    0.0000 C   0  0  0  0  0  0           0  0  0
    1.9167   -3.5750    0.0000 O   0  0  0  0  0  0           0  0  0
    2.9167   -5.2750    0.0000 C   0  0  0  0  0  0           0  0  0
    2.9000   -4.2375    0.0000 C   0  0  0  0  0  0           0  0  0
    2.0042   -4.7667    0.0000 C   0  0  0  0  0  0           0  0  0
    2.2917   -4.2417    0.0000 C   0  0  0  0  0  0           0  0  0
    2.3125   -5.2792    0.0000 C   0  0  0  0  0  0           0  0  0
    0.1000   -4.6542    0.0000 C   0  0  0  0  0  0           0  0  0
    4.6917   -4.1917    0.0000 C   0  0  0  0  0  0           0  0  0
    4.1125   -5.2500    0.0000 C   0  0  0  0  0  0           0  0  0
   -0.4875   -4.5417    0.0000 C   0  0  0  0  0  0           0  0  0
   -0.8833   -4.9917    0.0000 C   0  0  0  0  0  0           0  0  0
    5.0042   -4.7125    0.0000 C   0  0  0  0  0  0           0  0  0
    4.7125   -5.2417    0.0000 C   0  0  0  0  0  0           0  0  0
   -1.4708   -4.8750    0.0000 C   0  0  0  0  0  0           0  0  0
  2  1  1  0     0  0
  3 11  1  0     0  0
  4  7  2  0     0  0
  5  3  1  0     0  0
  6  5  2  0     0  0
  7  1  1  0     0  0
  8  3  2  0     0  0
  9  2  2  0     0  0
 10  8  1  0     0  0
 11 12  2  0     0  0
 12 14  1  0     0  0
 13  1  1  0     0  0
 14 16  2  0     0  0
 15  2  1  0     0  0
 16 20  1  0     0  0
 17 19  2  0     0  0
 18 13  1  0     0  0
 19 18  1  0     0  0
 20 18  2  0     0  0
 21  7  1  0     0  0
 22 11  1  0     0  0
 23 12  1  0     0  0
 24 21  1  0     0  0
 25 24  1  0     0  0
 26 27  1  0     0  0
 27 23  2  0     0  0
 28 25  1  0     0  0
  4  9  1  0     0  0
 17 14  1  0     0  0
 22 26  2  0     0  0
  6 10  1  0     0  0
M  END