
          11280715362D 1   1.00000     0.00000     0

 35 36  0     1  0            999 V2000
    3.0917   -2.8667    0.0000 P   0  0  3  0  0  0           0  0  0
    6.2375   -5.0667    0.0000 C   0  0  0  0  0  0           0  0  0
    6.5875   -4.5917    0.0000 N   0  0  0  0  0  0           0  0  0
    7.5500   -4.1792    0.0000 C   0  0  0  0  0  0           0  0  0
    5.6375   -5.0042    0.0000 C   0  0  1  0  0  0           0  0  0
    7.1917   -4.6542    0.0000 C   0  0  2  0  0  0           0  0  0
    5.2792   -5.4792    0.0000 N   0  0  0  0  0  0           0  0  0
    8.1500   -4.2417    0.0000 N   0  0  0  0  0  0           0  0  0
    4.6750   -5.4167    0.0000 C   0  0  0  0  0  0           0  0  0
    3.6875   -2.7542    0.0000 O   0  0  0  0  0  0           0  0  0
    2.9792   -2.2792    0.0000 O   0  0  0  0  0  0           0  0  0
    6.4792   -5.6292    0.0000 O   0  0  0  0  0  0           0  0  0
    5.3917   -4.4417    0.0000 C   0  0  0  0  0  0           0  0  0
    7.3042   -3.6292    0.0000 O   0  0  0  0  0  0           0  0  0
    7.4375   -5.2167    0.0000 C   0  0  0  0  0  0           0  0  0
   10.2000   -4.3167    0.0000 N   0  0  0  0  0  0           0  0  0
    4.4375   -4.8667    0.0000 O   0  0  0  0  0  0           0  0  0
    3.2042   -3.4667    0.0000 O   0  0  0  0  0  0           0  0  0
    2.5000   -2.9917    0.0000 O   0  0  0  0  0  0           0  0  0
    4.0875   -3.2167    0.0000 C   0  0  0  0  0  0           0  0  0
    4.8750   -4.1417    0.0000 C   0  0  0  0  0  0           0  0  0
    8.5042   -3.7667    0.0000 C   0  0  0  0  0  0           0  0  0
    5.0667   -3.5667    0.0000 C   0  0  0  0  0  0           0  0  0
    4.2750   -4.2417    0.0000 C   0  0  0  0  0  0           0  0  0
    4.6750   -3.1167    0.0000 C   0  0  0  0  0  0           0  0  0
    3.8875   -3.7917    0.0000 C   0  0  0  0  0  0           0  0  0
    9.1000   -3.8292    0.0000 C   0  0  0  0  0  0           0  0  0
    7.8042   -5.6792    0.0000 C   0  0  3  0  0  0           0  0  0
    4.3250   -5.8917    0.0000 C   0  0  0  0  0  0           0  0  0
   10.1375   -3.7292    0.0000 C   0  0  0  0  0  0           0  0  0
    9.7125   -4.6792    0.0000 C   0  0  0  0  0  0           0  0  0
    9.1667   -4.4292    0.0000 C   0  0  0  0  0  0           0  0  0
    9.5875   -3.4792    0.0000 C   0  0  0  0  0  0           0  0  0
    7.5875   -6.2417    0.0000 C   0  0  0  0  0  0           0  0  0
    8.4000   -5.7542    0.0000 C   0  0  0  0  0  0           0  0  0
  2  5  1  0     0  0
  3  2  1  0     0  0
  4  6  1  0     0  0
  5 13  1  1     0  0
  6  3  1  0     0  0
  7  5  1  0     0  0
  8  4  1  0     0  0
  9  7  1  0     0  0
 10  1  1  0     0  0
 11  1  2  0     0  0
 12  2  2  0     0  0
 13 21  1  0     0  0
 14  4  2  0     0  0
  6 15  1  6     0  0
 16 30  2  0     0  0
 17  9  2  0     0  0
 18  1  1  0     0  0
 19  1  1  0     0  0
 20 10  1  0     0  0
 21 24  2  0     0  0
 22  8  1  0     0  0
 23 25  2  0     0  0
 24 26  1  0     0  0
 25 20  1  0     0  0
 26 20  2  0     0  0
 27 22  1  0     0  0
 28 15  1  0     0  0
 29  9  1  0     0  0
 30 33  1  0     0  0
 31 32  2  0     0  0
 32 27  1  0     0  0
 33 27  2  0     0  0
 34 28  1  0     0  0
 35 28  1  0     0  0
 21 23  1  0     0  0
 31 16  1  0     0  0
M  END