
  SciTegic02271515152D

 41 43  0  0  0  0            999 V2000
   27.1269  -23.6820    0.0000 C   0  0
   27.1257  -24.5015    0.0000 C   0  0
   27.8338  -24.9105    0.0000 C   0  0
   28.5434  -24.5011    0.0000 C   0  0
   28.5406  -23.6784    0.0000 C   0  0
   27.8320  -23.2731    0.0000 C   0  0
   26.4190  -23.2736    0.0000 C   0  0
   25.7114  -23.6823    0.0000 N   0  0
   29.2478  -24.9066    0.0000 C   0  0
   29.3345  -25.7192    0.0000 C   0  0
   30.1341  -25.8878    0.0000 N   0  0
   30.5416  -25.1794    0.0000 C   0  0
   29.9938  -24.5731    0.0000 S   0  0
   25.0036  -23.2739    0.0000 C   0  0
   24.2960  -23.6827    0.0000 O   0  0
   25.0034  -22.4567    0.0000 C   0  0  2  0  0  0
   25.6698  -21.9773    0.0000 C   0  0
   25.4171  -21.2001    0.0000 C   0  0  2  0  0  0
   24.5999  -21.2003    0.0000 C   0  0
   24.3477  -21.9776    0.0000 N   0  0
   23.5702  -22.2293    0.0000 C   0  0
   23.3994  -23.0284    0.0000 O   0  0
   25.8973  -20.5389    0.0000 O   0  0
   28.7281  -26.2670    0.0000 C   0  0
   22.9635  -21.6818    0.0000 C   0  0  2  0  0  0
   23.1343  -20.8826    0.0000 C   0  0
   22.1860  -21.9334    0.0000 N   0  0
   23.9118  -20.6310    0.0000 C   0  0
   22.5276  -20.3351    0.0000 C   0  0
   23.3436  -20.0872    0.0000 C   0  0
   21.5794  -21.3859    0.0000 C   0  0
   20.8019  -21.6376    0.0000 C   0  0  1  0  0  0
   21.7502  -20.5868    0.0000 O   0  0
   20.1952  -21.0901    0.0000 N   0  0
   20.6311  -22.4367    0.0000 C   0  0
   20.3660  -20.2909    0.0000 C   0  0
   19.7593  -19.7435    0.0000 C   0  0
   21.1435  -20.0393    0.0000 O   0  0
   21.2387  -22.9823    0.0000 C   0  0
   19.8539  -22.6894    0.0000 C   0  0
   20.4133  -23.2239    0.0000 C   0  0
  1  2  2  0
  2  3  1  0
  3  4  2  0
  4  5  1  0
  5  6  2  0
  6  1  1  0
  1  7  1  0
  7  8  1  0
  9 10  2  0
 10 11  1  0
 11 12  2  0
 12 13  1  0
 13  9  1  0
  4  9  1  0
  8 14  1  0
 14 15  2  0
 16 14  1  1
 16 17  1  0
 17 18  1  0
 18 19  1  0
 19 20  1  0
 20 16  1  0
 20 21  1  0
 21 22  2  0
 18 23  1  6
 10 24  1  0
 21 25  1  0
 25 26  1  1
 25 27  1  0
 26 28  1  0
 26 29  1  0
 26 30  1  0
 27 31  1  0
 31 32  1  0
 31 33  2  0
 32 34  1  0
 32 35  1  6
 34 36  1  0
 36 37  1  0
 36 38  2  0
 35 39  1  0
 35 40  1  0
 35 41  1  0
M  END