
  Mrv0541 09091311442D          

 42 44  0  0  1  0            999 V2000
    5.9633   -5.0320    0.0000 C   0  0  1  0  0  0  0  0  0  0  0  0
    6.4532   -4.3680    0.0000 C   0  0  2  0  0  0  0  0  0  0  0  0
    5.9748   -3.6942    0.0000 C   0  0  1  0  0  0  0  0  0  0  0  0
    5.1833   -3.9466    0.0000 O   0  0  0  0  0  0  0  0  0  0  0  0
    5.1811   -4.7700    0.0000 C   0  0  2  0  0  0  0  0  0  0  0  0
    7.2774   -4.3744    0.0000 O   0  0  0  0  0  0  0  0  0  0  0  0
    6.2105   -5.8183    0.0000 O   0  0  0  0  0  0  0  0  0  0  0  0
    6.2336   -2.9141    0.0000 N   0  0  0  0  0  0  0  0  0  0  0  0
    4.5125   -5.2530    0.0000 C   0  0  0  0  0  0  0  0  0  0  0  0
    3.7637   -4.9114    0.0000 O   0  0  0  0  0  0  0  0  0  0  0  0
    3.0913   -5.3919    0.0000 P   0  0  0  0  0  0  0  0  0  0  0  0
    2.4405   -5.9057    0.0000 O   0  0  0  0  0  0  0  0  0  0  0  0
    1.6720   -5.5990    0.0000 P   0  0  0  0  0  0  0  0  0  0  0  0
    0.8984   -5.3005    0.0000 C   0  0  0  0  0  0  0  0  0  0  0  0
    0.1255   -4.9966    0.0000 P   0  0  0  0  0  0  0  0  0  0  0  0
   -0.6463   -4.6989    0.0000 O   0  0  0  0  0  0  0  0  0  0  0  0
    0.4253   -4.2312    0.0000 O   0  0  0  0  0  0  0  0  0  0  0  0
   -0.1732   -5.7682    0.0000 O   0  0  0  0  0  0  0  0  0  0  0  0
    1.9758   -4.8353    0.0000 O   0  0  0  0  0  0  0  0  0  0  0  0
    1.3747   -6.3712    0.0000 O   0  0  0  0  0  0  0  0  0  0  0  0
    2.5946   -4.7317    0.0000 O   0  0  0  0  0  0  0  0  0  0  0  0
    3.5943   -6.0474    0.0000 O   0  0  0  0  0  0  0  0  0  0  0  0
    1.1973   -4.5288    0.0000 Cl  0  0  0  0  0  0  0  0  0  0  0  0
    0.6005   -6.0677    0.0000 Cl  0  0  0  0  0  0  0  0  0  0  0  0
    6.2439   -1.5794    0.0000 N   0  0  0  0  0  0  0  0  0  0  0  0
    5.7531   -2.2428    0.0000 C   0  0  0  0  0  0  0  0  0  0  0  0
    7.0240   -1.8383    0.0000 C   0  0  0  0  0  0  0  0  0  0  0  0
    7.0160   -2.6602    0.0000 C   0  0  0  0  0  0  0  0  0  0  0  0
    7.7259   -3.0804    0.0000 N   0  0  0  0  0  0  0  0  0  0  0  0
    8.4369   -2.6744    0.0000 C   0  0  0  0  0  0  0  0  0  0  0  0
    8.4431   -1.8454    0.0000 N   0  0  0  0  0  0  0  0  0  0  0  0
    7.7337   -1.4356    0.0000 C   0  0  0  0  0  0  0  0  0  0  0  0
    7.7377   -0.6114    0.0000 N   0  0  0  0  0  0  0  0  0  0  0  0
    9.1502   -3.0891    0.0000 S   0  0  0  0  0  0  0  0  0  0  0  0
    9.1485   -3.9160    0.0000 C   0  0  0  0  0  0  0  0  0  0  0  0
    9.8060   -4.4006    0.0000 C   0  0  0  0  0  0  0  0  0  0  0  0
   10.4707   -4.8895    0.0000 C   0  0  0  0  0  0  0  0  0  0  0  0
    9.3204   -5.0678    0.0000 H   0  0  0  0  0  0  0  0  0  0  0  0
   10.2920   -3.7338    0.0000 H   0  0  0  0  0  0  0  0  0  0  0  0
   11.1355   -5.3784    0.0000 H   0  0  0  0  0  0  0  0  0  0  0  0
   10.9597   -4.2247    0.0000 H   0  0  0  0  0  0  0  0  0  0  0  0
    9.9818   -5.5542    0.0000 H   0  0  0  0  0  0  0  0  0  0  0  0
 11 21  2  0  0  0  0
  5  1  1  0  0  0  0
 11 22  1  0  0  0  0
 10 11  1  0  0  0  0
 14 23  1  0  0  0  0
  1  2  1  0  0  0  0
 14 24  1  0  0  0  0
  8 28  1  0  0  0  0
 11 12  1  0  0  0  0
  2  6  1  6  0  0  0
 27 25  1  0  0  0  0
 25 26  2  0  0  0  0
 26  8  1  0  0  0  0
 12 13  1  0  0  0  0
 27 28  1  0  0  0  0
 13 14  1  0  0  0  0
 28 29  2  0  0  0  0
  1  7  1  6  0  0  0
 29 30  1  0  0  0  0
 14 15  1  0  0  0  0
 30 31  2  0  0  0  0
  2  3  1  0  0  0  0
 31 32  1  0  0  0  0
 32 27  2  0  0  0  0
 15 16  1  0  0  0  0
 32 33  1  0  0  0  0
  3  8  1  1  0  0  0
 30 34  1  0  0  0  0
 15 17  2  0  0  0  0
 34 35  1  0  0  0  0
  3  4  1  0  0  0  0
 35 36  1  0  0  0  0
 15 18  1  0  0  0  0
 36 37  1  0  0  0  0
  5  9  1  1  0  0  0
 36 38  1  0  0  0  0
 13 19  2  0  0  0  0
 36 39  1  0  0  0  0
  4  5  1  0  0  0  0
 37 40  1  0  0  0  0
 13 20  1  0  0  0  0
 37 41  1  0  0  0  0
  9 10  1  0  0  0  0
 37 42  1  0  0  0  0
M  ISO  5  38   3  39   3  40   3  41   3  42   3
M  END