
          11280715032D 1   1.00000     0.00000     0

 21 24  0     0  0            999 V2000
   -0.3958    0.0250    0.0000 C   0  0  0  0  0  0           0  0  0
    0.1167    0.3250    0.0000 C   0  0  0  0  0  0           0  0  0
   -0.3958   -0.5750    0.0000 C   0  0  0  0  0  0           0  0  0
   -0.9125    0.3250    0.0000 C   0  0  0  0  0  0           0  0  0
   -2.0083   -0.7542    0.0000 N   0  0  0  0  0  0           0  0  0
   -1.4375   -0.5667    0.0000 C   0  0  0  0  0  0           0  0  0
    0.6417    0.0208    0.0000 N   0  0  0  0  0  0           0  0  0
   -1.4375    0.0208    0.0000 C   0  0  0  0  0  0           0  0  0
   -0.9125   -0.8750    0.0000 C   0  0  0  0  0  0           0  0  0
    0.1167    0.9250    0.0000 N   0  0  0  0  0  0           0  0  0
   -2.3500   -0.2667    0.0000 C   0  0  0  0  0  0           0  0  0
   -2.0083    0.2083    0.0000 N   0  0  0  0  0  0           0  0  0
    0.1167   -0.8750    0.0000 N   0  0  0  0  0  0           0  0  0
    0.6417   -0.5667    0.0000 C   0  0  0  0  0  0           0  0  0
    0.6292    1.2250    0.0000 C   0  0  0  0  0  0           0  0  0
    1.1542    0.9208    0.0000 C   0  0  0  0  0  0           0  0  0
    1.6792    1.2250    0.0000 C   0  0  0  0  0  0           0  0  0
    2.2125    0.9208    0.0000 Br  0  0  0  0  0  0           0  0  0
    1.1500    2.1333    0.0000 C   0  0  0  0  0  0           0  0  0
    0.6292    1.8250    0.0000 C   0  0  0  0  0  0           0  0  0
    1.6792    1.8333    0.0000 C   0  0  0  0  0  0           0  0  0
  2  1  1  0     0  0
  3  1  2  0     0  0
  4  1  1  0     0  0
  5  6  1  0     0  0
  6  8  1  0     0  0
  7  2  2  0     0  0
  8  4  2  0     0  0
  9  3  1  0     0  0
 10  2  1  0     0  0
 11 12  2  0     0  0
 12  8  1  0     0  0
 13  3  1  0     0  0
 14 13  2  0     0  0
 15 10  1  0     0  0
 16 15  2  0     0  0
 17 16  1  0     0  0
 18 17  1  0     0  0
 19 20  2  0     0  0
 20 15  1  0     0  0
 21 19  1  0     0  0
  6  9  2  0     0  0
  7 14  1  0     0  0
 11  5  1  0     0  0
 17 21  2  0     0  0
M  END