
  SciTegic04091511462D

 79 83  0  0  1  0            999 V2000
    4.8298   -5.8648    0.0000 N   0  0
    0.1414   -2.7849    0.0000 N   0  0
    5.0875   -5.0792    0.0000 C   0  0
    3.3169    0.0706    0.0000 N   0  0
    0.3616   -3.5704    0.0000 C   0  0
    0.4863   -1.1888    0.0000 C   0  0
    4.5388   -4.4682    0.0000 C   0  0  2  0  0  0
    4.7301   -0.7399    0.0000 C   0  0
    5.0501   -3.8198    0.0000 N   0  0
    5.1790   -1.4257    0.0000 N   0  0
    1.0100   -0.5528    0.0000 N   0  0
    0.1870   -1.9619    0.0000 C   0  0  2  0  0  0
    2.4939    0.1205    0.0000 C   0  0
    5.3494   -3.0592    0.0000 C   0  0
    6.1474   -6.5257    0.0000 C   0  0
    4.0900   -0.2162    0.0000 C   0  0  2  0  0  0
    5.3868   -2.2362    0.0000 C   0  0  2  0  0  0
    5.3161   -6.5257    0.0000 C   0  0  2  0  0  0
    1.6958   -0.0915    0.0000 C   0  0  2  0  0  0
    0.8105   -4.2687    0.0000 C   0  0
    6.5589   -7.2364    0.0000 N   0  0
    6.2097   -2.1489    0.0000 C   0  0
    7.7934   -7.9596    0.0000 C   0  0
   10.2665   -5.1042    0.0000 C   0  0
    3.0467   -5.1291    0.0000 S   0  0
    2.2736   -5.2164    0.0000 S   0  0
    6.9205   -1.7250    0.0000 C   0  0
    1.4506   -4.7924    0.0000 C   0  0
    8.6163   -7.9596    0.0000 N   0  0
    7.3819   -7.2364    0.0000 C   0  0  2  0  0  0
    9.8508   -8.6704    0.0000 C   0  0
   11.0895   -5.1042    0.0000 N   0  0
    5.8980   -4.9046    0.0000 O   0  0
   -0.6193   -1.7873    0.0000 C   0  0
   -0.3866   -3.9071    0.0000 O   0  0
   -0.2244   -0.7773    0.0000 O   0  0
    5.3369   -0.1912    0.0000 O   0  0
    3.8406   -4.9171    0.0000 C   0  0
    6.5589   -5.8149    0.0000 O   0  0
    2.4565    0.8188    0.0000 O   0  0
    6.1516   -3.2213    0.0000 O   0  0
    1.3634    0.6567    0.0000 C   0  0
    7.3819   -8.6704    0.0000 O   0  0
    6.9122   -0.9020    0.0000 O   0  0
   10.2665   -7.9596    0.0000 O   0  0
    9.8508   -5.8149    0.0000 N   0  0
    9.0278   -8.6704    0.0000 C   0  0
    9.8508   -4.3809    0.0000 N   0  0
    4.5014    0.4946    0.0000 C   0  0
    4.0443   -6.1142    0.0000 C   0  0
    7.6354   -2.1365    0.0000 N   0  0
   -0.8729   -1.0017    0.0000 C   0  0
   10.2623   -9.3811    0.0000 N   0  0
   -0.6733   -2.8721    0.0000 C   0  0
   -1.3841    0.5694    0.0000 C   0  0
    1.8455    1.3300    0.0000 C   0  0
   -0.3242   -0.3907    0.0000 C   0  0
   -1.6834   -0.8272    0.0000 C   0  0
   -0.5736    0.3948    0.0000 C   0  0
   -1.9328   -0.0416    0.0000 C   0  0
    4.8298   -7.1990    0.0000 C   0  0
   -1.6335    1.3550    0.0000 O   0  0
    4.0443   -6.9496    0.0000 C   0  0
    1.9203   -5.4034    0.0000 C   0  0
    0.6775   -4.6927    0.0000 C   0  0
    7.7934   -6.5257    0.0000 C   0  0
    9.0278   -5.8149    0.0000 C   0  0
    4.0817    1.2053    0.0000 C   0  0
    5.3244    0.4946    0.0000 C   0  0
    2.6684    1.2303    0.0000 C   0  0
    1.5130    2.0782    0.0000 C   0  0
   -1.1597   -2.1988    0.0000 C   0  0
    8.6163   -6.5257    0.0000 C   0  0
    0.2743   -5.4034    0.0000 C   0  0
    1.5088   -6.1266    0.0000 C   0  0
    1.9951    2.7515    0.0000 C   0  0
    3.1465    1.9036    0.0000 C   0  0
    2.8181    2.6518    0.0000 C   0  0
    0.6775   -6.1266    0.0000 C   0  0
  2  5  1  0
  3  1  1  0
  4 16  1  0
  5 20  1  0
  6 12  1  0
  7  3  1  1
  8 10  1  0
  9  7  1  0
 10 17  1  0
 11  6  1  0
 12  2  1  0
 13  4  1  0
 14  9  1  0
 18 15  1  6
 16  8  1  0
 17 14  1  0
 18  1  1  0
 19 13  1  0
 20 28  1  0
 21 15  1  0
 17 22  1  1
 23 30  1  0
 24 46  2  0
 25 38  1  0
 26 25  1  0
 27 22  1  0
 28 26  1  0
 29 23  1  0
 30 21  1  1
 31 47  1  0
 32 24  1  0
 33  3  2  0
 12 34  1  1
 35  5  2  0
 36  6  2  0
 37  8  2  0
  7 38  1  0
 39 15  2  0
 40 13  2  0
 41 14  2  0
 19 42  1  1
 43 23  2  0
 44 27  2  0
 45 31  2  0
 46 67  1  0
 47 29  1  0
 48 24  1  0
 16 49  1  1
 50  1  1  0
 51 27  1  0
 52 34  1  0
 53 31  1  0
 54  2  1  0
 55 60  1  0
 56 42  1  0
 57 52  2  0
 58 52  1  0
 59 57  1  0
 60 58  2  0
 18 61  1  0
 62 55  1  0
 63 50  1  0
 64 28  1  0
 65 28  1  0
 30 66  1  0
 67 73  1  0
 68 49  1  0
 69 49  1  0
 70 56  2  0
 71 56  1  0
 72 54  1  0
 73 66  1  0
 74 65  1  0
 75 64  1  0
 76 71  2  0
 77 70  1  0
 78 76  1  0
 79 74  1  0
 61 63  1  0
 79 75  1  0
 11 19  1  0
 55 59  2  0
 78 77  2  0
M  END