
          11280714552D 1   1.00000     0.00000     0

 41 45  0     1  0            999 V2000
    0.8167    1.7208    0.0000 C   0  0  0  0  0  0           0  0  0
    3.6750    1.7625    0.0000 N   0  0  3  0  0  0           0  0  0
   -0.0583    0.7125    0.0000 N   0  0  0  0  0  0           0  0  0
    0.7417    0.8958    0.0000 C   0  0  0  0  0  0           0  0  0
    1.5750   -3.7667    0.0000 N   0  0  3  0  0  0           0  0  0
    3.6875    0.9375    0.0000 C   0  0  0  0  0  0           0  0  0
    0.0542    2.0375    0.0000 C   0  0  0  0  0  0           0  0  0
    2.0375    0.1208    0.0000 C   0  0  0  0  0  0           0  0  0
    5.1042    1.7875    0.0000 C   0  0  0  0  0  0           0  0  0
    4.3792    2.1875    0.0000 C   0  0  0  0  0  0           0  0  0
    2.2292   -1.3875    0.0000 N   0  0  3  0  0  0           0  0  0
   -0.4833    1.4208    0.0000 C   0  0  0  0  0  0           0  0  0
    2.2542    0.9208    0.0000 N   0  0  0  0  0  0           0  0  0
    1.7917   -2.9750    0.0000 C   0  0  3  0  0  0           0  0  0
    1.5250    2.1458    0.0000 C   0  0  0  0  0  0           0  0  0
    2.2417    1.7375    0.0000 C   0  0  2  0  0  0           0  0  0
    2.9542    2.1625    0.0000 C   0  0  0  0  0  0           0  0  0
    1.2167   -2.3875    0.0000 C   0  0  0  0  0  0           0  0  0
    2.5917   -2.7667    0.0000 C   0  0  0  0  0  0           0  0  0
    2.4417   -0.5917    0.0000 C   0  0  0  0  0  0           0  0  0
    5.8042    2.2083    0.0000 C   0  0  0  0  0  0           0  0  0
    2.9792    0.5125    0.0000 O   0  0  0  0  0  0           0  0  0
    1.2167    0.0208    0.0000 O   0  0  0  0  0  0           0  0  0
    2.8125   -1.9667    0.0000 C   0  0  0  0  0  0           0  0  0
    1.4292   -1.5917    0.0000 C   0  0  0  0  0  0           0  0  0
    5.7875    3.0333    0.0000 O   0  0  0  0  0  0           0  0  0
    0.7750   -3.9750    0.0000 C   0  0  0  0  0  0           0  0  0
    2.1542   -4.3542    0.0000 C   0  0  0  0  0  0           0  0  0
    5.1125    0.9625    0.0000 C   0  0  0  0  0  0           0  0  0
    4.4042    0.5375    0.0000 C   0  0  0  0  0  0           0  0  0
   -0.2083    2.8333    0.0000 C   0  0  0  0  0  0           0  0  0
   -1.2958    1.5833    0.0000 C   0  0  0  0  0  0           0  0  0
    6.5250    1.8125    0.0000 C   0  0  0  0  0  0           0  0  0
    6.4917    3.4625    0.0000 C   0  0  0  0  0  0           0  0  0
    0.5542   -4.7667    0.0000 C   0  0  0  0  0  0           0  0  0
    1.9292   -5.1500    0.0000 C   0  0  0  0  0  0           0  0  0
    5.8292    0.5583    0.0000 C   0  0  0  0  0  0           0  0  0
   -1.0208    2.9833    0.0000 C   0  0  0  0  0  0           0  0  0
   -1.5583    2.3625    0.0000 C   0  0  0  0  0  0           0  0  0
    6.5417    0.9833    0.0000 C   0  0  0  0  0  0           0  0  0
    1.1292   -5.3542    0.0000 C   0  0  0  0  0  0           0  0  0
  2 17  1  0     0  0
  3  4  1  0     0  0
  4  1  2  0     0  0
  5 14  1  0     0  0
  6  2  1  0     0  0
  7  1  1  0     0  0
  8 13  1  0     0  0
  9 10  1  0     0  0
 10  2  1  0     0  0
 11 20  1  0     0  0
 12  7  2  0     0  0
 16 13  1  6     0  0
 14 18  1  0     0  0
 15  1  1  0     0  0
 16 15  1  0     0  0
 17 16  1  0     0  0
 18 25  1  0     0  0
 19 24  1  0     0  0
 20  8  1  0     0  0
 21  9  1  0     0  0
 22  6  2  0     0  0
 23  8  2  0     0  0
 24 11  1  0     0  0
 25 11  1  0     0  0
 26 21  1  0     0  0
 27  5  1  0     0  0
 28  5  1  0     0  0
 29  9  2  0     0  0
 30  6  1  0     0  0
 31  7  1  0     0  0
 32 12  1  0     0  0
 33 21  2  0     0  0
 34 26  1  0     0  0
 35 27  1  0     0  0
 36 28  1  0     0  0
 37 29  1  0     0  0
 38 31  2  0     0  0
 39 38  1  0     0  0
 40 37  2  0     0  0
 41 36  1  0     0  0
  3 12  1  0     0  0
 32 39  2  0     0  0
 14 19  1  0     0  0
 33 40  1  0     0  0
 41 35  1  0     0  0
M  END