
  CDK    9/16/09,10:1

 24 25  0  0  0  0  0  0  0  0999 V2000
   -2.8918   -1.7877    0.0000 N   0  0  0  0  0  0  0  0  0  0  0  0
   -2.8772   -0.9628    0.0000 C   0  0  0  0  0  0  0  0  0  0  0  0
   -1.4457   -0.9881    0.0000 O   0  0  0  0  0  0  0  0  0  0  0  0
   -2.1542   -0.5630    0.0000 C   0  0  0  0  0  0  0  0  0  0  0  0
   -3.5815   -0.5378    0.0000 C   0  0  0  0  0  0  0  0  0  0  0  0
   -2.8930    0.7600    0.0000 C   0  0  0  0  0  0  0  0  0  0  0  0
   -3.5669    0.2871    0.0000 C   0  0  0  0  0  0  0  0  0  0  0  0
   -3.1320    1.5490    0.0000 N   0  0  0  0  0  0  0  0  0  0  0  0
   -4.2278    0.7836    0.0000 C   0  0  0  0  0  0  0  0  0  0  0  0
   -3.9569    1.5636    0.0000 C   0  0  0  0  0  0  0  0  0  0  0  0
   -4.4991    2.1855    0.0000 C   0  0  0  0  0  0  0  0  0  0  0  0
   -5.3080    2.0274    0.0000 C   0  0  0  0  0  0  0  0  0  0  0  0
   -5.5789    1.2516    0.0000 C   0  0  0  0  0  0  0  0  0  0  0  0
   -5.0368    0.6255    0.0000 C   0  0  0  0  0  0  0  0  0  0  0  0
   -2.1396    0.2618    0.0000 N   0  0  0  0  0  0  0  0  0  0  0  0
   -1.4165    0.6616    0.0000 C   0  0  0  0  0  0  0  0  0  0  0  0
   -2.1104    1.9116    0.0000 O   0  0  0  0  0  0  0  0  0  0  0  0
   -1.4019    1.4865    0.0000 C   0  0  0  0  0  0  0  0  0  0  0  0
   -0.7081    0.2365    0.0000 C   0  0  0  0  0  0  0  0  0  0  0  0
    0.0108    0.6363    0.0000 C   0  0  0  0  0  0  0  0  0  0  0  0
    0.7193    0.2112    0.0000 C   0  0  0  0  0  0  0  0  0  0  0  0
    0.7047   -0.6136    0.0000 O   0  0  0  0  0  0  0  0  0  0  0  0
    1.4381    0.6111    0.0000 O   0  0  0  0  0  0  0  0  0  0  0  0
   -0.6789    1.8862    0.0000 O   0  0  0  0  0  0  0  0  0  0  0  0
  4 15  1  0  0  0  0 
 18 24  1  0  0  0  0 
  1  2  1  0  0  0  0 
  2  4  1  0  0  0  0 
  4  3  2  0  0  0  0 
  2  5  1  1  0  0  0 
  5  7  1  0  0  0  0 
  6  7  2  0  0  0  0 
  7  9  1  0  0  0  0 
  8  6  1  0  0  0  0 
 10  8  1  0  0  0  0 
  9 10  2  0  0  0  0 
 10 11  1  0  0  0  0 
 11 12  2  0  0  0  0 
 12 13  1  0  0  0  0 
 13 14  2  0  0  0  0 
 14  9  1  0  0  0  0 
 15 16  1  0  0  0  0 
 16 18  1  0  0  0  0 
 18 17  2  0  0  0  0 
 16 19  1  6  0  0  0 
 19 20  1  0  0  0  0 
 20 21  1  0  0  0  0 
 21 22  2  0  0  0  0 
 21 23  1  0  0  0  0 
M  END