
  SciTegic01161211252D

 40 43  0  0  0  0            999 V2000
   -2.4562  -25.0064    0.0000 C   0  0
   -2.4564  -25.8315    0.0000 N   0  0
   -1.7380  -26.2453    0.0000 C   0  0
   -1.7370  -24.5951    0.0000 N   0  0
   -1.0195  -25.0060    0.0000 C   0  0
   -1.0387  -25.8315    0.0000 C   0  0
   -0.2455  -26.1051    0.0000 N   0  0
    0.2384  -25.4406    0.0000 C   0  0
   -0.2381  -24.7659    0.0000 N   0  0
   -1.7380  -27.0696    0.0000 N   0  0
    0.0299  -23.9888    0.0000 C   0  0  2  0  0  0
    0.8205  -23.7375    0.0000 O   0  0
    0.8235  -22.9164    0.0000 C   0  0  1  0  0  0
    0.0404  -22.6507    0.0000 C   0  0  2  0  0  0
   -0.4506  -23.2855    0.0000 C   0  0  1  0  0  0
   -1.2748  -23.2855    0.0000 O   0  0
   -0.2004  -21.8634    0.0000 O   0  0
    1.4929  -22.4380    0.0000 C   0  0
    2.2466  -22.7769    0.0000 O   0  0
    2.9161  -22.2985    0.0000 P   0  0
    3.3943  -22.9679    0.0000 O   0  0
    2.4338  -21.6252    0.0000 O   0  0
    3.5855  -21.8162    0.0000 O   0  0
    4.2194  -22.9716    0.0000 P   0  0
    4.2162  -23.7926    0.0000 O   0  0
    4.2229  -22.1465    0.0000 O   0  0
    5.0448  -22.9712    0.0000 O   0  0
    5.4522  -23.6897    0.0000 C   0  0
    6.2772  -23.6933    0.0000 C   0  0
    6.7587  -24.3579    0.0000 C   0  0  2  0  0  0
    7.5316  -24.1262    0.0000 C   0  0  2  0  0  0
    7.5520  -23.2859    0.0000 C   0  0
    6.7703  -23.0248    0.0000 O   0  0
    6.4976  -25.1396    0.0000 O   0  0
    8.1983  -24.6088    0.0000 O   0  0
    8.2216  -22.8113    0.0000 O   0  0
   -1.6898  -22.5642    0.0000 P   0  0
   -0.9707  -22.1503    0.0000 O   0  0
   -2.3993  -22.9747    0.0000 O   0  0
   -2.1020  -21.8518    0.0000 O   0  0
  1  2  2  0
  1  4  1  0
  2  3  1  0
  3  6  2  0
  5  4  2  0
  5  6  1  0
  6  7  1  0
  7  8  2  0
  8  9  1  0
  9  5  1  0
  3 10  1  0
 11  9  1  1
 11 12  1  0
 12 13  1  0
 13 14  1  0
 14 15  1  0
 15 11  1  0
 15 16  1  6
 14 17  1  6
 13 18  1  1
 18 19  1  0
 19 20  1  0
 20 21  1  0
 20 22  1  0
 20 23  2  0
 21 24  1  0
 24 25  2  0
 24 26  1  0
 24 27  1  0
 27 28  1  0
 28 29  1  0
 29 30  1  0
 30 31  1  0
 31 32  1  0
 32 33  1  0
 33 29  1  0
 30 34  1  6
 31 35  1  6
 32 36  1  0
 16 37  1  0
 37 38  2  0
 37 39  1  0
 37 40  1  0
M  END