
  SciTegic04091415222D

 28 31  0  0  0  0            999 V2000
   29.1451   -3.8094    0.0000 C   0  0
   30.5588   -3.8058    0.0000 C   0  0
   29.8502   -3.4005    0.0000 C   0  0
   30.5616   -4.6285    0.0000 C   0  0
   30.5578   -6.2636    0.0000 C   0  0
   31.2690   -5.8513    0.0000 C   0  0
   31.2671   -5.0356    0.0000 C   0  0
   29.8512   -5.0357    0.0000 C   0  0
   29.1439   -4.6289    0.0000 C   0  0
   28.4401   -5.0379    0.0000 C   0  0
   28.4423   -5.8536    0.0000 O   0  0
   29.1542   -6.2585    0.0000 C   0  0
   29.8551   -5.8472    0.0000 C   0  0
   31.2619   -3.3958    0.0000 C   0  0
   31.9715   -3.8035    0.0000 N   0  0
   32.6772   -3.3929    0.0000 C   0  0
   32.6745   -2.5748    0.0000 N   0  0
   31.9603   -2.1691    0.0000 C   0  0
   31.2575   -2.5820    0.0000 N   0  0
   29.8477   -2.5833    0.0000 Cl  0  0
   31.9543   -1.3519    0.0000 N   0  0
   33.3862   -3.7992    0.0000 S   0  0
   34.0926   -3.3882    0.0000 C   0  0
   34.8016   -3.7945    0.0000 C   0  0
   35.5080   -3.3836    0.0000 N   0  0
   36.2170   -3.7899    0.0000 C   0  0
   36.9234   -3.3789    0.0000 N   0  0
   36.2197   -4.6070    0.0000 O   0  0
  1  9  2  0
  4  2  1  0
  2  3  2  0
  3  1  1  0
  4  8  1  0
 13  5  1  0
  5  6  2  0
  6  7  1  0
  7  4  2  0
  8  9  1  0
  9 10  1  0
 10 11  1  0
 11 12  1  0
 12 13  1  0
 13  8  2  0
 14 15  2  0
 15 16  1  0
 16 17  2  0
 17 18  1  0
 18 19  2  0
 19 14  1  0
  2 14  1  0
  3 20  1  0
 18 21  1  0
 16 22  1  0
 22 23  1  0
 23 24  1  0
 24 25  1  0
 25 26  1  0
 26 27  1  0
 26 28  2  0
M  END