
  SciTegic07061118172D

 32 34  0  0  0  0            999 V2000
   10.5004   -7.2227    0.0000 C   0  0
   11.2136   -6.8098    0.0000 C   0  0  1  0  0  0
   11.9266   -7.2185    0.0000 C   0  0
   12.6396   -6.8056    0.0000 N   0  0
   13.3528   -7.2143    0.0000 C   0  0  2  0  0  0
   14.0658   -6.8014    0.0000 C   0  0
   14.7791   -7.2102    0.0000 N   0  0
   15.4921   -6.7973    0.0000 C   0  0
   16.2051   -7.2060    0.0000 C   0  0
   16.9183   -6.7931    0.0000 C   0  0
   17.6313   -7.2018    0.0000 C   0  0
   18.3445   -6.7889    0.0000 C   0  0
   11.2118   -5.9842    0.0000 N   0  0
   11.9284   -8.0441    0.0000 O   0  0
   14.0640   -5.9758    0.0000 O   0  0
   13.3546   -8.0399    0.0000 C   0  0
   14.0705   -8.4513    0.0000 C   0  0
   14.0690   -9.2755    0.0000 C   0  0
   14.7843   -9.6867    0.0000 C   0  0
   15.4993   -9.2722    0.0000 C   0  0
   15.4949   -8.4422    0.0000 C   0  0
   14.7793   -8.0347    0.0000 C   0  0
    9.7848   -6.8108    0.0000 C   0  0
    9.7705   -5.9862    0.0000 N   0  0
    8.9813   -5.7429    0.0000 C   0  0
    8.5062   -6.4183    0.0000 N   0  0
    9.0015   -7.0789    0.0000 C   0  0
   19.0599   -7.2010    0.0000 N   0  0
   19.1506   -8.0188    0.0000 C   0  0
   19.9584   -8.1896    0.0000 C   0  0
   20.3704   -7.4741    0.0000 C   0  0
   19.8171   -6.8610    0.0000 C   0  0
 16 17  1  0
  8  9  1  0
 17 18  2  0
  4  5  1  0
 18 19  1  0
  9 10  1  0
 19 20  2  0
  2  3  1  0
 20 21  1  0
 10 11  1  0
 21 22  2  0
 22 17  1  0
  5  6  1  0
  1 23  1  0
 26 27  1  0
 11 12  1  0
 24 25  2  0
  1  2  1  0
  2 13  1  6
  6  7  1  0
 23 24  1  0
 25 26  1  0
 27 23  2  0
  3 14  2  0
 12 28  1  0
 28 29  1  0
  3  4  1  0
  6 15  2  0
  7  8  1  0
  5 16  1  6
 29 30  1  0
 30 31  1  0
 31 32  1  0
 32 28  1  0
M  END