
          11280715282D 1   1.00000     0.00000     0

 14 15  0     0  0            999 V2000
    3.1167   -0.5042    0.0000 C   0  0  0  0  0  0           0  0  0
    3.1167    0.3208    0.0000 C   0  0  0  0  0  0           0  0  0
    2.4042   -0.9125    0.0000 N   0  0  0  0  0  0           0  0  0
    2.4042    0.7375    0.0000 C   0  0  0  0  0  0           0  0  0
    1.7000    0.3208    0.0000 N   0  0  0  0  0  0           0  0  0
    3.8292   -0.9167    0.0000 N   0  0  3  0  0  0           0  0  0
    1.7000   -0.5042    0.0000 C   0  0  3  0  0  0           0  0  0
    3.8292    0.7333    0.0000 C   0  0  0  0  0  0           0  0  0
    4.5417   -0.5042    0.0000 C   0  0  0  0  0  0           0  0  0
    4.5417    0.3208    0.0000 C   0  0  0  0  0  0           0  0  0
    2.4042    1.5625    0.0000 O   0  0  0  0  0  0           0  0  0
    0.9792   -0.9167    0.0000 N   0  0  0  0  0  0           0  0  0
    3.8167   -1.7417    0.0000 C   0  0  0  0  0  0           0  0  0
    5.2542   -0.9250    0.0000 C   0  0  0  0  0  0           0  0  0
  2  1  1  0     0  0
  3  1  2  0     0  0
  4  2  1  0     0  0
  5  7  1  0     0  0
  6  1  1  0     0  0
  7  3  1  0     0  0
  8  2  2  0     0  0
  9  6  1  0     0  0
 10  9  2  0     0  0
 11  4  2  0     0  0
 12  7  1  0     0  0
 13  6  1  0     0  0
 14  9  1  0     0  0
 10  8  1  0     0  0
  4  5  1  0     0  0
M  END