
  Symyx   11300911332D 1   1.00000     0.00000     0

 78 82  0     0  0            999 V2000
    8.8441   -5.6140    0.0000 C   0  0  2  0  0  0           0  0  0
   10.2742   -5.6087    0.0000 O   0  0  0  0  0  0           0  0  0
    9.5591   -5.1993    0.0000 C   0  0  0  0  0  0           0  0  0
    8.1277   -5.2039    0.0000 C   0  0  0  0  0  0           0  0  0
    8.1233   -4.3765    0.0000 C   0  0  0  0  0  0           0  0  0
    7.4091   -3.9677    0.0000 C   0  0  0  0  0  0           0  0  0
    7.4046   -3.1449    0.0000 O   0  0  0  0  0  0           0  0  0
   10.2657   -3.9604    0.0000 C   0  0  0  0  0  0           0  0  0
    9.5468   -2.7333    0.0000 O   0  0  0  0  0  0           0  0  0
   10.2612   -3.1412    0.0000 C   0  0  0  0  0  0           0  0  0
   10.9692   -1.8987    0.0000 C   0  0  2  0  0  0           0  0  0
   12.4020   -1.8953    0.0000 O   0  0  0  0  0  0           0  0  0
   11.6852   -1.4804    0.0000 C   0  0  0  0  0  0           0  0  0
   10.2551   -1.4906    0.0000 C   0  0  0  0  0  0           0  0  0
   10.2506   -0.6597    0.0000 C   0  0  3  0  0  0           0  0  0
    9.5365   -0.2516    0.0000 C   0  0  0  0  0  0           0  0  0
   10.9665   -0.2498    0.0000 C   0  0  0  0  0  0           0  0  0
   12.3945   -0.2442    0.0000 C   0  0  2  0  0  0           0  0  0
   11.6722    0.9795    0.0000 O   0  0  0  0  0  0           0  0  0
   12.3900    0.5726    0.0000 C   0  0  0  0  0  0           0  0  0
   13.1113   -0.6506    0.0000 C   0  0  0  0  0  0           0  0  0
    8.1361   -7.6775    0.0000 C   0  0  2  0  0  0           0  0  0
    8.1316   -6.8528    0.0000 C   0  0  0  0  0  0           0  0  0
    7.4148   -6.4425    0.0000 O   0  0  0  0  0  0           0  0  0
    8.8538   -8.0884    0.0000 C   0  0  0  0  0  0           0  0  0
    9.5634   -7.6725    0.0000 C   0  0  0  0  0  0           0  0  0
   10.2780   -8.0902    0.0000 C   0  0  0  0  0  0           0  0  0
   10.9953   -7.6678    0.0000 C   0  0  0  0  0  0           0  0  0
   10.9904   -6.8432    0.0000 C   0  0  0  0  0  0           0  0  0
   10.2674   -6.4349    0.0000 C   0  0  0  0  0  0           0  0  0
    9.5574   -6.8537    0.0000 C   0  0  0  0  0  0           0  0  0
   11.7016   -6.4265    0.0000 O   0  0  0  0  0  0           0  0  0
   12.4187   -6.8370    0.0000 P   0  0  3  0  0  0           0  0  0
   12.0103   -7.5504    0.0000 O   0  0  0  0  0  0           0  0  0
    8.8455   -6.4392    0.0000 N   0  0  0  0  0  0           0  0  0
    6.6956   -4.3809    0.0000 N   0  0  0  0  0  0           0  0  0
    9.5517   -4.3741    0.0000 N   0  0  0  0  0  0           0  0  0
   10.9736   -2.7239    0.0000 N   0  0  0  0  0  0           0  0  0
   11.6806   -0.6553    0.0000 N   0  0  0  0  0  0           0  0  0
   13.8302   -0.2337    0.0000 O   0  0  0  0  0  0           0  0  0
   13.1067    0.9939    0.0000 N   0  0  0  0  0  0           0  0  0
    7.4220   -8.0912    0.0000 N   0  0  0  0  0  0           0  0  0
   13.1341   -7.2461    0.0000 O   0  0  0  0  0  0           0  0  0
   12.8315   -6.1154    0.0000 O   0  0  0  0  0  0           0  0  0
    0.5490   -6.6517    0.0000 C   0  0  0  0  0  0           0  0  0
    0.0225   -7.2855    0.0000 C   0  0  0  0  0  0           0  0  0
    0.3088   -8.0588    0.0000 C   0  0  0  0  0  0           0  0  0
    1.1187   -8.2044    0.0000 C   0  0  0  0  0  0           0  0  0
    1.4047   -8.9773    0.0000 C   0  0  0  0  0  0           0  0  0
   -0.2329   -8.6899    0.0000 O   0  0  0  0  0  0           0  0  0
    0.0555   -9.4697    0.0000 C   0  0  0  0  0  0           0  0  0
    0.8669   -9.6127    0.0000 C   0  0  0  0  0  0           0  0  0
    1.1507  -10.3846    0.0000 C   0  0  0  0  0  0           0  0  0
    0.6191  -11.0180    0.0000 C   0  0  0  0  0  0           0  0  0
   -0.1926  -10.8720    0.0000 C   0  0  0  0  0  0           0  0  0
   -0.4719  -10.0962    0.0000 C   0  0  0  0  0  0           0  0  0
    0.2677   -5.8789    0.0000 O   0  0  0  0  0  0           0  0  0
    2.4151   -9.3436    0.0000 C   0  0  0  0  0  0           0  0  0
    3.1344   -8.9285    0.0000 C   0  0  0  0  0  0           0  0  0
    3.8404  -10.1696    0.0000 C   0  0  0  0  0  0           0  0  0
    3.1237  -10.5801    0.0000 C   0  0  0  0  0  0           0  0  0
    2.4111  -10.1685    0.0000 C   0  0  0  0  0  0           0  0  0
    4.5552  -10.5839    0.0000 N   0  0  0  0  0  0           0  0  0
    5.2699  -10.9940    0.0000 C   0  0  0  0  0  0           0  0  0
    5.9847  -11.4083    0.0000 S   0  0  0  0  0  0           0  0  0
    3.1344   -8.1015    0.0000 C   0  0  0  0  0  0           0  0  0
    1.6502   -7.5671    0.0000 C   0  0  0  0  0  0           0  0  0
    2.4182   -7.6906    0.0000 O   0  0  0  0  0  0           0  0  0
    1.3696   -6.7974    0.0000 C   0  0  0  0  0  0           0  0  0
    3.8405   -9.3402    0.0000 C   0  0  0  0  0  0           0  0  0
   -0.7274  -11.5040    0.0000 O   0  0  0  0  0  0           0  0  0
    3.8485   -7.6879    0.0000 N   0  0  0  0  0  0           0  0  0
    4.5638   -8.0996    0.0000 C   0  0  0  0  0  0           0  0  0
    5.2778   -7.6860    0.0000 C   0  0  3  0  0  0           0  0  0
    5.9930   -8.0976    0.0000 C   0  0  0  0  0  0           0  0  0
    6.7070   -7.6840    0.0000 C   0  0  0  0  0  0           0  0  0
    6.7059   -6.8588    0.0000 O   0  0  0  0  0  0           0  0  0
    5.2766   -6.8608    0.0000 O   0  0  0  0  0  0           0  0  0
 21 40  1  0     0  0
 37  8  1  0     0  0
  3 37  1  0     0  0
 20 41  1  0     0  0
 42 22  1  0     0  0
 38 11  1  0     0  0
 10 38  1  0     0  0
 33 43  1  0     0  0
  6 36  1  0     0  0
 33 44  1  0     0  0
 39 18  1  0     0  0
 13 39  1  0     0  0
  6  7  2  0     0  0
  8 10  1  0     0  0
 10  9  2  0     0  0
 11 13  1  0     0  0
 13 12  2  0     0  0
 11 14  1  1     0  0
 14 15  1  0     0  0
 15 16  1  0     0  0
 15 17  1  0     0  0
 18 20  1  0     0  0
 20 19  2  0     0  0
 18 21  1  6     0  0
 22 23  1  0     0  0
 23 24  2  0     0  0
 22 25  1  6     0  0
 25 26  1  0     0  0
 26 27  2  0     0  0
 27 28  1  0     0  0
 28 29  2  0     0  0
 29 30  1  0     0  0
 30 31  2  0     0  0
 31 26  1  0     0  0
 29 32  1  0     0  0
 32 33  1  0     0  0
 33 34  2  0     0  0
  1  3  1  0     0  0
 45 69  1  0     0  0
 69 67  2  0     0  0
 67 48  1  0     0  0
 47 46  2  0     0  0
 46 45  1  0     0  0
 47 48  1  0     0  0
 47 50  1  0     0  0
 48 49  2  0     0  0
 49 52  1  0     0  0
 51 50  1  0     0  0
 51 52  2  0     0  0
 52 53  1  0     0  0
 53 54  2  0     0  0
 54 55  1  0     0  0
 55 56  2  0     0  0
 56 51  1  0     0  0
 45 57  2  0     0  0
 58 59  2  0     0  0
 59 70  1  0     0  0
 70 60  2  0     0  0
 60 61  1  0     0  0
 61 62  2  0     0  0
 62 58  1  0     0  0
 49 58  1  0     0  0
 60 63  1  0     0  0
 63 64  2  0     0  0
 64 65  2  0     0  0
 59 66  1  0     0  0
 66 68  2  0     0  0
 55 71  1  0     0  0
  3  2  2  0     0  0
 66 72  1  0     0  0
  1  4  1  1     0  0
 72 73  1  0     0  0
  4  5  1  0     0  0
 73 74  1  0     0  0
  5  6  1  0     0  0
 74 75  1  0     0  0
 23 35  1  0     0  0
 75 76  1  0     0  0
 76 42  1  0     0  0
 35  1  1  0     0  0
 76 77  2  0     0  0
 74 78  1  0     0  0
M  END