
          11280715232D 1   1.00000     0.00000     0

 20 20  0     0  0            999 V2000
    0.8542   -4.6042    0.0000 C   0  0  0  0  0  0           0  0  0
    0.1417   -5.0125    0.0000 C   0  0  0  0  0  0           0  0  0
    1.5667   -5.0167    0.0000 C   0  0  0  0  0  0           0  0  0
   -0.5708   -4.6042    0.0000 C   0  0  0  0  0  0           0  0  0
    5.8417   -5.0042    0.0000 C   0  0  0  0  0  0           0  0  0
    6.4250   -4.4167    0.0000 C   0  0  0  0  0  0           0  0  0
    2.2792   -4.6000    0.0000 C   0  0  0  0  0  0           0  0  0
    3.7042   -4.5917    0.0000 C   0  0  0  0  0  0           0  0  0
    5.1292   -4.5917    0.0000 C   0  0  0  0  0  0           0  0  0
    2.9917   -5.0125    0.0000 C   0  0  0  0  0  0           0  0  0
    4.4167   -5.0042    0.0000 C   0  0  0  0  0  0           0  0  0
    6.4167   -3.5917    0.0000 O   0  0  0  0  0  0           0  0  0
    7.1375   -4.8292    0.0000 O   0  0  0  0  0  0           0  0  0
    0.8542   -3.7792    0.0000 C   0  0  0  0  0  0           0  0  0
    0.1417   -5.8375    0.0000 C   0  0  0  0  0  0           0  0  0
   -0.5708   -3.7792    0.0000 C   0  0  0  0  0  0           0  0  0
   -1.2833   -5.0167    0.0000 C   0  0  0  0  0  0           0  0  0
    0.1417   -3.3625    0.0000 C   0  0  0  0  0  0           0  0  0
    2.2750   -3.7750    0.0000 C   0  0  0  0  0  0           0  0  0
    5.1250   -3.7667    0.0000 C   0  0  0  0  0  0           0  0  0
  2  1  1  0     0  0
  3  1  2  0     0  0
  4  2  2  0     0  0
  5  9  2  0     0  0
  6  5  1  0     0  0
  7  3  1  0     0  0
  8 10  1  0     0  0
  9 11  1  0     0  0
 10  7  2  0     0  0
 11  8  2  0     0  0
 12  6  2  0     0  0
 13  6  1  0     0  0
 14  1  1  0     0  0
 15  2  1  0     0  0
 16 18  1  0     0  0
 17  4  1  0     0  0
 18 14  1  0     0  0
 19  7  1  0     0  0
 20  9  1  0     0  0
  4 16  1  0     0  0
M  END