
          11280715262D 1   1.00000     0.00000     0

 22 25  0     0  0            999 V2000
    0.3167    2.0458    0.0000 C   0  0  0  0  0  0           0  0  0
   -1.1083   -1.2542    0.0000 C   0  0  3  0  0  0           0  0  0
    0.3125    1.2208    0.0000 C   0  0  0  0  0  0           0  0  0
   -1.8625   -2.5542    0.0000 C   0  0  3  0  0  0           0  0  0
   -0.3958   -2.4917    0.0000 C   0  0  3  0  0  0           0  0  0
   -1.5708   -2.9250    0.0000 C   0  0  3  0  0  0           0  0  0
    1.0375    2.4583    0.0000 C   0  0  0  0  0  0           0  0  0
   -1.5708   -1.8792    0.0000 C   0  0  0  0  0  0           0  0  0
   -1.8708   -1.6542    0.0000 C   0  0  0  0  0  0           0  0  0
   -0.3958   -1.6667    0.0000 C   0  0  0  0  0  0           0  0  0
    1.0167    0.8000    0.0000 O   0  0  0  0  0  0           0  0  0
   -0.4083    0.8208    0.0000 N   0  0  0  0  0  0           0  0  0
   -2.2083   -3.2042    0.0000 C   0  0  0  0  0  0           0  0  0
   -1.0833   -2.8500    0.0000 C   0  0  0  0  0  0           0  0  0
   -0.7458   -3.2042    0.0000 C   0  0  0  0  0  0           0  0  0
    1.7500    2.0333    0.0000 Cl  0  0  0  0  0  0           0  0  0
   -1.1125   -0.4292    0.0000 C   0  0  0  0  0  0           0  0  0
   -0.3958    2.4625    0.0000 C   0  0  0  0  0  0           0  0  0
   -0.4083   -0.0042    0.0000 C   0  0  0  0  0  0           0  0  0
    1.0417    3.2750    0.0000 C   0  0  0  0  0  0           0  0  0
   -0.3833    3.2958    0.0000 C   0  0  0  0  0  0           0  0  0
    0.3292    3.6958    0.0000 C   0  0  0  0  0  0           0  0  0
  2 17  1  0     0  0
  3  1  1  0     0  0
  4  9  1  0     0  0
  5 10  1  0     0  0
  6  8  1  0     0  0
  7  1  2  0     0  0
  8  2  1  0     0  0
  9  2  1  0     0  0
 10  2  1  0     0  0
 11  3  2  0     0  0
 12  3  1  0     0  0
 13  4  1  0     0  0
 14  5  1  0     0  0
 15  5  1  0     0  0
 16  7  1  0     0  0
 17 19  1  0     0  0
 18  1  1  0     0  0
 19 12  1  0     0  0
 20  7  1  0     0  0
 21 18  2  0     0  0
 22 21  1  0     0  0
 22 20  2  0     0  0
  6 15  1  0     0  0
  4 14  1  0     0  0
  6 13  1  0     0  0
M  END