
          11280715492D 1   1.00000     0.00000     0

 68 74  0     1  0            999 V2000
   12.1673   -2.0144    0.0000 C   0  0  0  0  0  0           0  0  0
   12.8662   -0.7696    0.0000 N   0  0  0  0  0  0           0  0  0
   12.8747   -1.5945    0.0000 C   0  0  1  0  0  0           0  0  0
   13.5948   -1.9996    0.0000 C   0  0  0  0  0  0           0  0  0
   14.3063   -1.5797    0.0000 C   0  0  0  0  0  0           0  0  0
   14.2978   -0.7548    0.0000 C   0  0  0  0  0  0           0  0  0
   15.0052   -0.3349    0.0000 C   0  0  0  0  0  0           0  0  0
   15.7253   -0.7400    0.0000 C   0  0  0  0  0  0           0  0  0
   16.4369   -0.3201    0.0000 O   0  0  0  0  0  0           0  0  0
   15.7338   -1.5650    0.0000 C   0  0  0  0  0  0           0  0  0
   15.0223   -1.9848    0.0000 C   0  0  0  0  0  0           0  0  0
   12.1758   -2.8393    0.0000 O   0  0  0  0  0  0           0  0  0
   11.4472   -1.6093    0.0000 N   0  0  3  0  0  0           0  0  0
   15.0308   -2.8098    0.0000 C   0  0  0  0  0  0           0  0  0
   13.5763   -0.3497    0.0000 C   0  0  0  0  0  0           0  0  0
   11.4426   -0.7833    0.0000 C   0  0  0  0  0  0           0  0  0
   10.0205   -1.6230    0.0000 C   0  0  0  0  0  0           0  0  0
   10.7411   -2.0325    0.0000 C   0  0  3  0  0  0           0  0  0
   10.0133   -0.7959    0.0000 C   0  0  0  0  0  0           0  0  0
   10.7235   -0.3805    0.0000 C   0  0  0  0  0  0           0  0  0
   10.7179    0.4404    0.0000 C   0  0  0  0  0  0           0  0  0
   10.0028    0.8469    0.0000 C   0  0  0  0  0  0           0  0  0
    9.2919    0.4265    0.0000 C   0  0  0  0  0  0           0  0  0
    9.3010   -0.3930    0.0000 C   0  0  0  0  0  0           0  0  0
   10.7507   -2.8575    0.0000 C   0  0  0  0  0  0           0  0  0
   11.4699   -3.2617    0.0000 O   0  0  0  0  0  0           0  0  0
   10.0309   -3.2679    0.0000 N   0  0  0  0  0  0           0  0  0
    5.7417   -3.2542    0.0000 C   0  0  0  0  0  0           0  0  0
    5.7417   -4.0833    0.0000 C   0  0  0  0  0  0           0  0  0
    6.4579   -4.4958    0.0000 N   0  0  0  0  0  0           0  0  0
    7.1699   -4.0833    0.0000 C   0  0  0  0  0  0           0  0  0
    7.1699   -3.2542    0.0000 C   0  0  0  0  0  0           0  0  0
    6.4579   -2.8375    0.0000 N   0  0  0  0  0  0           0  0  0
    7.8879   -4.5010    0.0000 O   0  0  0  0  0  0           0  0  0
    5.0218   -2.8438    0.0000 C   0  0  0  0  0  0           0  0  0
    7.8897   -2.8438    0.0000 C   0  0  0  0  0  0           0  0  0
    5.0236   -4.5010    0.0000 C   0  0  0  0  0  0           0  0  0
    0.7437   -5.3260    0.0000 C   0  0  0  0  0  0           0  0  0
    0.0320   -6.5635    0.0000 N   0  0  0  0  0  0           0  0  0
    0.0320   -5.7385    0.0000 C   0  0  1  0  0  0           0  0  0
   -0.6839   -5.3260    0.0000 C   0  0  0  0  0  0           0  0  0
   -1.3998   -5.7385    0.0000 C   0  0  0  0  0  0           0  0  0
   -1.3998   -6.5635    0.0000 C   0  0  0  0  0  0           0  0  0
   -2.1114   -6.9760    0.0000 C   0  0  0  0  0  0           0  0  0
   -2.8333   -6.5635    0.0000 C   0  0  0  0  0  0           0  0  0
   -3.5491   -6.9760    0.0000 O   0  0  0  0  0  0           0  0  0
   -2.8333   -5.7385    0.0000 C   0  0  0  0  0  0           0  0  0
   -2.1114   -5.3260    0.0000 C   0  0  0  0  0  0           0  0  0
    0.7437   -4.5010    0.0000 O   0  0  0  0  0  0           0  0  0
    1.4595   -5.7385    0.0000 N   0  0  3  0  0  0           0  0  0
   -2.1114   -4.5010    0.0000 C   0  0  0  0  0  0           0  0  0
   -0.6825   -6.9760    0.0000 C   0  0  0  0  0  0           0  0  0
    1.4556   -6.5646    0.0000 C   0  0  0  0  0  0           0  0  0
    2.8863   -5.7396    0.0000 C   0  0  0  0  0  0           0  0  0
    2.1699   -5.3226    0.0000 C   0  0  3  0  0  0           0  0  0
    2.8850   -6.5668    0.0000 C   0  0  0  0  0  0           0  0  0
    2.1705   -6.9748    0.0000 C   0  0  0  0  0  0           0  0  0
    2.1676   -7.7957    0.0000 C   0  0  0  0  0  0           0  0  0
    2.8785   -8.2095    0.0000 C   0  0  0  0  0  0           0  0  0
    3.5937   -7.7965    0.0000 C   0  0  0  0  0  0           0  0  0
    3.5931   -6.9769    0.0000 C   0  0  0  0  0  0           0  0  0
    2.1689   -4.4976    0.0000 C   0  0  0  0  0  0           0  0  0
    1.4539   -4.0860    0.0000 O   0  0  0  0  0  0           0  0  0
    2.8836   -4.0854    0.0000 N   0  0  0  0  0  0           0  0  0
    3.5979   -4.4982    0.0000 C   0  0  0  0  0  0           0  0  0
    4.3125   -4.0860    0.0000 C   0  0  0  0  0  0           0  0  0
    8.6019   -3.2601    0.0000 C   0  0  0  0  0  0           0  0  0
    9.3186   -2.8515    0.0000 C   0  0  0  0  0  0           0  0  0
 32 33  1  0     0  0
  1  3  1  0     0  0
 31 34  1  0     0  0
  3  4  1  0     0  0
 28 35  1  0     0  0
 13 18  1  0     0  0
 32 36  1  0     0  0
 16 20  1  0     0  0
 29 37  1  0     0  0
 19 17  1  0     0  0
 17 18  1  0     0  0
  4  5  1  0     0  0
  5  6  2  0     0  0
 19 20  2  0     0  0
  6  7  1  0     0  0
 20 21  1  0     0  0
  7  8  2  0     0  0
 21 22  2  0     0  0
  8  9  1  0     0  0
 22 23  1  0     0  0
  8 10  1  0     0  0
 23 24  2  0     0  0
 24 19  1  0     0  0
 40 39  1  1     0  0
 38 40  1  0     0  0
 40 41  1  0     0  0
 41 42  1  0     0  0
 42 43  2  0     0  0
 43 44  1  0     0  0
 44 45  2  0     0  0
 45 46  1  0     0  0
 45 47  1  0     0  0
 47 48  2  0     0  0
 42 48  1  0     0  0
 38 49  2  0     0  0
 38 50  1  0     0  0
 48 51  1  0     0  0
 43 52  1  0     0  0
 10 11  2  0     0  0
 50 53  1  0     0  0
 18 25  1  0     0  0
  5 11  1  0     0  0
 25 26  2  0     0  0
 50 55  1  0     0  0
 53 57  1  0     0  0
 56 54  1  0     0  0
 54 55  1  0     0  0
  1 12  2  0     0  0
 27 25  1  0     0  0
 56 57  2  0     0  0
 28 29  1  0     0  0
 57 58  1  0     0  0
  1 13  1  0     0  0
 58 59  2  0     0  0
 11 14  1  0     0  0
 59 60  1  0     0  0
  6 15  1  0     0  0
 60 61  2  0     0  0
 61 56  1  0     0  0
 55 62  1  0     0  0
 13 16  1  0     0  0
 62 63  2  0     0  0
  3  2  1  1     0  0
 64 62  1  0     0  0
 28 33  2  0     0  0
 64 65  1  0     0  0
 29 30  2  0     0  0
 65 66  1  0     0  0
 66 37  1  0     0  0
 30 31  1  0     0  0
 36 67  1  0     0  0
 31 32  2  0     0  0
 67 68  1  0     0  0
 68 27  1  0     0  0
M  END