
          11280715082D 1   1.00000     0.00000     0

 14 15  0     0  0            999 V2000
    0.1042   -2.8417    0.0000 P   0  0  3  0  0  0           0  0  0
   -0.0500   -2.2667    0.0000 C   0  0  0  0  0  0           0  0  0
    0.3667   -1.8417    0.0000 C   0  0  0  0  0  0           0  0  0
   -0.5833   -2.6917    0.0000 O   0  0  0  0  0  0           0  0  0
    0.6625   -2.5625    0.0000 O   0  0  0  0  0  0           0  0  0
    0.3167   -3.5750    0.0000 O   0  0  0  0  0  0           0  0  0
    0.2167   -1.2750    0.0000 C   0  0  0  0  0  0           0  0  0
   -0.6208   -2.1125    0.0000 C   0  0  0  0  0  0           0  0  0
    0.9292   -1.9917    0.0000 C   0  0  0  0  0  0           0  0  0
   -0.7750   -1.5375    0.0000 C   0  0  0  0  0  0           0  0  0
   -0.3583   -1.1167    0.0000 C   0  0  0  0  0  0           0  0  0
    0.6292   -0.8625    0.0000 C   0  0  0  0  0  0           0  0  0
    1.3417   -1.5792    0.0000 C   0  0  0  0  0  0           0  0  0
    1.1917   -1.0125    0.0000 C   0  0  0  0  0  0           0  0  0
  2  1  1  0     0  0
  3  2  1  0     0  0
  4  1  2  0     0  0
  5  1  1  0     0  0
  6  1  1  0     0  0
  7  3  1  0     0  0
  8  2  2  0     0  0
  9  3  2  0     0  0
 10  8  1  0     0  0
 11 10  2  0     0  0
 12  7  2  0     0  0
 13  9  1  0     0  0
 14 13  2  0     0  0
  7 11  1  0     0  0
 14 12  1  0     0  0
M  END