
  Mrv0541 04051115152D          

 15 16  0  0  0  0            999 V2000
   -1.9372    0.3246    0.0000 N   0  0  0  0  0  0  0  0  0  0  0  0
   -1.3852    0.9377    0.0000 C   0  0  0  0  0  0  0  0  0  0  0  0
   -0.6315    0.6021    0.0000 C   0  0  0  0  0  0  0  0  0  0  0  0
   -0.1657   -0.8314    0.0000 C   0  0  0  0  0  0  0  0  0  0  0  0
   -0.4206   -1.6161    0.0000 C   0  0  0  0  0  0  0  0  0  0  0  0
   -1.2276   -1.7876    0.0000 C   0  0  0  0  0  0  0  0  0  0  0  0
   -1.7796   -1.1745    0.0000 C   0  0  0  0  0  0  0  0  0  0  0  0
   -1.5247   -0.3899    0.0000 C   0  0  0  0  0  0  0  0  0  0  0  0
   -0.7177   -0.2183    0.0000 C   0  0  0  0  0  0  0  0  0  0  0  0
    0.0830    1.0146    0.0000 C   0  0  0  0  0  0  0  0  0  0  0  0
    0.7975    0.6021    0.0000 C   0  0  0  0  0  0  0  0  0  0  0  0
    1.5119    1.0146    0.0000 C   0  0  0  0  0  0  0  0  0  0  0  0
    2.2264    0.6021    0.0000 C   0  0  0  0  0  0  0  0  0  0  0  0
    2.9409    1.0146    0.0000 O   0  0  0  0  0  0  0  0  0  0  0  0
    2.2264   -0.2229    0.0000 O   0  0  0  0  0  0  0  0  0  0  0  0
  2  1  1  0  0  0  0
  8  1  1  0  0  0  0
  2  3  2  0  0  0  0
  3  9  1  0  0  0  0
 10  3  1  0  0  0  0
  4  5  2  0  0  0  0
  4  9  1  0  0  0  0
  5  6  1  0  0  0  0
  6  7  2  0  0  0  0
  7  8  1  0  0  0  0
  8  9  2  0  0  0  0
 10 11  1  0  0  0  0
 11 12  1  0  0  0  0
 12 13  1  0  0  0  0
 13 14  1  0  0  0  0
 13 15  2  0  0  0  0
M  END