
  SciTegic12231509382D

 18 19  0  0  1  0            999 V2000
    6.4083    1.4074    0.0000 O   0  0
    3.5504    1.4074    0.0000 O   0  0
    2.1214    0.5824    0.0000 O   0  0
    4.9793    0.5824    0.0000 N   0  0
    6.4083   -1.0676    0.0000 N   0  0
    4.9793   -1.0676    0.0000 N   0  0
    7.1227    0.1699    0.0000 N   0  0
    7.8372   -1.0676    0.0000 N   0  0
    5.6938    0.1699    0.0000 C   0  0
    5.6938   -0.6551    0.0000 C   0  0
    6.4083    0.5824    0.0000 C   0  0
    4.2648    0.1699    0.0000 C   0  0  1  0  0  0
    7.1227   -0.6551    0.0000 C   0  0
    3.5504    0.5824    0.0000 C   0  0  2  0  0  0
    4.2648   -0.6551    0.0000 C   0  0
    2.8359    0.1699    0.0000 C   0  0  2  0  0  0
    2.8359   -0.6551    0.0000 C   0  0
    5.1308   -0.3301    0.0000 H   0  0
  1 11  1  0
 14  2  1  6
 16  3  1  6
  4  9  1  0
  4 12  1  0
  5 10  2  0
  5 13  1  0
  6 10  1  0
  6 15  1  0
  7 11  1  0
  7 13  2  0
  8 13  1  0
  9 10  1  0
  9 11  2  0
 12 14  1  0
 12 15  1  0
 14 16  1  0
 16 17  1  0
 12 18  1  1
M  END