
          11280715232D 1   1.00000     0.00000     0

 54 57  0     1  0            999 V2000
    4.2042   -7.0542    0.0000 N   0  0  0  0  0  0           0  0  0
    5.9167   -5.3875    0.0000 N   0  0  0  0  0  0           0  0  0
    1.8667   -6.5292    0.0000 N   0  0  0  0  0  0           0  0  0
    5.5417   -6.1250    0.0000 C   0  0  0  0  0  0           0  0  0
    6.2417   -7.3167    0.0000 C   0  0  0  0  0  0           0  0  0
    1.3417   -5.8917    0.0000 C   0  0  0  0  0  0           0  0  0
    3.3792   -7.1417    0.0000 C   0  0  0  0  0  0           0  0  0
    4.9500   -6.7042    0.0000 C   0  0  2  0  0  0           0  0  0
    6.0292   -4.5667    0.0000 C   0  0  1  0  0  0           0  0  0
    7.5417   -7.6167    0.0000 N   0  0  0  0  0  0           0  0  0
    5.8667   -3.7542    0.0000 C   0  0  0  0  0  0           0  0  0
    1.0542   -5.1167    0.0000 C   0  0  1  0  0  0           0  0  0
    6.7875   -7.9417    0.0000 C   0  0  0  0  0  0           0  0  0
    1.0292   -4.2917    0.0000 N   0  0  0  0  0  0           0  0  0
    2.5750   -6.9625    0.0000 C   0  0  1  0  0  0           0  0  0
    0.2417   -5.2792    0.0000 C   0  0  0  0  0  0           0  0  0
    2.4417   -2.3667    0.0000 N   0  0  0  0  0  0           0  0  0
    3.2417   -2.1417    0.0000 C   0  0  0  0  0  0           0  0  0
    5.4250   -7.3792    0.0000 C   0  0  0  0  0  0           0  0  0
    6.6750   -6.6042    0.0000 C   0  0  0  0  0  0           0  0  0
   -0.3458   -5.8625    0.0000 C   0  0  0  0  0  0           0  0  0
    5.4542   -3.0417    0.0000 N   0  0  0  0  0  0           0  0  0
    7.4792   -6.7917    0.0000 C   0  0  0  0  0  0           0  0  0
    2.4542   -9.1500    0.0000 C   0  0  0  0  0  0           0  0  0
    6.2042   -6.6167    0.0000 O   0  0  0  0  0  0           0  0  0
    3.3375   -7.9667    0.0000 O   0  0  0  0  0  0           0  0  0
    0.6292   -6.3042    0.0000 O   0  0  0  0  0  0           0  0  0
    6.8542   -4.5417    0.0000 C   0  0  0  0  0  0           0  0  0
    4.0667   -2.1875    0.0000 C   0  0  0  0  0  0           0  0  0
    1.7667   -2.8375    0.0000 C   0  0  1  0  0  0           0  0  0
    6.4667   -3.5250    0.0000 O   0  0  0  0  0  0           0  0  0
    3.1500   -1.3167    0.0000 O   0  0  0  0  0  0           0  0  0
   -1.1458   -5.6417    0.0000 O   0  0  0  0  0  0           0  0  0
    1.6417   -9.2625    0.0000 O   0  0  0  0  0  0           0  0  0
    2.2542   -7.7292    0.0000 C   0  0  0  0  0  0           0  0  0
    1.2792   -3.5042    0.0000 C   0  0  0  0  0  0           0  0  0
    4.8292   -2.5000    0.0000 C   0  0  0  0  0  0           0  0  0
   -0.1458   -6.6542    0.0000 N   0  0  0  0  0  0           0  0  0
    2.7667   -8.3875    0.0000 C   0  0  0  0  0  0           0  0  0
    2.9667   -9.8042    0.0000 N   0  0  0  0  0  0           0  0  0
    1.1917   -2.2417    0.0000 C   0  0  0  0  0  0           0  0  0
    7.2542   -3.8167    0.0000 C   0  0  0  0  0  0           0  0  0
    6.4375   -5.8167    0.0000 C   0  0  0  0  0  0           0  0  0
    8.0417   -6.1917    0.0000 C   0  0  0  0  0  0           0  0  0
    0.3917   -2.4500    0.0000 C   0  0  3  0  0  0           0  0  0
    8.0792   -3.7917    0.0000 C   0  0  0  0  0  0           0  0  0
    6.8167   -3.1125    0.0000 C   0  0  0  0  0  0           0  0  0
   -0.1875   -1.8542    0.0000 C   0  0  0  0  0  0           0  0  0
    0.1667   -3.2417    0.0000 C   0  0  0  0  0  0           0  0  0
    7.0042   -5.2125    0.0000 C   0  0  0  0  0  0           0  0  0
    7.8042   -5.4042    0.0000 C   0  0  0  0  0  0           0  0  0
    8.4667   -3.0667    0.0000 C   0  0  0  0  0  0           0  0  0
    7.2125   -2.3792    0.0000 C   0  0  0  0  0  0           0  0  0
    8.0375   -2.3667    0.0000 C   0  0  0  0  0  0           0  0  0
  2  4  1  0     0  0
  3 15  1  0     0  0
  4  8  1  0     0  0
  5 19  1  0     0  0
  6  3  1  0     0  0
  7  1  1  0     0  0
  8  1  1  0     0  0
  9  2  1  0     0  0
 10 13  1  0     0  0
 11  9  1  0     0  0
 12  6  1  0     0  0
 13  5  2  0     0  0
 14 12  1  0     0  0
 15  7  1  0     0  0
 12 16  1  6     0  0
 17 30  1  0     0  0
 18 29  1  0     0  0
  8 19  1  6     0  0
 20  5  1  0     0  0
 21 16  1  0     0  0
 22 11  1  0     0  0
 23 20  2  0     0  0
 24 39  1  0     0  0
 25  4  2  0     0  0
 26  7  2  0     0  0
 27  6  2  0     0  0
  9 28  1  1     0  0
 29 37  1  0     0  0
 30 36  1  0     0  0
 31 11  2  0     0  0
 32 18  2  0     0  0
 33 21  2  0     0  0
 34 24  2  0     0  0
 15 35  1  1     0  0
 36 14  1  0     0  0
 37 22  1  0     0  0
 38 21  1  0     0  0
 39 35  1  0     0  0
 40 24  1  0     0  0
 30 41  1  1     0  0
 42 28  1  0     0  0
 43 20  1  0     0  0
 44 23  1  0     0  0
 45 41  1  0     0  0
 46 42  1  0     0  0
 47 42  2  0     0  0
 48 45  1  0     0  0
 49 45  1  0     0  0
 50 43  2  0     0  0
 51 50  1  0     0  0
 52 46  2  0     0  0
 53 47  1  0     0  0
 54 53  2  0     0  0
 10 23  1  0     0  0
 51 44  2  0     0  0
 54 52  1  0     0  0
 18 17  1  0     0  0
M  END