
          11280714582D 1   1.00000     0.00000     0

 14 14  0     0  0            999 V2000
    4.0125   -3.6375    0.0000 N   0  0  3  0  0  0           0  0  0
    3.5292   -2.9792    0.0000 C   0  0  0  0  0  0           0  0  0
    5.2542   -2.9042    0.0000 C   0  0  0  0  0  0           0  0  0
    5.6667   -2.1875    0.0000 C   0  0  0  0  0  0           0  0  0
    3.5292   -4.3042    0.0000 C   0  0  3  0  0  0           0  0  0
    2.7542   -3.2292    0.0000 C   0  0  0  0  0  0           0  0  0
    3.8000   -2.1875    0.0000 O   0  0  0  0  0  0           0  0  0
    2.7542   -4.0542    0.0000 C   0  0  0  0  0  0           0  0  0
    4.8375   -3.6292    0.0000 C   0  0  0  0  0  0           0  0  0
    6.9167   -1.4667    0.0000 N   0  0  3  0  0  0           0  0  0
    6.0917   -1.4667    0.0000 C   0  0  0  0  0  0           0  0  0
    3.7917   -5.0875    0.0000 C   0  0  0  0  0  0           0  0  0
    7.3292   -0.7542    0.0000 C   0  0  0  0  0  0           0  0  0
    7.4792   -2.0792    0.0000 C   0  0  0  0  0  0           0  0  0
  2  1  1  0     0  0
  3  9  1  0     0  0
  4  3  3  0     0  0
  5  1  1  0     0  0
  6  2  1  0     0  0
  7  2  2  0     0  0
  8  5  1  0     0  0
  9  1  1  0     0  0
 10 11  1  0     0  0
 11  4  1  0     0  0
 12  5  1  0     0  0
 13 10  1  0     0  0
 14 10  1  0     0  0
  8  6  1  0     0  0
M  END