
  SciTegic11141214522D

 31 34  0  0  0  0            999 V2000
   -3.8862    0.7869    0.0000 C   0  0
   -4.6007    1.1994    0.0000 C   0  0
   -5.3152    0.7869    0.0000 O   0  0
   -5.3152   -0.0381    0.0000 C   0  0
   -4.6007   -0.4506    0.0000 C   0  0
   -3.8862   -0.0381    0.0000 N   0  0
   -3.1718   -0.4506    0.0000 C   0  0
   -2.4573   -0.0381    0.0000 C   0  0
   -1.7428   -0.4506    0.0000 C   0  0
   -1.0284   -0.0381    0.0000 O   0  0
   -0.3139   -0.4506    0.0000 C   0  0
   -0.3139   -1.2756    0.0000 C   0  0
    0.4006   -1.6881    0.0000 C   0  0
   -1.0284   -1.6881    0.0000 O   0  0
   -1.0284   -2.5131    0.0000 C   0  0
    0.4006   -0.0381    0.0000 C   0  0
    1.1150   -0.4506    0.0000 C   0  0
    1.1150   -1.2756    0.0000 C   0  0
    1.8295   -1.6881    0.0000 N   0  0
    2.5440   -1.2756    0.0000 C   0  0
    2.5440   -0.4506    0.0000 N   0  0
    1.8295   -0.0381    0.0000 C   0  0
    1.8295    0.7869    0.0000 N   0  0
    2.5440    1.1994    0.0000 C   0  0
    3.2585    0.7869    0.0000 C   0  0
    3.9729    1.1994    0.0000 C   0  0
    4.6874    0.7869    0.0000 Cl  0  0
    3.9729    2.0244    0.0000 C   0  0
    4.6874    2.4369    0.0000 F   0  0
    3.2585    2.4369    0.0000 C   0  0
    2.5440    2.0244    0.0000 C   0  0
  2  1  1  0
  1  6  1  0
  2  3  1  0
  4  3  1  0
  4  5  1  0
  5  6  1  0
  7  6  1  0
  8  7  1  0
  8  9  1  0
  9 10  1  0
 11 10  1  0
 12 11  2  0
 16 11  1  0
 13 12  1  0
 12 14  1  0
 18 13  2  0
 15 14  1  0
 17 16  2  0
 18 17  1  0
 17 22  1  0
 18 19  1  0
 20 19  2  0
 20 21  1  0
 22 21  2  0
 22 23  1  0
 24 23  1  0
 25 24  2  0
 31 24  1  0
 25 26  1  0
 26 27  1  0
 28 26  2  0
 28 29  1  0
 30 28  1  0
 30 31  2  0
M  END