
  SciTegic01091216402D

 27 31  0  0  0  0            999 V2000
    1.8944    0.0667    0.0000 N   0  0
    1.8932   -0.7607    0.0000 C   0  0
    2.6081   -1.1735    0.0000 N   0  0
    2.6063    0.4795    0.0000 C   0  0
    3.3216    0.0703    0.0000 C   0  0
    3.3219   -0.7607    0.0000 C   0  0
    4.1124   -1.0173    0.0000 N   0  0
    4.6007   -0.3448    0.0000 C   0  0
    4.1119    0.3273    0.0000 N   0  0
    1.1784   -1.1726    0.0000 C   0  0
    2.6038    1.3045    0.0000 N   0  0
    1.8881    1.7148    0.0000 C   0  0
    1.8856    2.5398    0.0000 C   0  0
    1.1749    1.3002    0.0000 C   0  0
    2.2972    3.2481    0.0000 C   0  0
    1.4713    3.2497    0.0000 C   0  0
    0.3497    1.2980    0.0000 C   0  0
    0.7643    0.5847    0.0000 C   0  0
    4.5366   -1.7240    0.0000 C   0  0
    4.1331   -2.4427    0.0000 C   0  0
    4.5566   -3.1498    0.0000 C   0  0
    5.3824   -3.1367    0.0000 C   0  0
    5.7828   -2.4105    0.0000 C   0  0
    5.3570   -1.7064    0.0000 C   0  0
    5.4257   -0.3445    0.0000 C   0  0
    5.8075   -3.8437    0.0000 O   0  0
    5.4078   -4.5654    0.0000 C   0  0
 12 13  1  0
  3  6  2  0
 12 14  1  0
 15 13  1  0
 16 15  1  0
 13 16  1  0
  1  2  2  0
  5  4  2  0
 17 14  1  0
 18 17  1  0
 14 18  1  0
  6  7  1  0
  7  8  1  0
  8  9  2  0
  7 19  1  0
  9  5  1  0
 19 20  2  0
  4  1  1  0
 20 21  1  0
  2 10  1  0
 21 22  2  0
  5  6  1  0
 22 23  1  0
  4 11  1  0
 23 24  2  0
 24 19  1  0
  8 25  1  0
 11 12  1  0
 22 26  1  0
  2  3  1  0
 26 27  1  0
M  END