
  CDK    9/16/09,9:46

 29 32  0  0  0  0  0  0  0  0999 V2000
   -1.8807   -0.5545    0.0000 C   0  0  0  0  0  0  0  0  0  0  0  0
   -1.8819   -1.3821    0.0000 C   0  0  0  0  0  0  0  0  0  0  0  0
   -1.1690   -1.7950    0.0000 C   0  0  0  0  0  0  0  0  0  0  0  0
   -1.1710   -0.1418    0.0000 C   0  0  0  0  0  0  0  0  0  0  0  0
   -0.4523   -1.3837    0.0000 C   0  0  0  0  0  0  0  0  0  0  0  0
   -0.4528   -0.5505    0.0000 C   0  0  0  0  0  0  0  0  0  0  0  0
    0.2267   -0.0080    0.0000 C   0  0  0  0  0  0  0  0  0  0  0  0
    0.0437    0.7964    0.0000 O   0  0  0  0  0  0  0  0  0  0  0  0
    1.0081   -0.1872    0.0000 N   0  0  0  0  0  0  0  0  0  0  0  0
    1.3659   -0.9268    0.0000 C   0  0  0  0  0  0  0  0  0  0  0  0
    2.1055   -0.5689    0.0000 C   0  0  0  0  0  0  0  0  0  0  0  0
    1.7477    0.1706    0.0000 C   0  0  0  0  0  0  0  0  0  0  0  0
    1.0472   -1.6786    0.0000 C   0  0  0  0  0  0  0  0  0  0  0  0
    0.2110   -1.8963    0.0000 N   0  0  0  0  0  0  0  0  0  0  0  0
    0.1595   -2.7588    0.0000 C   0  0  0  0  0  0  0  0  0  0  0  0
    0.9641   -3.0744    0.0000 N   0  0  0  0  0  0  0  0  0  0  0  0
    1.5126   -2.4066    0.0000 C   0  0  0  0  0  0  0  0  0  0  0  0
    2.3361   -2.4558    0.0000 C   0  0  0  0  0  0  0  0  0  0  0  0
    2.7054   -3.1934    0.0000 O   0  0  0  0  0  0  0  0  0  0  0  0
    2.7904   -1.7671    0.0000 O   0  0  0  0  0  0  0  0  0  0  0  0
    3.6138   -1.8162    0.0000 C   0  0  0  0  0  0  0  0  0  0  0  0
    4.0681   -1.1275    0.0000 C   0  0  0  0  0  0  0  0  0  0  0  0
   -2.5954   -0.1427    0.0000 C   0  0  0  0  0  0  0  0  0  0  0  0
   -3.3135    0.2704    0.0000 C   0  0  0  0  0  0  0  0  0  0  0  0
   -4.0285    0.6828    0.0000 Si  0  0  0  0  0  0  0  0  0  0  0  0
   -4.7435    1.0953    0.0000 C   0  0  0  0  0  0  0  0  0  0  0  0
   -3.6162    1.3975    0.0000 C   0  0  0  0  0  0  0  0  0  0  0  0
   -4.4408   -0.0317    0.0000 C   0  0  0  0  0  0  0  0  0  0  0  0
    1.9478   -1.5078    0.0000 H   0  0  0  0  0  0  0  0  0  0  0  0
  3  5  2  0  0  0  0 
 13 10  1  0  0  0  0 
 14  5  1  0  0  0  0 
  6  7  1  0  0  0  0 
  7  9  1  0  0  0  0 
 14 15  1  0  0  0  0 
 15 16  2  0  0  0  0 
 16 17  1  0  0  0  0 
 17 13  2  0  0  0  0 
  5  6  1  0  0  0  0 
 17 18  1  0  0  0  0 
  1  2  2  0  0  0  0 
 18 19  2  0  0  0  0 
  7  8  2  0  0  0  0 
 18 20  1  0  0  0  0 
  9 10  1  0  0  0  0 
 20 21  1  0  0  0  0 
  6  4  2  0  0  0  0 
 21 22  1  0  0  0  0 
  4  1  1  0  0  0  0 
  1 23  1  0  0  0  0 
 23 24  3  0  0  0  0 
  2  3  1  0  0  0  0 
 24 25  1  0  0  0  0 
 10 11  1  0  0  0  0 
 25 26  1  0  0  0  0 
 11 12  1  0  0  0  0 
 25 27  1  0  0  0  0 
 12  9  1  0  0  0  0 
 25 28  1  0  0  0  0 
 13 14  1  0  0  0  0 
 10 29  1  6  0  0  0 
M  END