
  SciTegic02011310442D

 42 47  0  0  0  0            999 V2000
    2.3811  -27.9812    0.0000 N   0  0
    3.0908  -27.5717    0.0000 C   0  0
    3.0880  -26.7491    0.0000 N   0  0
    2.3793  -26.3438    0.0000 C   0  0
    1.6731  -27.5722    0.0000 N   0  0
    1.6743  -26.7511    0.0000 C   0  0
    0.8938  -26.4962    0.0000 C   0  0
    0.4101  -27.1598    0.0000 C   0  0
    0.8918  -27.8247    0.0000 C   0  0
    3.7991  -27.9792    0.0000 S   0  0
    4.5062  -27.5695    0.0000 C   0  0
    2.3776  -25.5266    0.0000 N   0  0
    3.0844  -25.1165    0.0000 C   0  0
    5.2112  -27.9774    0.0000 C   0  0
    5.9178  -27.5684    0.0000 C   0  0
    5.9170  -26.7503    0.0000 C   0  0
    5.2037  -26.3430    0.0000 C   0  0
    4.5000  -26.7544    0.0000 C   0  0
    3.8294  -25.4485    0.0000 C   0  0
    4.3749  -24.8400    0.0000 C   0  0
    3.9647  -24.1331    0.0000 N   0  0
    3.1658  -24.3049    0.0000 N   0  0
    5.1878  -24.9236    0.0000 C   0  0
    6.6235  -26.3397    0.0000 N   0  0
    7.3324  -26.7462    0.0000 C   0  0
    8.0389  -26.3356    0.0000 C   0  0
    8.7478  -26.7421    0.0000 N   0  0
    7.3348  -27.5634    0.0000 O   0  0
    8.8328  -27.5524    0.0000 C   0  0
    9.6326  -27.7200    0.0000 C   0  0  1  0  0  0
   10.0392  -27.0111    0.0000 C   0  0
    9.4905  -26.4055    0.0000 C   0  0
    9.9671  -28.4656    0.0000 O   0  0
   10.7801  -28.5486    0.0000 C   0  0
   11.2585  -27.8861    0.0000 C   0  0
   12.0715  -27.9692    0.0000 N   0  0
   12.3998  -28.7149    0.0000 C   0  0
   13.2090  -28.7995    0.0000 C   0  0
   13.6910  -28.1392    0.0000 N   0  0
   13.3579  -27.3920    0.0000 C   0  0
   12.5427  -27.3050    0.0000 C   0  0
   14.5037  -28.2254    0.0000 C   0  0
  5  1  1  0
  1  2  2  0
  2  3  1  0
  3  4  2  0
  4  6  1  0
  5  6  1  0
  6  7  2  0
  7  8  1  0
  8  9  2  0
  9  5  1  0
  2 10  1  0
 10 11  1  0
  4 12  1  0
 12 13  1  0
 11 14  2  0
 14 15  1  0
 15 16  2  0
 16 17  1  0
 17 18  2  0
 18 11  1  0
 13 19  1  0
 19 20  2  0
 20 21  1  0
 21 22  1  0
 22 13  2  0
 20 23  1  0
 16 24  1  0
 24 25  1  0
 25 26  1  0
 26 27  1  0
 25 28  2  0
 27 29  1  0
 29 30  1  0
 30 31  1  0
 31 32  1  0
 32 27  1  0
 30 33  1  1
 33 34  1  0
 34 35  1  0
 35 36  1  0
 36 37  1  0
 36 41  1  0
 37 38  1  0
 38 39  1  0
 39 40  1  0
 40 41  1  0
 39 42  1  0
M  END