
  SciTegic06051313522D

 31 35  0  0  0  0            999 V2000
   20.0363  -15.3161    0.0000 C   0  0
   20.0351  -16.1356    0.0000 C   0  0
   20.7432  -16.5446    0.0000 C   0  0
   20.7414  -14.9072    0.0000 C   0  0
   21.4500  -15.3125    0.0000 C   0  0
   21.4508  -16.1315    0.0000 C   0  0
   22.1593  -16.5386    0.0000 C   0  0
   22.8676  -16.1278    0.0000 C   0  0
   22.8628  -15.3056    0.0000 C   0  0
   22.1537  -14.9023    0.0000 C   0  0
   20.9552  -14.1110    0.0000 C   0  0
   21.9362  -14.1069    0.0000 C   0  0
   22.2355  -13.1726    0.0000 C   0  0
   21.4393  -12.5992    0.0000 C   0  0
   20.6482  -13.1793    0.0000 N   0  0
   21.4351  -11.6182    0.0000 O   0  0
   23.1672  -12.8655    0.0000 N   0  0
   23.8990  -13.5189    0.0000 C   0  0
   24.8307  -13.2118    0.0000 C   0  0
   25.5625  -13.8652    0.0000 C   0  0
   26.4943  -13.5582    0.0000 C   0  0
   27.2261  -14.2115    0.0000 C   0  0
   28.1578  -13.9045    0.0000 C   0  0
   22.1610  -17.3558    0.0000 S   0  0
   22.8696  -17.7629    0.0000 C   0  0
   22.8679  -18.5777    0.0000 C   0  0
   23.5756  -18.9848    0.0000 C   0  0
   24.2835  -18.5747    0.0000 C   0  0
   24.2791  -17.7533    0.0000 C   0  0
   23.5708  -17.3499    0.0000 C   0  0
   24.9926  -18.9808    0.0000 N   0  0
  1  2  2  0
  2  3  1  0
  3  6  2  0
  5  4  2  0
  4  1  1  0
  5  6  1  0
  6  7  1  0
  7  8  2  0
  8  9  1  0
  9 10  2  0
 10  5  1  0
  4 11  1  0
 10 12  1  0
 11 12  1  0
 12 13  2  0
 13 14  1  0
 14 15  1  0
 15 11  2  0
 14 16  2  0
 13 17  1  0
 17 18  1  0
 18 19  1  0
 19 20  1  0
 20 21  1  0
 21 22  1  0
 22 23  1  0
  7 24  1  0
 24 25  1  0
 25 26  2  0
 26 27  1  0
 27 28  2  0
 28 29  1  0
 29 30  2  0
 30 25  1  0
 28 31  1  0
M  END