
  SciTegic12171313032D

 26 28  0  0  0  0            999 V2000
   10.0855  -18.3826    0.0000 C   0  0
   10.0844  -19.2022    0.0000 C   0  0
   10.7924  -19.6111    0.0000 N   0  0
   11.5021  -19.2017    0.0000 C   0  0
   11.4993  -18.3790    0.0000 C   0  0
   10.7906  -17.9738    0.0000 N   0  0
   12.2104  -19.6092    0.0000 N   0  0
   12.2054  -17.9678    0.0000 N   0  0
   12.2023  -17.1506    0.0000 C   0  0  1  0  0  0
   12.9085  -16.7393    0.0000 C   0  0
   11.4931  -16.7447    0.0000 C   0  0
   13.6130  -17.1488    0.0000 C   0  0
   14.3187  -16.7382    0.0000 C   0  0
   14.3161  -15.9202    0.0000 C   0  0
   13.6018  -15.5144    0.0000 C   0  0
   12.8991  -15.9273    0.0000 C   0  0
    9.3798  -17.9744    0.0000 C   0  0
    9.3809  -17.1561    0.0000 C   0  0
    8.6740  -16.7477    0.0000 C   0  0
    7.9654  -17.1566    0.0000 C   0  0
    7.9682  -17.9780    0.0000 C   0  0
    8.6758  -18.3826    0.0000 C   0  0
    7.2601  -18.3870    0.0000 C   0  0
    6.5509  -17.9811    0.0000 O   0  0
    7.2632  -19.2042    0.0000 O   0  0
   10.0890  -16.7480    0.0000 Cl  0  0
  1  2  2  0
  2  3  1  0
  3  4  2  0
  4  5  1  0
  5  6  2  0
  6  1  1  0
  4  7  1  0
  5  8  1  0
  8  9  1  0
  9 10  1  0
  9 11  1  6
 10 12  2  0
 12 13  1  0
 13 14  2  0
 14 15  1  0
 15 16  2  0
 16 10  1  0
 17 18  2  0
 18 19  1  0
 19 20  2  0
 20 21  1  0
 21 22  2  0
 22 17  1  0
  1 17  1  0
 23 24  1  0
 23 25  2  0
 21 23  1  0
 18 26  1  0
M  END