
          11280715522D 1   1.00000     0.00000     0

 35 39  0     0  0            999 V2000
   -0.3389  -24.3291    0.0000 C   0  0  0  0  0  0           0  0  0
   -0.3401  -25.1565    0.0000 C   0  0  0  0  0  0           0  0  0
    0.3747  -25.5694    0.0000 C   0  0  0  0  0  0           0  0  0
    0.3729  -23.9164    0.0000 C   0  0  0  0  0  0           0  0  0
    1.0883  -24.3255    0.0000 C   0  0  0  0  0  0           0  0  0
    1.0891  -25.1523    0.0000 C   0  0  0  0  0  0           0  0  0
    1.8044  -25.5633    0.0000 N   0  0  0  0  0  0           0  0  0
    2.5194  -25.1485    0.0000 C   0  0  0  0  0  0           0  0  0
    2.5146  -24.3186    0.0000 C   0  0  0  0  0  0           0  0  0
    1.7987  -23.9113    0.0000 N   0  0  0  0  0  0           0  0  0
    3.2355  -25.5583    0.0000 O   0  0  0  0  0  0           0  0  0
    3.2266  -23.9017    0.0000 C   0  0  0  0  0  0           0  0  0
    3.9435  -24.3099    0.0000 N   0  0  0  0  0  0           0  0  0
    3.2216  -23.0767    0.0000 O   0  0  0  0  0  0           0  0  0
    4.6555  -23.8930    0.0000 C   0  0  0  0  0  0           0  0  0
    5.3702  -24.3046    0.0000 C   0  0  0  0  0  0           0  0  0
    6.0817  -23.8884    0.0000 C   0  0  0  0  0  0           0  0  0
    6.0771  -23.0626    0.0000 C   0  0  0  0  0  0           0  0  0
    5.3551  -22.6546    0.0000 C   0  0  0  0  0  0           0  0  0
    4.6466  -23.0731    0.0000 C   0  0  0  0  0  0           0  0  0
    6.7885  -22.6448    0.0000 O   0  0  0  0  0  0           0  0  0
    3.2387  -26.3833    0.0000 C   0  0  0  0  0  0           0  0  0
    5.3472  -21.8297    0.0000 C   0  0  0  0  0  0           0  0  0
    6.0576  -21.4103    0.0000 N   0  0  3  0  0  0           0  0  0
    6.7761  -21.8226    0.0000 C   0  0  0  0  0  0           0  0  0
    7.4845  -21.4068    0.0000 C   0  0  0  0  0  0           0  0  0
    7.4808  -20.5814    0.0000 N   0  0  0  0  0  0           0  0  0
    6.7625  -20.1736    0.0000 C   0  0  0  0  0  0           0  0  0
    6.0479  -20.5912    0.0000 C   0  0  0  0  0  0           0  0  0
    6.7984  -24.2969    0.0000 N   0  0  3  0  0  0           0  0  0
    6.7982  -25.1217    0.0000 C   0  0  0  0  0  0           0  0  0
    7.5109  -25.5301    0.0000 C   0  0  0  0  0  0           0  0  0
    8.2255  -25.1171    0.0000 N   0  0  0  0  0  0           0  0  0
    8.2228  -24.2912    0.0000 C   0  0  0  0  0  0           0  0  0
    7.5056  -23.8782    0.0000 C   0  0  0  0  0  0           0  0  0
 16 17  2  0     0  0
  5  4  1  0     0  0
 17 18  1  0     0  0
  8  9  2  0     0  0
 18 19  2  0     0  0
  4  1  2  0     0  0
 19 20  1  0     0  0
 20 15  2  0     0  0
  9 10  1  0     0  0
 18 21  1  0     0  0
 10  5  2  0     0  0
 11 22  1  0     0  0
 19 23  1  0     0  0
  8 11  1  0     0  0
 23 24  1  0     0  0
 24 25  1  0     0  0
  2  3  2  0     0  0
  9 12  1  0     0  0
  5  6  1  0     0  0
 12 13  1  0     0  0
  3  6  1  0     0  0
 24 29  1  0     0  0
 25 26  1  0     0  0
 26 27  1  0     0  0
 27 28  1  0     0  0
 28 29  1  0     0  0
 12 14  2  0     0  0
 17 30  1  0     0  0
 30 31  1  0     0  0
  6  7  2  0     0  0
 13 15  1  0     0  0
  1  2  1  0     0  0
 15 16  1  0     0  0
  7  8  1  0     0  0
 30 35  1  0     0  0
 31 32  1  0     0  0
 32 33  1  0     0  0
 33 34  1  0     0  0
 34 35  1  0     0  0
M  END