
          11280714502D 1   1.00000     0.00000     0

 28 30  0     0  0            999 V2000
    5.1667   -5.6500    0.0000 C   0  0  0  0  0  0           0  0  0
    5.1667   -5.0500    0.0000 C   0  0  0  0  0  0           0  0  0
    4.6417   -5.9500    0.0000 N   0  0  3  0  0  0           0  0  0
    4.1167   -5.0542    0.0000 N   0  0  3  0  0  0           0  0  0
    4.1167   -5.6417    0.0000 C   0  0  0  0  0  0           0  0  0
    5.7292   -5.8292    0.0000 N   0  0  0  0  0  0           0  0  0
    4.6417   -4.7500    0.0000 C   0  0  0  0  0  0           0  0  0
    5.7292   -4.8667    0.0000 N   0  0  0  0  0  0           0  0  0
    6.0792   -5.3417    0.0000 C   0  0  0  0  0  0           0  0  0
    6.6792   -5.3750    0.0000 C   0  0  0  0  0  0           0  0  0
    3.5792   -5.9292    0.0000 O   0  0  0  0  0  0           0  0  0
    4.6542   -4.1500    0.0000 O   0  0  0  0  0  0           0  0  0
    9.3917   -4.9667    0.0000 C   0  0  0  0  0  0           0  0  0
    4.6542   -6.5500    0.0000 C   0  0  0  0  0  0           0  0  0
    9.7167   -4.4625    0.0000 O   0  0  0  0  0  0           0  0  0
    3.5917   -4.7625    0.0000 C   0  0  0  0  0  0           0  0  0
    7.0042   -4.8667    0.0000 C   0  0  0  0  0  0           0  0  0
    6.9542   -5.9042    0.0000 C   0  0  0  0  0  0           0  0  0
    8.4792   -5.4500    0.0000 O   0  0  0  0  0  0           0  0  0
    8.7917   -4.9417    0.0000 C   0  0  0  0  0  0           0  0  0
    7.8792   -5.4250    0.0000 C   0  0  0  0  0  0           0  0  0
    9.6792   -5.5000    0.0000 O   0  0  0  0  0  0           0  0  0
    7.6042   -4.8917    0.0000 C   0  0  0  0  0  0           0  0  0
    7.5542   -5.9292    0.0000 C   0  0  0  0  0  0           0  0  0
    4.1417   -6.8542    0.0000 C   0  0  0  0  0  0           0  0  0
    3.5792   -4.1625    0.0000 C   0  0  0  0  0  0           0  0  0
    4.1542   -7.4542    0.0000 C   0  0  0  0  0  0           0  0  0
    3.0542   -3.8667    0.0000 C   0  0  0  0  0  0           0  0  0
  2  1  2  0     0  0
  3  1  1  0     0  0
  4  5  1  0     0  0
  5  3  1  0     0  0
  6  1  1  0     0  0
  7  2  1  0     0  0
  8  2  1  0     0  0
  9  6  1  0     0  0
 10  9  1  0     0  0
 11  5  2  0     0  0
 12  7  2  0     0  0
 13 20  1  0     0  0
 14  3  1  0     0  0
 15 13  2  0     0  0
 16  4  1  0     0  0
 17 10  2  0     0  0
 18 10  1  0     0  0
 19 21  1  0     0  0
 20 19  1  0     0  0
 21 24  1  0     0  0
 22 13  1  0     0  0
 23 17  1  0     0  0
 24 18  2  0     0  0
 25 14  1  0     0  0
 26 16  1  0     0  0
 27 25  1  0     0  0
 28 26  1  0     0  0
  8  9  2  0     0  0
  7  4  1  0     0  0
 23 21  2  0     0  0
M  END