
          11280715142D 1   1.00000     0.00000     0

 41 45  0     1  0            999 V2000
    1.9292   -2.5917    0.0000 C   0  0  2  0  0  0           0  0  0
    2.3417   -3.3042    0.0000 C   0  0  1  0  0  0           0  0  0
    1.9125   -0.7292    0.0000 N   0  0  3  0  0  0           0  0  0
    1.2750   -2.0792    0.0000 C   0  0  0  0  0  0           0  0  0
    1.2750   -1.2542    0.0000 C   0  0  0  0  0  0           0  0  0
    2.1292   -4.8167    0.0000 C   0  0  0  0  0  0           0  0  0
    2.7417   -2.4042    0.0000 N   0  0  0  0  0  0           0  0  0
    1.3417   -3.1792    0.0000 C   0  0  0  0  0  0           0  0  0
    2.7250   -0.9042    0.0000 C   0  0  0  0  0  0           0  0  0
    3.1375   -3.5167    0.0000 C   0  0  0  0  0  0           0  0  0
    1.9250   -4.0167    0.0000 O   0  0  0  0  0  0           0  0  0
    1.5500   -5.3917    0.0000 N   0  0  0  0  0  0           0  0  0
    2.9250   -5.0250    0.0000 N   0  0  0  0  0  0           0  0  0
    1.6625    0.0583    0.0000 C   0  0  0  0  0  0           0  0  0
    3.0917   -1.6542    0.0000 C   0  0  0  0  0  0           0  0  0
    0.5417   -2.9542    0.0000 C   0  0  0  0  0  0           0  0  0
    1.7625   -6.1917    0.0000 C   0  0  0  0  0  0           0  0  0
    3.1417   -5.8167    0.0000 C   0  0  0  0  0  0           0  0  0
    2.5542   -6.4042    0.0000 C   0  0  0  0  0  0           0  0  0
    3.2292   -0.2542    0.0000 O   0  0  0  0  0  0           0  0  0
    3.3500   -4.3167    0.0000 O   0  0  0  0  0  0           0  0  0
    2.2167    0.6708    0.0000 C   0  0  0  0  0  0           0  0  0
    3.9292   -3.3042    0.0000 O   0  0  0  0  0  0           0  0  0
    0.5542   -2.4917    0.0000 C   0  0  0  0  0  0           0  0  0
    3.3250    1.8958    0.0000 C   0  0  0  0  0  0           0  0  0
   -0.0458   -3.5292    0.0000 C   0  0  0  0  0  0           0  0  0
    1.5542   -3.9750    0.0000 C   0  0  0  0  0  0           0  0  0
    0.5542   -0.8417    0.0000 C   0  0  0  0  0  0           0  0  0
    1.9625    1.4458    0.0000 C   0  0  0  0  0  0           0  0  0
    3.0167    0.4958    0.0000 C   0  0  0  0  0  0           0  0  0
    3.5750    1.1000    0.0000 C   0  0  0  0  0  0           0  0  0
    2.5042    2.0583    0.0000 C   0  0  0  0  0  0           0  0  0
    3.8792    2.5000    0.0000 O   0  0  0  0  0  0           0  0  0
    0.9542   -4.5542    0.0000 C   0  0  0  0  0  0           0  0  0
    1.1792   -6.7750    0.0000 C   0  0  0  0  0  0           0  0  0
    3.9375   -6.0292    0.0000 C   0  0  0  0  0  0           0  0  0
    0.1625   -4.3292    0.0000 C   0  0  0  0  0  0           0  0  0
   -0.8375   -3.3042    0.0000 C   0  0  0  0  0  0           0  0  0
    3.6250    3.2833    0.0000 C   0  0  0  0  0  0           0  0  0
   -0.1583   -2.0792    0.0000 C   0  0  0  0  0  0           0  0  0
   -0.1583   -1.2542    0.0000 C   0  0  0  0  0  0           0  0  0
  2  1  1  0     0  0
  3  5  1  0     0  0
  4  1  1  0     0  0
  5  4  1  0     0  0
  6 11  1  0     0  0
  7  1  1  0     0  0
  1  8  1  1     0  0
  9 15  1  0     0  0
 10  2  1  0     0  0
  2 11  1  1     0  0
 12  6  2  0     0  0
 13  6  1  0     0  0
 14  3  1  0     0  0
 15  7  1  0     0  0
 16  8  1  0     0  0
 17 12  1  0     0  0
 18 13  2  0     0  0
 19 18  1  0     0  0
 20  9  2  0     0  0
 21 10  2  0     0  0
 22 14  1  0     0  0
 23 10  1  0     0  0
 24  4  2  0     0  0
 25 31  2  0     0  0
 26 16  2  0     0  0
 27  8  2  0     0  0
 28  5  2  0     0  0
 29 22  1  0     0  0
 30 22  2  0     0  0
 31 30  1  0     0  0
 32 29  2  0     0  0
 33 25  1  0     0  0
 34 27  1  0     0  0
 35 17  1  0     0  0
 36 18  1  0     0  0
 37 34  2  0     0  0
 38 26  1  0     0  0
 39 33  1  0     0  0
 40 24  1  0     0  0
 41 40  2  0     0  0
  3  9  1  0     0  0
 26 37  1  0     0  0
 28 41  1  0     0  0
 17 19  2  0     0  0
 32 25  1  0     0  0
M  END