
  SciTegic05171617262D

 29 32  0  0  1  0            999 V2000
    3.6375   -0.9049    0.0000 N   0  0
    2.5973   -1.5031    0.0000 C   0  0
    2.5956   -2.7031    0.0000 O   0  0
    1.2990   -0.7500    0.0000 C   0  0  2  0  0  0
    1.2990    0.7500    0.0000 C   0  0
    0.0000    1.5000    0.0000 C   0  0
   -1.2990    0.7500    0.0000 C   0  0
   -1.2990   -0.7500    0.0000 N   0  0
    0.0000   -1.5000    0.0000 C   0  0
   -2.5987   -1.5004    0.0000 C   0  0
   -3.8991   -0.7525    0.0000 C   0  0
   -5.1969   -1.5046    0.0000 C   0  0
   -5.1945   -3.0046    0.0000 C   0  0
   -6.4915   -3.7597    0.0000 N   0  0
   -6.4870   -5.2605    0.0000 C   0  0
   -7.7822   -6.0172    0.0000 N   0  0
   -7.7746   -7.5172    0.0000 C   0  0
   -6.4718   -8.2606    0.0000 C   0  0
   -6.4673   -9.7614    0.0000 C   0  0
   -5.4261  -10.3580    0.0000 N   0  0
   -7.5044  -10.3652    0.0000 O   0  0
   -5.1766   -7.5040    0.0000 C   0  0
   -3.8715   -8.2452    0.0000 N   0  0
   -2.5767   -7.4864    0.0000 C   0  0
   -1.1555   -7.5199    0.0000 C   0  0
   -1.9166   -6.2273    0.0000 C   0  0
   -5.1842   -6.0041    0.0000 N   0  0
   -3.8943   -3.7525    0.0000 C   0  0
   -2.5964   -3.0004    0.0000 C   0  0
  1  2  1  0
  2  3  2  0
  4  2  1  1
  4  5  1  0
  5  6  1  0
  6  7  1  0
  7  8  1  0
  8  9  1  0
  4  9  1  0
  8 10  1  0
 10 11  2  0
 11 12  1  0
 12 13  2  0
 13 14  1  0
 14 15  1  0
 15 16  2  0
 16 17  1  0
 17 18  2  0
 18 19  1  0
 19 20  1  0
 19 21  2  0
 18 22  1  0
 22 23  1  0
 23 24  1  0
 24 25  1  0
 25 26  1  0
 24 26  1  0
 22 27  2  0
 15 27  1  0
 13 28  1  0
 28 29  2  0
 10 29  1  0
M  END