
          11280715412D 1   1.00000     0.00000     0

 14 14  0     0  0            999 V2000
    3.4875   -2.6542    0.0000 C   0  0  0  0  0  0           0  0  0
    2.7667   -2.2417    0.0000 C   0  0  0  0  0  0           0  0  0
    3.4875   -3.4792    0.0000 C   0  0  0  0  0  0           0  0  0
    2.7667   -3.8917    0.0000 C   0  0  0  0  0  0           0  0  0
    2.0542   -2.6542    0.0000 C   0  0  0  0  0  0           0  0  0
    2.0542   -3.4792    0.0000 C   0  0  0  0  0  0           0  0  0
    4.2000   -2.2375    0.0000 C   0  0  0  0  0  0           0  0  0
    2.7667   -1.4167    0.0000 O   0  0  0  0  0  0           0  0  0
    2.7667   -4.7167    0.0000 O   0  0  0  0  0  0           0  0  0
    5.6292   -2.2292    0.0000 N   0  0  0  0  0  0           0  0  0
    4.9167   -2.6417    0.0000 C   0  0  3  0  0  0           0  0  0
    1.3417   -3.8917    0.0000 C   0  0  0  0  0  0           0  0  0
    2.0542   -5.1292    0.0000 C   0  0  0  0  0  0           0  0  0
    4.9167   -3.4667    0.0000 C   0  0  0  0  0  0           0  0  0
  2  1  2  0     0  0
  3  1  1  0     0  0
  4  3  2  0     0  0
  5  2  1  0     0  0
  6  4  1  0     0  0
  7  1  1  0     0  0
  8  2  1  0     0  0
  9  4  1  0     0  0
 10 11  1  0     0  0
 11  7  1  0     0  0
 12  6  1  0     0  0
 13  9  1  0     0  0
 14 11  1  0     0  0
  6  5  2  0     0  0
M  END