
          11280715572D 1   1.00000     0.00000     0

 74 80  0     1  0            999 V2000
    8.4042   -4.2042    0.0000 N   0  0  3  0  0  0           0  0  0
    7.8917   -3.9042    0.0000 C   0  0  0  0  0  0           0  0  0
    4.7792   -5.1167    0.0000 C   0  0  0  0  0  0           0  0  0
    1.6417   -3.9417    0.0000 C   0  0  0  0  0  0           0  0  0
    4.7667   -3.9167    0.0000 C   0  0  0  0  0  0           0  0  0
    3.2125   -4.2292    0.0000 C   0  0  0  0  0  0           0  0  0
    6.3292   -4.2042    0.0000 C   0  0  0  0  0  0           0  0  0
    8.9667   -4.4167    0.0000 C   0  0  3  0  0  0           0  0  0
   -0.9583   -4.2542    0.0000 C   0  0  3  0  0  0           0  0  0
    5.7292   -5.3125    0.0000 N   0  0  0  0  0  0           0  0  0
    1.1292   -4.2500    0.0000 C   0  0  1  0  0  0           0  0  0
    2.1667   -4.2375    0.0000 N   0  0  0  0  0  0           0  0  0
    3.7292   -3.9250    0.0000 N   0  0  0  0  0  0           0  0  0
    5.2917   -4.2125    0.0000 N   0  0  0  0  0  0           0  0  0
    6.8500   -3.8917    0.0000 N   0  0  0  0  0  0           0  0  0
    5.3292   -4.8667    0.0000 C   0  0  0  0  0  0           0  0  0
    4.2542   -4.2167    0.0000 C   0  0  2  0  0  0           0  0  0
    2.6792   -3.9292    0.0000 C   0  0  1  0  0  0           0  0  0
    5.8125   -3.9042    0.0000 C   0  0  1  0  0  0           0  0  0
    0.6042   -3.9500    0.0000 N   0  0  0  0  0  0           0  0  0
    9.1250   -5.0042    0.0000 C   0  0  0  0  0  0           0  0  0
    7.3750   -4.2042    0.0000 C   0  0  1  0  0  0           0  0  0
    8.3792   -6.6167    0.0000 C   0  0  0  0  0  0           0  0  0
    0.0792   -4.2542    0.0000 C   0  0  0  0  0  0           0  0  0
    4.8417   -5.7125    0.0000 C   0  0  0  0  0  0           0  0  0
    4.2542   -4.8167    0.0000 C   0  0  0  0  0  0           0  0  0
    5.4375   -5.8292    0.0000 C   0  0  0  0  0  0           0  0  0
    7.8625   -6.9042    0.0000 N   0  0  0  0  0  0           0  0  0
   -1.0708   -4.5917    0.0000 C   0  0  3  0  0  0           0  0  0
   -2.0125   -4.3167    0.0000 C   0  0  3  0  0  0           0  0  0
   -1.4750   -3.4917    0.0000 C   0  0  3  0  0  0           0  0  0
    7.9000   -3.3042    0.0000 O   0  0  0  0  0  0           0  0  0
   -0.4375   -3.9542    0.0000 C   0  0  0  0  0  0           0  0  0
    1.6417   -3.3417    0.0000 O   0  0  0  0  0  0           0  0  0
    3.2167   -4.8292    0.0000 O   0  0  0  0  0  0           0  0  0
    4.7667   -3.3167    0.0000 O   0  0  0  0  0  0           0  0  0
    6.3417   -4.8042    0.0000 O   0  0  0  0  0  0           0  0  0
    2.6792   -3.3292    0.0000 C   0  0  0  0  0  0           0  0  0
   -1.4708   -4.4542    0.0000 C   0  0  0  0  0  0           0  0  0
   -0.9500   -3.6792    0.0000 C   0  0  0  0  0  0           0  0  0
   -0.4875   -4.7542    0.0000 C   0  0  0  0  0  0           0  0  0
    8.6917   -5.4250    0.0000 O   0  0  0  0  0  0           0  0  0
    0.0917   -4.8542    0.0000 O   0  0  0  0  0  0           0  0  0
    5.8042   -3.3042    0.0000 C   0  0  0  0  0  0           0  0  0
   -1.0708   -3.9750    0.0000 C   0  0  0  0  0  0           0  0  0
   -2.0208   -3.7167    0.0000 C   0  0  0  0  0  0           0  0  0
   -1.6208   -4.8125    0.0000 C   0  0  0  0  0  0           0  0  0
    8.3917   -6.0167    0.0000 N   0  0  0  0  0  0           0  0  0
    9.7042   -5.1542    0.0000 N   0  0  0  0  0  0           0  0  0
    8.9000   -6.9167    0.0000 N   0  0  0  0  0  0           0  0  0
    8.4417   -3.6042    0.0000 C   0  0  0  0  0  0           0  0  0
    3.2000   -3.0250    0.0000 C   0  0  0  0  0  0           0  0  0
    4.2375   -2.4167    0.0000 C   0  0  0  0  0  0           0  0  0
    1.1292   -4.8417    0.0000 C   0  0  0  0  0  0           0  0  0
    3.1917   -2.4250    0.0000 C   0  0  0  0  0  0           0  0  0
    3.7250   -3.3167    0.0000 C   0  0  0  0  0  0           0  0  0
    3.7167   -2.1167    0.0000 C   0  0  0  0  0  0           0  0  0
    4.2417   -3.0167    0.0000 C   0  0  0  0  0  0           0  0  0
    9.3500   -3.9542    0.0000 C   0  0  0  0  0  0           0  0  0
    4.7542   -2.1125    0.0000 O   0  0  0  0  0  0           0  0  0
    1.6542   -5.1417    0.0000 O   0  0  0  0  0  0           0  0  0
    9.0250   -3.4542    0.0000 C   0  0  0  0  0  0           0  0  0
    7.3667   -4.8042    0.0000 C   0  0  0  0  0  0           0  0  0
    4.4500   -6.1667    0.0000 C   0  0  0  0  0  0           0  0  0
    6.3167   -3.0042    0.0000 C   0  0  3  0  0  0           0  0  0
    5.6292   -6.4042    0.0000 C   0  0  0  0  0  0           0  0  0
    9.8542   -5.7417    0.0000 C   0  0  0  0  0  0           0  0  0
    7.8750   -5.7125    0.0000 C   0  0  0  0  0  0           0  0  0
    7.8792   -5.1125    0.0000 C   0  0  0  0  0  0           0  0  0
    6.3167   -2.4042    0.0000 C   0  0  0  0  0  0           0  0  0
    6.8417   -3.2917    0.0000 C   0  0  0  0  0  0           0  0  0
   10.4292   -5.8917    0.0000 C   0  0  0  0  0  0           0  0  0
    4.6375   -6.7375    0.0000 C   0  0  0  0  0  0           0  0  0
    5.2292   -6.8542    0.0000 C   0  0  0  0  0  0           0  0  0
  2  1  1  0     0  0
  3 26  1  0     0  0
  4 12  1  0     0  0
  5 14  1  0     0  0
  6 13  1  0     0  0
  7 15  1  0     0  0
  8  1  1  0     0  0
  9 33  1  0     0  0
 10 16  1  0     0  0
 11  4  1  0     0  0
 12 18  1  0     0  0
 13 17  1  0     0  0
 14 19  1  0     0  0
 15 22  1  0     0  0
 16  3  2  0     0  0
 17  5  1  0     0  0
 18  6  1  0     0  0
 19  7  1  0     0  0
 20 11  1  0     0  0
 21  8  1  0     0  0
 22  2  1  0     0  0
 23 48  2  0     0  0
 24 20  1  0     0  0
 25  3  1  0     0  0
 17 26  1  1     0  0
 27 25  2  0     0  0
 28 23  1  0     0  0
 29 41  1  0     0  0
 30 39  1  0     0  0
 31 40  1  0     0  0
 32  2  2  0     0  0
 33 24  1  0     0  0
 34  4  2  0     0  0
 35  6  2  0     0  0
 36  5  2  0     0  0
 37  7  2  0     0  0
 18 38  1  1     0  0
 39  9  1  0     0  0
 40  9  1  0     0  0
 41  9  1  0     0  0
 42 21  2  0     0  0
 43 24  2  0     0  0
 19 44  1  1     0  0
 45 29  1  0     0  0
 46 31  1  0     0  0
 47 29  1  0     0  0
 48 68  1  0     0  0
 49 21  1  0     0  0
 50 23  1  0     0  0
 51  1  1  0     0  0
 52 38  1  0     0  0
 53 58  2  0     0  0
 11 54  1  6     0  0
 55 52  1  0     0  0
 56 52  2  0     0  0
 57 55  2  0     0  0
 58 56  1  0     0  0
 59  8  1  0     0  0
 60 53  1  0     0  0
 61 54  1  0     0  0
 62 51  1  0     0  0
 22 63  1  6     0  0
 64 25  1  0     0  0
 65 44  1  0     0  0
 66 27  1  0     0  0
 67 49  1  0     0  0
 68 69  1  0     0  0
 69 63  1  0     0  0
 70 65  1  0     0  0
 71 65  1  0     0  0
 72 67  1  0     0  0
 73 64  2  0     0  0
 74 73  1  0     0  0
 62 59  1  0     0  0
 27 10  1  0     0  0
 66 74  2  0     0  0
 57 53  1  0     0  0
 30 47  1  0     0  0
 31 45  1  0     0  0
 30 46  1  0     0  0
M  END