
          11280714442D 1   1.00000     0.00000     0

 21 22  0     1  0            999 V2000
    2.8042   -0.0875    0.0000 C   0  0  0  0  0  0           0  0  0
    2.8000    0.7375    0.0000 C   0  0  0  0  0  0           0  0  0
    5.6917    0.8208    0.0000 N   0  0  3  0  0  0           0  0  0
    3.5167    1.1500    0.0000 N   0  0  0  0  0  0           0  0  0
    2.0917   -0.5000    0.0000 C   0  0  0  0  0  0           0  0  0
    3.5167   -0.5000    0.0000 C   0  0  0  0  0  0           0  0  0
    4.9417    1.1583    0.0000 C   0  0  2  0  0  0           0  0  0
    2.0875    1.1458    0.0000 O   0  0  0  0  0  0           0  0  0
    4.2292    0.7458    0.0000 C   0  0  0  0  0  0           0  0  0
    1.3792   -0.0917    0.0000 O   0  0  0  0  0  0           0  0  0
    6.2417    1.4333    0.0000 C   0  0  0  0  0  0           0  0  0
    4.2292   -0.0792    0.0000 O   0  0  0  0  0  0           0  0  0
    5.8667    0.0125    0.0000 C   0  0  0  0  0  0           0  0  0
    5.8292    2.1458    0.0000 C   0  0  0  0  0  0           0  0  0
    2.8042   -1.7417    0.0000 C   0  0  0  0  0  0           0  0  0
    2.0917   -1.3292    0.0000 C   0  0  0  0  0  0           0  0  0
    3.5167   -1.3292    0.0000 C   0  0  0  0  0  0           0  0  0
    5.0250    1.9708    0.0000 C   0  0  0  0  0  0           0  0  0
    4.9500   -0.4917    0.0000 C   0  0  0  0  0  0           0  0  0
    6.6542   -0.2417    0.0000 C   0  0  0  0  0  0           0  0  0
    4.3542    1.7458    0.0000 H   0  0  0  0  0  0           0  0  0
  2  1  1  0     0  0
  3  7  1  0     0  0
  4  2  1  0     0  0
  5  1  1  0     0  0
  6  1  2  0     0  0
  9  7  1  0     0  0
  8  2  2  0     0  0
  9  4  1  0     0  0
 10  5  1  0     0  0
 11  3  1  0     0  0
 12  6  1  0     0  0
 13  3  1  0     0  0
 14 18  1  0     0  0
 15 17  2  0     0  0
 16  5  2  0     0  0
 17  6  1  0     0  0
 18  7  1  0     0  0
 19 12  1  0     0  0
 20 13  1  0     0  0
  7 21  1  1     0  0
 15 16  1  0     0  0
 14 11  1  0     0  0
M  END