
  SciTegic01181116592D

 19 21  0  0  0  0            999 V2000
    8.2912  -14.7554    0.0000 C   0  0
    9.0248  -14.4173    0.0000 N   0  0
    8.4398  -14.0090    0.0000 C   0  0
    9.8474  -14.7662    0.0000 C   0  0
    8.8877  -13.3961    0.0000 C   0  0
    9.1644  -13.6838    0.0000 C   0  0
    9.9512  -14.0265    0.0000 C   0  0  1  0  0  0
    9.1266  -12.8024    0.0000 C   0  0
   10.6718  -13.6232    0.0000 N   0  0
   11.3814  -14.0456    0.0000 C   0  0
   12.1020  -13.6422    0.0000 N   0  0
   11.3705  -14.8713    0.0000 O   0  0
   12.8117  -14.0646    0.0000 C   0  0
   12.7986  -14.8903    0.0000 C   0  0
   13.5073  -15.3125    0.0000 C   0  0
   14.2288  -14.9091    0.0000 C   0  0
   14.2372  -14.0791    0.0000 C   0  0
   13.5279  -13.6606    0.0000 C   0  0
   14.9390  -15.3305    0.0000 Br  0  0
  7  9  1  1
  1  2  1  0
  9 10  1  0
  1  3  1  0
 10 11  1  0
  2  4  1  0
 10 12  2  0
  2  5  1  0
 11 13  1  0
  3  6  1  0
 13 14  2  0
  4  7  1  0
 14 15  1  0
  5  8  1  0
 15 16  2  0
  6  7  1  0
 16 17  1  0
  6  8  1  0
 17 18  2  0
 18 13  1  0
 16 19  1  0
M  END