
  SciTegic01161211222D

 19 21  0  0  0  0            999 V2000
   -1.0294  -18.4577    0.0000 N   0  0
   -1.2877  -19.2411    0.0000 C   0  0  1  0  0  0
   -0.2417  -18.2034    0.0000 C   0  0
   -0.2375  -17.3700    0.0000 C   0  0
   -1.0294  -17.1157    0.0000 N   0  0
   -0.8044  -19.9080    0.0000 C   0  0  1  0  0  0
   -1.5170  -17.7826    0.0000 C   0  0
   -2.0754  -19.4954    0.0000 O   0  0
   -1.2919  -20.5706    0.0000 C   0  0  1  0  0  0
   -2.0754  -20.3205    0.0000 C   0  0  1  0  0  0
    0.4709  -16.9574    0.0000 C   0  0
    0.4709  -18.6118    0.0000 N   0  0
    1.1877  -17.3700    0.0000 N   0  0
    1.1877  -18.2034    0.0000 C   0  0
    0.0208  -19.9080    0.0000 O   0  0
    0.4626  -16.1322    0.0000 N   0  0
   -1.0377  -21.3582    0.0000 O   0  0
   -2.7505  -20.8039    0.0000 C   0  0
   -3.5007  -20.4664    0.0000 O   0  0
  2  1  1  1
  3  1  1  0
  4  3  2  0
  5  7  2  0
  6  2  1  0
  7  1  1  0
  8  2  1  0
  9  6  1  0
 10  8  1  0
 11  4  1  0
 12  3  1  0
 13 14  1  0
 14 12  2  0
  6 15  1  6
 16 11  1  0
  9 17  1  6
 10 18  1  1
 19 18  1  0
  4  5  1  0
 10  9  1  0
 13 11  2  0
M  END