
  CDK    12/20/10,14:45

 29 31  0  0  0  0  0  0  0  0999 V2000
   -1.1750    0.7500    0.0000 N   0  0  0  0  0  0  0  0  0  0  0  0
   -1.8917    0.3417    0.0000 C   0  0  0  0  0  0  0  0  0  0  0  0
   -1.1708    1.5750    0.0000 C   0  0  0  0  0  0  0  0  0  0  0  0
   -1.8958   -0.4833    0.0000 C   0  0  0  0  0  0  0  0  0  0  0  0
   -0.4625    0.3292    0.0000 C   0  0  0  0  0  0  0  0  0  0  0  0
   -3.0333   -1.6042    0.0000 C   0  0  0  0  0  0  0  0  0  0  0  0
   -2.6167   -0.8917    0.0000 C   0  0  0  0  0  0  0  0  0  0  0  0
   -0.4500    1.9792    0.0000 C   0  0  0  0  0  0  0  0  0  0  0  0
   -1.8833    1.9875    0.0000 C   0  0  0  0  0  0  0  0  0  0  0  0
   -3.8583   -1.5958    0.0000 C   0  0  0  0  0  0  0  0  0  0  0  0
   -2.6250   -2.3167    0.0000 C   0  0  0  0  0  0  0  0  0  0  0  0
    0.2542    0.7375    0.0000 C   0  0  0  0  0  0  0  0  0  0  0  0
    0.2625    1.5625    0.0000 C   0  0  0  0  0  0  0  0  0  0  0  0
   -2.6042    0.7583    0.0000 O   0  0  0  0  0  0  0  0  0  0  0  0
   -1.1833   -0.9000    0.0000 N   0  0  0  0  0  0  0  0  0  0  0  0
   -3.0375   -3.0292    0.0000 C   0  0  0  0  0  0  0  0  0  0  0  0
   -4.2750   -2.3083    0.0000 C   0  0  0  0  0  0  0  0  0  0  0  0
   -3.8667   -3.0250    0.0000 C   0  0  0  0  0  0  0  0  0  0  0  0
   -2.6000    1.5875    0.0000 O   0  0  0  0  0  0  0  0  0  0  0  0
   -1.8750    2.8083    0.0000 O   0  0  0  0  0  0  0  0  0  0  0  0
   -4.2833   -3.7375    0.0000 O   0  0  0  0  0  0  0  0  0  0  0  0
   -1.8042   -2.3167    0.0000 C   0  0  0  0  0  0  0  0  0  0  0  0
   -4.2667   -0.8833    0.0000 C   0  0  0  0  0  0  0  0  0  0  0  0
    0.9792    1.9708    0.0000 C   0  0  0  0  0  0  0  0  0  0  0  0
    0.9667    0.3167    0.0000 C   0  0  0  0  0  0  0  0  0  0  0  0
   -0.4708   -0.4917    0.0000 C   0  0  0  0  0  0  0  0  0  0  0  0
   -1.1875   -1.7208    0.0000 C   0  0  0  0  0  0  0  0  0  0  0  0
    1.6792    0.7292    0.0000 C   0  0  0  0  0  0  0  0  0  0  0  0
    1.6875    1.5542    0.0000 C   0  0  0  0  0  0  0  0  0  0  0  0
  2  1  1  0  0  0  0 
  3  1  1  0  0  0  0 
  4  2  1  0  0  0  0 
  5  1  1  0  0  0  0 
  6  7  1  0  0  0  0 
  7  4  1  0  0  0  0 
  8  3  1  0  0  0  0 
  3  9  1  6  0  0  0 
 10  6  2  0  0  0  0 
 11  6  1  0  0  0  0 
 12  5  1  0  0  0  0 
 13 12  2  0  0  0  0 
 14  2  2  0  0  0  0 
  4 15  1  1  0  0  0 
 16 11  2  0  0  0  0 
 17 10  1  0  0  0  0 
 18 16  1  0  0  0  0 
 19  9  2  0  0  0  0 
 20  9  1  0  0  0  0 
 21 18  1  0  0  0  0 
 22 11  1  0  0  0  0 
 23 10  1  0  0  0  0 
 24 13  1  0  0  0  0 
 25 12  1  0  0  0  0 
 26 15  1  0  0  0  0 
 27 15  1  0  0  0  0 
 28 25  2  0  0  0  0 
 29 24  2  0  0  0  0 
 13  8  1  0  0  0  0 
 28 29  1  0  0  0  0 
 18 17  2  0  0  0  0 
M  END