
  Mrv0541 04051115152D          

 10  9  0  0  0  0            999 V2000
   -1.3599   -0.1238    0.0000 C   0  0  0  0  0  0  0  0  0  0  0  0
   -2.0743    0.2888    0.0000 O   0  0  0  0  0  0  0  0  0  0  0  0
   -1.3599   -0.9487    0.0000 O   0  0  0  0  0  0  0  0  0  0  0  0
   -0.6454    0.2887    0.0000 C   0  0  0  0  0  0  0  0  0  0  0  0
   -0.6454    1.1138    0.0000 O   0  0  0  0  0  0  0  0  0  0  0  0
    0.0691   -0.1238    0.0000 C   0  0  0  0  0  0  0  0  0  0  0  0
    0.7836    0.2887    0.0000 C   0  0  0  0  0  0  0  0  0  0  0  0
    1.4980   -0.1238    0.0000 C   0  0  0  0  0  0  0  0  0  0  0  0
    2.2125    0.2887    0.0000 O   0  0  0  0  0  0  0  0  0  0  0  0
    1.4980   -0.9488    0.0000 O   0  0  0  0  0  0  0  0  0  0  0  0
  1  2  2  0  0  0  0
  1  3  1  0  0  0  0
  1  4  1  0  0  0  0
  4  5  2  0  0  0  0
  4  6  1  0  0  0  0
  6  7  1  0  0  0  0
  7  8  1  0  0  0  0
  8  9  2  0  0  0  0
  8 10  1  0  0  0  0
M  END