
          11280714492D 1   1.00000     0.00000     0

 35 38  0     0  0            999 V2000
    0.0917   -0.6792    0.0000 N   0  0  0  0  0  0           0  0  0
    0.5042   -1.4000    0.0000 C   0  0  0  0  0  0           0  0  0
   -0.7208   -0.8542    0.0000 C   0  0  0  0  0  0           0  0  0
   -1.2458    0.5208    0.0000 N   0  0  3  0  0  0           0  0  0
   -0.8083   -1.6750    0.0000 O   0  0  0  0  0  0           0  0  0
   -0.0500   -2.0125    0.0000 C   0  0  0  0  0  0           0  0  0
    1.3250   -1.4875    0.0000 C   0  0  0  0  0  0           0  0  0
   -1.3333   -0.3000    0.0000 C   0  0  3  0  0  0           0  0  0
   -0.5333    0.9333    0.0000 C   0  0  0  0  0  0           0  0  0
   -0.5333    1.7583    0.0000 C   0  0  0  0  0  0           0  0  0
    2.3292    1.7583    0.0000 C   0  0  0  0  0  0           0  0  0
    0.1875    2.1708    0.0000 C   0  0  0  0  0  0           0  0  0
    1.8042   -0.8167    0.0000 O   0  0  0  0  0  0           0  0  0
    3.0417    2.1708    0.0000 O   0  0  0  0  0  0           0  0  0
    1.6542   -2.2417    0.0000 N   0  0  0  0  0  0           0  0  0
    0.9042    1.7583    0.0000 C   0  0  0  0  0  0           0  0  0
    1.6167    2.1708    0.0000 C   0  0  0  0  0  0           0  0  0
   -1.9958    0.8583    0.0000 C   0  0  0  0  0  0           0  0  0
    2.3292    0.9333    0.0000 O   0  0  0  0  0  0           0  0  0
   -2.1375   -0.4667    0.0000 C   0  0  0  0  0  0           0  0  0
   -2.5500    0.2458    0.0000 C   0  0  0  0  0  0           0  0  0
   -1.2458    2.1708    0.0000 C   0  0  0  0  0  0           0  0  0
    4.7875   -4.0042    0.0000 C   0  0  3  0  0  0           0  0  0
    0.1875    2.9958    0.0000 C   0  0  0  0  0  0           0  0  0
    2.4792   -2.3292    0.0000 C   0  0  0  0  0  0           0  0  0
    3.9667   -3.9250    0.0000 C   0  0  0  0  0  0           0  0  0
    5.5167   -4.3792    0.0000 C   0  0  0  0  0  0           0  0  0
    5.4750   -3.8250    0.0000 C   0  0  0  0  0  0           0  0  0
    2.8125   -3.0792    0.0000 C   0  0  0  0  0  0           0  0  0
    3.6292   -3.1667    0.0000 C   0  0  0  0  0  0           0  0  0
   -1.2458    2.9958    0.0000 C   0  0  0  0  0  0           0  0  0
   -0.5333    3.4083    0.0000 C   0  0  0  0  0  0           0  0  0
    6.1042   -3.6042    0.0000 C   0  0  0  0  0  0           0  0  0
    6.0167   -3.0667    0.0000 C   0  0  0  0  0  0           0  0  0
    6.7542   -3.4417    0.0000 C   0  0  0  0  0  0           0  0  0
  2  1  1  0     0  0
  3  1  2  0     0  0
  4  8  1  0     0  0
  5  3  1  0     0  0
  6  2  2  0     0  0
  7  2  1  0     0  0
  8  3  1  0     0  0
  9  4  1  0     0  0
 10  9  1  0     0  0
 11 17  1  0     0  0
 12 10  2  0     0  0
 13  7  2  0     0  0
 14 11  2  0     0  0
 15  7  1  0     0  0
 16 12  1  0     0  0
 17 16  1  0     0  0
 18  4  1  0     0  0
 19 11  1  0     0  0
 20  8  1  0     0  0
 21 20  1  0     0  0
 22 10  1  0     0  0
 23 26  1  0     0  0
 24 12  1  0     0  0
 25 15  1  0     0  0
 26 30  1  0     0  0
 27 23  1  0     0  0
 28 23  1  0     0  0
 29 25  1  0     0  0
 30 29  1  0     0  0
 31 22  2  0     0  0
 32 31  1  0     0  0
 33 27  1  0     0  0
 34 28  1  0     0  0
 35 34  1  0     0  0
  6  5  1  0     0  0
 21 18  1  0     0  0
 32 24  2  0     0  0
 33 35  1  0     0  0
M  END