
          11280714522D 1   1.00000     0.00000     0

 33 37  0     0  0            999 V2000
    6.5167   -5.2417    0.0000 C   0  0  0  0  0  0           0  0  0
    7.2250   -4.8292    0.0000 C   0  0  0  0  0  0           0  0  0
    2.9375   -1.5417    0.0000 C   0  0  0  0  0  0           0  0  0
    2.2667   -1.0667    0.0000 N   0  0  0  0  0  0           0  0  0
    5.8000   -4.8292    0.0000 O   0  0  0  0  0  0           0  0  0
    3.6042   -1.0625    0.0000 N   0  0  3  0  0  0           0  0  0
    6.5167   -6.0667    0.0000 C   0  0  0  0  0  0           0  0  0
    5.0875   -5.2500    0.0000 C   0  0  0  0  0  0           0  0  0
    5.0875   -6.0750    0.0000 C   0  0  0  0  0  0           0  0  0
    5.8000   -6.4875    0.0000 C   0  0  0  0  0  0           0  0  0
    3.3417   -0.2792    0.0000 C   0  0  0  0  0  0           0  0  0
    2.5167   -0.2792    0.0000 C   0  0  0  0  0  0           0  0  0
    7.2167   -4.0042    0.0000 C   0  0  0  0  0  0           0  0  0
    4.3750   -4.8375    0.0000 C   0  0  0  0  0  0           0  0  0
    7.9417   -5.2375    0.0000 C   0  0  0  0  0  0           0  0  0
    7.2292   -6.4792    0.0000 C   0  0  0  0  0  0           0  0  0
    2.9417   -2.3667    0.0000 C   0  0  0  0  0  0           0  0  0
    7.9417   -6.0667    0.0000 C   0  0  0  0  0  0           0  0  0
    5.8042   -7.3125    0.0000 O   0  0  0  0  0  0           0  0  0
    6.5042   -3.5917    0.0000 O   0  0  0  0  0  0           0  0  0
    4.3750   -4.0042    0.0000 C   0  0  0  0  0  0           0  0  0
    3.6542   -2.7750    0.0000 O   0  0  0  0  0  0           0  0  0
    3.6625   -3.6000    0.0000 C   0  0  0  0  0  0           0  0  0
    7.9292   -3.5875    0.0000 O   0  0  0  0  0  0           0  0  0
    4.3875   -1.3125    0.0000 C   0  0  0  0  0  0           0  0  0
    8.6625   -6.4750    0.0000 Br  0  0  0  0  0  0           0  0  0
    3.7542    0.4333    0.0000 C   0  0  0  0  0  0           0  0  0
    2.1000    0.4333    0.0000 C   0  0  0  0  0  0           0  0  0
    3.6625   -5.2500    0.0000 C   0  0  0  0  0  0           0  0  0
    2.9417   -4.8292    0.0000 C   0  0  0  0  0  0           0  0  0
    2.9500   -4.0042    0.0000 C   0  0  0  0  0  0           0  0  0
    3.3417    1.1500    0.0000 C   0  0  0  0  0  0           0  0  0
    2.5167    1.1500    0.0000 C   0  0  0  0  0  0           0  0  0
  2  1  1  0     0  0
  3 17  1  0     0  0
  4  3  2  0     0  0
  5  1  1  0     0  0
  6  3  1  0     0  0
  7  1  2  0     0  0
  8  5  1  0     0  0
  9 10  1  0     0  0
 10  7  1  0     0  0
 11  6  1  0     0  0
 12  4  1  0     0  0
 13  2  1  0     0  0
 14  8  1  0     0  0
 15  2  2  0     0  0
 16  7  1  0     0  0
 17 22  1  0     0  0
 18 16  2  0     0  0
 19 10  2  0     0  0
 20 13  2  0     0  0
 21 14  1  0     0  0
 22 23  1  0     0  0
 23 21  2  0     0  0
 24 13  1  0     0  0
 25  6  1  0     0  0
 26 18  1  0     0  0
 27 11  1  0     0  0
 28 12  1  0     0  0
 29 14  2  0     0  0
 30 29  1  0     0  0
 31 30  2  0     0  0
 32 27  2  0     0  0
 33 28  2  0     0  0
 18 15  1  0     0  0
  9  8  2  0     0  0
 31 23  1  0     0  0
 11 12  2  0     0  0
 33 32  1  0     0  0
M  END