
  Mrv0541 04051115152D          

 26 28  0  0  0  0            999 V2000
    1.4180    2.0452    0.0000 O   0  0  0  0  0  0  0  0  0  0  0  0
    0.7035    1.6327    0.0000 C   0  0  0  0  0  0  0  0  0  0  0  0
   -0.0109    2.0452    0.0000 O   0  0  0  0  0  0  0  0  0  0  0  0
    0.7035    0.8077    0.0000 C   0  0  0  0  0  0  0  0  0  0  0  0
    1.4180    0.3952    0.0000 O   0  0  0  0  0  0  0  0  0  0  0  0
   -0.0109    0.3952    0.0000 N   0  0  0  0  0  0  0  0  0  0  0  0
   -0.7254    0.8077    0.0000 C   0  0  0  0  0  0  0  0  0  0  0  0
   -0.7254    1.6327    0.0000 C   0  0  0  0  0  0  0  0  0  0  0  0
   -1.4399    2.0452    0.0000 C   0  0  0  0  0  0  0  0  0  0  0  0
   -2.1544    1.6327    0.0000 C   0  0  0  0  0  0  0  0  0  0  0  0
   -2.1544    0.8077    0.0000 C   0  0  0  0  0  0  0  0  0  0  0  0
   -1.4399    0.3952    0.0000 C   0  0  0  0  0  0  0  0  0  0  0  0
   -1.4399   -0.4298    0.0000 C   0  0  0  0  0  0  0  0  0  0  0  0
   -2.1544   -0.8423    0.0000 O   0  0  0  0  0  0  0  0  0  0  0  0
   -1.1043   -1.1835    0.0000 O   0  0  0  0  0  0  0  0  0  0  0  0
   -0.0109   -0.4298    0.0000 C   0  0  0  0  0  0  0  0  0  0  0  0
   -0.7254   -0.8423    0.0000 C   0  0  0  0  0  0  0  0  0  0  0  0
   -0.7254   -1.6673    0.0000 C   0  0  0  0  0  0  0  0  0  0  0  0
   -0.0109   -2.0798    0.0000 C   0  0  0  0  0  0  0  0  0  0  0  0
    0.7035   -1.6673    0.0000 C   0  0  0  0  0  0  0  0  0  0  0  0
    1.4180   -2.0798    0.0000 C   0  0  0  0  0  0  0  0  0  0  0  0
    2.1325   -1.6673    0.0000 C   0  0  0  0  0  0  0  0  0  0  0  0
    2.1325   -0.8423    0.0000 C   0  0  0  0  0  0  0  0  0  0  0  0
    2.8469   -0.4298    0.0000 O   0  0  0  0  0  0  0  0  0  0  0  0
    1.4180   -0.4298    0.0000 C   0  0  0  0  0  0  0  0  0  0  0  0
    0.7035   -0.8423    0.0000 C   0  0  0  0  0  0  0  0  0  0  0  0
  2  1  1  0  0  0  0
  2  3  2  0  0  0  0
  4  2  1  0  0  0  0
  4  5  2  0  0  0  0
  4  6  1  0  0  0  0
  7  6  1  0  0  0  0
 16  6  1  0  0  0  0
  7  8  2  0  0  0  0
  7 12  1  0  0  0  0
  8  9  1  0  0  0  0
  9 10  2  0  0  0  0
 10 11  1  0  0  0  0
 11 12  2  0  0  0  0
 12 13  1  0  0  0  0
 13 14  2  0  0  0  0
 13 15  1  0  0  0  0
 17 16  2  0  0  0  0
 16 26  1  0  0  0  0
 18 17  1  0  0  0  0
 19 18  2  0  0  0  0
 19 20  1  0  0  0  0
 21 20  2  0  0  0  0
 20 26  1  0  0  0  0
 22 21  1  0  0  0  0
 22 23  2  0  0  0  0
 23 24  1  0  0  0  0
 25 23  1  0  0  0  0
 26 25  2  0  0  0  0
M  END