
  Mrv0541 04051115152D          

 11 11  0  0  0  0            999 V2000
   -0.1781   -0.5308    0.0000 C   0  0  0  0  0  0  0  0  0  0  0  0
   -0.1781   -1.3558    0.0000 C   0  0  0  0  0  0  0  0  0  0  0  0
    0.5364   -1.7683    0.0000 C   0  0  0  0  0  0  0  0  0  0  0  0
    1.2508   -1.3558    0.0000 C   0  0  0  0  0  0  0  0  0  0  0  0
    1.2508   -0.5308    0.0000 C   0  0  0  0  0  0  0  0  0  0  0  0
    0.5364   -0.1183    0.0000 C   0  0  0  0  0  0  0  0  0  0  0  0
    0.5364    0.7067    0.0000 C   0  0  0  0  0  0  0  0  0  0  0  0
   -0.1781    1.1192    0.0000 P   0  0  0  0  0  0  0  0  0  0  0  0
   -0.8926    1.5317    0.0000 O   0  0  0  0  0  0  0  0  0  0  0  0
   -0.5906    0.4047    0.0000 O   0  0  0  0  0  0  0  0  0  0  0  0
    0.2344    1.8337    0.0000 O   0  0  0  0  0  0  0  0  0  0  0  0
  1  6  2  0  0  0  0
  1  2  1  0  0  0  0
  2  3  2  0  0  0  0
  3  4  1  0  0  0  0
  4  5  2  0  0  0  0
  5  6  1  0  0  0  0
  6  7  1  0  0  0  0
  7  8  1  0  0  0  0
  9  8  2  0  0  0  0
 11  8  1  0  0  0  0
 10  8  1  0  0  0  0
M  END