
  SciTegic09171211542D

128125  0  0  0  0            999 V2000
    1.2833  -19.2583    0.0000 O   0  0
    1.7000  -19.9750    0.0000 S   0  0
    2.1123  -19.2558    0.0000 O   0  0
    5.3373  -22.7330    0.0000 O   0  0
    4.5419  -22.5146    0.0000 S   0  0
    4.7505  -23.3126    0.0000 O   0  0
   -0.3386  -23.0665    0.0000 O   0  0
    0.2528  -22.4916    0.0000 S   0  0
   -0.5408  -22.2669    0.0000 O   0  0
   -1.0444  -21.8121    0.0000 O   0  0
   -0.4530  -21.2372    0.0000 S   0  0
   -1.2466  -21.0124    0.0000 O   0  0
    0.3531  -26.1954    0.0000 O   0  0
   -0.4722  -26.1916    0.0000 S   0  0
   -0.0629  -26.9083    0.0000 O   0  0
    2.0854  -25.8931    0.0000 O   0  0
    1.6693  -26.6054    0.0000 S   0  0
    2.4943  -26.6097    0.0000 O   0  0
    2.6926  -24.2433    0.0000 O   0  0
    3.0997  -24.9631    0.0000 S   0  0
    3.5195  -24.2507    0.0000 O   0  0
   -2.2966  -24.4449    0.0000 O   0  0
   -1.8757  -23.7353    0.0000 S   0  0
    0.2455  -24.9572    0.0000 C   0  0  1  0  0  0
    0.9586  -25.3720    0.0000 C   0  0  1  0  0  0
    1.6696  -24.9619    0.0000 C   0  0  1  0  0  0
    1.6747  -24.1411    0.0000 C   0  0  2  0  0  0
    0.9616  -23.7263    0.0000 O   0  0
    0.2434  -24.1322    0.0000 C   0  0  2  0  0  0
   -0.4682  -23.7131    0.0000 C   0  0
   -1.1618  -24.1570    0.0000 O   0  0
   -1.8618  -22.9112    0.0000 O   0  5
    0.9571  -26.1970    0.0000 O   0  0
    2.3827  -25.3767    0.0000 O   0  0
    2.3911  -23.7320    0.0000 O   0  0
    2.3950  -22.9070    0.0000 C   0  0  2  0  0  0
    3.1129  -22.5031    0.0000 C   0  0  1  0  0  0
    3.1187  -21.6817    0.0000 C   0  0  2  0  0  0
    2.4080  -21.2620    0.0000 O   0  0
    1.6898  -21.6698    0.0000 C   0  0  1  0  0  0
    1.6823  -22.4974    0.0000 C   0  0  1  0  0  0
    0.9787  -21.2515    0.0000 C   0  0
    0.9663  -22.9074    0.0000 O   0  0
    3.8235  -22.9221    0.0000 O   0  0
    0.2609  -21.6582    0.0000 O   0  0
   -0.4435  -20.4150    0.0000 O   0  5
   -0.4691  -25.3694    0.0000 O   0  0
    4.5493  -21.6911    0.0000 O   0  5
    3.8117  -25.3814    0.0000 O   0  5
    1.6693  -27.4358    0.0000 O   0  5
   -1.1840  -26.6067    0.0000 O   0  5
    3.8296  -22.0985    0.0000 H   0  0
    1.6803  -23.3111    0.0000 H   0  0
    0.6690  -21.7793    0.0000 O   0  5
   -2.6989  -23.7189    0.0000 O   0  0
    3.8302  -21.2611    0.0000 O   0  0
   10.4085  -20.5262    0.0000 C   0  0
   10.8031  -21.2507    0.0000 C   0  0  1  0  0  0
   11.6237  -21.2688    0.0000 C   0  0
   10.8345  -19.8197    0.0000 C   0  0
   11.6591  -19.8451    0.0000 C   0  0  1  0  0  0
   12.0506  -20.5713    0.0000 C   0  0  1  0  0  0
   12.8707  -20.5952    0.0000 C   0  0
   13.3054  -19.8948    0.0000 C   0  0
   12.0877  -19.1428    0.0000 C   0  0  2  0  0  0
   12.9117  -19.1727    0.0000 C   0  0  2  0  0  0
   12.1392  -17.7189    0.0000 C   0  0
   11.6991  -18.4182    0.0000 C   0  0
   12.9633  -17.7487    0.0000 C   0  0  1  0  0  0
   13.3484  -18.4745    0.0000 C   0  0  1  0  0  0
   14.1576  -18.3326    0.0000 C   0  0
   14.2727  -17.5190    0.0000 C   0  0
   13.5346  -17.1583    0.0000 C   0  0  2  0  0  0
   11.2580  -19.1241    0.0000 C   0  0
   12.4756  -19.8701    0.0000 H   0  0
   12.5098  -18.4519    0.0000 H   0  0
   13.7387  -19.2012    0.0000 H   0  0
   12.5623  -17.0237    0.0000 C   0  0
   13.3920  -16.3457    0.0000 C   0  0  1  0  0  0
   14.0244  -15.8159    0.0000 C   0  0
   12.6170  -16.0628    0.0000 C   0  0
   14.7994  -16.0988    0.0000 C   0  0
   15.4319  -15.5690    0.0000 C   0  0
   16.2069  -15.8518    0.0000 C   0  0
   16.8393  -15.3221    0.0000 C   0  0
   16.3494  -16.6644    0.0000 C   0  0
   14.2554  -16.7611    0.0000 H   0  0
   12.4361  -21.2960    0.0000 H   0  0
    8.1220  -20.4961    0.0000 N   0  0
    8.3345  -21.2919    0.0000 C   0  0
    9.1570  -21.3358    0.0000 C   0  0
    9.4530  -20.5670    0.0000 N   0  0
    8.8132  -20.0481    0.0000 N   0  0
    5.2654  -20.4616    0.0000 O   0  0
    5.7148  -18.7208    0.0000 O   0  0
    5.3179  -17.9972    0.0000 S   0  0
    4.8896  -18.7027    0.0000 O   0  0
    1.6706  -17.6967    0.0000 O   0  0
    2.4602  -17.9352    0.0000 S   0  0
    2.2719  -17.1321    0.0000 O   0  0
    2.4043  -20.4093    0.0000 O   0  0
    3.1310  -20.0167    0.0000 C   0  0  1  0  0  0
    4.5552  -20.0407    0.0000 C   0  0  1  0  0  0
    4.5735  -19.2177    0.0000 O   0  0
    3.8700  -18.7937    0.0000 C   0  0  1  0  0  0
    3.1465  -19.1909    0.0000 C   0  0  1  0  0  0
    3.8390  -20.4453    0.0000 C   0  0  1  0  0  0
    3.8866  -17.9688    0.0000 C   0  0
    4.6093  -17.5708    0.0000 O   0  0
    6.0379  -17.5996    0.0000 O   0  5
    2.4405  -18.7640    0.0000 O   0  0
    3.1880  -17.5384    0.0000 O   0  5
    5.9845  -20.0574    0.0000 C   0  0
    6.6942  -20.4780    0.0000 C   0  0
    7.4134  -20.0738    0.0000 C   0  0
    9.6057  -22.0281    0.0000 C   0  0
   10.4296  -21.9856    0.0000 O   0  0
    0.9760  -20.3691    0.0000 O   0  5
    7.5313  -23.0625    0.0000 Na  0  3
    8.7187  -23.0625    0.0000 Na  0  3
    9.9375  -23.0938    0.0000 Na  0  3
   11.5625  -23.0938    0.0000 Na  0  3
    8.1250  -23.6875    0.0000 Na  0  3
    9.3125  -23.6562    0.0000 Na  0  3
   10.5937  -23.7500    0.0000 Na  0  3
    8.8750  -24.2500    0.0000 Na  0  3
    9.9063  -24.3437    0.0000 Na  0  3
    9.5625  -24.9062    0.0000 Na  0  3
 57 60  1  0
 58 59  1  0
 59 62  1  0
 61 60  1  0
 61 62  1  0
  2  1  2  0
 26 34  1  1
  3  2  2  0
 27 35  1  0
 61 65  1  0
 62 63  1  0
 63 64  1  0
 64 66  1  0
 65 66  1  0
  8  7  2  0
 36 35  1  1
 36 37  1  0
 23 22  2  0
 65 68  1  0
 66 70  1  0
 69 67  1  0
 67 68  1  0
 69 70  1  0
 14 13  2  0
 15 14  2  0
 24 25  1  0
  9  8  2  0
 36 41  1  0
 70 71  1  0
 71 72  1  0
 72 73  1  0
 73 69  1  0
 37 38  1  0
 61 74  1  1
 38 39  1  0
 65 75  1  6
 39 40  1  0
 66 76  1  1
 40 41  1  0
 70 77  1  6
  5  4  2  0
 69 78  1  1
 40 42  1  1
 73 79  1  0
  6  5  2  0
 79 80  1  0
 41 43  1  6
 79 81  1  6
 17 16  2  0
 80 82  1  0
 37 44  1  1
 82 83  1  0
 18 17  2  0
 83 84  1  0
 42 45  1  0
 84 85  1  0
 45 11  1  0
 84 86  1  0
 73 87  1  6
 11 46  1  0
 62 88  1  6
 89 90  1  0
 24 29  1  0
 24 47  1  6
 44  5  1  0
 25 26  1  0
  5 48  1  0
 90 91  2  0
 91 92  1  0
 92 93  2  0
 93 89  1  0
 34 20  1  0
 96 95  2  0
 97 96  2  0
 26 27  1  0
 20 49  1  0
 33 17  1  0
 99 98  2  0
100 99  2  0
 27 28  1  0
 17 50  1  0
 47 14  1  0
 28 29  1  0
 14 51  1  0
102101  1  1
 11 10  2  0
103 94  1  6
103104  1  0
 38 52  1  1
 29 30  1  1
 27 53  1  1
 43  8  1  0
103107  1  0
104105  1  0
105106  1  0
106102  1  0
102107  1  0
107 56  1  1
 12 11  2  0
105108  1  1
  8 54  1  0
108109  1  0
109 96  1  0
 30 31  1  0
 96110  1  0
 23 55  2  0
106111  1  6
111 99  1  0
 31 23  1  0
 99112  1  0
 38 56  1  0
 94113  1  0
 57 58  1  0
113114  1  0
 20 19  2  0
114115  1  0
115 89  1  0
 23 32  1  0
 91116  1  0
 21 20  2  0
116117  1  0
 58117  1  1
101  2  1  0
 25 33  1  1
  2118  1  0
M  CHG  8  32  -1  46  -1  48  -1  49  -1  50  -1  51  -1  54  -1 110  -1
M  CHG  8 112  -1 118  -1 119   1 120   1 121   1 122   1 123   1 124   1
M  CHG  4 125   1 126   1 127   1 128   1
M  END