
  SciTegic12231509382D

 28 31  0  0  0  0            999 V2000
   -2.4750   -1.2670    0.0000 C   0  0
   -3.1894   -0.8545    0.0000 C   0  0
   -3.9040   -1.2670    0.0000 C   0  0
   -3.9040   -2.0920    0.0000 C   0  0
   -3.1894   -2.5045    0.0000 C   0  0
   -2.4750   -2.0920    0.0000 C   0  0
   -1.7605   -2.5045    0.0000 C   0  0
   -1.0460   -2.0920    0.0000 C   0  0
   -1.0460   -1.2670    0.0000 C   0  0
   -1.7605   -0.8545    0.0000 O   0  0
   -4.6185   -0.8545    0.0000 O   0  0
   -3.1894   -3.3295    0.0000 O   0  0
   -1.7605   -3.3295    0.0000 O   0  0
   -0.3316   -0.0295    0.0000 C   0  0
   -1.0460    0.3830    0.0000 Cl  0  0
   -0.3316   -0.8545    0.0000 C   0  0
    0.3829   -1.2670    0.0000 C   0  0
    1.0974   -0.8545    0.0000 C   0  0
    1.0974   -0.0295    0.0000 C   0  0
    0.3829    0.3830    0.0000 C   0  0
   -3.1894   -0.0295    0.0000 C   0  0  1  0  0  0
   -4.0145    1.3995    0.0000 N   0  0
   -4.4270    0.6850    0.0000 C   0  0
   -4.0144   -0.0295    0.0000 C   0  0
   -2.7770    0.6850    0.0000 C   0  0  1  0  0  0
   -3.1895    1.3995    0.0000 C   0  0
   -2.1936    0.1016    0.0000 O   0  0
   -4.5978    1.9829    0.0000 C   0  0
  1  2  1  0
  1  6  2  0
  1 10  1  0
  2  3  2  0
  3  4  1  0
  4  5  2  0
  5  6  1  0
  6  7  1  0
  7  8  1  0
  8  9  2  0
  3 11  1  0
  5 12  1  0
  7 13  2  0
  9 16  1  0
  9 10  1  0
 14 15  1  0
 14 16  2  0
 14 20  1  0
 16 17  1  0
 17 18  2  0
 18 19  1  0
 19 20  2  0
 21  2  1  1
 24 21  1  0
 21 25  1  0
 22 23  1  0
 22 26  1  0
 23 24  1  0
 25 26  1  0
 25 27  1  1
 22 28  1  0
M  END