
  Mrv0541 04051115152D          

 11 12  0  0  0  0            999 V2000
   -0.7709   -0.4242    0.0000 N   0  0  0  0  0  0  0  0  0  0  0  0
   -0.7709    0.4008    0.0000 C   0  0  0  0  0  0  0  0  0  0  0  0
   -1.4854    0.8133    0.0000 N   0  0  0  0  0  0  0  0  0  0  0  0
   -1.4854    1.6383    0.0000 C   0  0  0  0  0  0  0  0  0  0  0  0
   -0.7709    2.0508    0.0000 C   0  0  0  0  0  0  0  0  0  0  0  0
   -0.0565    1.6383    0.0000 C   0  0  0  0  0  0  0  0  0  0  0  0
    0.6580    2.0508    0.0000 C   0  0  0  0  0  0  0  0  0  0  0  0
    1.3725    1.6383    0.0000 C   0  0  0  0  0  0  0  0  0  0  0  0
    1.3725    0.8133    0.0000 C   0  0  0  0  0  0  0  0  0  0  0  0
    0.6580    0.4008    0.0000 C   0  0  0  0  0  0  0  0  0  0  0  0
   -0.0565    0.8133    0.0000 C   0  0  0  0  0  0  0  0  0  0  0  0
  2  1  1  0  0  0  0
  2  3  2  0  0  0  0
 11  2  1  0  0  0  0
  4  3  1  0  0  0  0
  4  5  2  0  0  0  0
  5  6  1  0  0  0  0
 11  6  1  0  0  0  0
  6  7  2  0  0  0  0
  7  8  1  0  0  0  0
  8  9  2  0  0  0  0
 10  9  1  0  0  0  0
 10 11  2  0  0  0  0
M  END