
  SciTegic11201309402D

 34 39  0  0  1  0            999 V2000
    6.8875   -6.1042    0.0000 C   0  0
    6.4875   -6.8292    0.0000 C   0  0
    5.6417   -5.4167    0.0000 N   0  0
    6.4667   -5.3917    0.0000 C   0  0
    5.2375   -6.1292    0.0000 C   0  0
    5.6542   -6.8375    0.0000 N   0  0
    7.6917   -6.2667    0.0000 S   0  0
    7.0500   -7.4292    0.0000 C   0  0
    3.0042   -3.0792    0.0000 C   0  0  1  0  0  0
    2.2917   -2.6667    0.0000 C   0  0
    7.7917   -7.0792    0.0000 C   0  0
    2.2917   -1.8417    0.0000 C   0  0
    4.0000   -3.9792    0.0000 N   0  0
    5.2292   -4.7000    0.0000 C   0  0
    3.7250   -2.6667    0.0000 C   0  0  2  0  0  0
    3.1750   -3.8917    0.0000 C   0  0
    3.0042   -1.4250    0.0000 C   0  0
    6.9792   -8.2417    0.0000 N   0  0
    4.3375   -3.2250    0.0000 C   0  0
    6.8667   -4.6750    0.0000 O   0  0
    4.4125   -6.1417    0.0000 O   0  0
    3.7250   -1.8417    0.0000 C   0  0
    1.5792   -1.4292    0.0000 C   0  0
    4.4042   -4.6917    0.0000 C   0  0
    1.5792   -3.0792    0.0000 C   0  0
    1.5750   -0.6042    0.0000 O   0  0
    8.4625   -7.5500    0.0000 C   0  0
    0.8667   -2.6667    0.0000 C   0  0
    7.6500   -8.7125    0.0000 C   0  0
    0.8667   -1.8417    0.0000 C   0  0
    2.2917   -0.1917    0.0000 C   0  0
    8.3917   -8.3625    0.0000 C   0  0
    2.2917   -3.4917    0.0000 H   0  0
    4.4375   -2.2542    0.0000 H   0  0
  2  1  2  0
  3  4  1  0
  4  1  1  0
  5  3  1  0
  6  2  1  0
  7  1  1  0
  8  2  1  0
  9 16  1  0
 10  9  1  0
 11  7  1  0
 12 10  1  0
 13 24  1  0
 14  3  1  0
 15 19  1  0
 16 13  1  0
 17 22  1  0
 18  8  1  0
 19 13  1  0
 20  4  2  0
 21  5  2  0
 22 15  1  0
 23 12  2  0
 24 14  1  0
 25 10  2  0
 26 23  1  0
 27 11  1  0
 28 25  1  0
 29 18  2  0
 30 28  2  0
 31 26  1  0
 32 27  2  0
  9 33  1  6
 15 34  1  6
  8 11  2  0
  5  6  1  0
 32 29  1  0
  9 15  1  0
 17 12  1  0
 30 23  1  0
M  END