
  SciTegic09261415472D

 28 29  0  0  0  0            999 V2000
    5.8665  -17.8114    0.0000 C   0  0
    6.5829  -17.3980    0.0000 C   0  0
    6.5801  -16.5675    0.0000 C   0  0
    5.8647  -16.1583    0.0000 C   0  0
    7.2981  -17.8094    0.0000 O   0  0
    7.2931  -16.1523    0.0000 O   0  0
    8.0090  -16.5621    0.0000 C   0  0
    8.7220  -16.1469    0.0000 C   0  0
    9.4380  -16.5567    0.0000 C   0  0
    8.7189  -15.3219    0.0000 O   0  0
    8.0119  -17.3958    0.0000 C   0  0
    8.7271  -17.8072    0.0000 C   0  0
    8.7284  -18.6322    0.0000 O   0  0
    9.4411  -17.3817    0.0000 C   0  0
   10.1510  -16.1415    0.0000 N   0  0
   10.1612  -17.7843    0.0000 N   0  0
   10.1726  -18.6093    0.0000 C   0  0
   10.8926  -19.0120    0.0000 C   0  0
    9.4637  -19.0316    0.0000 C   0  0
   10.8669  -16.5514    0.0000 C   0  0
   11.5799  -16.1361    0.0000 C   0  0
   10.8701  -17.3763    0.0000 C   0  0
    5.1517  -17.3985    0.0000 C   0  0
    5.1512  -16.5756    0.0000 C   0  0
    4.4423  -16.1668    0.0000 C   0  0
    3.7294  -16.5763    0.0000 C   0  0
    3.7298  -17.3992    0.0000 C   0  0
    4.4431  -17.8125    0.0000 C   0  0
 23  1  1  0
  1  2  2  0
  2  3  1  0
  3  4  2  0
  4 24  1  0
  2  5  1  0
  3  6  1  0
  6  7  1  0
  7  8  1  0
  8  9  1  0
  8 10  1  0
  5 11  1  0
 11 12  1  0
 12 14  1  0
 12 13  1  0
  9 15  1  0
 14 16  1  0
 16 17  1  0
 17 18  1  0
 17 19  1  0
 15 20  1  0
 20 21  1  0
 20 22  1  0
 23 24  2  0
 23 28  1  0
 24 25  1  0
 25 26  1  0
 26 27  1  0
 27 28  1  0
M  END