
  SciTegic06051313522D

 52 56  0  0  0  0            999 V2000
   13.0004  -17.5505    0.0000 C   0  0  2  0  0  0
   13.0004  -18.3756    0.0000 C   0  0  1  0  0  0
   13.7124  -18.7839    0.0000 C   0  0  1  0  0  0
   14.4245  -18.3756    0.0000 C   0  0  2  0  0  0
   14.4245  -17.5505    0.0000 C   0  0  1  0  0  0
   13.7124  -17.1339    0.0000 O   0  0
   15.1402  -17.1402    0.0000 O   0  0
   15.1383  -18.7891    0.0000 O   0  0
   13.7124  -19.6089    0.0000 O   0  0
   12.2865  -18.7891    0.0000 O   0  0
   12.2847  -17.1402    0.0000 C   0  0
   12.9979  -20.0214    0.0000 C   0  0
   12.9979  -20.8464    0.0000 C   0  0
   12.2803  -21.2556    0.0000 C   0  0
   12.2799  -22.0799    0.0000 C   0  0
   12.9950  -22.4932    0.0000 C   0  0
   13.7118  -22.0763    0.0000 C   0  0
   13.7087  -21.2534    0.0000 C   0  0
   12.9960  -23.3182    0.0000 O   0  0
   12.2821  -23.7317    0.0000 C   0  0
   11.5704  -23.3159    0.0000 C   0  0
   10.8569  -23.7287    0.0000 C   0  0
   10.8576  -24.5546    0.0000 C   0  0
   11.5776  -24.9660    0.0000 C   0  0
   12.2882  -24.5508    0.0000 C   0  0
   15.1334  -16.3101    0.0000 C   0  0  1  0  0  0
   15.8465  -15.8931    0.0000 C   0  0  1  0  0  0
   15.8431  -15.0717    0.0000 C   0  0  2  0  0  0
   15.1279  -14.6598    0.0000 C   0  0  1  0  0  0
   14.4142  -15.0756    0.0000 O   0  0
   14.4158  -15.9033    0.0000 C   0  0  2  0  0  0
   15.1262  -13.8329    0.0000 O   0  0
   14.4181  -13.4097    0.0000 C   0  0
   13.6975  -13.8113    0.0000 C   0  0
   12.9892  -13.3880    0.0000 C   0  0
   12.2686  -13.7897    0.0000 N   0  0
   11.5605  -13.3664    0.0000 N   0  3
   10.8519  -12.9497    0.0000 N   0  5
   16.5570  -14.6570    0.0000 N   0  0
   16.5176  -13.8308    0.0000 C   0  0
   17.2881  -13.5357    0.0000 C   0  0
   17.8058  -14.1768    0.0000 C   0  0
   18.6178  -14.0483    0.0000 C   0  0
   18.9132  -13.2793    0.0000 C   0  0
   18.3904  -12.6383    0.0000 C   0  0
   17.5802  -12.7701    0.0000 C   0  0
   15.8270  -13.3796    0.0000 O   0  0
   16.5629  -16.3022    0.0000 O   0  0
   15.7130  -16.8922    0.0000 H   0  0
   13.7033  -16.3194    0.0000 C   0  0
   12.9868  -15.9104    0.0000 O   0  0
   11.5714  -17.5547    0.0000 O   0  0
  1  2  1  0
  1  6  1  0
  2  3  1  0
  3  4  1  0
  4  5  1  0
  5  6  1  0
  5  7  1  1
  4  8  1  6
  3  9  1  1
  2 10  1  1
  1 11  1  1
  9 12  1  0
 12 13  1  0
 13 14  2  0
 14 15  1  0
 15 16  2  0
 16 17  1  0
 17 18  2  0
 18 13  1  0
 16 19  1  0
 19 20  1  0
 20 21  2  0
 21 22  1  0
 22 23  2  0
 23 24  1  0
 24 25  2  0
 25 20  1  0
  7 26  1  0
 26 27  1  0
 26 31  1  0
 27 28  1  0
 28 29  1  0
 29 30  1  0
 30 31  1  0
 29 32  1  1
 32 33  1  0
 33 34  1  0
 34 35  1  0
 35 36  1  0
 36 37  2  0
 37 38  2  0
 28 39  1  6
 41 40  1  0
 40 39  1  0
 41 42  2  0
 42 43  1  0
 43 44  2  0
 44 45  1  0
 45 46  2  0
 46 41  1  0
 40 47  2  0
 27 48  1  1
 26 49  1  1
 31 50  1  1
 50 51  1  0
 11 52  1  0
M  CHG  2  37   1  38  -1
M  END