
          11280714582D 1   1.00000     0.00000     0

 29 32  0     0  0            999 V2000
    6.9625   -3.3792    0.0000 C   0  0  0  0  0  0           0  0  0
    6.2375   -2.9792    0.0000 C   0  0  0  0  0  0           0  0  0
    5.5542   -4.2375    0.0000 C   0  0  0  0  0  0           0  0  0
    5.5375   -3.4167    0.0000 C   0  0  0  0  0  0           0  0  0
    6.9792   -4.2042    0.0000 C   0  0  0  0  0  0           0  0  0
    6.2792   -4.6292    0.0000 O   0  0  0  0  0  0           0  0  0
   -0.8458   -5.6000    0.0000 N   0  0  3  0  0  0           0  0  0
    4.8500   -4.6667    0.0000 C   0  0  0  0  0  0           0  0  0
    0.5667   -4.7500    0.0000 N   0  0  3  0  0  0           0  0  0
    4.8125   -3.0167    0.0000 C   0  0  0  0  0  0           0  0  0
    7.7042   -4.6042    0.0000 O   0  0  0  0  0  0           0  0  0
   -0.1208   -5.9917    0.0000 C   0  0  0  0  0  0           0  0  0
   -0.8625   -4.7667    0.0000 C   0  0  0  0  0  0           0  0  0
   -1.5500   -6.0292    0.0000 C   0  0  0  0  0  0           0  0  0
    0.5792   -5.5667    0.0000 C   0  0  0  0  0  0           0  0  0
   -0.1583   -4.3500    0.0000 C   0  0  0  0  0  0           0  0  0
    4.1250   -4.2542    0.0000 C   0  0  0  0  0  0           0  0  0
    6.2250   -2.1667    0.0000 O   0  0  0  0  0  0           0  0  0
    4.1042   -3.4417    0.0000 C   0  0  0  0  0  0           0  0  0
    1.2667   -4.3167    0.0000 C   0  0  0  0  0  0           0  0  0
    1.9917   -4.7167    0.0000 C   0  0  0  0  0  0           0  0  0
    3.4250   -4.6917    0.0000 O   0  0  0  0  0  0           0  0  0
    2.6917   -4.2917    0.0000 C   0  0  0  0  0  0           0  0  0
   -1.5333   -6.8417    0.0000 C   0  0  0  0  0  0           0  0  0
   -2.2750   -5.6167    0.0000 C   0  0  0  0  0  0           0  0  0
    5.4917   -1.7667    0.0000 C   0  0  0  0  0  0           0  0  0
   -2.2375   -7.2750    0.0000 C   0  0  0  0  0  0           0  0  0
   -2.9833   -6.0542    0.0000 C   0  0  0  0  0  0           0  0  0
   -2.9625   -6.8792    0.0000 C   0  0  0  0  0  0           0  0  0
  2  1  2  0     0  0
  3  6  1  0     0  0
  4  2  1  0     0  0
  5  1  1  0     0  0
  6  5  1  0     0  0
  7 13  1  0     0  0
  8  3  1  0     0  0
  9 20  1  0     0  0
 10  4  1  0     0  0
 11  5  2  0     0  0
 12 15  1  0     0  0
 13 16  1  0     0  0
 14  7  1  0     0  0
 15  9  1  0     0  0
 16  9  1  0     0  0
 17  8  2  0     0  0
 18  2  1  0     0  0
 19 10  2  0     0  0
 20 21  1  0     0  0
 21 23  1  0     0  0
 22 17  1  0     0  0
 23 22  1  0     0  0
 24 14  1  0     0  0
 25 14  2  0     0  0
 26 18  1  0     0  0
 27 24  2  0     0  0
 28 25  1  0     0  0
 29 28  2  0     0  0
  4  3  2  0     0  0
 19 17  1  0     0  0
 12  7  1  0     0  0
 27 29  1  0     0  0
M  END