
  Mrv0541 04051115152D          

 21 23  0  0  0  0            999 V2000
    2.6568   -0.2351    0.0000 S   0  0  0  0  0  0  0  0  0  0  0  0
    3.0887   -0.9380    0.0000 O   0  0  0  0  0  0  0  0  0  0  0  0
    3.3598    0.1968    0.0000 O   0  0  0  0  0  0  0  0  0  0  0  0
    2.2249    0.4678    0.0000 O   0  0  0  0  0  0  0  0  0  0  0  0
    1.9539   -0.6670    0.0000 N   0  0  0  0  0  0  0  0  0  0  0  0
    1.4003    0.4453    0.0000 C   0  0  0  0  0  0  0  0  0  0  0  0
    0.9684    1.1482    0.0000 C   0  0  0  0  0  0  0  0  0  0  0  0
    0.1437    1.1257    0.0000 C   0  0  0  0  0  0  0  0  0  0  0  0
   -0.2491    0.4002    0.0000 C   0  0  0  0  0  0  0  0  0  0  0  0
    0.1828   -0.3027    0.0000 C   0  0  0  0  0  0  0  0  0  0  0  0
    1.0074   -0.2802    0.0000 C   0  0  0  0  0  0  0  0  0  0  0  0
   -1.0738    0.3776    0.0000 C   0  0  0  0  0  0  0  0  0  0  0  0
   -1.4666   -0.3478    0.0000 C   0  0  0  0  0  0  0  0  0  0  0  0
   -1.0348   -1.0508    0.0000 C   0  0  0  0  0  0  0  0  0  0  0  0
   -1.3961    1.1371    0.0000 C   0  0  0  0  0  0  0  0  0  0  0  0
   -2.2788   -0.4931    0.0000 C   0  0  0  0  0  0  0  0  0  0  0  0
   -1.4276   -1.7763    0.0000 O   0  0  0  0  0  0  0  0  0  0  0  0
   -0.2101   -1.0282    0.0000 O   0  0  0  0  0  0  0  0  0  0  0  0
   -2.8986    0.0513    0.0000 C   0  0  0  0  0  0  0  0  0  0  0  0
   -2.8595    0.8754    0.0000 C   0  0  0  0  0  0  0  0  0  0  0  0
   -2.1908    1.3586    0.0000 C   0  0  0  0  0  0  0  0  0  0  0  0
  2  1  2  0  0  0  0
  3  1  2  0  0  0  0
  4  1  1  0  0  0  0
  5  1  1  0  0  0  0
  6  4  1  0  0  0  0
  6  7  2  0  0  0  0
  6 11  1  0  0  0  0
  7  8  1  0  0  0  0
  8  9  2  0  0  0  0
  9 10  1  0  0  0  0
  9 12  1  0  0  0  0
 10 11  2  0  0  0  0
 10 18  1  0  0  0  0
 12 13  2  0  0  0  0
 15 12  1  0  0  0  0
 13 14  1  0  0  0  0
 16 13  1  0  0  0  0
 14 17  2  0  0  0  0
 14 18  1  0  0  0  0
 15 21  1  0  0  0  0
 16 19  1  0  0  0  0
 19 20  1  0  0  0  0
 20 21  1  0  0  0  0
M  END