
          11280715382D 1   1.00000     0.00000     0

  8  8  0     0  0            999 V2000
    4.2792   -6.3292    0.0000 C   0  0  0  0  0  0           0  0  0
    4.7292   -5.6417    0.0000 C   0  0  0  0  0  0           0  0  0
    3.9292   -7.6167    0.0000 S   0  0  0  0  0  0           0  0  0
    4.5750   -7.1042    0.0000 C   0  0  0  0  0  0           0  0  0
    3.4542   -6.3750    0.0000 C   0  0  0  0  0  0           0  0  0
    3.2417   -7.1667    0.0000 C   0  0  0  0  0  0           0  0  0
    5.5542   -5.6917    0.0000 O   0  0  0  0  0  0           0  0  0
    4.3625   -4.9042    0.0000 O   0  0  0  0  0  0           0  0  0
  2  1  1  0     0  0
  3  4  1  0     0  0
  4  1  2  0     0  0
  5  1  1  0     0  0
  6  5  2  0     0  0
  7  2  2  0     0  0
  8  2  1  0     0  0
  6  3  1  0     0  0
M  END