
  SciTegic01161211262D

 52 55  0  0  0  0            999 V2000
    4.6875   -5.8917    0.0000 C   0  0
    4.6875   -5.0667    0.0000 N   0  0
    3.2625   -5.0667    0.0000 C   0  0
    3.9750   -4.6542    0.0000 C   0  0  1  0  0  0
    2.5375   -4.6667    0.0000 N   0  0
    3.9750   -6.3042    0.0000 N   0  0
    5.4000   -6.3042    0.0000 N   0  0
    3.9625   -3.8292    0.0000 C   0  0
    3.2625   -5.8917    0.0000 O   0  0
    6.1000   -3.4167    0.0000 C   0  0
    4.6750   -3.4167    0.0000 C   0  0
    5.3875   -3.8292    0.0000 C   0  0
   -0.3125   -7.1417    0.0000 P   0  3
    6.1000   -2.5917    0.0000 C   0  0
    1.8250   -5.0792    0.0000 C   0  0
    5.3750   -2.1792    0.0000 C   0  0
   -0.3125   -6.3167    0.0000 C   0  0
    0.4000   -5.9042    0.0000 C   0  0
    4.6750   -2.5917    0.0000 C   0  0
    3.9750   -7.1292    0.0000 C   0  0
    6.1125   -5.8917    0.0000 C   0  0
    1.1125   -4.6667    0.0000 C   0  0
    1.8250   -5.9042    0.0000 C   0  0
    0.4000   -5.0792    0.0000 C   0  0
    1.1125   -6.3167    0.0000 C   0  0
    6.8125   -3.8167    0.0000 C   0  0
   -1.0250   -7.5542    0.0000 C   0  0
    0.4000   -7.5542    0.0000 C   0  0
   -0.3250   -7.9667    0.0000 C   0  0
    6.8125   -2.1792    0.0000 C   0  0
    4.7000   -7.5417    0.0000 C   0  0
    3.2625   -7.5417    0.0000 C   0  0
    6.1125   -5.0667    0.0000 C   0  0
    6.8250   -6.3042    0.0000 C   0  0
   -1.7500   -7.1417    0.0000 C   0  0
    0.4000   -8.3792    0.0000 C   0  0
   -1.0375   -8.3792    0.0000 C   0  0
    1.1125   -8.7917    0.0000 C   0  0
   -2.4625   -7.5542    0.0000 C   0  0
   -1.0500   -9.2042    0.0000 C   0  0
   -1.7625   -9.6042    0.0000 C   0  0
    1.1125   -9.6167    0.0000 C   0  0
   -3.1750   -7.1417    0.0000 C   0  0
    7.5250   -3.4042    0.0000 C   0  0
    7.5250   -2.5792    0.0000 C   0  0
    4.7000   -8.3667    0.0000 C   0  0
    7.5375   -5.8917    0.0000 C   0  0
    6.8250   -4.6542    0.0000 C   0  0
    3.2625   -8.3667    0.0000 C   0  0
    3.9750   -8.7792    0.0000 C   0  0
    7.5375   -5.0667    0.0000 C   0  0
   -1.4125   -5.0250    0.0000 Br  0  5
  2  1  2  0
  3  4  1  0
  4  2  1  0
  5  3  1  0
  6  1  1  0
  7  1  1  0
  4  8  1  1
  9  3  2  0
 10 12  1  0
 11  8  1  0
 12 11  2  0
 13 17  1  0
 14 16  1  0
 15  5  1  0
 16 19  2  0
 17 18  1  0
 18 25  1  0
 19 11  1  0
 20  6  1  0
 21  7  1  0
 22 15  2  0
 23 15  1  0
 24 22  1  0
 25 23  2  0
 26 10  2  0
 27 13  1  0
 28 13  1  0
 29 13  1  0
 30 14  2  0
 31 20  1  0
 32 20  1  0
 33 21  1  0
 34 21  1  0
 35 27  1  0
 36 28  1  0
 37 29  1  0
 38 36  1  0
 39 35  1  0
 40 37  1  0
 41 40  1  0
 42 38  1  0
 43 39  1  0
 44 26  1  0
 45 30  1  0
 46 31  1  0
 47 34  1  0
 48 33  1  0
 49 32  1  0
 50 49  1  0
 51 47  1  0
 51 48  1  0
 46 50  1  0
 14 10  1  0
 24 18  2  0
 44 45  2  0
M  CHG  2  13   1  52  -1
M  END