
  SciTegic02271309552D

 37 40  0  0  0  0            999 V2000
   -1.3687    0.0499    0.0000 N   0  0
   -0.0374   -1.1482    0.0000 N   0  0
    0.3744   -1.8638    0.0000 C   0  0
   -0.8445   -1.3147    0.0000 C   0  0
   -1.4561   -0.7655    0.0000 C   0  0
   -2.1217    0.3869    0.0000 C   0  0
   -0.6573    0.4618    0.0000 C   0  0
   -0.9319   -2.1384    0.0000 O   0  0
   -0.1830   -2.4754    0.0000 C   0  0
    1.1899   -1.9512    0.0000 C   0  0
   -0.6573    1.2855    0.0000 C   0  0
   -2.2673   -0.9361    0.0000 C   0  0
    2.2008    1.2938    0.0000 C   0  0
   -2.6792   -0.2164    0.0000 C   0  0
   -2.2923    1.1940    0.0000 O   0  0
    0.0541    1.6974    0.0000 C   0  0
    1.6766   -1.2855    0.0000 O   0  0
    2.9122    1.7057    0.0000 O   0  0
    1.5268   -2.7000    0.0000 N   0  0
    0.7738    1.2855    0.0000 C   0  0
    1.4852    1.7057    0.0000 C   0  0
    2.2008    0.4701    0.0000 O   0  0
   -1.3687    1.6974    0.0000 C   0  0
    4.6470   -4.4681    0.0000 C   0  0
    0.0541    2.5294    0.0000 C   0  0
    2.3464   -2.7874    0.0000 C   0  0
    3.8316   -4.3849    0.0000 C   0  0
    5.3335   -4.2851    0.0000 C   0  0
    5.3834   -4.8467    0.0000 C   0  0
    2.6751   -3.5445    0.0000 C   0  0
    3.4988   -3.6319    0.0000 C   0  0
   -1.3687    2.5211    0.0000 C   0  0
   -0.6573    2.9413    0.0000 C   0  0
    5.8826   -3.5238    0.0000 C   0  0
    5.9700   -4.0604    0.0000 C   0  0
    6.6190   -3.9065    0.0000 C   0  0
    0.0574    0.0497    0.0000 O   0  0
  2  4  2  0
  3  2  1  0
  4  5  1  0
  5  1  1  0
  6  1  1  0
  7  1  1  0
  8  4  1  0
  9  8  1  0
 10  3  1  0
 11  7  1  0
 12  5  1  0
 13 21  1  0
 14  6  1  0
 15  6  2  0
 16 11  2  0
 17 10  2  0
 18 13  2  0
 19 10  1  0
 20 16  1  0
 21 20  1  0
 22 13  1  0
 23 11  1  0
 24 27  1  0
 25 16  1  0
 26 19  1  0
 27 31  1  0
 28 24  1  0
 29 24  1  0
 30 26  1  0
 31 30  1  0
 32 23  2  0
 33 32  1  0
 34 28  1  0
 35 29  1  0
 36 35  1  0
 12 14  1  0
  3  9  2  0
 33 25  2  0
 36 34  1  0
  7 37  2  0
M  END