
  SciTegic09261414532D

 47 54  0  0  0  0            999 V2000
   32.0477  -27.1766    0.0000 N   0  0
   31.2620  -27.3839    0.0000 C   0  0
   31.2174  -28.2000    0.0000 N   0  0
   32.4950  -27.8593    0.0000 C   0  0
   31.9798  -28.4891    0.0000 C   0  0
   32.2679  -29.2481    0.0000 C   0  0
   33.0709  -29.3784    0.0000 C   0  0
   33.5850  -28.7437    0.0000 C   0  0
   33.2941  -27.9872    0.0000 C   0  0
   30.5020  -27.0890    0.0000 C   0  0
   30.3803  -26.2798    0.0000 C   0  0
   29.6201  -25.9821    0.0000 C   0  0
   28.9809  -26.4926    0.0000 C   0  0
   29.1069  -27.3043    0.0000 C   0  0
   29.8671  -27.5982    0.0000 C   0  0
   24.7826  -24.6024    0.0000 C   0  0
   24.7814  -25.4219    0.0000 C   0  0
   25.4895  -25.8309    0.0000 C   0  0
   25.4877  -24.1935    0.0000 C   0  0
   26.1963  -24.5988    0.0000 C   0  0
   26.1966  -25.4219    0.0000 C   0  0
   26.9795  -25.6761    0.0000 N   0  0
   27.4633  -25.0100    0.0000 C   0  0
   26.9791  -24.3442    0.0000 N   0  0
   27.2323  -26.4533    0.0000 C   0  0
   28.2772  -25.0083    0.0000 N   0  0
   28.6854  -25.7175    0.0000 C   0  0
   29.5019  -25.7175    0.0000 C   0  0
   29.9110  -25.0091    0.0000 C   0  0
   29.4978  -24.2992    0.0000 C   0  0
   28.6827  -24.3027    0.0000 C   0  0
   30.7282  -25.0078    0.0000 C   0  0
   31.1380  -25.7148    0.0000 O   0  0
   31.9552  -25.7134    0.0000 C   0  0
   26.6856  -27.0607    0.0000 C   0  0
   32.3650  -26.4205    0.0000 C   0  0  2  0  0  0
   31.1356  -24.2994    0.0000 O   0  0
   33.1794  -26.3698    0.0000 C   0  0
   33.6313  -27.0518    0.0000 C   0  0
   34.4433  -27.0018    0.0000 C   0  0
   34.8098  -26.2709    0.0000 N   0  0
   34.3579  -25.5889    0.0000 C   0  0
   33.5395  -25.6377    0.0000 C   0  0
   25.8760  -26.9787    0.0000 C   0  0
   25.5439  -27.7253    0.0000 S   0  0
   26.1513  -28.2720    0.0000 C   0  0
   26.8588  -27.8631    0.0000 C   0  0
  1  2  1  0
  2  3  2  0
  3  5  1  0
  4  1  1  0
  4  5  2  0
  5  6  1  0
  6  7  2  0
  7  8  1  0
  8  9  2  0
  9  4  1  0
 10 11  2  0
 11 12  1  0
 12 13  2  0
 13 14  1  0
 14 15  2  0
 15 10  1  0
  2 10  1  0
 16 17  2  0
 17 18  1  0
 18 21  2  0
 20 19  2  0
 19 16  1  0
 20 21  1  0
 21 22  1  0
 22 23  1  0
 23 24  2  0
 24 20  1  0
 22 25  1  0
 26 27  1  0
 27 28  1  0
 28 29  1  0
 29 30  1  0
 30 31  1  0
 31 26  1  0
 23 26  1  0
 29 32  1  0
 32 33  1  0
 33 34  1  0
 25 35  1  0
 34 36  1  0
 36  1  1  6
 32 37  2  0
 38 39  1  0
 38 43  1  0
 39 40  1  0
 40 41  1  0
 41 42  1  0
 42 43  1  0
 36 38  1  0
 35 44  2  0
 44 45  1  0
 45 46  1  0
 46 47  2  0
 47 35  1  0
M  END