
  SciTegic02011310452D

 27 29  0  0  0  0            999 V2000
    8.9710   -1.9996    0.0000 C   0  0
    8.2312   -1.6327    0.0000 F   0  0
    5.4117   -3.2529    0.0000 C   0  0
    5.4106   -4.0810    0.0000 N   0  0
    6.1260   -4.4942    0.0000 C   0  0
    6.8432   -4.0806    0.0000 N   0  0
    6.8403   -3.2492    0.0000 C   0  0
    6.1242   -2.8397    0.0000 C   0  0
    7.5538   -2.8336    0.0000 N   0  0
    8.2705   -3.2439    0.0000 C   0  0
    8.2702   -4.0672    0.0000 C   0  0
    8.9861   -4.4774    0.0000 C   0  0
    9.7007   -4.0618    0.0000 C   0  0
    9.6948   -3.2318    0.0000 C   0  0
    8.9785   -2.8254    0.0000 C   0  0
    6.1258   -5.3200    0.0000 N   0  0
    6.8408   -5.7331    0.0000 C   0  0
    6.8365   -6.5570    0.0000 C   0  0
    7.5507   -6.9700    0.0000 C   0  0
    8.2669   -6.5572    0.0000 C   0  0
    8.2644   -5.7272    0.0000 C   0  0
    7.5497   -5.3180    0.0000 C   0  0
    8.9844   -6.9686    0.0000 C   0  0
    8.9853   -7.7943    0.0000 O   0  0
    9.6990   -6.5550    0.0000 O   0  0
    9.6708   -1.5613    0.0000 F   0  0
    8.9663   -1.1719    0.0000 F   0  0
  1  2  1  0
  3  4  2  0
  4  5  1  0
  5  6  2  0
  6  7  1  0
  7  8  2  0
  8  3  1  0
  7  9  1  0
  9 10  1  0
 10 11  2  0
 11 12  1  0
 12 13  2  0
 13 14  1  0
 14 15  2  0
 15 10  1  0
  5 16  1  0
 16 17  1  0
 17 18  2  0
 18 19  1  0
 19 20  2  0
 20 21  1  0
 21 22  2  0
 22 17  1  0
 23 24  1  0
 23 25  2  0
 20 23  1  0
 15  1  1  0
  1 26  1  0
  1 27  1  0
M  END