
          11280715092D 1   1.00000     0.00000     0

 40 43  0     0  0            999 V2000
    0.5917   -1.6250    0.0000 C   0  0  0  0  0  0           0  0  0
    5.7292   -1.5917    0.0000 C   0  0  0  0  0  0           0  0  0
    5.2042   -1.8917    0.0000 C   0  0  0  0  0  0           0  0  0
    1.1167   -1.9250    0.0000 C   0  0  0  0  0  0           0  0  0
    2.1542   -1.9167    0.0000 C   0  0  0  0  0  0           0  0  0
    4.1667   -1.9000    0.0000 C   0  0  0  0  0  0           0  0  0
    6.2417   -1.8875    0.0000 C   0  0  0  0  0  0           0  0  0
    0.0792   -1.9250    0.0000 C   0  0  0  0  0  0           0  0  0
    1.1167   -2.5250    0.0000 C   0  0  0  0  0  0           0  0  0
    5.2042   -2.4917    0.0000 C   0  0  0  0  0  0           0  0  0
    1.6292   -1.6167    0.0000 C   0  0  0  0  0  0           0  0  0
    4.6917   -1.5917    0.0000 C   0  0  0  0  0  0           0  0  0
    0.0792   -2.5292    0.0000 C   0  0  0  0  0  0           0  0  0
    6.2542   -2.4917    0.0000 C   0  0  0  0  0  0           0  0  0
    5.7292   -2.7917    0.0000 C   0  0  0  0  0  0           0  0  0
    0.5917   -2.8292    0.0000 C   0  0  0  0  0  0           0  0  0
    4.1667   -2.5000    0.0000 C   0  0  0  0  0  0           0  0  0
    2.1542   -2.5167    0.0000 C   0  0  0  0  0  0           0  0  0
    4.6917   -2.8000    0.0000 C   0  0  0  0  0  0           0  0  0
    1.6417   -2.8250    0.0000 C   0  0  0  0  0  0           0  0  0
    0.5917   -1.0250    0.0000 C   0  0  0  0  0  0           0  0  0
    5.7167   -0.9917    0.0000 C   0  0  0  0  0  0           0  0  0
    0.0667   -0.7292    0.0000 N   0  0  0  0  0  0           0  0  0
    6.2417   -0.6875    0.0000 N   0  0  0  0  0  0           0  0  0
   -0.4458   -1.6250    0.0000 O   0  0  0  0  0  0           0  0  0
    6.7667   -1.5875    0.0000 O   0  0  0  0  0  0           0  0  0
    1.6292   -1.0167    0.0000 O   0  0  0  0  0  0           0  0  0
    4.6917   -0.9917    0.0000 O   0  0  0  0  0  0           0  0  0
    6.7792   -2.7917    0.0000 O   0  0  0  0  0  0           0  0  0
   -0.4458   -2.8292    0.0000 O   0  0  0  0  0  0           0  0  0
    5.7292   -3.3917    0.0000 C   0  0  3  0  0  0           0  0  0
    0.6042   -3.4292    0.0000 C   0  0  3  0  0  0           0  0  0
    3.6542   -2.8000    0.0000 C   0  0  0  0  0  0           0  0  0
    2.6792   -2.8167    0.0000 C   0  0  0  0  0  0           0  0  0
    5.2042   -0.6917    0.0000 C   0  0  0  0  0  0           0  0  0
    1.1167   -0.7250    0.0000 C   0  0  0  0  0  0           0  0  0
    5.2167   -3.6917    0.0000 C   0  0  0  0  0  0           0  0  0
    6.2542   -3.6917    0.0000 C   0  0  0  0  0  0           0  0  0
    1.1167   -3.7292    0.0000 C   0  0  0  0  0  0           0  0  0
    0.0792   -3.7292    0.0000 C   0  0  0  0  0  0           0  0  0
  2  3  1  0     0  0
  3 12  2  0     0  0
  4  1  2  0     0  0
  5 11  2  0     0  0
  6  5  1  0     0  0
  7  2  2  0     0  0
  8  1  1  0     0  0
  9  4  1  0     0  0
 10 19  2  0     0  0
 11  4  1  0     0  0
 12  6  1  0     0  0
 13  8  2  0     0  0
 14 15  2  0     0  0
 15 10  1  0     0  0
 16 13  1  0     0  0
 17  6  2  0     0  0
 18  5  1  0     0  0
 19 17  1  0     0  0
 20  9  1  0     0  0
 21  1  1  0     0  0
 22  2  1  0     0  0
 23 21  2  0     0  0
 24 22  2  0     0  0
 25  8  1  0     0  0
 26  7  1  0     0  0
 27 11  1  0     0  0
 28 12  1  0     0  0
 29 14  1  0     0  0
 30 13  1  0     0  0
 31 15  1  0     0  0
 32 16  1  0     0  0
 33 17  1  0     0  0
 34 18  1  0     0  0
 35 22  1  0     0  0
 36 21  1  0     0  0
 37 31  1  0     0  0
 38 31  1  0     0  0
 39 32  1  0     0  0
 40 32  1  0     0  0
  9 16  2  0     0  0
 18 20  2  0     0  0
 10  3  1  0     0  0
 14  7  1  0     0  0
M  END