
  SciTegic07111213592D

 27 30  0  0  0  0            999 V2000
    8.0470   -4.3007    0.0000 N   0  0
    8.6011   -4.9189    0.0000 C   0  0
    8.1840   -5.6370    0.0000 C   0  0
    7.3713   -5.4604    0.0000 N   0  0
    7.2909   -4.6404    0.0000 C   0  0
    4.4162   -2.9845    0.0000 S   0  3
    8.5215   -6.3967    0.0000 C   0  0
    6.5708   -4.2268    0.0000 C   0  0
    5.1363   -3.3981    0.0000 C   0  0
    9.4291   -4.8333    0.0000 C   0  0
    4.4133   -2.1558    0.0000 O   0  5
   11.0753   -4.6616    0.0000 N   0  0
    6.5715   -3.4002    0.0000 C   0  0
    5.8593   -4.6403    0.0000 C   0  0
    5.1391   -4.2268    0.0000 C   0  0
    5.8535   -2.9829    0.0000 C   0  0
    9.3432   -6.4816    0.0000 C   0  0
    8.0285   -7.0614    0.0000 C   0  0
    9.1892   -7.9119    0.0000 C   0  0
    8.3603   -7.8227    0.0000 C   0  0
    9.6808   -7.2414    0.0000 C   0  0
    9.5247   -8.6752    0.0000 F   0  0
    3.6968   -3.4033    0.0000 C   0  0
   10.7345   -5.4234    0.0000 C   0  0
   10.5919   -3.9874    0.0000 C   0  0
    9.9109   -5.5018    0.0000 C   0  0
    9.7642   -4.0730    0.0000 C   0  0
  2  1  1  0
  3  2  2  0
  4  5  2  0
  5  1  1  0
  6  9  1  0
  7  3  1  0
  8  5  1  0
  9 15  2  0
 10  2  1  0
 11  6  1  0
 12 24  1  0
 13  8  1  0
 14  8  2  0
 15 14  1  0
 16 13  2  0
 17  7  2  0
 18  7  1  0
 19 20  1  0
 20 18  2  0
 21 17  1  0
 22 19  1  0
 23  6  1  0
 24 26  2  0
 25 27  1  0
 26 10  1  0
 27 10  2  0
  4  3  1  0
 16  9  1  0
 12 25  2  0
 19 21  2  0
M  CHG  2   6   1  11  -1
M  END