
  SciTegic12171312552D

 32 34  0  0  0  0            999 V2000
   27.9069   -8.2627    0.0000 C   0  0
   27.9058   -9.0822    0.0000 C   0  0
   28.6138   -9.4912    0.0000 C   0  0
   29.3235   -9.0817    0.0000 C   0  0
   29.3206   -8.2591    0.0000 C   0  0
   28.6120   -7.8538    0.0000 C   0  0
   27.1991   -7.8542    0.0000 O   0  0
   27.1989   -7.0371    0.0000 C   0  0
   26.4911   -6.6286    0.0000 C   0  0
   30.0268   -7.8478    0.0000 C   0  0
   30.7360   -8.2537    0.0000 N   0  0
   30.0237   -7.0306    0.0000 O   0  0
   30.7391   -9.0709    0.0000 C   0  0
   31.4422   -7.8425    0.0000 C   0  0  2  0  0  0
   32.1514   -8.2484    0.0000 C   0  0
   32.8576   -7.8371    0.0000 C   0  0
   33.5669   -8.2431    0.0000 N   0  0
   34.2730   -7.8318    0.0000 C   0  0
   34.9823   -8.2377    0.0000 C   0  0
   34.2699   -7.0146    0.0000 O   0  0
   31.4391   -7.0253    0.0000 C   0  0
   32.1453   -6.6140    0.0000 C   0  0
   32.8510   -7.0239    0.0000 C   0  0
   33.5566   -6.6133    0.0000 C   0  0
   33.5540   -5.7953    0.0000 C   0  0
   32.8398   -5.3895    0.0000 C   0  0
   32.1370   -5.8024    0.0000 C   0  0
   35.0745   -9.0452    0.0000 C   0  0
   35.8745   -9.2121    0.0000 C   0  0
   36.2805   -8.5028    0.0000 C   0  0
   35.7313   -7.8977    0.0000 N   0  0
   35.8967   -7.0974    0.0000 C   0  0
  1  2  2  0
  2  3  1  0
  3  4  2  0
  4  5  1  0
  5  6  2  0
  6  1  1  0
  1  7  1  0
  7  8  1  0
  8  9  1  0
  5 10  1  0
 10 11  1  0
 10 12  2  0
 11 13  1  0
 11 14  1  0
 14 15  1  0
 15 16  1  0
 16 17  1  0
 17 18  1  0
 18 19  1  0
 18 20  2  0
 14 21  1  1
 21 22  1  0
 22 23  2  0
 23 24  1  0
 24 25  2  0
 25 26  1  0
 26 27  2  0
 27 22  1  0
 19 28  2  0
 28 29  1  0
 29 30  2  0
 30 31  1  0
 31 19  1  0
 31 32  1  0
M  END