
  SciTegic05221516342D

 16 17  0  0  0  0            999 V2000
   11.6530  -12.7239    0.0000 C   0  0
   11.6643  -11.9030    0.0000 C   0  0
   12.3626  -11.0922    0.0000 H   0  0
   11.3343  -11.1436    0.0000 C   0  0
   12.4696  -12.7269    0.0000 C   0  0  1  0  0  0
   10.8473  -11.7962    0.0000 C   0  0
   12.4759  -11.9127    0.0000 C   0  0  1  0  0  0
   11.9744  -13.3835    0.0000 H   0  0
   13.0503  -11.3292    0.0000 C   0  0
   13.8413  -11.5346    0.0000 C   0  0
   14.0589  -12.3222    0.0000 C   0  0
   13.4856  -12.9046    0.0000 C   0  0
   13.7033  -13.6922    0.0000 C   0  0
   13.1300  -14.2746    0.0000 C   0  0
   12.3390  -14.0693    0.0000 C   0  0
   11.7657  -14.6516    0.0000 C   0  0
  5  8  1  6
  4  2  1  0
  5  7  1  0
  7  3  1  1
  2  7  1  0
  6  2  1  0
  1  5  1  0
  1  2  1  0
  7  9  1  0
  9 10  1  0
 10 11  1  0
 11 12  2  0
 12 13  1  0
 13 14  1  0
 14 15  1  0
 15 16  2  0
  5 15  1  0
M  END