
          11280714522D 1   1.00000     0.00000     0

 54 58  0     1  0            999 V2000
    2.4000   -9.0667    0.0000 N   0  0  0  0  0  0           0  0  0
    2.7542   -8.3125    0.0000 C   0  0  2  0  0  0           0  0  0
    1.5792   -7.3792    0.0000 N   0  0  3  0  0  0           0  0  0
    2.3917   -7.5542    0.0000 C   0  0  0  0  0  0           0  0  0
    1.5875   -9.2542    0.0000 C   0  0  0  0  0  0           0  0  0
    0.9292   -8.7292    0.0000 C   0  0  0  0  0  0           0  0  0
    3.5792   -8.3042    0.0000 N   0  0  0  0  0  0           0  0  0
    0.9292   -7.9042    0.0000 C   0  0  0  0  0  0           0  0  0
   10.8000   -4.2167    0.0000 C   0  0  0  0  0  0           0  0  0
   10.3667   -3.5125    0.0000 N   0  0  0  0  0  0           0  0  0
    3.9917   -9.0167    0.0000 C   0  0  0  0  0  0           0  0  0
   11.6167   -4.2875    0.0000 C   0  0  0  0  0  0           0  0  0
   10.2542   -4.8417    0.0000 S   0  0  0  0  0  0           0  0  0
    9.5625   -3.7000    0.0000 C   0  0  0  0  0  0           0  0  0
   11.9750   -5.0292    0.0000 C   0  0  0  0  0  0           0  0  0
    2.4167   -4.6417    0.0000 C   0  0  0  0  0  0           0  0  0
    9.4917   -4.5292    0.0000 C   0  0  0  0  0  0           0  0  0
    4.8167   -9.0167    0.0000 N   0  0  0  0  0  0           0  0  0
    2.9042   -6.9125    0.0000 O   0  0  0  0  0  0           0  0  0
    5.9875   -4.2375    0.0000 C   0  0  0  0  0  0           0  0  0
    1.4042  -10.0542    0.0000 C   0  0  0  0  0  0           0  0  0
    3.5875   -9.7375    0.0000 O   0  0  0  0  0  0           0  0  0
    2.2292   -3.8417    0.0000 O   0  0  0  0  0  0           0  0  0
    5.2375   -9.7292    0.0000 C   0  0  0  0  0  0           0  0  0
    6.1750   -5.0417    0.0000 O   0  0  0  0  0  0           0  0  0
    3.2042   -4.8792    0.0000 N   0  0  0  0  0  0           0  0  0
    1.3917   -6.5750    0.0000 C   0  0  0  0  0  0           0  0  0
   12.7917   -5.1042    0.0000 N   0  0  0  0  0  0           0  0  0
   11.5042   -5.7125    0.0000 N   0  0  0  0  0  0           0  0  0
    6.5875   -3.6750    0.0000 N   0  0  0  0  0  0           0  0  0
    1.8125   -5.2042    0.0000 O   0  0  0  0  0  0           0  0  0
    4.8250  -10.4417    0.0000 C   0  0  0  0  0  0           0  0  0
    0.2167   -9.1417    0.0000 C   0  0  0  0  0  0           0  0  0
    8.1917   -3.2917    0.0000 S   0  0  0  0  0  0           0  0  0
    8.9917   -3.1000    0.0000 C   0  0  0  0  0  0           0  0  0
    0.2167   -7.4917    0.0000 C   0  0  0  0  0  0           0  0  0
    5.2375  -11.1542    0.0000 C   0  0  0  0  0  0           0  0  0
    2.0000   -6.0125    0.0000 C   0  0  0  0  0  0           0  0  0
    6.4750  -10.4375    0.0000 C   0  0  0  0  0  0           0  0  0
    5.2000   -3.9917    0.0000 C   0  0  0  0  0  0           0  0  0
    6.0542   -9.7292    0.0000 C   0  0  0  0  0  0           0  0  0
    0.6167  -10.3000    0.0000 C   0  0  0  0  0  0           0  0  0
    2.0042  -10.6125    0.0000 C   0  0  0  0  0  0           0  0  0
    6.8250   -2.8792    0.0000 C   0  0  0  0  0  0           0  0  0
    3.8042   -4.3167    0.0000 C   0  0  0  0  0  0           0  0  0
    6.0625  -11.1542    0.0000 C   0  0  0  0  0  0           0  0  0
    7.6250   -2.6917    0.0000 C   0  0  0  0  0  0           0  0  0
    4.8250  -11.8750    0.0000 C   0  0  0  0  0  0           0  0  0
    4.5917   -4.5625    0.0000 C   0  0  0  0  0  0           0  0  0
   -0.4958   -8.7292    0.0000 C   0  0  0  0  0  0           0  0  0
   -0.4958   -7.9042    0.0000 C   0  0  0  0  0  0           0  0  0
    1.8292  -11.4125    0.0000 C   0  0  0  0  0  0           0  0  0
    0.4292  -11.1000    0.0000 C   0  0  0  0  0  0           0  0  0
    1.0375  -11.6625    0.0000 C   0  0  0  0  0  0           0  0  0
  2  1  1  0     0  0
  3  4  1  0     0  0
  4  2  1  0     0  0
  5  1  2  0     0  0
  6  5  1  0     0  0
  2  7  1  6     0  0
  8  6  1  0     0  0
  9 10  2  0     0  0
 10 14  1  0     0  0
 11  7  1  0     0  0
 12  9  1  0     0  0
 13 17  1  0     0  0
 14 35  1  0     0  0
 15 12  2  0     0  0
 16 31  1  0     0  0
 17 14  2  0     0  0
 18 11  1  0     0  0
 19  4  2  0     0  0
 20 40  1  0     0  0
 21  5  1  0     0  0
 22 11  2  0     0  0
 23 16  2  0     0  0
 24 18  1  0     0  0
 25 20  2  0     0  0
 26 16  1  0     0  0
 27  3  1  0     0  0
 28 15  1  0     0  0
 29 15  1  0     0  0
 30 20  1  0     0  0
 31 38  1  0     0  0
 32 24  2  0     0  0
 33  6  2  0     0  0
 34 47  1  0     0  0
 35 34  1  0     0  0
 36  8  2  0     0  0
 37 32  1  0     0  0
 38 27  1  0     0  0
 39 41  2  0     0  0
 40 49  1  0     0  0
 41 24  1  0     0  0
 42 21  2  0     0  0
 43 21  1  0     0  0
 44 30  1  0     0  0
 45 26  1  0     0  0
 46 39  1  0     0  0
 47 44  1  0     0  0
 48 37  1  0     0  0
 49 45  1  0     0  0
 50 33  1  0     0  0
 51 50  2  0     0  0
 52 43  2  0     0  0
 53 42  1  0     0  0
 54 52  1  0     0  0
  8  3  1  0     0  0
 53 54  2  0     0  0
 36 51  1  0     0  0
 37 46  2  0     0  0
 13  9  1  0     0  0
M  END