
  SciTegic12131016242D

 17 19  0  0  0  0            999 V2000
    1.4508    1.4274    0.0000 C   0  0
    1.4496    0.6035    0.0000 C   0  0
    2.1615    0.1923    0.0000 C   0  0
    2.1598    1.8384    0.0000 C   0  0
    2.8721    1.4310    0.0000 C   0  0
    2.8709    0.6014    0.0000 C   0  0
    3.5848    0.1879    0.0000 C   0  0
    3.5872    1.8471    0.0000 C   0  0
    2.1573    2.6600    0.0000 O   0  0
    2.1613   -0.6293    0.0000 O   0  0
    3.5873    2.6686    0.0000 O   0  0
    5.0969    1.6811    0.0000 C   0  0
    4.3057    1.4289    0.0000 C   0  0
    4.3021    0.5980    0.0000 C   0  0
    5.0920    0.3391    0.0000 C   0  0
    5.5810    1.0110    0.0000 O   0  0
    5.3540    2.4613    0.0000 C   0  0
  7 14  1  0
 13  8  1  0
  5  4  2  0
  4  9  1  0
  4  1  1  0
  3 10  1  0
  5  6  1  0
  8 11  2  0
 13 14  1  0
  2  3  1  0
  3  6  2  0
  1  2  2  0
  5  8  1  0
 12 13  2  0
 14 15  2  0
 15 16  1  0
 16 12  1  0
  6  7  1  0
 12 17  1  0
M  END