
  SciTegic11201309402D

107116  0  0  0  0            999 V2000
   -5.8285  -14.8835    0.0000 C   0  0
   -5.7820  -16.5376    0.0000 O   0  0
   -2.0158  -12.7664    0.0000 N   0  0
   -2.8388  -12.7793    0.0000 C   0  0
   -3.2392  -13.5007    0.0000 N   0  0
   -3.2633  -12.0719    0.0000 S   0  0
   -4.0641  -13.5145    0.0000 C   0  0
   -4.4828  -12.8066    0.0000 C   0  0
   -5.3070  -12.8201    0.0000 C   0  0
   -4.4565  -14.2347    0.0000 C   0  0
   -5.2792  -14.2517    0.0000 C   0  0
   -5.7099  -13.5376    0.0000 C   0  0
   -6.5278  -13.7265    0.0000 C   0  0
   -6.5981  -14.5574    0.0000 O   0  0
   -7.1460  -13.1862    0.0000 O   0  0
   -5.0991  -15.2722    0.0000 C   0  0
   -5.0798  -16.1016    0.0000 C   0  0
   -4.3531  -16.4978    0.0000 C   0  0
   -3.6452  -16.0658    0.0000 C   0  0
   -3.6685  -15.2333    0.0000 C   0  0
   -4.3957  -14.8409    0.0000 C   0  0
   -6.5151  -16.1425    0.0000 C   0  0
   -6.5353  -15.3203    0.0000 C   0  0
   -7.2554  -14.9295    0.0000 C   0  0
   -7.9548  -15.3598    0.0000 C   0  0
   -7.9302  -16.1849    0.0000 C   0  0
   -7.2106  -16.5720    0.0000 C   0  0
   -2.9201  -16.4594    0.0000 O   0  0
   -8.6373  -16.6195    0.0000 O   0  0
    7.2485  -13.9296    0.0000 C   0  0
    8.0733  -13.9127    0.0000 N   0  0
    6.8507  -14.6524    0.0000 O   0  0
    8.5004  -14.6186    0.0000 C   0  0  2  0  0  0
    9.3252  -14.6018    0.0000 C   0  0
    8.1026  -15.3414    0.0000 C   0  0  1  0  0  0
    7.2777  -15.3583    0.0000 C   0  0
    8.5296  -16.0473    0.0000 O   0  0
    9.7522  -15.3076    0.0000 N   0  0
    9.7230  -13.8790    0.0000 O   0  0
    6.0017  -13.2396    0.0000 N   0  0
    6.8219  -13.2240    0.0000 C   0  0  1  0  0  0
    7.0603  -12.4389    0.0000 C   0  0
    6.3873  -11.9695    0.0000 C   0  0
    5.7331  -12.4646    0.0000 C   0  0
   10.5771  -15.2908    0.0000 C   0  0  2  0  0  0
   11.0041  -15.9966    0.0000 C   0  0
   10.9749  -14.5680    0.0000 C   0  0
   10.6063  -16.7194    0.0000 O   0  0
   11.8264  -15.9797    0.0000 N   0  0
   11.8393  -16.8034    0.0000 C   0  0
   12.6265  -17.0504    0.0000 C   0  0
   13.1047  -16.3781    0.0000 C   0  0
   12.6133  -15.7141    0.0000 C   0  0  1  0  0  0
   12.9845  -14.9773    0.0000 C   0  0
   13.8074  -14.9305    0.0000 N   0  0
   12.5320  -14.2874    0.0000 O   0  0
   14.1058  -15.6989    0.0000 C   0  0
   14.9296  -15.6547    0.0000 C   0  0
   15.1421  -14.8575    0.0000 C   0  0
   14.4499  -14.4079    0.0000 C   0  0  1  0  0  0
   14.1410  -13.6429    0.0000 C   0  0
   14.6474  -12.9844    0.0000 N   0  0
   13.3241  -13.5280    0.0000 O   0  0
    7.5006  -14.6391    0.0000 H   0  0
    5.6097  -13.9655    0.0000 C   0  0
    4.7850  -13.9890    0.0000 C   0  0
    6.0423  -14.6680    0.0000 O   0  0
    4.3524  -13.2865    0.0000 N   0  0
   14.2271  -12.2747    0.0000 C   0  0  2  0  0  0
   13.4022  -12.2833    0.0000 C   0  0
   14.6312  -11.5561    0.0000 C   0  0
   15.4555  -11.5218    0.0000 C   0  0
   15.8973  -12.2185    0.0000 C   0  0
   15.5164  -12.9505    0.0000 O   0  0
   16.7231  -12.1853    0.0000 O   0  0
   12.6984  -11.3316    0.0000 N   0  0
   12.9972  -13.0021    0.0000 O   0  0
    3.5277  -13.3099    0.0000 C   0  0
    3.0953  -12.6073    0.0000 C   0  0  2  0  0  0
    3.1357  -14.0358    0.0000 O   0  0
    3.3617  -11.8310    0.0000 C   0  0
    2.7036  -11.3335    0.0000 C   0  0
    2.0271  -11.8057    0.0000 C   0  0
    2.2660  -12.5949    0.0000 N   0  0
    1.5682  -13.0351    0.0000 C   0  0
    0.8382  -12.6509    0.0000 C   0  0
    1.6005  -13.8594    0.0000 O   0  0
    0.1404  -13.0910    0.0000 C   0  0
   -0.5897  -12.7068    0.0000 C   0  0
   -1.2875  -13.1470    0.0000 C   0  0
    4.9917  -10.9958    0.0000 C   0  0
    6.2167  -10.9958    0.0000 C   0  0
    6.9542  -11.5167    0.0000 C   0  0
    7.7740  -11.1384    0.0000 C   0  0
    8.5115  -11.6592    0.0000 C   0  0
    9.3313  -11.2809    0.0000 C   0  0
   10.2646  -11.7684    0.0000 C   0  0
   10.9511  -11.3318    0.0000 C   0  0
   12.9083  -10.5292    0.0000 C   0  0
   13.7039  -10.3109    0.0000 C   0  0
   13.9127   -9.5127    0.0000 O   0  0
   14.2908  -10.8908    0.0000 N   0  0
    4.7444  -12.5606    0.0000 C   0  0
    4.3118  -11.8581    0.0000 C   0  0
   15.2216  -13.7719    0.0000 H   0  0
   13.6097  -15.6290    0.0000 H   0  0
    7.8142  -13.0998    0.0000 H   0  0
  4  5  1  0
 26 27  2  0
 27 22  1  0
 22  2  1  0
 57 58  1  0
 58 59  1  0
 59 60  1  0
 60 55  1  0
 19 28  1  0
 60 61  1  0
  4  6  2  0
 61 62  1  0
 26 29  1  0
 61 63  2  0
 12 13  1  0
 33 64  1  1
 41 30  1  0
 40 65  1  0
 13 14  1  0
 65 66  1  0
 30 31  1  0
 65 67  2  0
 14  1  1  0
 66 68  1  0
 30 32  2  0
 62 69  1  0
  1 11  1  0
 69 70  1  0
 31 33  1  0
 69 71  1  6
  2 17  1  0
 71 72  1  0
 33 34  1  0
 72 73  1  0
 13 15  2  0
 33 35  1  0
 73 74  1  0
 73 75  2  0
  5  7  1  0
 70 76  1  0
 35 36  1  6
 70 77  2  0
 35 37  1  0
 16 17  2  0
 34 38  1  0
  7  8  2  0
 68 78  1  0
 34 39  2  0
 79 78  1  1
 40 41  1  0
 78 80  2  0
 17 18  1  0
  1 23  1  0
 18 19  2  0
  8  9  1  0
 79 81  1  0
 19 20  1  0
 41 42  1  0
 42 43  1  0
 43 44  1  0
 81 82  1  0
 82 83  1  0
 83 84  1  0
 84 79  1  0
 44 40  1  0
 84 85  1  0
  9 12  2  0
 85 86  1  0
 38 45  1  0
 85 87  2  0
 20 21  2  0
 86 88  1  0
 45 46  1  0
 88 89  1  0
 21 16  1  0
 89 90  1  0
 90  3  1  0
 45 47  1  1
  3  4  1  0
 46 48  2  0
 11 10  2  0
 46 49  1  0
 49 50  1  0
 22 23  2  0
 10  7  1  0
 23 24  1  0
 91 92  2  0
 11 12  1  0
 92 93  1  0
 50 51  1  0
 93 94  1  0
 51 52  1  0
 94 95  1  0
 52 53  1  0
 95 96  1  0
 53 49  1  0
 96 97  1  0
 24 25  2  0
 97 98  1  0
 98 76  1  0
 53 54  1  0
 76 99  1  0
  1 16  1  0
 99100  1  0
 54 55  1  0
100101  2  0
 25 26  1  0
100102  1  0
 54 56  2  0
 68103  1  0
 55 57  1  0
103104  1  0
104 91  1  0
 60105  1  1
 53106  1  1
 41107  1  6
M  END