
          11280715462D 1   1.00000     0.00000     0

 23 23  0     1  0            999 V2000
    5.1042   -3.6917    0.0000 C   0  0  0  0  0  0           0  0  0
    5.8250   -3.2667    0.0000 N   0  0  3  0  0  0           0  0  0
    4.3792   -3.2792    0.0000 C   0  0  2  0  0  0           0  0  0
    5.0917   -1.2167    0.0000 P   0  0  3  0  0  0           0  0  0
    6.5375   -3.6792    0.0000 C   0  0  2  0  0  0           0  0  0
    4.3792   -2.4542    0.0000 C   0  0  2  0  0  0           0  0  0
    3.6667   -3.6917    0.0000 N   0  0  0  0  0  0           0  0  0
    6.5375   -4.5042    0.0000 C   0  0  0  0  0  0           0  0  0
    5.0917   -2.0417    0.0000 O   0  0  0  0  0  0           0  0  0
    2.9542   -3.2792    0.0000 C   0  0  0  0  0  0           0  0  0
    5.1042   -4.5167    0.0000 O   0  0  0  0  0  0           0  0  0
    4.2667   -1.2125    0.0000 O   0  0  0  0  0  0           0  0  0
    5.8250   -4.9167    0.0000 O   0  0  0  0  0  0           0  0  0
    2.9542   -2.4500    0.0000 O   0  0  0  0  0  0           0  0  0
    5.9167   -1.2125    0.0000 O   0  0  0  0  0  0           0  0  0
    5.0917   -0.3875    0.0000 O   0  0  0  0  0  0           0  0  0
    7.2542   -4.9167    0.0000 N   0  0  0  0  0  0           0  0  0
    5.8250   -2.4417    0.0000 C   0  0  0  0  0  0           0  0  0
    3.6667   -2.0417    0.0000 C   0  0  0  0  0  0           0  0  0
    7.2542   -3.2667    0.0000 C   0  0  0  0  0  0           0  0  0
    2.2417   -3.6917    0.0000 C   0  0  0  0  0  0           0  0  0
    6.5375   -2.0292    0.0000 C   0  0  0  0  0  0           0  0  0
    7.2542   -2.4417    0.0000 C   0  0  0  0  0  0           0  0  0
  2  1  1  0     0  0
  3  1  1  1     0  0
  4  9  1  0     0  0
  5  2  1  0     0  0
  6  3  1  0     0  0
  7  3  1  0     0  0
  5  8  1  1     0  0
  6  9  1  1     0  0
 10  7  1  0     0  0
 11  1  2  0     0  0
 12  4  2  0     0  0
 13  8  2  0     0  0
 14 10  2  0     0  0
 15  4  1  0     0  0
 16  4  1  0     0  0
 17  8  1  0     0  0
 18  2  1  0     0  0
 19  6  1  0     0  0
 20  5  1  0     0  0
 21 10  1  0     0  0
 22 18  1  0     0  0
 23 22  1  0     0  0
 23 20  1  0     0  0
M  END