
  SciTegic11201309402D

 77 80  0  0  1  0            999 V2000
    5.8875   -3.1917    0.0000 N   0  0
   -0.1708   -4.2250    0.0000 N   0  0
    5.2750   -3.7417    0.0000 C   0  0
    0.4167   -4.8125    0.0000 C   0  0
   -0.6708   -2.6750    0.0000 C   0  0
    4.4792   -3.4875    0.0000 C   0  0  2  0  0  0
    4.6125   -2.6750    0.0000 N   0  0
   -0.5458   -1.8542    0.0000 N   0  0
   -0.5458   -3.4875    0.0000 C   0  0  2  0  0  0
    3.5250   -0.5292    0.0000 N   0  0
    1.1542   -0.1542    0.0000 N   0  0
    4.4792   -1.8542    0.0000 C   0  0
    0.4167   -0.5292    0.0000 C   0  0
    6.8375   -2.0667    0.0000 C   0  0
    2.7875   -0.1542    0.0000 C   0  0
    4.1125   -1.1167    0.0000 C   0  0  1  0  0  0
    6.6500   -2.8750    0.0000 C   0  0  2  0  0  0
   -0.1708   -1.1167    0.0000 C   0  0  1  0  0  0
    1.1542   -5.1875    0.0000 C   0  0
    7.6292   -1.8250    0.0000 N   0  0
    4.6875   -0.5667    0.0000 C   0  0
    1.9667   -0.0292    0.0000 C   0  0  2  0  0  0
    8.6042   -0.7792    0.0000 C   0  0
    6.3792    2.2833    0.0000 C   0  0
    3.5250   -4.8125    0.0000 S   0  0
    2.7875   -5.1875    0.0000 S   0  0
    4.4667    0.2333    0.0000 C   0  0
    1.9667   -5.3167    0.0000 C   0  0
    8.7917    0.0250    0.0000 N   0  0
    7.8167   -1.0250    0.0000 C   0  0  2  0  0  0
    9.7750    1.0708    0.0000 C   0  0
    2.6875    2.0375    0.0000 C   0  0
    6.5667    3.0958    0.0000 N   0  0
    5.4417   -4.5542    0.0000 O   0  0
   -1.3333   -3.7417    0.0000 C   0  0
   -0.0708   -5.4792    0.0000 O   0  0
   -1.5000   -2.6750    0.0000 O   0  0
    4.1125   -4.2250    0.0000 C   0  0
    6.2292   -1.5042    0.0000 O   0  0
   -0.0708    0.1333    0.0000 O   0  0
    5.2750   -1.6000    0.0000 O   0  0
    3.0417    0.6333    0.0000 O   0  0
   -0.8375   -0.6292    0.0000 C   0  0
    9.2042   -1.3417    0.0000 O   0  0
    4.9750    0.8833    0.0000 O   0  0
    3.4042    2.4583    0.0000 O   0  0
    9.1667    1.6333    0.0000 O   0  0
    1.9667    0.7958    0.0000 C   0  0
    6.9792    1.7208    0.0000 N   0  0
    9.5792    0.2625    0.0000 C   0  0
    5.5875    2.0458    0.0000 N   0  0
    5.9542   -4.0167    0.0000 C   0  0
    3.6542    0.3333    0.0000 N   0  0
    2.6875    1.2125    0.0000 C   0  0
   -1.9458   -3.1917    0.0000 C   0  0
    1.9667    2.4583    0.0000 N   0  0
   10.5625    1.3083    0.0000 N   0  0
   -0.8375   -4.7125    0.0000 C   0  0
   -3.1708   -2.0792    0.0000 C   0  0
   -0.7500    0.1875    0.0000 C   0  0
   -1.7708   -2.3792    0.0000 C   0  0
   -2.7333   -3.4417    0.0000 C   0  0
   -2.3875   -1.8292    0.0000 C   0  0
   -3.3458   -2.8917    0.0000 C   0  0
    7.1875   -3.4917    0.0000 C   0  0
   -3.7875   -1.5292    0.0000 O   0  0
    6.7625   -4.2042    0.0000 C   0  0
    1.2542   -5.6167    0.0000 C   0  0
    2.6875   -5.6167    0.0000 C   0  0
    7.2125   -0.4542    0.0000 C   0  0
    6.8000    0.9125    0.0000 C   0  0
   -1.4208    0.6750    0.0000 C   0  0
    0.0042    0.5250    0.0000 C   0  0
    7.4000    0.3500    0.0000 C   0  0
    0.0917    1.3458    0.0000 C   0  0
   -1.3333    1.4958    0.0000 C   0  0
   -0.5833    1.8333    0.0000 C   0  0
  2  4  1  0
  3  1  1  0
  4 19  1  0
  5  9  1  0
  6  3  1  1
  7  6  1  0
  8  5  1  0
  9  2  1  0
 10 16  1  0
 11 22  1  0
 12  7  1  0
 13 11  1  0
 17 14  1  6
 15 10  1  0
 16 12  1  0
 17  1  1  0
 18 13  1  0
 19 28  1  0
 20 14  1  0
 16 21  1  6
 22 15  1  0
 23 30  1  0
 24 49  2  0
 25 38  1  0
 26 25  1  0
 27 21  1  0
 28 26  1  0
 29 23  1  0
 30 20  1  1
 31 50  1  0
 32 54  1  0
 33 24  1  0
 34  3  2  0
  9 35  1  1
 36  4  2  0
 37  5  2  0
  6 38  1  0
 39 14  2  0
 40 13  2  0
 41 12  2  0
 42 15  2  0
 18 43  1  6
 44 23  2  0
 45 27  2  0
 46 32  2  0
 47 31  2  0
 22 48  1  1
 49 71  1  0
 50 29  1  0
 51 24  1  0
 52  1  1  0
 53 27  1  0
 54 48  1  0
 55 35  1  0
 56 32  1  0
 57 31  1  0
 58  2  1  0
 59 64  1  0
 60 43  1  0
 61 55  2  0
 62 55  1  0
 63 61  1  0
 64 62  2  0
 17 65  1  0
 66 59  1  0
 67 52  1  0
 68 28  1  0
 69 28  1  0
 30 70  1  0
 71 74  1  0
 72 60  1  0
 73 60  2  0
 74 70  1  0
 75 73  1  0
 76 72  2  0
 77 75  2  0
 65 67  1  0
 18  8  1  0
 63 59  2  0
 77 76  1  0
M  END