
          11280715232D 1   1.00000     0.00000     0

 22 22  0     0  0            999 V2000
   -0.2708   -5.0417    0.0000 C   0  0  0  0  0  0           0  0  0
   -0.9833   -5.4542    0.0000 C   0  0  0  0  0  0           0  0  0
    0.4417   -5.4542    0.0000 C   0  0  0  0  0  0           0  0  0
   -1.6875   -5.0417    0.0000 C   0  0  0  0  0  0           0  0  0
    4.7167   -5.4417    0.0000 C   0  0  0  0  0  0           0  0  0
    5.3042   -4.8542    0.0000 C   0  0  0  0  0  0           0  0  0
    1.1542   -5.0417    0.0000 C   0  0  0  0  0  0           0  0  0
    2.5792   -5.0375    0.0000 C   0  0  0  0  0  0           0  0  0
    4.0042   -5.0292    0.0000 C   0  0  0  0  0  0           0  0  0
    1.8667   -5.4542    0.0000 C   0  0  0  0  0  0           0  0  0
    3.2917   -5.4500    0.0000 C   0  0  0  0  0  0           0  0  0
    5.3000   -4.0292    0.0000 O   0  0  0  0  0  0           0  0  0
   -0.9833   -6.2792    0.0000 C   0  0  3  0  0  0           0  0  0
   -0.2708   -4.2167    0.0000 C   0  0  0  0  0  0           0  0  0
    6.0167   -5.2667    0.0000 O   0  0  0  0  0  0           0  0  0
   -1.6875   -4.2167    0.0000 C   0  0  0  0  0  0           0  0  0
   -2.4083   -5.4542    0.0000 C   0  0  0  0  0  0           0  0  0
   -0.9833   -3.8042    0.0000 C   0  0  0  0  0  0           0  0  0
    1.1542   -4.2167    0.0000 C   0  0  0  0  0  0           0  0  0
    4.0042   -4.2042    0.0000 C   0  0  0  0  0  0           0  0  0
   -1.6958   -6.6917    0.0000 C   0  0  0  0  0  0           0  0  0
   -0.2625   -6.6917    0.0000 C   0  0  0  0  0  0           0  0  0
  2  1  1  0     0  0
  3  1  2  0     0  0
  4  2  2  0     0  0
  5  9  2  0     0  0
  6  5  1  0     0  0
  7  3  1  0     0  0
  8 10  1  0     0  0
  9 11  1  0     0  0
 10  7  2  0     0  0
 11  8  2  0     0  0
 12  6  2  0     0  0
 13  2  1  0     0  0
 14  1  1  0     0  0
 15  6  1  0     0  0
 16 18  1  0     0  0
 17  4  1  0     0  0
 18 14  1  0     0  0
 19  7  1  0     0  0
 20  9  1  0     0  0
 21 13  1  0     0  0
 22 13  1  0     0  0
  4 16  1  0     0  0
M  END