
          11280714482D 1   1.00000     0.00000     0

 27 28  0     0  0            999 V2000
   -5.6083    1.4250    0.0000 N   0  0  3  0  0  0           0  0  0
   -6.3250    1.8333    0.0000 C   0  0  0  0  0  0           0  0  0
   -7.0292    1.4208    0.0000 N   0  0  0  0  0  0           0  0  0
   -5.6083    0.6000    0.0000 C   0  0  0  0  0  0           0  0  0
   -4.8958    1.8458    0.0000 C   0  0  0  0  0  0           0  0  0
   -6.3167    0.1833    0.0000 C   0  0  0  0  0  0           0  0  0
   -3.4708    1.8458    0.0000 N   0  0  3  0  0  0           0  0  0
   -4.1833    1.4333    0.0000 C   0  0  0  0  0  0           0  0  0
   -7.7417   -0.6417    0.0000 C   0  0  0  0  0  0           0  0  0
   -7.0292    0.5958    0.0000 C   0  0  0  0  0  0           0  0  0
   -6.3167   -0.6417    0.0000 C   0  0  0  0  0  0           0  0  0
    1.5375    1.4500    0.0000 N   0  0  0  0  0  0           0  0  0
   -7.0292   -1.0542    0.0000 C   0  0  0  0  0  0           0  0  0
   -7.7417    0.1833    0.0000 C   0  0  0  0  0  0           0  0  0
   -8.4542   -1.0542    0.0000 O   0  0  0  0  0  0           0  0  0
   -6.3250    2.6625    0.0000 C   0  0  0  0  0  0           0  0  0
   -7.7500    1.8250    0.0000 C   0  0  0  0  0  0           0  0  0
   -2.7500    1.4375    0.0000 C   0  0  0  0  0  0           0  0  0
   -3.4708    2.6708    0.0000 C   0  0  0  0  0  0           0  0  0
    0.8167    1.8625    0.0000 C   0  0  0  0  0  0           0  0  0
   -8.4542   -1.8792    0.0000 C   0  0  0  0  0  0           0  0  0
   -2.0375    1.8500    0.0000 C   0  0  0  0  0  0           0  0  0
    0.1042    1.4458    0.0000 C   0  0  0  0  0  0           0  0  0
   -0.6083    1.8583    0.0000 C   0  0  0  0  0  0           0  0  0
   -1.3208    1.4458    0.0000 C   0  0  0  0  0  0           0  0  0
   -7.0417    3.0708    0.0000 C   0  0  0  0  0  0           0  0  0
   -7.7542    2.6583    0.0000 C   0  0  0  0  0  0           0  0  0
  2  1  1  0     0  0
  3  2  1  0     0  0
  4  1  1  0     0  0
  5  1  1  0     0  0
  6  4  1  0     0  0
  7  8  1  0     0  0
  8  5  1  0     0  0
  9 13  1  0     0  0
 10  6  2  0     0  0
 11  6  1  0     0  0
 12 20  1  0     0  0
 13 11  2  0     0  0
 14 10  1  0     0  0
 15  9  1  0     0  0
 16  2  2  0     0  0
 17  3  2  0     0  0
 18  7  1  0     0  0
 19  7  1  0     0  0
 20 23  1  0     0  0
 21 15  1  0     0  0
 22 18  1  0     0  0
 23 24  1  0     0  0
 24 25  1  0     0  0
 25 22  1  0     0  0
 26 16  1  0     0  0
 27 26  2  0     0  0
 14  9  2  0     0  0
 27 17  1  0     0  0
M  END