
  SciTegic10121214102D

 43 46  0  0  0  0            999 V2000
   -2.6056   -0.2000    0.0000 C   0  0
   -2.6068   -1.0273    0.0000 C   0  0
   -1.8919   -1.4402    0.0000 C   0  0
   -1.8937    0.2128    0.0000 C   0  0
   -1.1784   -0.1963    0.0000 C   0  0
   -1.1781   -1.0274    0.0000 C   0  0
   -0.3876   -1.2831    0.0000 N   0  0
    0.1007   -0.6115    0.0000 C   0  0
   -0.3881    0.0607    0.0000 C   0  0  1  0  0  0
    0.0219    0.7756    0.0000 C   0  0
    0.8475    0.7753    0.0000 C   0  0
    1.2578    1.4902    0.0000 C   0  0
    0.8431    2.2044    0.0000 C   0  0
    0.0139    2.1993    0.0000 C   0  0
   -0.3927    1.4839    0.0000 C   0  0
   -1.2177    1.4786    0.0000 Cl  0  0
    2.0828    1.4922    0.0000 C   0  0
    2.4970    0.7788    0.0000 N   0  0
    2.4935    2.2077    0.0000 O   0  0
    2.0863    0.0633    0.0000 C   0  0
    3.3220    0.7808    0.0000 C   0  0
    3.7363    0.0674    0.0000 C   0  0
    2.5006   -0.6502    0.0000 C   0  0
    3.3254   -0.6453    0.0000 C   0  0
    3.7390   -1.3582    0.0000 C   0  0
    4.5648   -1.3566    0.0000 C   0  0
    4.9754   -0.6361    0.0000 N   0  0
    4.5595    0.0739    0.0000 C   0  0
    0.9257   -0.6112    0.0000 O   0  0
    0.0245   -1.9978    0.0000 C   0  0
    0.8495   -1.9983    0.0000 C   0  0
    1.2589   -2.7131    0.0000 C   0  0
    2.0831   -2.7140    0.0000 C   0  0
    2.4969   -1.9992    0.0000 C   0  0
    2.0804   -1.2821    0.0000 C   0  0
    1.2575   -1.2848    0.0000 C   0  0
    0.8448   -3.4267    0.0000 O   0  0
    3.3219   -1.9986    0.0000 O   0  0
    0.0198   -3.4249    0.0000 C   0  0
    3.7349   -2.7128    0.0000 C   0  0
   -3.3202    0.2124    0.0000 Cl  0  0
   -0.9792    0.6500    0.0000 C   0  0
    6.2625   -1.9375    0.0000 Cl  0  0
 18 20  1  0
  4  1  1  0
 18 21  1  0
  9 10  1  6
 21 22  1  0
  5  6  1  0
 20 23  1  0
 10 11  2  0
 22 24  2  0
 24 25  1  0
 11 12  1  0
 25 26  2  0
  2  3  1  0
 26 27  1  0
 12 13  2  0
 27 28  2  0
 28 22  1  0
  3  6  2  0
  8 29  2  0
 13 14  1  0
  7 30  1  0
  1  2  2  0
 30 31  1  0
 14 15  2  0
 31 32  2  0
 15 10  1  0
 32 33  1  0
  5  4  2  0
 33 34  2  0
 15 16  1  0
 34 35  1  0
  6  7  1  0
 35 36  2  0
 36 31  1  0
 12 17  1  0
 32 37  1  0
  7  8  1  0
 34 38  1  0
 17 18  1  0
 37 39  1  0
  8  9  1  0
 38 40  1  0
 17 19  2  0
  1 41  1  0
  9  5  1  0
  9 42  1  0
M  END