
          08180812482D 1   1.00000     0.00000     0

 44 48  0     0  0            999 V2000
   12.6650  -17.1926    0.0000 C   0  0  0  0  0  0           0  0  0
   13.3806  -17.6031    0.0000 N   0  0  0  0  0  0           0  0  0
   12.6627  -16.3676    0.0000 O   0  0  0  0  0  0           0  0  0
   14.0939  -17.1886    0.0000 C   0  0  0  0  0  0           0  0  0
   14.8071  -17.6003    0.0000 C   0  0  0  0  0  0           0  0  0
   15.5199  -17.1865    0.0000 C   0  0  0  0  0  0           0  0  0
   15.5181  -16.3607    0.0000 C   0  0  0  0  0  0           0  0  0
   14.7974  -15.9503    0.0000 C   0  0  0  0  0  0           0  0  0
   14.0875  -16.3665    0.0000 C   0  0  0  0  0  0           0  0  0
   16.2353  -17.5974    0.0000 C   0  0  0  0  0  0           0  0  0
   16.3257  -18.4130    0.0000 N   0  0  0  0  0  0           0  0  0
   17.1331  -18.5827    0.0000 C   0  0  0  0  0  0           0  0  0
   17.5440  -17.8673    0.0000 O   0  0  0  0  0  0           0  0  0
   16.9904  -17.2555    0.0000 N   0  0  0  0  0  0           0  0  0
   17.4703  -19.3356    0.0000 O   0  0  0  0  0  0           0  0  0
    7.2010  -15.2205    0.0000 C   0  0  0  0  0  0           0  0  0
    6.7820  -15.9339    0.0000 C   0  0  0  0  0  0           0  0  0
    7.1902  -16.6514    0.0000 C   0  0  0  0  0  0           0  0  0
    8.0239  -15.2241    0.0000 C   0  0  0  0  0  0           0  0  0
    8.0202  -16.6557    0.0000 C   0  0  0  0  0  0           0  0  0
    8.4345  -15.9386    0.0000 C   0  0  0  0  0  0           0  0  0
    9.2586  -15.8118    0.0000 N   0  0  3  0  0  0           0  0  0
    8.3265  -17.4312    0.0000 N   0  0  3  0  0  0           0  0  0
    9.8714  -16.3726    0.0000 C   0  0  0  0  0  0           0  0  0
    9.1236  -17.6743    0.0000 C   0  0  0  0  0  0           0  0  0
    9.8090  -17.2010    0.0000 N   0  0  3  0  0  0           0  0  0
    9.2503  -18.4895    0.0000 O   0  0  0  0  0  0           0  0  0
   10.6384  -16.0687    0.0000 O   0  0  0  0  0  0           0  0  0
    9.4979  -15.0222    0.0000 C   0  0  0  0  0  0           0  0  0
   10.3013  -14.8347    0.0000 C   0  0  0  0  0  0           0  0  0
   10.8654  -15.4366    0.0000 O   0  0  0  0  0  0           0  0  0
   10.5246  -17.6115    0.0000 C   0  0  0  0  0  0           0  0  0
   10.5405  -14.0451    0.0000 C   0  0  3  0  0  0           0  0  0
   10.7564  -13.2418    0.0000 C   0  0  0  0  0  0           0  0  0
   11.3338  -14.2718    0.0000 C   0  0  0  0  0  0           0  0  0
    9.7454  -13.8252    0.0000 C   0  0  0  0  0  0           0  0  0
    7.7698  -18.0405    0.0000 C   0  0  3  0  0  0           0  0  0
    6.9645  -17.8569    0.0000 C   0  0  0  0  0  0           0  0  0
    6.4060  -18.4592    0.0000 C   0  0  0  0  0  0           0  0  0
    6.6473  -19.2485    0.0000 C   0  0  0  0  0  0           0  0  0
    7.4526  -19.4321    0.0000 C   0  0  0  0  0  0           0  0  0
    8.0166  -18.8264    0.0000 C   0  0  0  0  0  0           0  0  0
   11.2380  -17.1971    0.0000 C   0  0  0  0  0  0           0  0  0
   11.9536  -17.6076    0.0000 C   0  0  0  0  0  0           0  0  0
 10 11  2  0     0  0
 21 22  1  0     0  0
  1  3  2  0     0  0
 20 23  1  0     0  0
  5  6  1  0     0  0
 22 24  1  0     0  0
  1  2  1  0     0  0
 23 25  1  0     0  0
  6  7  2  0     0  0
 24 26  1  0     0  0
 25 26  1  0     0  0
 11 12  1  0     0  0
 25 27  2  0     0  0
 12 13  1  0     0  0
 24 28  2  0     0  0
 13 14  1  0     0  0
 22 29  1  0     0  0
 14 10  1  0     0  0
 29 30  1  0     0  0
  2  4  1  0     0  0
 30 31  2  0     0  0
 12 15  2  0     0  0
 26 32  1  0     0  0
  7  8  1  0     0  0
 30 33  1  0     0  0
 33 34  1  0     0  0
 16 17  2  0     0  0
 33 35  1  0     0  0
  8  9  2  0     0  0
 33 36  1  0     0  0
 37 38  1  0     0  0
 17 18  1  0     0  0
 18 20  2  0     0  0
  9  4  1  0     0  0
 21 19  2  0     0  0
 19 16  1  0     0  0
  4  5  2  0     0  0
 37 42  1  0     0  0
 38 39  1  0     0  0
 39 40  1  0     0  0
 40 41  1  0     0  0
 41 42  1  0     0  0
 23 37  1  0     0  0
  6 10  1  0     0  0
 32 43  1  0     0  0
 20 21  1  0     0  0
 43 44  1  0     0  0
 44  1  1  0     0  0
M  END