
  SciTegic12171313052D

 37 41  0  0  0  0            999 V2000
   36.2925   -4.5437    0.0000 C   0  0
   37.0050   -4.9562    0.0000 C   0  0
   37.7145   -4.5477    0.0000 C   0  0
   37.7178   -3.7250    0.0000 N   0  0
   37.0053   -3.3125    0.0000 C   0  0
   36.2895   -3.7227    0.0000 C   0  0
   38.4333   -3.3144    0.0000 C   0  0
   39.1467   -3.7287    0.0000 C   0  0
   39.1426   -4.5528    0.0000 C   0  0
   39.8519   -4.9671    0.0000 C   0  0
   40.5698   -4.5599    0.0000 N   0  0
   40.5739   -3.7340    0.0000 C   0  0
   39.8601   -3.3152    0.0000 C   0  0
   35.6114   -5.0092    0.0000 N   0  0
   34.7986   -6.0681    0.0000 N   0  0
   35.5901   -5.8357    0.0000 C   0  0
   34.3330   -5.3869    0.0000 C   0  0
   34.8378   -4.7346    0.0000 C   0  0
   34.5250   -3.9734    0.0000 C   0  0
   33.7078   -3.8634    0.0000 C   0  0
   33.2043   -4.5207    0.0000 C   0  0
   33.5198   -5.2792    0.0000 C   0  0
   41.2816   -4.9770    0.0000 C   0  0
   41.9987   -4.5690    0.0000 C   0  0
   42.7088   -4.9906    0.0000 C   0  0
   43.4254   -4.5834    0.0000 C   0  0
   43.4311   -3.7575    0.0000 N   0  0
   42.7142   -3.3406    0.0000 C   0  0
   42.0005   -3.7502    0.0000 C   0  0
   36.2442   -6.3386    0.0000 O   0  0
   38.4355   -2.4894    0.0000 O   0  0
   44.1370   -5.0007    0.0000 N   0  0
   34.5212   -6.8451    0.0000 C   0  0
   33.7097   -6.9934    0.0000 C   0  0
   33.4323   -7.7704    0.0000 C   0  0
   33.1754   -6.3647    0.0000 C   0  0
   32.3862   -4.4139    0.0000 F   0  0
  1  2  1  0
  1  6  1  0
  2  3  1  0
  3  4  1  0
  4  5  1  0
  5  6  1  0
  4  7  1  0
  7  8  1  0
  8  9  1  0
  8 13  1  0
  9 10  1  0
 10 11  1  0
 11 12  1  0
 12 13  1  0
  1 14  1  0
 14 18  1  0
 17 15  1  0
 15 16  1  0
 16 14  1  0
 17 18  2  0
 18 19  1  0
 19 20  2  0
 20 21  1  0
 21 22  2  0
 22 17  1  0
 11 23  1  0
 23 24  1  0
 24 25  2  0
 25 26  1  0
 26 27  2  0
 27 28  1  0
 28 29  2  0
 29 24  1  0
 16 30  2  0
  7 31  2  0
 26 32  1  0
 15 33  1  0
 33 34  1  0
 34 35  1  0
 34 36  1  0
 21 37  1  0
M  END