
  SciTegic02131210002D

 19 21  0  0  0  0            999 V2000
   19.2973   -2.9752    0.0000 C   0  0  1  0  0  0
   19.2973   -3.8003    0.0000 C   0  0
   20.0094   -4.2086    0.0000 O   0  0
   20.0094   -2.5585    0.0000 O   0  0
   20.7215   -2.9752    0.0000 C   0  0
   20.7199   -3.7985    0.0000 C   0  0
   21.4308   -4.2097    0.0000 C   0  0
   22.1440   -3.7988    0.0000 C   0  0
   22.1416   -2.9724    0.0000 C   0  0
   21.4299   -2.5649    0.0000 C   0  0
   18.5832   -2.5614    0.0000 C   0  0  2  0  0  0
   18.5778   -1.7363    0.0000 C   0  0
   17.7916   -1.4865    0.0000 C   0  0
   17.3109   -2.1572    0.0000 C   0  0
   17.8003   -2.8214    0.0000 N   0  0
   17.5504   -3.6077    0.0000 C   0  0
   22.8547   -2.5576    0.0000 Br  0  0
   18.7097   -3.5586    0.0000 H   0  0
   19.1640   -1.9709    0.0000 H   0  0
  5  4  1  0
  9 10  2  0
 10  5  1  0
 11 12  1  0
  1  2  1  0
  5  6  2  0
  1  4  1  0
  6  7  1  0
 12 13  1  0
 13 14  1  0
 14 15  1  0
 15 11  1  0
  1 11  1  0
  2  3  1  0
 15 16  1  0
  7  8  2  0
  9 17  1  0
  3  6  1  0
  1 18  1  1
  8  9  1  0
 11 19  1  6
M  END