
  SciTegic09261414462D

 17 18  0  0  0  0            999 V2000
    3.3019   -7.6256    0.0000 N   0  0
    3.2868   -8.4516    0.0000 C   0  0
    2.5645   -8.8527    0.0000 N   0  0
    2.5514   -9.6752    0.0000 C   0  0
    3.2586  -10.1001    0.0000 C   0  0
    3.9787   -9.7025    0.0000 C   0  0
    3.9938   -8.8766    0.0000 N   0  0
    4.6859  -10.1274    0.0000 N   0  0
    4.7550  -10.9453    0.0000 C   0  0
    5.5614  -11.1348    0.0000 C   0  0  1  0  0  0
    5.9863  -10.4277    0.0000 C   0  0
    5.4426   -9.8011    0.0000 C   0  0
    5.8821  -11.8931    0.0000 N   0  0
    6.7026  -11.9922    0.0000 C   0  0
    1.8292  -10.0764    0.0000 C   0  0
    1.1218   -9.6521    0.0000 C   0  0
    1.8155  -10.9012    0.0000 C   0  0
  2  3  1  0
  3  4  2  0
  4  5  1  0
  5  6  2  0
  6  7  1  0
  2  7  2  0
  1  2  1  0
  8  9  1  0
  9 10  1  0
 10 11  1  0
 11 12  1  0
  8 12  1  0
 13 14  1  0
 10 13  1  1
  6  8  1  0
  4 15  1  0
 15 16  1  0
 15 17  1  0
M  END