
  SciTegic02011310452D

 39 42  0  0  0  0            999 V2000
   11.9139  -24.4249    0.0000 C   0  0
   11.9127  -25.2486    0.0000 C   0  0
   13.3359  -24.4213    0.0000 C   0  0
   12.6231  -24.0119    0.0000 C   0  0
   13.3387  -25.2481    0.0000 C   0  0
   12.6254  -25.6524    0.0000 C   0  0
   12.6210  -26.4684    0.0000 N   0  0
   13.3241  -26.8862    0.0000 C   0  0
   14.0374  -26.4777    0.0000 C   0  0
   14.0435  -25.6556    0.0000 O   0  0
   13.3185  -27.7075    0.0000 O   0  0
   11.2018  -25.6586    0.0000 O   0  0
   14.0420  -24.0059    0.0000 C   0  0
   14.7554  -24.4160    0.0000 C   0  0
   15.4657  -24.0006    0.0000 N   0  0
   16.1791  -24.4106    0.0000 C   0  0
   16.8894  -23.9952    0.0000 C   0  0
   17.6027  -24.4053    0.0000 N   0  0
   18.3130  -23.9899    0.0000 C   0  0
   17.6058  -25.2266    0.0000 C   0  0
   19.0223  -24.4000    0.0000 C   0  0
   18.3099  -23.1686    0.0000 O   0  0
   19.7326  -23.9846    0.0000 C   0  0
   20.4459  -24.3946    0.0000 N   0  0
   21.1562  -23.9792    0.0000 C   0  0
   21.8696  -24.3893    0.0000 C   0  0
   22.5799  -23.9739    0.0000 C   0  0
   23.2903  -24.3853    0.0000 C   0  0
   24.0001  -23.9705    0.0000 C   0  0
   23.9975  -23.1484    0.0000 C   0  0
   23.2792  -22.7426    0.0000 C   0  0
   22.5723  -23.1555    0.0000 C   0  0
   16.8929  -25.6331    0.0000 C   0  0
   16.8940  -26.4508    0.0000 C   0  0
   17.6056  -26.8647    0.0000 C   0  0
   18.3177  -26.4506    0.0000 C   0  0
   18.3182  -25.6266    0.0000 C   0  0
   24.7092  -24.3809    0.0000 Cl  0  0
   24.7031  -22.7362    0.0000 Cl  0  0
  1  2  2  0
  2  6  1  0
  5  3  1  0
  3  4  2  0
  4  1  1  0
  5  6  2  0
  5 10  1  0
  6  7  1  0
  7  8  1  0
  8  9  1  0
  9 10  1  0
  8 11  2  0
  2 12  1  0
  3 13  1  0
 13 14  1  0
 14 15  1  0
 15 16  1  0
 16 17  1  0
 17 18  1  0
 18 19  1  0
 18 20  1  0
 19 21  1  0
 19 22  2  0
 21 23  1  0
 23 24  1  0
 24 25  1  0
 25 26  1  0
 26 27  1  0
 27 28  2  0
 28 29  1  0
 29 30  2  0
 30 31  1  0
 31 32  2  0
 32 27  1  0
 20 33  1  0
 20 37  1  0
 33 34  1  0
 34 35  1  0
 35 36  1  0
 36 37  1  0
 29 38  1  0
 30 39  1  0
M  END