
  SciTegic02101212592D

 27 29  0  0  0  0            999 V2000
    0.2155   -0.6124    0.0000 S   0  0
   -0.4990    2.2751    0.0000 S   0  0
   -0.1970    0.1021    0.0000 O   0  0
    0.6280   -1.3269    0.0000 O   0  0
    0.9299    3.1001    0.0000 O   0  0
   -1.2135    4.3376    0.0000 O   0  0
   -1.9279    3.1001    0.0000 O   0  0
    0.9299   -0.1999    0.0000 N   0  0
    1.6444    1.0376    0.0000 C   0  0
    0.9299    0.6251    0.0000 C   0  0
    1.6444    1.8626    0.0000 C   0  0
    0.9299    2.2751    0.0000 C   0  0
    0.2155    1.8626    0.0000 C   0  0
    0.2155    1.0376    0.0000 C   0  0
   -0.4990   -1.0249    0.0000 C   0  0
    2.3589    0.6251    0.0000 C   0  0
    2.3589    2.2751    0.0000 C   0  0
   -0.4990   -1.8499    0.0000 C   0  0
   -1.2135   -0.6124    0.0000 C   0  0
    3.0734    1.0376    0.0000 C   0  0
    3.0734    1.8626    0.0000 C   0  0
   -1.2135   -2.2624    0.0000 C   0  0
   -1.9279   -1.0249    0.0000 C   0  0
   -1.9279   -1.8499    0.0000 C   0  0
   -0.4990    3.1001    0.0000 C   0  0
   -1.2135    3.5126    0.0000 C   0  0
   -2.6424   -2.2624    0.0000 C   0  0
  1  3  2  0
  1  4  2  0
  1  8  1  0
  1 15  1  0
  2 13  1  0
  2 25  1  0
  5 12  1  0
  6 26  2  0
  7 26  1  0
  8 10  1  0
  9 10  2  0
  9 11  1  0
  9 16  1  0
 10 14  1  0
 11 12  2  0
 11 17  1  0
 12 13  1  0
 13 14  2  0
 15 18  2  0
 15 19  1  0
 16 20  2  0
 17 21  2  0
 18 22  1  0
 19 23  2  0
 20 21  1  0
 22 24  2  0
 23 24  1  0
 24 27  1  0
 25 26  1  0
M  END