
          11280715152D 1   1.00000     0.00000     0

 21 23  0     0  0            999 V2000
    1.8875   -0.5667    0.0000 N   0  0  3  0  0  0           0  0  0
    1.0625   -0.6167    0.0000 C   0  0  0  0  0  0           0  0  0
    1.5417   -1.8625    0.0000 C   0  0  3  0  0  0           0  0  0
    2.1792   -1.3417    0.0000 C   0  0  0  0  0  0           0  0  0
    0.8500   -1.4125    0.0000 C   0  0  0  0  0  0           0  0  0
    3.1542    0.0833    0.0000 C   0  0  0  0  0  0           0  0  0
    3.9792    0.0458    0.0000 C   0  0  0  0  0  0           0  0  0
    5.2500    0.6958    0.0000 N   0  0  3  0  0  0           0  0  0
    0.5375    0.0208    0.0000 O   0  0  0  0  0  0           0  0  0
    1.5875   -2.6875    0.0000 C   0  0  0  0  0  0           0  0  0
    2.3292    0.1208    0.0000 C   0  0  0  0  0  0           0  0  0
    4.8042    0.0000    0.0000 C   0  0  0  0  0  0           0  0  0
    4.9500    1.4583    0.0000 C   0  0  0  0  0  0           0  0  0
    6.0750    0.7333    0.0000 C   0  0  0  0  0  0           0  0  0
    0.8917   -3.1292    0.0000 C   0  0  0  0  0  0           0  0  0
    2.3167   -3.0542    0.0000 C   0  0  0  0  0  0           0  0  0
    6.2875    1.5333    0.0000 C   0  0  0  0  0  0           0  0  0
    5.5917    1.9833    0.0000 C   0  0  0  0  0  0           0  0  0
    2.3667   -3.8750    0.0000 C   0  0  0  0  0  0           0  0  0
    0.9375   -3.9542    0.0000 C   0  0  0  0  0  0           0  0  0
    1.6750   -4.3292    0.0000 C   0  0  0  0  0  0           0  0  0
  2  1  1  0     0  0
  3  4  1  0     0  0
  4  1  1  0     0  0
  5  2  1  0     0  0
  6 11  1  0     0  0
  7  6  3  0     0  0
  8 12  1  0     0  0
  9  2  2  0     0  0
 10  3  1  0     0  0
 11  1  1  0     0  0
 12  7  1  0     0  0
 13  8  1  0     0  0
 14  8  1  0     0  0
 15 10  2  0     0  0
 16 10  1  0     0  0
 17 14  1  0     0  0
 18 13  1  0     0  0
 19 16  2  0     0  0
 20 15  1  0     0  0
 21 19  1  0     0  0
  5  3  1  0     0  0
 20 21  2  0     0  0
 17 18  1  0     0  0
M  END