
          11280715122D 1   1.00000     0.00000     0

 15 16  0     1  0            999 V2000
    3.9375   -6.9250    0.0000 C   0  0  0  0  0  0           0  0  0
    4.4875   -6.3042    0.0000 N   0  0  3  0  0  0           0  0  0
    1.5542   -8.2917    0.0000 C   0  0  0  0  0  0           0  0  0
    2.2167   -8.7792    0.0000 S   0  0  0  0  0  0           0  0  0
    5.1542   -7.4625    0.0000 N   0  0  0  0  0  0           0  0  0
    2.6292   -7.5042    0.0000 C   0  0  2  0  0  0           0  0  0
    3.1167   -6.8375    0.0000 C   0  0  0  0  0  0           0  0  0
    5.2417   -6.6417    0.0000 C   0  0  0  0  0  0           0  0  0
    1.8042   -7.5042    0.0000 C   0  0  1  0  0  0           0  0  0
    4.3500   -7.6375    0.0000 C   0  0  0  0  0  0           0  0  0
    2.8875   -8.2917    0.0000 C   0  0  0  0  0  0           0  0  0
    0.7667   -8.5417    0.0000 O   0  0  0  0  0  0           0  0  0
    4.3167   -5.5042    0.0000 C   0  0  0  0  0  0           0  0  0
    1.3167   -6.8375    0.0000 C   0  0  0  0  0  0           0  0  0
    0.5000   -6.9250    0.0000 C   0  0  0  0  0  0           0  0  0
  2  1  1  0     0  0
  3  9  1  0     0  0
  4 11  1  0     0  0
  5 10  1  0     0  0
  6  7  1  1     0  0
  7  1  1  0     0  0
  8  2  1  0     0  0
  9  6  1  0     0  0
 10  1  2  0     0  0
 11  6  1  0     0  0
 12  3  2  0     0  0
 13  2  1  0     0  0
  9 14  1  6     0  0
 15 14  1  0     0  0
  8  5  2  0     0  0
  3  4  1  0     0  0
M  END