
  SciTegic01161211252D

 29 31  0  0  0  0            999 V2000
   -3.6696   -0.0831    0.0000 C   0  0
   -4.0823   -0.8002    0.0000 C   0  0
   -3.6677   -1.5140    0.0000 C   0  0
   -2.8467   -0.0793    0.0000 C   0  0
   -2.4298   -0.7901    0.0000 C   0  0
   -2.8430   -1.5111    0.0000 C   0  0
   -2.2851   -2.1270    0.0000 N   0  0
   -1.5269   -1.7867    0.0000 C   0  0
   -1.6164   -0.9605    0.0000 C   0  0
   -0.8132   -2.1940    0.0000 C   0  0
   -0.8120   -3.0202    0.0000 C   0  0
   -0.0970   -3.4303    0.0000 C   0  0
    0.6171   -3.0155    0.0000 C   0  0
    0.6119   -2.1863    0.0000 C   0  0
   -0.1036   -1.7798    0.0000 C   0  0
   -1.2083   -0.2417    0.0000 C   0  0
   -1.6260    0.4698    0.0000 O   0  0
   -0.3834   -0.2357    0.0000 C   0  0
    0.0343   -0.9471    0.0000 O   0  0
    0.0239    0.4818    0.0000 N   0  0
    0.8489    0.4878    0.0000 C   0  0
    1.2562    1.2053    0.0000 C   0  0
    2.0812    1.2113    0.0000 C   0  0
   -0.3938    1.1932    0.0000 C   0  0
    0.0135    1.9107    0.0000 C   0  0
   -0.4042    2.6195    0.0000 C   0  0
   -4.0843    0.6301    0.0000 N   0  0
   -3.6739    1.3458    0.0000 C   0  0
   -3.2667    2.0625    0.0000 S   0  0
  1  2  2  0
 14 15  2  0
 15 10  1  0
  8 10  1  0
  5  4  2  0
  9 16  1  0
  6  7  1  0
 16 17  2  0
  7  8  1  0
 16 18  1  0
  8  9  2  0
 18 19  2  0
  9  5  1  0
 18 20  1  0
  4  1  1  0
 20 21  1  0
  5  6  1  0
 21 22  1  0
 10 11  2  0
 22 23  1  0
 20 24  1  0
 11 12  1  0
 24 25  1  0
  2  3  1  0
 25 26  1  0
 12 13  2  0
  1 27  1  0
  3  6  2  0
 27 28  2  0
 13 14  1  0
 28 29  2  0
M  END