
  Mrv0541 05211314572D          

 36 39  0  0  0  0            999 V2000
   -0.2864   -0.4718    0.0000 C   0  0  0  0  0  0  0  0  0  0  0  0
    0.4281   -0.0593    0.0000 C   0  0  0  0  0  0  0  0  0  0  0  0
    1.1426   -0.4718    0.0000 C   0  0  0  0  0  0  0  0  0  0  0  0
    1.8570   -0.0593    0.0000 N   0  0  0  0  0  0  0  0  0  0  0  0
    1.1426   -1.2968    0.0000 O   0  0  0  0  0  0  0  0  0  0  0  0
    2.5715   -0.4718    0.0000 C   0  0  0  0  0  0  0  0  0  0  0  0
    3.2860   -0.0593    0.0000 C   0  0  0  0  0  0  0  0  0  0  0  0
    3.2860    0.7657    0.0000 N   0  0  0  0  0  0  0  0  0  0  0  0
    2.5715    1.1782    0.0000 C   0  0  0  0  0  0  0  0  0  0  0  0
    1.8570    0.7657    0.0000 C   0  0  0  0  0  0  0  0  0  0  0  0
    4.0004    1.1782    0.0000 C   0  0  0  0  0  0  0  0  0  0  0  0
   -1.0008   -0.0593    0.0000 N   0  0  0  0  0  0  0  0  0  0  0  0
   -1.0008    0.7657    0.0000 C   0  0  0  0  0  0  0  0  0  0  0  0
   -1.7153   -0.4718    0.0000 C   0  0  0  0  0  0  0  0  0  0  0  0
   -2.4298   -0.0593    0.0000 C   0  0  0  0  0  0  0  0  0  0  0  0
   -3.1443   -0.4718    0.0000 C   0  0  0  0  0  0  0  0  0  0  0  0
   -4.0375   -1.4638    0.0000 C   0  0  0  0  0  0  0  0  0  0  0  0
   -3.2305   -1.2922    0.0000 C   0  0  0  0  0  0  0  0  0  0  0  0
   -2.6785   -1.9053    0.0000 C   0  0  0  0  0  0  0  0  0  0  0  0
   -2.9334   -2.6900    0.0000 C   0  0  0  0  0  0  0  0  0  0  0  0
   -3.7404   -2.8615    0.0000 C   0  0  0  0  0  0  0  0  0  0  0  0
   -4.2924   -2.2484    0.0000 C   0  0  0  0  0  0  0  0  0  0  0  0
   -3.8979   -0.1362    0.0000 C   0  0  0  0  0  0  0  0  0  0  0  0
   -4.4500   -0.7493    0.0000 C   0  0  0  0  0  0  0  0  0  0  0  0
   -5.2569   -0.5778    0.0000 C   0  0  0  0  0  0  0  0  0  0  0  0
   -5.5119    0.2068    0.0000 C   0  0  0  0  0  0  0  0  0  0  0  0
   -4.9598    0.8199    0.0000 C   0  0  0  0  0  0  0  0  0  0  0  0
   -4.1529    0.6484    0.0000 C   0  0  0  0  0  0  0  0  0  0  0  0
    4.0004    2.0032    0.0000 C   0  0  0  0  0  0  0  0  0  0  0  0
    4.7149    2.4157    0.0000 C   0  0  0  0  0  0  0  0  0  0  0  0
    5.4294    2.0032    0.0000 C   0  0  0  0  0  0  0  0  0  0  0  0
    5.4294    1.1782    0.0000 N   0  0  0  0  0  0  0  0  0  0  0  0
    4.7149    0.7657    0.0000 N   0  0  0  0  0  0  0  0  0  0  0  0
    6.1439    2.4157    0.0000 O   0  0  0  0  0  0  0  0  0  0  0  0
    6.1439    0.7657    0.0000 C   0  0  0  0  0  0  0  0  0  0  0  0
    8.3831    0.0000    0.0000 Cl  0  0  0  0  0  0  0  0  0  0  0  0
 23 16  1  0  0  0  0
 17 18  2  0  0  0  0
  4 10  1  0  0  0  0
  6  7  1  0  0  0  0
  7  8  1  0  0  0  0
  8  9  1  0  0  0  0
  9 10  1  0  0  0  0
  4  6  1  0  0  0  0
 17 22  1  0  0  0  0
 18 19  1  0  0  0  0
 19 20  2  0  0  0  0
 20 21  1  0  0  0  0
 21 22  2  0  0  0  0
 23 24  2  0  0  0  0
  8 11  1  0  0  0  0
  2  3  1  0  0  0  0
  1 12  1  0  0  0  0
  1  2  1  0  0  0  0
 12 13  1  0  0  0  0
  3  4  1  0  0  0  0
 23 28  1  0  0  0  0
 24 25  1  0  0  0  0
 25 26  2  0  0  0  0
 26 27  1  0  0  0  0
 27 28  2  0  0  0  0
 11 29  1  0  0  0  0
 12 14  1  0  0  0  0
 14 15  1  0  0  0  0
  3  5  2  0  0  0  0
 15 16  1  0  0  0  0
 11 33  2  0  0  0  0
 29 30  2  0  0  0  0
 30 31  1  0  0  0  0
 31 32  1  0  0  0  0
 32 33  1  0  0  0  0
 16 18  1  0  0  0  0
 31 34  2  0  0  0  0
 17 24  1  0  0  0  0
 32 35  1  0  0  0  0
M  END