
  SciTegic10311316212D

 25 28  0  0  0  0            999 V2000
   18.4060   -0.5530    0.0000 C   0  0
   18.4049   -1.3725    0.0000 C   0  0
   19.1129   -1.7815    0.0000 C   0  0
   19.1111   -0.1441    0.0000 C   0  0
   19.8198   -0.5494    0.0000 C   0  0
   19.8200   -1.3680    0.0000 C   0  0
   20.5987   -1.6208    0.0000 S   0  0
   21.0797   -0.9583    0.0000 C   0  0
   20.5982   -0.2963    0.0000 C   0  0
   17.7014   -1.7797    0.0000 N   0  0
   16.9551   -1.4468    0.0000 C   0  0
   16.4078   -2.0536    0.0000 N   0  0
   16.8159   -2.7617    0.0000 N   0  0
   17.6153   -2.5923    0.0000 C   0  0
   18.2209   -3.1363    0.0000 C   0  0
   18.0489   -3.9363    0.0000 C   0  0
   18.6550   -4.4833    0.0000 C   0  0
   19.4334   -4.2315    0.0000 C   0  0
   19.6022   -3.4276    0.0000 C   0  0
   18.9947   -2.8841    0.0000 C   0  0
   16.7858   -0.6473    0.0000 S   0  0
   21.8948   -0.9559    0.0000 C   0  0
   22.3037   -1.6635    0.0000 O   0  0
   22.3032   -0.2480    0.0000 O   0  0
   20.8505    0.4847    0.0000 Cl  0  0
  1  2  2  0
  2  3  1  0
  3  6  2  0
  5  4  2  0
  4  1  1  0
  5  6  1  0
  6  7  1  0
  7  8  1  0
  8  9  2  0
  9  5  1  0
 10 11  1  0
 11 12  2  0
 12 13  1  0
 13 14  2  0
 14 10  1  0
  2 10  1  0
 15 16  2  0
 16 17  1  0
 17 18  2  0
 18 19  1  0
 19 20  2  0
 20 15  1  0
 14 15  1  0
 11 21  1  0
 22 23  1  0
 22 24  2  0
  8 22  1  0
  9 25  1  0
M  END