
  SciTegic06051315212D

 34 39  0  0  0  0            999 V2000
    3.4322  -10.1416    0.0000 C   0  0
    4.8390   -6.8757    0.0000 C   0  0
    4.1443  -10.5479    0.0000 C   0  0
    7.3316   -6.0977    0.0000 C   0  0
    4.8388   -7.6930    0.0000 N   0  0
    4.8373   -5.2379    0.0000 C   0  0
    5.5478   -6.4661    0.0000 C   0  0
    4.6888   -2.7478    0.0000 C   0  0
    4.1320   -8.1015    0.0000 C   0  0  2  0  0  0
    5.4427   -3.9456    0.0000 C   0  0
    2.7184   -8.0973    0.0000 C   0  0
    3.4294   -9.3243    0.0000 N   0  0
    4.5556  -11.2513    0.0000 C   0  0
    3.4247   -7.6896    0.0000 C   0  0
    6.1648   -4.3227    0.0000 C   0  0
    7.4371   -4.6875    0.0000 C   0  0
    2.7268  -10.5526    0.0000 O   0  0
    6.9771   -5.3652    0.0000 C   0  0
    4.7520   -4.3811    0.0000 C   0  0
    6.9328   -4.0439    0.0000 N   0  0
    4.9620  -10.5432    0.0000 C   0  0
    4.1369   -8.9141    0.0000 C   0  0
    6.1926   -5.1406    0.0000 N   0  0
    5.4119   -3.1276    0.0000 C   0  0
    2.7178   -8.9156    0.0000 C   0  0
    8.2472   -4.7454    0.0000 C   0  0
    3.9952   -3.1835    0.0000 C   0  0
    8.6041   -5.4752    0.0000 C   0  0
    4.0302   -4.0044    0.0000 C   0  0
    5.5449   -5.6433    0.0000 C   0  0
    4.1320   -6.4666    0.0000 N   0  0
    4.1331   -5.6469    0.0000 C   0  0
    8.1458   -6.1578    0.0000 C   0  0
    4.6572   -1.9312    0.0000 O   0  0
  3 21  1  0
 25 12  1  0
 16 18  2  0
 12  1  1  0
 11 25  1  0
  4 33  2  0
  1  3  1  0
 15 10  1  0
 20 15  2  0
  6 32  1  0
  2  5  1  0
 14 11  1  0
 15 23  1  0
 28 26  2  0
 33 28  1  0
 22  9  1  0
  2  7  2  0
 32 31  2  0
  7 30  1  0
 21 13  1  0
 29 19  2  0
 31  2  1  0
  1 17  2  0
 10 24  2  0
 19 10  1  0
 26 16  1  0
 16 20  1  0
 27 29  1  0
 30  6  2  0
  9  5  1  1
 27  8  2  0
 18  4  1  0
 12 22  1  0
 23 18  1  0
  9 14  1  0
 13  3  1  0
 30 23  1  0
 24  8  1  0
  8 34  1  0
M  END