
  SciTegic10011413212D

 26 30  0  0  0  0            999 V2000
   10.1110   -1.8561    0.0000 C   0  0
    9.2840   -1.8328    0.0000 C   0  0
    8.8521   -2.5362    0.0000 C   0  0
   10.5045   -2.5787    0.0000 C   0  0
   10.0764   -3.2829    0.0000 C   0  0
    9.2499   -3.2615    0.0000 C   0  0
    8.8198   -3.9655    0.0000 C   0  0
    9.2152   -4.6914    0.0000 C   0  0
   10.0451   -4.7088    0.0000 C   0  0
   10.4713   -4.0042    0.0000 C   0  0
   11.2961   -4.0219    0.0000 C   0  0
   11.6931   -4.7451    0.0000 N   0  0
   11.7238   -3.3165    0.0000 C   0  0
   12.5179   -4.7628    0.0000 C   0  0
   12.9118   -5.4897    0.0000 C   0  0
   12.0257   -2.0174    0.0000 N   0  0
   11.4009   -2.5562    0.0000 C   0  0
   12.8923   -6.3118    0.0000 C   0  0
   13.6192   -5.9179    0.0000 C   0  0
   12.7311   -2.4453    0.0000 C   0  0
   12.5389   -3.2472    0.0000 C   0  0
   13.1366   -3.8127    0.0000 C   0  0
   13.9268   -3.5774    0.0000 C   0  0
   14.1159   -2.7713    0.0000 C   0  0
   13.5166   -2.2094    0.0000 C   0  0
   14.9055   -2.5327    0.0000 Cl  0  0
  1  2  2  0
  2  3  1  0
  3  6  2  0
  5  4  2  0
  4  1  1  0
  5  6  1  0
  6  7  1  0
  7  8  2  0
  8  9  1  0
  9 10  2  0
 10  5  1  0
 10 11  1  0
 11 12  1  0
 11 13  1  0
 12 14  1  0
 14 15  1  0
 13 21  1  0
 20 16  1  0
 16 17  1  0
 17 13  2  0
 18 15  1  0
 19 18  1  0
 15 19  1  0
 20 21  2  0
 21 22  1  0
 22 23  2  0
 23 24  1  0
 24 25  2  0
 25 20  1  0
 24 26  1  0
M  END