
  SciTegic02271514552D

 37 41  0  0  0  0            999 V2000
    4.1427   -6.2927    0.0000 N   0  0
    4.8504   -5.8841    0.0000 C   0  0
    4.8504   -5.0669    0.0000 C   0  0
    4.1427   -4.6584    0.0000 N   0  0
    3.4350   -5.0669    0.0000 C   0  0
    2.7273   -4.6584    0.0000 C   0  0
    2.0196   -5.0669    0.0000 C   0  0
    2.0196   -5.8841    0.0000 C   0  0
    2.7273   -6.2927    0.0000 C   0  0
    3.4350   -5.8841    0.0000 C   0  0
    5.6276   -6.1367    0.0000 N   0  0
    5.6276   -4.8144    0.0000 C   0  0
    6.1080   -5.4755    0.0000 C   0  0
    5.8801   -4.0372    0.0000 C   0  0
    5.3333   -3.4299    0.0000 O   0  0
    6.6695   -3.8257    0.0000 N   0  0
    5.8801   -6.9139    0.0000 C   0  0
    5.3333   -7.5212    0.0000 C   0  0
    5.5859   -8.2983    0.0000 C   0  0
    6.3852   -8.4683    0.0000 C   0  0
    6.9320   -7.8610    0.0000 C   0  0
    6.6795   -7.0838    0.0000 C   0  0
    6.9251   -5.4755    0.0000 N   0  0
    6.6377   -9.2454    0.0000 N   0  0
    6.0909   -9.8527    0.0000 C   0  0
    6.3434  -10.6299    0.0000 N   0  0
    5.2916   -9.6828    0.0000 O   0  0
    5.7966  -11.2372    0.0000 C   0  0
    5.0001  -11.0631    0.0000 C   0  0
    4.4535  -11.6695    0.0000 C   0  0
    4.7059  -12.4477    0.0000 C   0  0
    5.5099  -12.6159    0.0000 C   0  0
    6.0530  -12.0081    0.0000 C   0  0
    3.6543  -11.4993    0.0000 C   0  0
    3.4021  -10.7219    0.0000 F   0  0
    3.1072  -12.1063    0.0000 F   0  0
    2.8602  -11.2838    0.0000 F   0  0
  1  2  2  0
  2  3  1  0
  3  4  2  0
  4  5  1  0
  5  6  2  0
  6  7  1  0
  7  8  2  0
  8  9  1  0
  9 10  2  0
  1 10  1  0
  5 10  1  0
 12 13  2  0
 11 13  1  0
  2 11  1  0
  3 12  1  0
 14 15  2  0
 14 16  1  0
 12 14  1  0
 17 18  1  0
 18 19  2  0
 19 20  1  0
 20 21  2  0
 21 22  1  0
 17 22  2  0
 11 17  1  0
 13 23  1  0
 20 24  1  0
 24 25  1  0
 25 26  1  0
 25 27  2  0
 26 28  1  0
 28 29  2  0
 29 30  1  0
 30 31  2  0
 31 32  1  0
 32 33  2  0
 33 28  1  0
 30 34  1  0
 34 35  1  0
 34 36  1  0
 34 37  1  0
M  END