
          11280714542D 1   1.00000     0.00000     0

 15 17  0     0  0            999 V2000
    1.5792   -4.1292    0.0000 N   0  0  0  0  0  0           0  0  0
    2.9667   -4.2042    0.0000 C   0  0  0  0  0  0           0  0  0
    2.3000   -3.7167    0.0000 C   0  0  3  0  0  0           0  0  0
    3.7500   -3.9292    0.0000 N   0  0  0  0  0  0           0  0  0
    0.8625   -3.7292    0.0000 C   0  0  0  0  0  0           0  0  0
    2.9792   -5.0250    0.0000 N   0  0  0  0  0  0           0  0  0
    0.8542   -2.9000    0.0000 C   0  0  0  0  0  0           0  0  0
    2.2917   -2.8875    0.0000 C   0  0  0  0  0  0           0  0  0
    1.5667   -2.4750    0.0000 C   0  0  0  0  0  0           0  0  0
    4.2417   -4.5917    0.0000 C   0  0  0  0  0  0           0  0  0
    3.7667   -5.2667    0.0000 C   0  0  0  0  0  0           0  0  0
    0.1417   -4.1417    0.0000 C   0  0  0  0  0  0           0  0  0
    0.1417   -2.4875    0.0000 C   0  0  0  0  0  0           0  0  0
   -0.5708   -3.7292    0.0000 C   0  0  0  0  0  0           0  0  0
   -0.5708   -2.9000    0.0000 C   0  0  0  0  0  0           0  0  0
  2  3  1  0     0  0
  3  1  1  0     0  0
  4  2  2  0     0  0
  5  1  1  0     0  0
  6  2  1  0     0  0
  7  5  1  0     0  0
  8  3  1  0     0  0
  9  7  1  0     0  0
 10  4  1  0     0  0
 11  6  1  0     0  0
 12  5  2  0     0  0
 13  7  2  0     0  0
 14 12  1  0     0  0
 15 14  2  0     0  0
  8  9  1  0     0  0
 13 15  1  0     0  0
 11 10  1  0     0  0
M  END