
          11280715042D 1   1.00000     0.00000     0

 23 24  0     0  0            999 V2000
    0.4792   -2.0417    0.0000 S   0  0  3  0  0  0           0  0  0
    4.9917   -4.6042    0.0000 N   0  3  0  0  0  0           0  0  0
    2.8750   -2.0250    0.0000 C   0  0  0  0  0  0           0  0  0
    1.0792   -2.0375    0.0000 C   0  0  0  0  0  0           0  0  0
    4.6875   -4.0875    0.0000 C   0  0  0  0  0  0           0  0  0
    3.1792   -2.5417    0.0000 N   0  0  0  0  0  0           0  0  0
    0.4792   -2.6375    0.0000 O   0  0  0  0  0  0           0  0  0
    0.4792   -1.4375    0.0000 O   0  0  0  0  0  0           0  0  0
    4.7000   -5.1250    0.0000 O   0  5  0  0  0  0           0  0  0
    5.5917   -4.5917    0.0000 O   0  0  0  0  0  0           0  0  0
    2.2750   -2.0292    0.0000 C   0  0  0  0  0  0           0  0  0
   -0.1208   -2.0292    0.0000 N   0  0  0  0  0  0           0  0  0
    3.1667   -1.5000    0.0000 O   0  0  0  0  0  0           0  0  0
    1.3750   -1.5167    0.0000 C   0  0  0  0  0  0           0  0  0
    1.3792   -2.5542    0.0000 C   0  0  0  0  0  0           0  0  0
    1.9792   -2.5500    0.0000 C   0  0  0  0  0  0           0  0  0
    1.9667   -1.5125    0.0000 C   0  0  0  0  0  0           0  0  0
    4.9792   -3.5542    0.0000 C   0  0  0  0  0  0           0  0  0
    4.0875   -4.0917    0.0000 C   0  0  0  0  0  0           0  0  0
    3.7792   -2.5375    0.0000 C   0  0  0  0  0  0           0  0  0
    4.0792   -3.0542    0.0000 C   0  0  0  0  0  0           0  0  0
    4.6792   -3.0417    0.0000 C   0  0  0  0  0  0           0  0  0
    3.7792   -3.5750    0.0000 C   0  0  0  0  0  0           0  0  0
  2  5  1  0     0  0
  3 11  1  0     0  0
  4  1  1  0     0  0
  5 19  2  0     0  0
  6  3  1  0     0  0
  7  1  2  0     0  0
  8  1  2  0     0  0
  9  2  1  0     0  0
 10  2  2  0     0  0
 11 16  2  0     0  0
 12  1  1  0     0  0
 13  3  2  0     0  0
 14  4  1  0     0  0
 15  4  2  0     0  0
 16 15  1  0     0  0
 17 14  2  0     0  0
 18 22  2  0     0  0
 19 23  1  0     0  0
 20  6  1  0     0  0
 21 20  1  0     0  0
 22 21  1  0     0  0
 23 21  2  0     0  0
 17 11  1  0     0  0
 18  5  1  0     0  0
M  CHG  2   2   1   9  -1
M  END