
          11280714492D 1   1.00000     0.00000     0

 15 14  0     0  0            999 V2000
    7.0292   -6.6667    0.0000 N   0  0  0  0  0  0           0  0  0
    7.5500   -6.3667    0.0000 C   0  0  3  0  0  0           0  0  0
    3.9125   -6.6667    0.0000 C   0  0  3  0  0  0           0  0  0
    6.5042   -6.3667    0.0000 C   0  0  0  0  0  0           0  0  0
    5.9875   -6.6667    0.0000 C   0  0  3  0  0  0           0  0  0
    4.9500   -6.6667    0.0000 O   0  0  0  0  0  0           0  0  0
    5.9875   -7.2667    0.0000 O   0  0  0  0  0  0           0  0  0
    4.4292   -6.3667    0.0000 C   0  0  0  0  0  0           0  0  0
    5.4667   -6.3667    0.0000 C   0  0  0  0  0  0           0  0  0
    8.0625   -6.0667    0.0000 C   0  0  0  0  0  0           0  0  0
    8.0667   -6.6667    0.0000 C   0  0  0  0  0  0           0  0  0
    7.5500   -5.7667    0.0000 C   0  0  0  0  0  0           0  0  0
    3.3917   -6.3667    0.0000 C   0  0  0  0  0  0           0  0  0
    3.9125   -7.2667    0.0000 C   0  0  0  0  0  0           0  0  0
    3.3292   -6.8250    0.0000 C   0  0  0  0  0  0           0  0  0
  2  1  1  0     0  0
  3  8  1  0     0  0
  4  1  1  0     0  0
  5  4  1  0     0  0
  6  9  1  0     0  0
  7  5  1  0     0  0
  8  6  1  0     0  0
  9  5  1  0     0  0
 10  2  1  0     0  0
 11  2  1  0     0  0
 12  2  1  0     0  0
 13  3  1  0     0  0
 14  3  1  0     0  0
 15  3  1  0     0  0
M  END