
  SciTegic11201309402D

 57 62  0  0  0  0            999 V2000
    8.6396   -4.5724    0.0000 N   0  0
    7.6084   -6.6471    0.0000 N   0  0
    8.5944   -5.3900    0.0000 C   0  0
    8.2370   -6.1295    0.0000 C   0  0  1  0  0  0
    8.3233   -3.8083    0.0000 C   0  0  2  0  0  0
    6.8073   -6.8813    0.0000 C   0  0
    7.7440   -3.2209    0.0000 C   0  0
    5.2996   -6.3267    0.0000 N   0  0
    6.0021   -6.7662    0.0000 C   0  0  1  0  0  0
    6.9675   -2.9374    0.0000 N   0  0
    4.8970   -4.0220    0.0000 N   0  0
    4.8354   -5.6365    0.0000 C   0  0
    5.4146   -3.3811    0.0000 C   0  0
    7.7440   -7.4687    0.0000 C   0  0
    9.4571   -4.5108    0.0000 C   0  0
    8.9641   -3.2702    0.0000 C   0  0
    9.0134   -6.4129    0.0000 C   0  0
    9.6666   -3.7097    0.0000 C   0  0
    2.3088   -2.6909    0.0000 C   0  0
    4.6998   -0.8997    0.0000 C   0  0
    6.1377   -2.9990    0.0000 C   0  0  2  0  0  0
    4.6998   -4.8231    0.0000 C   0  0  2  0  0  0
    5.7104   -7.5345    0.0000 C   0  0
    8.5205   -7.7522    0.0000 C   0  0
    4.8970   -7.6824    0.0000 C   0  0
    9.1490   -7.2264    0.0000 C   0  0
    4.5355   -8.4177    0.0000 S   0  0
    9.3955   -5.5954    0.0000 O   0  0
    6.8690   -7.7029    0.0000 O   0  0
    3.9110   -0.6450    0.0000 N   0  0
    1.9268   -1.9719    0.0000 N   0  0
    8.1754   -2.5307    0.0000 O   0  0
    4.8847   -2.7484    0.0000 O   0  0
    4.0794   -5.9446    0.0000 O   0  0
    3.7139   -8.3068    0.0000 C   0  0
    4.3136   -7.1031    0.0000 C   0  0
    3.5783   -7.4852    0.0000 C   0  0
    5.3037   -0.3492    0.0000 N   0  0
    1.8775   -3.3893    0.0000 N   0  0
    5.0449   -1.5201    0.0000 N   0  0
    3.1305   -2.7237    0.0000 N   0  0
   10.0487   -5.0901    0.0000 C   0  0
   10.4513   -3.4920    0.0000 C   0  0
    5.9035   -1.9021    0.0000 C   0  0
    3.8823   -4.7943    0.0000 C   0  0
    8.6642   -8.5656    0.0000 C   0  0
    9.9255   -7.5098    0.0000 C   0  0
    6.1007   -0.5957    0.0000 C   0  0
    2.2554   -4.1206    0.0000 C   0  0
    6.2650   -1.4091    0.0000 C   0  0
    3.5002   -4.0713    0.0000 C   0  0
   10.8457   -4.8600    0.0000 C   0  0
   11.0470   -4.0589    0.0000 C   0  0
    9.4325   -8.8532    0.0000 C   0  0
   10.0610   -8.3233    0.0000 C   0  0
    8.3702   -2.8094    0.0000 H   0  0
    9.1637   -5.7537    0.0000 H   0  0
  4  2  1  0
  3  1  1  0
  4  3  1  0
  5  1  1  0
  6  2  1  0
  7  5  1  0
  8  9  1  0
  9  6  1  0
 10  7  1  0
 11 13  1  0
 12  8  1  0
 13 21  1  0
 14  2  1  0
 15  1  1  0
 16  5  1  0
 17  4  1  0
 18 15  1  0
 19 39  1  0
 20 38  1  0
 21 10  1  0
 22 11  1  0
  9 23  1  6
 24 26  2  0
 25 23  1  0
 26 17  1  0
 27 25  1  0
 28  3  2  0
 29  6  2  0
 30 20  2  0
 31 19  2  0
 32  7  2  0
 33 13  2  0
 34 12  2  0
 35 27  1  0
 36 25  2  0
 37 36  1  0
 38 48  1  0
 39 49  1  0
 40 20  1  0
 41 19  1  0
 42 15  1  0
 43 18  1  0
 21 44  1  6
 22 45  1  6
 46 24  1  0
 47 26  1  0
 48 50  1  0
 49 51  1  0
 50 44  1  0
 51 45  1  0
 52 42  1  0
 53 52  1  0
 54 55  1  0
 55 47  2  0
 16 18  1  0
 43 53  1  0
 14 24  1  0
 22 12  1  0
 46 54  2  0
 37 35  2  0
  5 56  1  1
  4 57  1  6
M  END