
  SciTegic12131615192D

 37 38  0  0  0  0            999 V2000
   -3.8990    0.7455    0.0000 C   0  0
   -5.2003    1.4932    0.0000 C   0  0
   -6.4990    0.7409    0.0000 C   0  0
   -7.8003    1.4887    0.0000 C   0  0
   -9.0990    0.7364    0.0000 C   0  0
   -2.6003    1.4977    0.0000 O   0  0
  -10.4003    1.4841    0.0000 O   0  0
    2.5973   -1.5031    0.0000 C   0  0
    1.2990   -0.7500    0.0000 C   0  0
    1.2990    0.7500    0.0000 C   0  0
    0.0000    1.5000    0.0000 C   0  0
   -1.2990    0.7500    0.0000 C   0  0
   -1.2990   -0.7500    0.0000 C   0  0
    0.0000   -1.5000    0.0000 C   0  0
    3.6375   -0.9049    0.0000 N   0  0
    2.5951   -3.0039    0.0000 N   0  0
    3.8933   -3.7570    0.0000 C   0  0
    3.8912   -5.2578    0.0000 C   0  0
    5.1894   -6.0109    0.0000 C   0  0
    5.1873   -7.5117    0.0000 C   0  0
    6.4855   -8.2648    0.0000 C   0  0
    6.4838   -9.4648    0.0000 N   0  0
  -15.5875   -1.5348    0.0000 C   0  0
  -14.2919   -0.7772    0.0000 C   0  0
  -14.2971    0.7228    0.0000 C   0  0
  -13.0006    1.4773    0.0000 C   0  0
  -11.6990    0.7318    0.0000 C   0  0
  -11.6938   -0.7682    0.0000 C   0  0
  -12.9903   -1.5227    0.0000 C   0  0
  -16.6298   -0.9402    0.0000 N   0  0
  -15.5802   -3.0356    0.0000 N   0  0
  -16.8757   -3.7932    0.0000 C   0  0
  -16.8684   -5.2940    0.0000 C   0  0
  -18.1640   -6.0516    0.0000 C   0  0
  -18.1567   -7.5524    0.0000 C   0  0
  -19.4522   -8.3099    0.0000 C   0  0
  -19.4464   -9.5099    0.0000 N   0  0
  1  2  1  0
  2  3  1  0
  3  4  1  0
  4  5  1  0
  1  6  1  0
  5  7  1  0
  8  9  1  0
  9 10  1  0
 10 11  2  0
 11 12  1  0
 12 13  2  0
 13 14  1  0
  9 14  2  0
  8 15  2  0
  8 16  1  0
 17 18  1  0
 18 19  1  0
 19 20  1  0
 20 21  1  0
 21 22  1  0
 16 17  1  0
  6 12  1  0
 23 24  1  0
 24 25  1  0
 25 26  2  0
 26 27  1  0
 27 28  2  0
 28 29  1  0
 24 29  2  0
 23 30  2  0
 23 31  1  0
 32 33  1  0
 33 34  1  0
 34 35  1  0
 35 36  1  0
 36 37  1  0
 31 32  1  0
  7 27  1  0
M  END