
  SciTegic01111613442D

 17 17  0  0  0  0            999 V2000
    0.7500   -1.0323    0.0000 C   0  0
    1.2135    0.3943    0.0000 N   0  0
   10.2567   -5.2435    0.0000 C   0  0
    7.8797   -4.1902    0.0000 C   0  0
    8.7644   -5.4025    0.0000 N   0  0
   -0.7500   -1.0323    0.0000 C   0  0
   11.4500   -5.1163    0.0000 N   0  0
    0.0000    1.2760    0.0000 C   0  0
   -1.2135    0.3943    0.0000 N   0  0
    6.3873   -4.3492    0.0000 N   0  0
    8.4905   -2.8193    0.0000 N   0  0
    1.6332   -2.2426    0.0000 C   0  0
    3.1255   -2.0835    0.0000 S   0  0
   -1.4553   -2.0031    0.0000 C   0  0
    5.5026   -3.1368    0.0000 C   0  0
    4.0102   -3.2959    0.0000 C   0  0
    9.6839   -2.6934    0.0000 C   0  0
  2  1  1  0
  3  5  1  0
  4 10  2  0
  5  4  1  0
  6  1  2  0
  7  3  3  0
  8  2  2  0
  9  6  1  0
 10 15  1  0
 11  4  1  0
 12  1  1  0
 13 12  1  0
 14  6  1  0
 15 16  1  0
 16 13  1  0
 17 11  1  0
  9  8  1  0
M  END