
  SciTegic01161211262D

132124  0  0  0  0            999 V2000
   -6.7587    1.6430    0.0000 Na  0  3
   -7.4732   -2.0695    0.0000 Na  0  3
   -6.0442   -3.7195    0.0000 Na  0  3
   -6.0442   -6.6895    0.0000 Na  0  3
   -3.6865   -7.8033    0.0000 Na  0  3
   -1.5431   -1.6158    0.0000 Na  0  3
    2.0293   -0.1308    0.0000 Na  0  3
    2.7438   -1.6158    0.0000 Na  0  3
    2.0293   -7.8033    0.0000 Na  0  3
    5.1474   -0.4801    0.0000 Na  0  3
    7.0905   -2.8172    0.0000 Na  0  3
    7.4732   -5.8296    0.0000 Na  0  3
    4.8609   -8.3011    0.0000 Na  0  3
   -2.4719   -0.8320    0.0000 O   0  0
   -3.1863   -1.2445    0.0000 C   0  0  2  0  0  0
   -3.1863   -2.0695    0.0000 C   0  0  2  0  0  0
   -2.2575   -2.6058    0.0000 O   0  0
   -3.9008   -2.4820    0.0000 C   0  0  2  0  0  0
   -3.9008   -3.3070    0.0000 O   0  0
   -4.6153   -2.0695    0.0000 C   0  0  2  0  0  0
   -5.3297   -2.4820    0.0000 O   0  0
   -4.6153   -1.2445    0.0000 C   0  0  2  0  0  0
   -3.9008   -0.8320    0.0000 O   0  0
   -5.3297   -0.8320    0.0000 C   0  0
   -5.3297   -0.0070    0.0000 O   0  0
   -6.0442    0.4055    0.0000 S   0  0
   -5.6317    1.1199    0.0000 O   0  0
   -6.4567   -0.3090    0.0000 O   0  0
   -6.7587    0.8180    0.0000 O   0  5
   -6.0442   -2.0695    0.0000 S   0  0
   -6.4567   -2.7840    0.0000 O   0  0
   -5.6317   -1.3551    0.0000 O   0  0
   -6.7587   -1.6570    0.0000 O   0  5
   -4.6153   -3.7195    0.0000 S   0  0
   -4.2028   -4.4340    0.0000 O   0  0
   -5.0278   -3.0051    0.0000 O   0  0
   -5.3297   -4.1320    0.0000 O   0  5
   -1.5431   -4.0908    0.0000 C   0  0  2  0  0  0
   -0.8286   -3.6783    0.0000 O   0  0
   -1.5431   -4.9158    0.0000 C   0  0  2  0  0  0
   -0.8286   -5.3283    0.0000 O   0  0
   -2.2575   -5.3283    0.0000 C   0  0  2  0  0  0
   -2.2575   -6.1533    0.0000 O   0  0
   -2.9720   -4.9158    0.0000 C   0  0  2  0  0  0
   -2.9720   -4.0908    0.0000 O   0  0
   -3.9008   -5.4520    0.0000 C   0  0
   -4.6153   -5.0395    0.0000 O   0  0
   -5.3297   -5.4520    0.0000 S   0  0
   -4.9172   -6.1665    0.0000 O   0  0
   -5.7423   -4.7376    0.0000 O   0  0
   -6.0442   -5.8645    0.0000 O   0  5
   -2.9720   -6.5658    0.0000 S   0  0
   -2.5595   -7.2803    0.0000 O   0  0
   -3.3845   -5.8513    0.0000 O   0  0
   -3.6865   -6.9783    0.0000 O   0  5
   -0.8286   -2.8533    0.0000 S   0  0
   -1.6536   -2.8533    0.0000 O   0  0
   -0.0036   -2.8533    0.0000 O   0  0
   -0.8286   -2.0283    0.0000 O   0  5
    0.6004   -5.3283    0.0000 C   0  0  2  0  0  0
    0.6004   -6.1533    0.0000 O   0  0
    1.3148   -4.9158    0.0000 C   0  0  2  0  0  0
    2.2436   -5.4520    0.0000 O   0  0
    1.3148   -4.0908    0.0000 C   0  0  2  0  0  0
    2.0293   -3.6783    0.0000 O   0  0
    0.6004   -3.6783    0.0000 C   0  0  2  0  0  0
   -0.1141   -4.0908    0.0000 O   0  0
    0.6004   -2.6058    0.0000 C   0  0
    1.3148   -2.1933    0.0000 O   0  0
    1.3148   -1.3683    0.0000 S   0  0
    0.4898   -1.3683    0.0000 O   0  0
    2.1398   -1.3683    0.0000 O   0  0
    1.3148   -0.5433    0.0000 O   0  5
    2.0293   -2.8533    0.0000 S   0  0
    2.8543   -2.8533    0.0000 O   0  0
    1.2043   -2.8533    0.0000 O   0  0
    2.0293   -2.0283    0.0000 O   0  5
    1.3148   -6.5658    0.0000 S   0  0
    1.7273   -5.8513    0.0000 O   0  0
    0.9023   -7.2803    0.0000 O   0  0
    2.0293   -6.9783    0.0000 O   0  5
    3.8835   -5.6155    0.0000 C   0  0  2  0  0  0
    3.7402   -6.4280    0.0000 O   0  0
    4.6587   -5.3334    0.0000 C   0  0  2  0  0  0
    5.2907   -5.8637    0.0000 O   0  0
    4.8020   -4.5209    0.0000 C   0  0  2  0  0  0
    5.6144   -4.3776    0.0000 O   0  0
    4.1700   -3.9906    0.0000 C   0  0  2  0  0  0
    3.3947   -4.2728    0.0000 O   0  0
    4.1700   -3.1656    0.0000 C   0  0
    4.8020   -2.6353    0.0000 O   0  0
    4.6587   -1.8228    0.0000 S   0  0
    5.4712   -1.6796    0.0000 O   0  0
    3.8462   -1.9661    0.0000 O   0  0
    4.5154   -1.0104    0.0000 O   0  5
    5.8966   -3.6024    0.0000 S   0  0
    5.1821   -3.1899    0.0000 O   0  0
    6.6541   -3.9292    0.0000 O   0  0
    6.2668   -2.8651    0.0000 O   0  5
    6.0659   -5.5815    0.0000 S   0  0
    5.7838   -4.8062    0.0000 O   0  0
    6.3481   -6.3567    0.0000 O   0  0
    6.8412   -5.2993    0.0000 O   0  5
    4.3722   -6.9583    0.0000 S   0  0
    3.8419   -7.5903    0.0000 O   0  0
    4.9025   -6.3263    0.0000 O   0  0
    5.0042   -7.4886    0.0000 O   0  5
   -2.4719   -0.0070    0.0000 C   0  0
   -1.7574    0.4055    0.0000 C   0  0
   -1.7574    1.2305    0.0000 C   0  0
   -1.0429    1.6430    0.0000 C   0  0
   -1.0429    2.4680    0.0000 C   0  0
   -0.3285    2.8805    0.0000 C   0  0
   -0.3285    3.7055    0.0000 C   0  0
    0.3860    4.1180    0.0000 C   0  0
    0.3860    4.9430    0.0000 N   0  0
   -0.2814    5.4279    0.0000 N   0  0
   -0.0265    6.2125    0.0000 N   0  0
    0.7985    6.2125    0.0000 C   0  0
    1.0535    5.4279    0.0000 C   0  0
    1.2834    6.8799    0.0000 C   0  0
    0.9479    7.6336    0.0000 C   0  0
    1.4328    8.3011    0.0000 C   0  0
    2.2533    8.2148    0.0000 C   0  0
    2.5888    7.4611    0.0000 C   0  0
    2.1039    6.7937    0.0000 C   0  0
   -0.1141   -4.9158    0.0000 C   0  0  2  0  0  0
   -0.1141   -5.7408    0.0000 H   0  0
    3.2515   -5.0852    0.0000 C   0  0  2  0  0  0
    3.2515   -5.9102    0.0000 H   0  0
   -2.2575   -3.6783    0.0000 C   0  0  2  0  0  0
   -2.8409   -3.0949    0.0000 H   0  0
 15 14  1  6
 15 16  1  0
 16 17  1  1
 16 18  1  0
 18 19  1  1
 18 20  1  0
 20 21  1  6
 20 22  1  0
 22 23  1  0
 22 24  1  1
 24 25  1  0
 15 23  1  0
 26 27  2  0
 26 28  2  0
 26 29  1  0
 25 26  1  0
 30 31  2  0
 30 32  2  0
 30 33  1  0
 21 30  1  0
 34 35  2  0
 34 36  2  0
 34 37  1  0
 19 34  1  0
131 38  1  0
 38 39  1  1
 38 40  1  0
 40 41  1  1
 40 42  1  0
 42 43  1  6
 42 44  1  0
 44 45  1  0
 44 46  1  1
 46 47  1  0
131 45  1  0
 48 49  2  0
 48 50  2  0
 48 51  1  0
 47 48  1  0
 52 53  2  0
 52 54  2  0
 52 55  1  0
 43 52  1  0
 56 57  2  0
 56 58  2  0
 56 59  1  0
 39 56  1  0
127 60  1  0
 60 61  1  6
 60 62  1  0
 62 63  1  6
 62 64  1  0
 64 65  1  1
 64 66  1  0
 66 67  1  0
 66 68  1  6
 68 69  1  0
127 67  1  0
 70 71  2  0
 70 72  2  0
 70 73  1  0
 69 70  1  0
 74 75  2  0
 74 76  2  0
 74 77  1  0
 65 74  1  0
 78 79  2  0
 78 80  2  0
 78 81  1  0
 61 78  1  0
129 82  1  0
 82 83  1  6
 82 84  1  0
 84 85  1  6
 84 86  1  0
 86 87  1  1
 86 88  1  0
 88 89  1  0
 88 90  1  6
 90 91  1  0
129 89  1  0
 92 93  2  0
 92 94  2  0
 92 95  1  0
 91 92  1  0
 96 97  2  0
 96 98  2  0
 96 99  1  0
 87 96  1  0
100101  2  0
100102  2  0
100103  1  0
 85100  1  0
104105  2  0
104106  2  0
104107  1  0
 83104  1  0
129 63  1  0
127 41  1  0
131 17  1  0
108109  1  0
109110  1  0
110111  1  0
111112  1  0
112113  1  0
113114  1  0
114115  1  0
116117  1  0
117118  2  0
118119  1  0
119120  2  0
116120  1  0
121122  1  0
122123  2  0
123124  1  0
124125  2  0
125126  1  0
121126  2  0
119121  1  0
115116  1  0
 14108  1  0
127128  1  6
129130  1  6
131132  1  1
M  CHG  8   1   1   2   1   3   1   4   1   5   1   6   1   7   1   8   1
M  CHG  8   9   1  10   1  11   1  12   1  13   1  29  -1  33  -1  37  -1
M  CHG  8  51  -1  55  -1  59  -1  73  -1  77  -1  81  -1  95  -1  99  -1
M  CHG  2 103  -1 107  -1
M  END