
  SciTegic12231509382D

 15 15  0  0  0  0            999 V2000
    0.8628   -3.4446    0.0000 C   0  0
    1.6866   -3.4458    0.0000 C   0  0
    2.0998   -2.7336    0.0000 C   0  0
    1.6861   -2.0197    0.0000 C   0  0
    0.8592   -2.0225    0.0000 C   0  0
    0.4540   -2.7353    0.0000 C   0  0
    2.9253   -2.7338    0.0000 O   0  0
    3.3357   -3.4493    0.0000 C   0  0
    4.1612   -3.4495    0.0000 C   0  0
    4.5760   -4.1651    0.0000 O   0  0
    4.5763   -2.7342    0.0000 C   0  0
    5.4019   -2.7344    0.0000 N   0  0
    5.8127   -2.0190    0.0000 C   0  0
    6.6383   -2.0192    0.0000 C   0  0
    5.4022   -1.3034    0.0000 C   0  0
  1  2  2  0
  2  3  1  0
  3  4  2  0
  4  5  1  0
  5  6  2  0
  6  1  1  0
  3  7  1  0
  7  8  1  0
  8  9  1  0
  9 10  1  0
  9 11  1  0
 11 12  1  0
 12 13  1  0
 13 14  1  0
 13 15  1  0
M  END