
          11280715112D 1   1.00000     0.00000     0

 29 31  0     1  0            999 V2000
    4.9417   -5.0750    0.0000 N   0  0  3  0  0  0           0  0  0
    4.2292   -4.6542    0.0000 C   0  0  0  0  0  0           0  0  0
    3.5250   -5.0750    0.0000 C   0  0  2  0  0  0           0  0  0
    4.9500   -5.8917    0.0000 C   0  0  1  0  0  0           0  0  0
    2.0917   -5.0792    0.0000 C   0  0  0  0  0  0           0  0  0
    2.8042   -4.6625    0.0000 N   0  0  0  0  0  0           0  0  0
    4.9417   -6.7167    0.0000 C   0  0  0  0  0  0           0  0  0
    4.2292   -6.3042    0.0000 C   0  0  0  0  0  0           0  0  0
    3.5250   -5.9000    0.0000 C   0  0  0  0  0  0           0  0  0
    2.9375   -5.6542    0.0000 C   0  0  0  0  0  0           0  0  0
    4.2292   -3.8292    0.0000 O   0  0  0  0  0  0           0  0  0
    2.0917   -5.9042    0.0000 O   0  0  0  0  0  0           0  0  0
    1.3792   -4.6667    0.0000 O   0  0  0  0  0  0           0  0  0
    4.2250   -7.1250    0.0000 O   0  0  0  0  0  0           0  0  0
    1.3792   -6.3167    0.0000 C   0  0  3  0  0  0           0  0  0
    5.7250   -4.8167    0.0000 C   0  0  0  0  0  0           0  0  0
    5.7292   -6.1417    0.0000 C   0  0  0  0  0  0           0  0  0
    5.6542   -7.1375    0.0000 O   0  0  0  0  0  0           0  0  0
    3.1417   -6.4542    0.0000 C   0  0  0  0  0  0           0  0  0
    6.2125   -5.4750    0.0000 C   0  0  0  0  0  0           0  0  0
    1.3875   -7.1417    0.0000 C   0  0  0  0  0  0           0  0  0
    0.6667   -5.9042    0.0000 C   0  0  0  0  0  0           0  0  0
    2.1792   -6.5292    0.0000 C   0  0  0  0  0  0           0  0  0
    5.6417   -7.9625    0.0000 C   0  0  0  0  0  0           0  0  0
    3.8250   -6.9167    0.0000 C   0  0  0  0  0  0           0  0  0
    2.4000   -6.8042    0.0000 C   0  0  0  0  0  0           0  0  0
    3.7625   -7.7375    0.0000 C   0  0  0  0  0  0           0  0  0
    2.3292   -7.6292    0.0000 C   0  0  0  0  0  0           0  0  0
    3.0125   -8.0917    0.0000 C   0  0  0  0  0  0           0  0  0
  2  1  1  0     0  0
  3  2  1  0     0  0
  4  1  1  0     0  0
  5  6  1  0     0  0
  3  6  1  1     0  0
  4  7  1  1     0  0
  8  4  1  0     0  0
  9  8  1  0     0  0
  3 10  1  6     0  0
 11  2  2  0     0  0
 12  5  1  0     0  0
 13  5  2  0     0  0
 14  7  2  0     0  0
 15 12  1  0     0  0
 16  1  1  0     0  0
 17  4  1  0     0  0
 18  7  1  0     0  0
 19 10  1  0     0  0
 20 16  1  0     0  0
 21 15  1  0     0  0
 22 15  1  0     0  0
 23 15  1  0     0  0
 24 18  1  0     0  0
 25 19  1  0     0  0
 26 19  2  0     0  0
 27 25  2  0     0  0
 28 26  1  0     0  0
 29 28  2  0     0  0
 17 20  1  0     0  0
  3  9  1  0     0  0
 27 29  1  0     0  0
M  END