
          11280715132D 1   1.00000     0.00000     0

 26 28  0     1  0            999 V2000
    6.0125   -3.5750    0.0000 N   0  0  3  0  0  0           0  0  0
    5.3417   -4.0667    0.0000 C   0  0  0  0  0  0           0  0  0
    3.9292   -2.3000    0.0000 C   0  0  0  0  0  0           0  0  0
    5.9250   -2.7500    0.0000 C   0  0  0  0  0  0           0  0  0
    6.7625   -3.9042    0.0000 C   0  0  3  0  0  0           0  0  0
    4.4875   -2.9125    0.0000 C   0  0  0  0  0  0           0  0  0
    4.5792   -3.7375    0.0000 C   0  0  2  0  0  0           0  0  0
    3.1167   -2.4792    0.0000 C   0  0  0  0  0  0           0  0  0
    4.1792   -1.5125    0.0000 C   0  0  0  0  0  0           0  0  0
    6.5917   -2.2625    0.0000 C   0  0  0  0  0  0           0  0  0
    7.4292   -3.4167    0.0000 C   0  0  0  0  0  0           0  0  0
    7.3417   -2.6000    0.0000 C   0  0  0  0  0  0           0  0  0
    5.4292   -4.8917    0.0000 O   0  0  0  0  0  0           0  0  0
    2.5625   -1.8667    0.0000 C   0  0  0  0  0  0           0  0  0
    3.6250   -0.9042    0.0000 C   0  0  0  0  0  0           0  0  0
    2.8167   -1.0792    0.0000 C   0  0  0  0  0  0           0  0  0
    3.9125   -4.2167    0.0000 N   0  0  0  0  0  0           0  0  0
    2.2500   -0.4667    0.0000 O   0  0  0  0  0  0           0  0  0
    6.8417   -4.7292    0.0000 C   0  0  0  0  0  0           0  0  0
    6.1750   -5.2125    0.0000 O   0  0  0  0  0  0           0  0  0
    2.8667   -3.2625    0.0000 C   0  0  0  0  0  0           0  0  0
    4.9917   -1.3375    0.0000 C   0  0  0  0  0  0           0  0  0
    6.5042   -1.4417    0.0000 C   0  0  0  0  0  0           0  0  0
    8.0167   -2.1125    0.0000 C   0  0  0  0  0  0           0  0  0
    7.9292   -1.2875    0.0000 C   0  0  0  0  0  0           0  0  0
    7.1792   -0.9542    0.0000 C   0  0  0  0  0  0           0  0  0
  2  1  1  0     0  0
  3  6  1  0     0  0
  4  1  1  0     0  0
  5  1  1  0     0  0
  7  6  1  1     0  0
  7  2  1  0     0  0
  8  3  1  0     0  0
  9  3  2  0     0  0
 10  4  1  0     0  0
 11  5  1  0     0  0
 12 11  1  0     0  0
 13  2  2  0     0  0
 14  8  2  0     0  0
 15  9  1  0     0  0
 16 15  2  0     0  0
 17  7  1  0     0  0
 18 16  1  0     0  0
 19  5  1  0     0  0
 20 19  1  0     0  0
 21  8  1  0     0  0
 22  9  1  0     0  0
 23 10  1  0     0  0
 24 12  1  0     0  0
 25 24  2  0     0  0
 26 23  2  0     0  0
 12 10  2  0     0  0
 26 25  1  0     0  0
 16 14  1  0     0  0
M  END