
  SciTegic01061414252D

 24 25  0  0  0  0            999 V2000
   11.5614  -13.1473    0.0000 S   0  0
   11.1484  -13.8613    0.0000 O   0  0
   11.9734  -13.8620    0.0000 O   0  0
   12.2773  -11.9080    0.0000 C   0  0
   12.2762  -12.7353    0.0000 C   0  0
   12.9910  -13.1482    0.0000 C   0  0
   13.7074  -12.7348    0.0000 C   0  0
   13.7046  -11.9043    0.0000 C   0  0
   12.9892  -11.4952    0.0000 C   0  0
   14.4174  -11.4891    0.0000 C   0  0
   15.1335  -11.8989    0.0000 C   0  0
   14.4143  -10.6641    0.0000 O   0  0
   15.8463  -11.4838    0.0000 S   0  0
   16.5624  -11.8935    0.0000 C   0  0
   16.5624  -12.7174    0.0000 N   0  0
   17.2775  -13.1271    0.0000 C   0  0
   17.9914  -12.7118    0.0000 C   0  0
   17.9856  -11.8826    0.0000 C   0  0
   17.2699  -11.4767    0.0000 N   0  0
   10.8474  -12.7342    0.0000 N   0  0
   12.9908  -13.9731    0.0000 Cl  0  0
   18.7079  -13.1207    0.0000 C   0  0
   19.4202  -12.7046    0.0000 C   0  0
   20.1368  -13.1134    0.0000 C   0  0
  2  1  2  0
  1  3  2  0
  4  5  2  0
  5  6  1  0
  6  7  2  0
  7  8  1  0
  8  9  2  0
  9  4  1  0
  8 10  1  0
 10 11  1  0
 10 12  2  0
 11 13  1  0
 13 14  1  0
 14 15  2  0
 15 16  1  0
 16 17  2  0
 17 18  1  0
 18 19  2  0
 19 14  1  0
  5  1  1  0
  1 20  1  0
  6 21  1  0
 17 22  1  0
 22 23  1  0
 23 24  1  0
M  END