
  SciTegic12171313052D

 31 35  0  0  0  0            999 V2000
   25.8216   -3.3460    0.0000 C   0  0
   25.8216   -4.1710    0.0000 N   0  0
   26.5336   -4.5793    0.0000 C   0  0
   27.2457   -4.1710    0.0000 C   0  0
   27.2457   -3.3460    0.0000 C   0  0
   26.5336   -2.9292    0.0000 C   0  0
   27.2466   -2.5209    0.0000 C   0  0
   27.9586   -3.7542    0.0000 N   0  0
   28.6707   -3.3460    0.0000 C   0  0
   28.6707   -2.5209    0.0000 C   0  0
   27.9586   -2.1043    0.0000 C   0  0
   29.3846   -3.7595    0.0000 O   0  0
   25.1077   -4.5845    0.0000 C   0  0
   24.3933   -4.1718    0.0000 N   0  0
   24.4008   -5.8219    0.0000 N   0  0
   25.1112   -5.4066    0.0000 C   0  0
   23.6806   -5.4106    0.0000 C   0  0
   23.6783   -4.5877    0.0000 C   0  0
   22.9656   -4.1800    0.0000 C   0  0
   22.2548   -4.5941    0.0000 C   0  0
   22.2611   -5.4202    0.0000 C   0  0
   22.9743   -5.8241    0.0000 C   0  0
   27.9589   -4.5793    0.0000 C   0  0
   28.6735   -4.9916    0.0000 C   0  0
   28.6691   -5.8138    0.0000 C   0  0
   29.3829   -6.2260    0.0000 C   0  0
   30.0983   -5.8132    0.0000 C   0  0
   30.0953   -4.9839    0.0000 C   0  0
   29.3810   -4.5754    0.0000 C   0  0
   27.9535   -6.2243    0.0000 C   0  0
   30.8083   -4.5687    0.0000 C   0  0
  1  2  1  0
  1  6  1  0
  2  3  1  0
  3  4  1  0
  4  5  1  0
  5  6  1  0
  7  5  1  0
  7 11  1  0
  5  8  1  0
  8  9  1  0
  9 10  1  0
 10 11  1  0
  9 12  2  0
  2 13  1  0
 13 14  2  0
 14 18  1  0
 17 15  1  0
 15 16  2  0
 16 13  1  0
 17 18  1  0
 18 19  2  0
 19 20  1  0
 20 21  2  0
 21 22  1  0
 22 17  2  0
  8 23  1  0
 23 24  1  0
 24 25  2  0
 25 26  1  0
 26 27  2  0
 27 28  1  0
 28 29  2  0
 29 24  1  0
 25 30  1  0
 28 31  1  0
M  END