
  SciTegic01181116592D

 20 22  0  0  0  0            999 V2000
    4.4732   -4.1037    0.0000 C   0  0
    4.4720   -4.9310    0.0000 C   0  0
    5.1867   -5.3439    0.0000 C   0  0
    5.1849   -3.6911    0.0000 C   0  0
    5.9003   -4.1001    0.0000 C   0  0
    5.9011   -4.9268    0.0000 C   0  0
    6.6163   -5.3378    0.0000 N   0  0
    7.3312   -4.9230    0.0000 C   0  0
    7.3264   -4.0932    0.0000 C   0  0
    6.6106   -3.6860    0.0000 N   0  0
    8.0384   -3.6764    0.0000 C   0  0
    8.7552   -4.0845    0.0000 N   0  0
    8.0334   -2.8514    0.0000 O   0  0
    9.4671   -3.6677    0.0000 N   0  0
   10.1841   -4.0758    0.0000 C   0  0
   10.1847   -4.9007    0.0000 C   0  0
   10.9007   -5.3087    0.0000 C   0  0
   11.6135   -4.8919    0.0000 C   0  0
   11.6058   -4.0626    0.0000 C   0  0
   10.8893   -3.6584    0.0000 C   0  0
  9 10  2  0
 10  5  1  0
  9 11  1  0
  2  3  1  0
 11 12  1  0
  5  6  1  0
 11 13  2  0
  3  6  2  0
 12 14  1  0
  6  7  1  0
 14 15  1  0
  1  2  2  0
 15 16  2  0
  7  8  2  0
 16 17  1  0
  5  4  2  0
 17 18  2  0
  8  9  1  0
 18 19  1  0
  4  1  1  0
 19 20  2  0
 20 15  1  0
M  END