
  SciTegic01181116592D

 31 34  0  0  0  0            999 V2000
   17.5402   -7.0291    0.0000 N   0  0
   17.5391   -7.8565    0.0000 C   0  0
   18.2539   -8.2694    0.0000 N   0  0
   18.2521   -6.6164    0.0000 C   0  0
   18.9675   -7.0255    0.0000 C   0  0
   18.9723   -7.8519    0.0000 C   0  0
   19.7603   -8.1024    0.0000 N   0  0
   20.2417   -7.4313    0.0000 N   0  0
   19.7520   -6.7656    0.0000 C   0  0
   18.2496   -5.7914    0.0000 N   0  0
   17.5339   -5.3810    0.0000 C   0  0
   17.5348   -4.5567    0.0000 C   0  0
   16.8200   -4.1465    0.0000 C   0  0
   16.1057   -4.5611    0.0000 C   0  0
   16.1109   -5.3904    0.0000 C   0  0
   16.8263   -5.7970    0.0000 C   0  0
   15.3895   -4.1517    0.0000 O   0  0
   15.3859   -3.3267    0.0000 C   0  0
   14.6697   -2.9173    0.0000 F   0  0
   16.0986   -2.9112    0.0000 F   0  0
   15.3792   -2.5000    0.0000 F   0  0
   20.1783   -8.8137    0.0000 C   0  0
   21.0032   -8.8074    0.0000 C   0  0
   21.4184   -9.5178    0.0000 C   0  0
   22.2427   -9.5119    0.0000 C   0  0
   22.6505   -8.7938    0.0000 C   0  0
   22.2282   -8.0801    0.0000 C   0  0
   21.4054   -8.0895    0.0000 C   0  0
   23.4755   -8.7864    0.0000 C   0  0
   23.8944   -9.4972    0.0000 N   0  0
   23.8816   -8.0683    0.0000 O   0  0
 14 15  1  0
  5  4  2  0
 15 16  2  0
 16 11  1  0
  6  7  1  0
 14 17  1  0
  7  8  1  0
 17 18  1  0
  8  9  2  0
 18 19  1  0
  9  5  1  0
 18 20  1  0
  4  1  1  0
 18 21  1  0
  4 10  1  0
  7 22  1  0
  5  6  1  0
 22 23  1  0
 10 11  1  0
 23 24  2  0
 24 25  1  0
 11 12  2  0
 25 26  2  0
  2  3  1  0
 26 27  1  0
 12 13  1  0
 27 28  2  0
 28 23  1  0
  3  6  2  0
 26 29  1  0
 13 14  2  0
 29 30  1  0
  1  2  2  0
 29 31  2  0
M  END