
          11280715172D 1   1.00000     0.00000     0

 35 38  0     0  0            999 V2000
    6.2167   -6.0042    0.0000 C   0  0  0  0  0  0           0  0  0
    5.5000   -7.2500    0.0000 N   0  0  3  0  0  0           0  0  0
    6.9250   -9.7292    0.0000 S   0  0  3  0  0  0           0  0  0
    6.2167   -6.8292    0.0000 C   0  0  0  0  0  0           0  0  0
    4.7917   -6.0042    0.0000 C   0  0  0  0  0  0           0  0  0
    4.7917   -6.8292    0.0000 C   0  0  0  0  0  0           0  0  0
    7.7167   -9.9417    0.0000 C   0  0  0  0  0  0           0  0  0
    4.0750   -7.2417    0.0000 C   0  0  0  0  0  0           0  0  0
    6.8000   -5.4250    0.0000 C   0  0  0  0  0  0           0  0  0
    6.7042  -10.5250    0.0000 O   0  0  0  0  0  0           0  0  0
    7.1375   -8.9292    0.0000 O   0  0  0  0  0  0           0  0  0
    6.2042   -9.3125    0.0000 N   0  0  0  0  0  0           0  0  0
    4.0750   -5.5917    0.0000 C   0  0  0  0  0  0           0  0  0
    1.9292   -4.3542    0.0000 C   0  0  0  0  0  0           0  0  0
    8.6042   -6.6417    0.0000 N   0  0  0  0  0  0           0  0  0
    1.2167   -4.7667    0.0000 O   0  0  0  0  0  0           0  0  0
    5.5000   -8.0750    0.0000 C   0  0  0  0  0  0           0  0  0
    6.2125   -8.4875    0.0000 C   0  0  0  0  0  0           0  0  0
    8.2917   -9.3542    0.0000 C   0  0  0  0  0  0           0  0  0
    7.9292  -10.7375    0.0000 C   0  0  0  0  0  0           0  0  0
    3.3625   -6.0042    0.0000 C   0  0  0  0  0  0           0  0  0
    3.3625   -6.8292    0.0000 C   0  0  0  0  0  0           0  0  0
    2.6500   -4.7667    0.0000 C   0  0  0  0  0  0           0  0  0
    6.9292   -7.2417    0.0000 C   0  0  0  0  0  0           0  0  0
    9.3042  -10.3625    0.0000 C   0  0  0  0  0  0           0  0  0
    7.5917   -5.6375    0.0000 C   0  0  0  0  0  0           0  0  0
    1.9292   -3.5292    0.0000 O   0  0  0  0  0  0           0  0  0
    8.7250  -10.9417    0.0000 C   0  0  0  0  0  0           0  0  0
    9.0875   -9.5667    0.0000 C   0  0  0  0  0  0           0  0  0
   10.1042  -10.5750    0.0000 F   0  0  0  0  0  0           0  0  0
    2.6500   -5.5917    0.0000 C   0  0  0  0  0  0           0  0  0
    7.8042   -6.4292    0.0000 C   0  0  0  0  0  0           0  0  0
    9.1875   -6.0625    0.0000 C   0  0  0  0  0  0           0  0  0
    8.1750   -5.0542    0.0000 C   0  0  0  0  0  0           0  0  0
    8.9667   -5.2625    0.0000 C   0  0  0  0  0  0           0  0  0
  2  4  1  0     0  0
  3 12  1  0     0  0
  4  1  2  0     0  0
  5  1  1  0     0  0
  6  5  1  0     0  0
  7  3  1  0     0  0
  8  6  2  0     0  0
  9  1  1  0     0  0
 10  3  2  0     0  0
 11  3  2  0     0  0
 12 18  1  0     0  0
 13  5  2  0     0  0
 14 23  1  0     0  0
 15 32  1  0     0  0
 16 14  2  0     0  0
 17  2  1  0     0  0
 18 17  1  0     0  0
 19  7  1  0     0  0
 20  7  2  0     0  0
 21 13  1  0     0  0
 22 21  2  0     0  0
 23 31  1  0     0  0
 24  4  1  0     0  0
 25 28  2  0     0  0
 26  9  1  0     0  0
 27 14  1  0     0  0
 28 20  1  0     0  0
 29 19  2  0     0  0
 30 25  1  0     0  0
 31 21  1  0     0  0
 32 26  2  0     0  0
 33 35  1  0     0  0
 34 26  1  0     0  0
 35 34  2  0     0  0
  6  2  1  0     0  0
  8 22  1  0     0  0
 33 15  2  0     0  0
 25 29  1  0     0  0
M  END