
  SciTegic12231509382D

 24 27  0  0  0  0            999 V2000
   -1.4990    0.6271    0.0000 C   0  0
   -0.9671   -0.0036    0.0000 C   0  0  1  0  0  0
    0.1253    0.9175    0.0000 C   0  0
    0.9374    1.0627    0.0000 C   0  0
    1.4692    0.4320    0.0000 C   0  0  1  0  0  0
    1.1889   -0.3439    0.0000 C   0  0  1  0  0  0
    1.8403   -0.8502    0.0000 C   0  0
    2.5231   -0.3873    0.0000 C   0  0
    2.2938    0.4052    0.0000 C   0  0
    1.8291    1.1744    0.0000 C   0  0
   -0.6868    0.7723    0.0000 C   0  0
   -2.3111    0.4819    0.0000 C   0  0
   -2.5914   -0.2940    0.0000 C   0  0
   -2.0595   -0.9248    0.0000 C   0  0
   -1.2474   -0.7795    0.0000 C   0  0
   -0.7156   -1.4102    0.0000 C   0  0
    0.0965   -1.2650    0.0000 C   0  0
    0.3768   -0.4891    0.0000 C   0  0  2  0  0  0
   -0.1550    0.1416    0.0000 C   0  0  1  0  0  0
   -3.4035   -0.4393    0.0000 O   0  0
    2.8001    1.0566    0.0000 O   0  0
   -0.7996    0.9061    0.0000 H   0  0
    1.0214   -1.2536    0.0000 H   0  0
    0.9494   -1.3148    0.0000 H   0  0
  1  2  1  0
  1 12  1  0
  2 11  1  1
  2 15  1  0
  2 19  1  0
  3  4  1  0
 19  3  1  0
  4  5  1  0
  5  6  1  0
  5  9  1  0
  5 10  1  1
  6  7  1  0
  6 18  1  0
  7  8  1  0
  8  9  1  0
  9 21  2  0
 12 13  1  0
 13 14  1  0
 13 20  2  0
 14 15  2  0
 15 16  1  0
 16 17  1  0
 18 17  1  0
 18 19  1  0
 19 22  1  6
 18 23  1  1
  6 24  1  6
M  END