
  Mrv0541 05211314572D          

 29 30  0  0  0  0            999 V2000
   -0.5202    0.7757    0.0000 O   0  0  0  0  0  0  0  0  0  0  0  0
   -0.5202   -0.0493    0.0000 C   0  0  0  0  0  0  0  0  0  0  0  0
   -1.2347   -0.4618    0.0000 C   0  0  0  0  0  0  0  0  0  0  0  0
   -1.9492   -0.0493    0.0000 C   0  0  0  0  0  0  0  0  0  0  0  0
   -2.6636   -0.4618    0.0000 C   0  0  0  0  0  0  0  0  0  0  0  0
   -2.7499   -1.2822    0.0000 N   0  0  0  0  0  0  0  0  0  0  0  0
   -3.5568   -1.4538    0.0000 C   0  0  0  0  0  0  0  0  0  0  0  0
   -3.9693   -0.7393    0.0000 C   0  0  0  0  0  0  0  0  0  0  0  0
   -3.4173   -0.1262    0.0000 N   0  0  0  0  0  0  0  0  0  0  0  0
    0.1943   -0.4618    0.0000 N   0  0  0  0  0  0  0  0  0  0  0  0
    0.9087   -0.0493    0.0000 C   0  0  0  0  0  0  0  0  0  0  0  0
    1.6232   -0.4618    0.0000 C   0  0  0  0  0  0  0  0  0  0  0  0
    2.3377   -0.0493    0.0000 C   0  0  0  0  0  0  0  0  0  0  0  0
    3.0521   -0.4618    0.0000 C   0  0  0  0  0  0  0  0  0  0  0  0
    3.0521   -1.2868    0.0000 C   0  0  0  0  0  0  0  0  0  0  0  0
    2.3377   -1.6993    0.0000 C   0  0  0  0  0  0  0  0  0  0  0  0
    1.6232   -1.2868    0.0000 C   0  0  0  0  0  0  0  0  0  0  0  0
    0.9087    0.7757    0.0000 C   0  0  0  0  0  0  0  0  0  0  0  0
    0.1943    1.1882    0.0000 C   0  0  0  0  0  0  0  0  0  0  0  0
    0.1943    2.0132    0.0000 C   0  0  0  0  0  0  0  0  0  0  0  0
    0.9087    2.4257    0.0000 C   0  0  0  0  0  0  0  0  0  0  0  0
    1.6232    2.0132    0.0000 C   0  0  0  0  0  0  0  0  0  0  0  0
    1.6232    1.1882    0.0000 C   0  0  0  0  0  0  0  0  0  0  0  0
    5.9986    1.0717    0.0000 O   0  0  0  0  0  0  0  0  0  0  0  0
    6.4111    0.3572    0.0000 C   0  0  0  0  0  0  0  0  0  0  0  0
    7.2361    0.3572    0.0000 O   0  0  0  0  0  0  0  0  0  0  0  0
    5.9986   -0.3572    0.0000 C   0  0  0  0  0  0  0  0  0  0  0  0
    6.4111   -1.0717    0.0000 O   0  0  0  0  0  0  0  0  0  0  0  0
    5.1736   -0.3572    0.0000 O   0  0  0  0  0  0  0  0  0  0  0  0
  1  2  2  0  0  0  0
  2  3  1  0  0  0  0
  3  4  1  0  0  0  0
  4  5  1  0  0  0  0
  5  6  2  0  0  0  0
  6  7  1  0  0  0  0
  7  8  1  0  0  0  0
  8  9  1  0  0  0  0
  9  5  1  0  0  0  0
  2 10  1  0  0  0  0
 10 11  1  0  0  0  0
 11 12  1  0  0  0  0
 12 13  1  0  0  0  0
 13 14  1  0  0  0  0
 14 15  1  0  0  0  0
 15 16  1  0  0  0  0
 16 17  1  0  0  0  0
 17 12  1  0  0  0  0
 11 18  1  0  0  0  0
 18 19  2  0  0  0  0
 19 20  1  0  0  0  0
 20 21  2  0  0  0  0
 21 22  1  0  0  0  0
 22 23  2  0  0  0  0
 23 18  1  0  0  0  0
 24 25  1  0  0  0  0
 25 26  2  0  0  0  0
 25 27  1  0  0  0  0
 27 28  2  0  0  0  0
 27 29  1  0  0  0  0
M  END