
  SciTegic05061116452D

 25 27  0  0  0  0            999 V2000
   -2.4404  -20.4029    0.0000 N   0  0
   -1.7287  -19.9943    0.0000 C   0  0
   -1.7287  -19.1693    0.0000 N   0  0
   -2.4404  -18.7530    0.0000 C   0  0
   -3.1521  -19.9943    0.0000 C   0  0
   -3.1521  -19.1648    0.0000 C   0  0
   -3.9410  -18.9083    0.0000 N   0  0
   -4.4287  -19.5795    0.0000 C   0  0
   -3.9411  -20.2506    0.0000 N   0  0
   -4.1961  -21.0352    0.0000 C   0  0
   -5.0030  -21.2067    0.0000 C   0  0
   -5.2580  -21.9913    0.0000 O   0  0
   -5.5550  -20.5936    0.0000 O   0  0
   -2.4385  -17.9279    0.0000 N   0  0
   -1.0147  -20.4077    0.0000 N   0  0
   -0.2998  -19.9961    0.0000 C   0  0
    0.4142  -20.4094    0.0000 C   0  0
    1.1291  -19.9978    0.0000 C   0  0
    1.8431  -20.4111    0.0000 C   0  0
    2.5581  -19.9995    0.0000 C   0  0
   -1.7226  -17.5160    0.0000 C   0  0
   -1.7187  -16.6946    0.0000 C   0  0
   -2.4302  -16.2766    0.0000 O   0  0
   -3.1475  -16.6862    0.0000 C   0  0
   -3.1531  -17.5137    0.0000 C   0  0
 11 12  1  0
  6  4  1  0
 11 13  2  0
  5  1  1  0
  4 14  1  0
  1  2  2  0
  2 15  1  0
  2  3  1  0
 15 16  1  0
  6  7  1  0
 16 17  1  0
  7  8  2  0
 17 18  1  0
  8  9  1  0
 18 19  1  0
  9  5  1  0
 19 20  1  0
 14 21  1  0
  3  4  2  0
  9 10  1  0
  5  6  2  0
 10 11  1  0
 14 25  1  0
 21 22  1  0
 22 23  1  0
 23 24  1  0
 24 25  1  0
M  END