
  Mrv0541 04051115152D          

 17 18  0  0  0  0            999 V2000
   -0.6966   -0.7274    0.0000 C   0  0  0  0  0  0  0  0  0  0  0  0
   -1.4111   -0.3149    0.0000 C   0  0  0  0  0  0  0  0  0  0  0  0
   -1.4111    0.5101    0.0000 C   0  0  0  0  0  0  0  0  0  0  0  0
   -0.6966    0.9226    0.0000 C   0  0  0  0  0  0  0  0  0  0  0  0
    0.0179    0.5101    0.0000 C   0  0  0  0  0  0  0  0  0  0  0  0
    0.7323    0.9226    0.0000 C   0  0  0  0  0  0  0  0  0  0  0  0
    1.4468    0.5101    0.0000 C   0  0  0  0  0  0  0  0  0  0  0  0
    1.4468   -0.3149    0.0000 C   0  0  0  0  0  0  0  0  0  0  0  0
    0.7323   -0.7274    0.0000 C   0  0  0  0  0  0  0  0  0  0  0  0
    0.0179   -0.3149    0.0000 C   0  0  0  0  0  0  0  0  0  0  0  0
    0.7323    1.7476    0.0000 N   0  0  0  0  0  0  0  0  0  0  0  0
    1.4468    2.1601    0.0000 C   0  0  0  0  0  0  0  0  0  0  0  0
    0.0179    2.1601    0.0000 C   0  0  0  0  0  0  0  0  0  0  0  0
   -0.6966   -1.5524    0.0000 S   0  0  0  0  0  0  0  0  0  0  0  0
   -0.6966   -2.3774    0.0000 O   0  0  0  0  0  0  0  0  0  0  0  0
   -1.5216   -1.5524    0.0000 O   0  0  0  0  0  0  0  0  0  0  0  0
    0.1284   -1.5524    0.0000 N   0  0  0  0  0  0  0  0  0  0  0  0
  1  2  2  0  0  0  0
  1 10  1  0  0  0  0
  1 14  1  0  0  0  0
  2  3  1  0  0  0  0
  3  4  2  0  0  0  0
  4  5  1  0  0  0  0
  5  6  2  0  0  0  0
  5 10  1  0  0  0  0
  6  7  1  0  0  0  0
  6 11  1  0  0  0  0
  7  8  2  0  0  0  0
  8  9  1  0  0  0  0
  9 10  2  0  0  0  0
 12 11  1  0  0  0  0
 13 11  1  0  0  0  0
 15 14  2  0  0  0  0
 16 14  2  0  0  0  0
 17 14  1  0  0  0  0
M  END