
          11280715182D 1   1.00000     0.00000     0

 20 21  0     0  0            999 V2000
    8.7292   -3.0500    0.0000 C   0  0  0  0  0  0           0  0  0
    8.2042   -2.7542    0.0000 C   0  0  0  0  0  0           0  0  0
    7.6917   -3.0542    0.0000 C   0  0  0  0  0  0           0  0  0
    7.1667   -2.7542    0.0000 C   0  0  0  0  0  0           0  0  0
    8.7292   -3.6500    0.0000 O   0  0  0  0  0  0           0  0  0
    6.6500   -3.0542    0.0000 C   0  0  0  0  0  0           0  0  0
    4.5667   -1.8542    0.0000 O   0  0  0  0  0  0           0  0  0
    5.0917   -2.1542    0.0000 C   0  0  0  0  0  0           0  0  0
    6.1292   -2.7542    0.0000 C   0  0  0  0  0  0           0  0  0
    9.2500   -2.7500    0.0000 O   0  0  0  0  0  0           0  0  0
    4.0542   -2.1542    0.0000 C   0  0  0  0  0  0           0  0  0
    5.0917   -2.7542    0.0000 C   0  0  0  0  0  0           0  0  0
    5.6042   -1.8542    0.0000 C   0  0  0  0  0  0           0  0  0
    6.1292   -2.1542    0.0000 C   0  0  0  0  0  0           0  0  0
    5.6042   -3.0542    0.0000 C   0  0  0  0  0  0           0  0  0
    3.5292   -1.8542    0.0000 C   0  0  0  0  0  0           0  0  0
    4.0542   -2.7542    0.0000 C   0  0  0  0  0  0           0  0  0
    3.5292   -3.0542    0.0000 C   0  0  0  0  0  0           0  0  0
    3.0125   -2.1542    0.0000 C   0  0  0  0  0  0           0  0  0
    3.0125   -2.7542    0.0000 C   0  0  0  0  0  0           0  0  0
  2  1  1  0     0  0
  3  2  2  0     0  0
  4  3  1  0     0  0
  5  1  2  0     0  0
  6  4  2  0     0  0
  7  8  1  0     0  0
  8 12  2  0     0  0
  9  6  1  0     0  0
 10  1  1  0     0  0
 11  7  1  0     0  0
 12 15  1  0     0  0
 13 14  2  0     0  0
 14  9  1  0     0  0
 15  9  2  0     0  0
 16 11  1  0     0  0
 17 11  2  0     0  0
 18 17  1  0     0  0
 19 16  2  0     0  0
 20 18  2  0     0  0
 13  8  1  0     0  0
 19 20  1  0     0  0
M  END