
          11280715402D 1   1.00000     0.00000     0

 55 58  0     1  0            999 V2000
    0.7542   -2.4167    0.0000 C   0  0  1  0  0  0           0  0  0
    0.0417   -2.0042    0.0000 C   0  0  1  0  0  0           0  0  0
    1.4667   -1.1792    0.0000 C   0  0  1  0  0  0           0  0  0
    1.4667   -2.0042    0.0000 C   0  0  2  0  0  0           0  0  0
    0.0417   -1.1792    0.0000 C   0  0  2  0  0  0           0  0  0
    0.7542   -0.7667    0.0000 C   0  0  1  0  0  0           0  0  0
    0.7500   -4.0667    0.0000 P   0  0  3  0  0  0           0  0  0
   -1.4708   -2.6292    0.0000 P   0  0  3  0  0  0           0  0  0
    2.9792   -0.5542    0.0000 P   0  0  3  0  0  0           0  0  0
    0.7542   -3.2417    0.0000 O   0  0  0  0  0  0           0  0  0
   -0.6708   -2.4167    0.0000 O   0  0  0  0  0  0           0  0  0
    2.1792   -0.7667    0.0000 O   0  0  0  0  0  0           0  0  0
    7.3667   -0.1167    0.0000 C   0  0  0  0  0  0           0  0  0
   10.2375   -1.7542    0.0000 C   0  0  3  0  0  0           0  0  0
    8.0875   -0.5292    0.0000 C   0  0  0  0  0  0           0  0  0
   -1.6875   -1.8292    0.0000 O   0  0  0  0  0  0           0  0  0
   -0.0750   -4.0667    0.0000 O   0  0  0  0  0  0           0  0  0
    2.9750   -1.3792    0.0000 O   0  0  0  0  0  0           0  0  0
   10.2542   -4.2250    0.0000 C   0  0  0  0  0  0           0  0  0
   12.3667   -0.5042    0.0000 C   0  0  0  0  0  0           0  0  0
   10.9500   -1.3292    0.0000 C   0  0  0  0  0  0           0  0  0
    9.5167   -1.3417    0.0000 C   0  0  0  0  0  0           0  0  0
   10.2417   -2.5792    0.0000 C   0  0  0  0  0  0           0  0  0
   10.2542   -5.0500    0.0000 N   0  0  3  0  0  0           0  0  0
   13.0792   -0.0792    0.0000 N   0  0  3  0  0  0           0  0  0
    7.3667    0.7083    0.0000 O   0  0  0  0  0  0           0  0  0
    8.7917   -0.1125    0.0000 C   0  0  0  0  0  0           0  0  0
    8.0917   -1.3542    0.0000 C   0  0  0  0  0  0           0  0  0
    9.5375   -3.8167    0.0000 C   0  0  0  0  0  0           0  0  0
   11.6417   -0.0917    0.0000 C   0  0  0  0  0  0           0  0  0
   10.9667   -3.8042    0.0000 C   0  0  0  0  0  0           0  0  0
   12.3750   -1.3292    0.0000 C   0  0  0  0  0  0           0  0  0
    8.8042   -1.7625    0.0000 C   0  0  0  0  0  0           0  0  0
    9.5125   -0.5167    0.0000 C   0  0  0  0  0  0           0  0  0
    9.5292   -2.9917    0.0000 C   0  0  0  0  0  0           0  0  0
   10.9375   -0.5125    0.0000 C   0  0  0  0  0  0           0  0  0
   10.9542   -2.9792    0.0000 C   0  0  0  0  0  0           0  0  0
   11.6625   -1.7417    0.0000 C   0  0  0  0  0  0           0  0  0
   -2.2958   -2.6292    0.0000 O   0  0  0  0  0  0           0  0  0
    1.5750   -4.0667    0.0000 O   0  0  0  0  0  0           0  0  0
   -1.4750   -3.4542    0.0000 O   0  0  0  0  0  0           0  0  0
    0.7417   -4.8875    0.0000 O   0  0  0  0  0  0           0  0  0
    2.1792   -2.4167    0.0000 O   0  0  0  0  0  0           0  0  0
    2.9750    0.2708    0.0000 O   0  0  0  0  0  0           0  0  0
    0.7542    0.0583    0.0000 O   0  0  0  0  0  0           0  0  0
   -0.6708   -0.7667    0.0000 O   0  0  0  0  0  0           0  0  0
    6.6542   -0.5375    0.0000 N   0  0  0  0  0  0           0  0  0
    3.8042   -0.5542    0.0000 O   0  0  0  0  0  0           0  0  0
    5.2292   -0.5417    0.0000 C   0  0  0  0  0  0           0  0  0
    5.9417   -0.1292    0.0000 C   0  0  0  0  0  0           0  0  0
   10.9792   -5.4542    0.0000 C   0  0  0  0  0  0           0  0  0
    9.5500   -5.4667    0.0000 C   0  0  0  0  0  0           0  0  0
   13.7917   -0.4917    0.0000 C   0  0  0  0  0  0           0  0  0
   13.0667    0.7458    0.0000 C   0  0  0  0  0  0           0  0  0
    4.5167   -0.1375    0.0000 C   0  0  0  0  0  0           0  0  0
  2  1  1  0     0  0
  3  4  1  0     0  0
  4  1  1  0     0  0
  5  2  1  0     0  0
  6  3  1  0     0  0
  7 10  1  0     0  0
  8 11  1  0     0  0
  9 12  1  0     0  0
  1 10  1  1     0  0
  2 11  1  6     0  0
  3 12  1  1     0  0
 13 47  1  0     0  0
 14 22  1  0     0  0
 15 13  1  0     0  0
 16  8  2  0     0  0
 17  7  2  0     0  0
 18  9  2  0     0  0
 19 31  1  0     0  0
 20 32  2  0     0  0
 21 14  1  0     0  0
 22 33  2  0     0  0
 23 14  1  0     0  0
 24 19  1  0     0  0
 25 20  1  0     0  0
 26 13  2  0     0  0
 27 15  1  0     0  0
 28 15  2  0     0  0
 29 35  1  0     0  0
 30 36  2  0     0  0
 31 37  2  0     0  0
 32 38  1  0     0  0
 33 28  1  0     0  0
 34 27  2  0     0  0
 35 23  2  0     0  0
 36 21  1  0     0  0
 37 23  1  0     0  0
 38 21  2  0     0  0
 39  8  1  0     0  0
 40  7  1  0     0  0
 41  8  1  0     0  0
 42  7  1  0     0  0
  4 43  1  6     0  0
 44  9  1  0     0  0
  6 45  1  1     0  0
  5 46  1  1     0  0
 47 50  1  0     0  0
 48  9  1  0     0  0
 49 55  1  0     0  0
 50 49  1  0     0  0
 51 24  1  0     0  0
 52 24  1  0     0  0
 53 25  1  0     0  0
 54 25  1  0     0  0
 55 48  1  0     0  0
  6  5  1  0     0  0
 22 34  1  0     0  0
 19 29  2  0     0  0
 20 30  1  0     0  0
M  END