
  SciTegic10311316262D

 34 36  0  0  0  0            999 V2000
    2.4362  -18.1021    0.0000 O   0  0
    2.0279  -17.3896    0.0000 S   0  0
    1.6150  -18.0995    0.0000 O   0  0
    2.7473  -16.1521    0.0000 C   0  0
    2.7461  -16.9794    0.0000 C   0  0
    3.4609  -17.3923    0.0000 C   0  0
    4.1774  -16.9790    0.0000 C   0  0
    4.1745  -16.1484    0.0000 C   0  0
    3.4591  -15.7393    0.0000 C   0  0
    1.3172  -16.9783    0.0000 N   0  0
    4.8874  -15.7332    0.0000 N   0  0
    5.6035  -16.1430    0.0000 C   0  0
    6.3164  -15.7279    0.0000 C   0  0
    5.6066  -16.9680    0.0000 O   0  0
    7.0324  -16.1377    0.0000 S   0  0
    7.7453  -15.7225    0.0000 C   0  0
    8.4612  -16.1354    0.0000 N   0  0
    9.1720  -15.7238    0.0000 C   0  0
    9.1731  -14.8984    0.0000 C   0  0
    8.4573  -14.4864    0.0000 C   0  0
    7.7402  -14.8998    0.0000 N   0  0
    8.4570  -13.6614    0.0000 O   0  0
    9.8883  -14.4902    0.0000 C   0  0
   10.6028  -14.0777    0.0000 N   0  0
    9.8848  -16.1354    0.0000 C   0  0
    9.8834  -16.9615    0.0000 C   0  0
   10.5970  -17.3739    0.0000 C   0  0
   11.3125  -16.9614    0.0000 C   0  0
   11.3099  -16.1321    0.0000 C   0  0
   10.5957  -15.7234    0.0000 C   0  0
    6.3133  -14.9029    0.0000 C   0  0
    5.5972  -14.4931    0.0000 C   0  0
   12.0229  -15.7171    0.0000 O   0  0
   12.0200  -14.8921    0.0000 C   0  0
  2  1  2  0
  3  2  2  0
  4  5  2  0
  5  6  1  0
  6  7  2  0
  7  8  1  0
  8  9  2  0
  9  4  1  0
  5  2  1  0
  2 10  1  0
  8 11  1  0
 11 12  1  0
 12 13  1  0
 12 14  2  0
 13 15  1  0
 15 16  1  0
 16 17  2  0
 16 21  1  0
 17 18  1  0
 18 19  2  0
 19 20  1  0
 20 21  1  0
 20 22  2  0
 23 24  3  0
 19 23  1  0
 25 26  2  0
 26 27  1  0
 27 28  2  0
 28 29  1  0
 29 30  2  0
 30 25  1  0
 18 25  1  0
 13 31  1  0
 31 32  1  0
 29 33  1  0
 33 34  1  0
M  END