
          11280715372D 1   1.00000     0.00000     0

 37 38  0     1  0            999 V2000
    3.0500   -2.8667    0.0000 P   0  0  3  0  0  0           0  0  0
    6.1917   -5.0667    0.0000 C   0  0  0  0  0  0           0  0  0
    6.5417   -4.5917    0.0000 N   0  0  0  0  0  0           0  0  0
    7.5042   -4.1792    0.0000 C   0  0  0  0  0  0           0  0  0
    5.5917   -5.0042    0.0000 C   0  0  1  0  0  0           0  0  0
    7.1500   -4.6542    0.0000 C   0  0  2  0  0  0           0  0  0
    5.2375   -5.4792    0.0000 N   0  0  0  0  0  0           0  0  0
    8.1042   -4.2417    0.0000 N   0  0  0  0  0  0           0  0  0
    4.6292   -5.4167    0.0000 C   0  0  0  0  0  0           0  0  0
    9.0542   -3.8292    0.0000 C   0  0  0  0  0  0           0  0  0
    3.6417   -2.7542    0.0000 O   0  0  0  0  0  0           0  0  0
    2.9375   -2.2792    0.0000 O   0  0  0  0  0  0           0  0  0
    8.4625   -3.7667    0.0000 C   0  0  0  0  0  0           0  0  0
    6.4375   -5.6292    0.0000 O   0  0  0  0  0  0           0  0  0
    5.3500   -4.4417    0.0000 C   0  0  0  0  0  0           0  0  0
    7.2625   -3.6292    0.0000 O   0  0  0  0  0  0           0  0  0
    7.3917   -5.2167    0.0000 C   0  0  0  0  0  0           0  0  0
    9.5417   -3.4792    0.0000 C   0  0  0  0  0  0           0  0  0
    4.3917   -4.8667    0.0000 O   0  0  0  0  0  0           0  0  0
    3.1625   -3.4667    0.0000 O   0  0  0  0  0  0           0  0  0
    2.4542   -2.9917    0.0000 O   0  0  0  0  0  0           0  0  0
    4.0417   -3.2167    0.0000 C   0  0  0  0  0  0           0  0  0
    4.8292   -4.1417    0.0000 C   0  0  0  0  0  0           0  0  0
    4.2292   -4.2417    0.0000 C   0  0  0  0  0  0           0  0  0
    5.0250   -3.5667    0.0000 C   0  0  0  0  0  0           0  0  0
    3.8417   -3.7917    0.0000 C   0  0  0  0  0  0           0  0  0
    4.6292   -3.1167    0.0000 C   0  0  0  0  0  0           0  0  0
    9.4875   -2.8792    0.0000 O   0  0  0  0  0  0           0  0  0
    7.7625   -5.6792    0.0000 C   0  0  3  0  0  0           0  0  0
    9.1250   -4.4292    0.0000 C   0  0  0  0  0  0           0  0  0
    4.2792   -5.8917    0.0000 C   0  0  0  0  0  0           0  0  0
   10.0917   -3.7292    0.0000 C   0  0  0  0  0  0           0  0  0
    9.9667   -2.5292    0.0000 C   0  0  0  0  0  0           0  0  0
    7.5417   -6.2417    0.0000 C   0  0  0  0  0  0           0  0  0
    8.3542   -5.7542    0.0000 C   0  0  0  0  0  0           0  0  0
    9.6667   -4.6792    0.0000 C   0  0  0  0  0  0           0  0  0
   10.1542   -4.3167    0.0000 C   0  0  0  0  0  0           0  0  0
  2  5  1  0     0  0
  3  2  1  0     0  0
  4  6  1  0     0  0
  5 15  1  1     0  0
  6  3  1  0     0  0
  7  5  1  0     0  0
  8  4  1  0     0  0
  9  7  1  0     0  0
 10 13  1  0     0  0
 11  1  1  0     0  0
 12  1  2  0     0  0
 13  8  1  0     0  0
 14  2  2  0     0  0
 15 23  1  0     0  0
 16  4  2  0     0  0
  6 17  1  6     0  0
 18 10  2  0     0  0
 19  9  2  0     0  0
 20  1  1  0     0  0
 21  1  1  0     0  0
 22 11  1  0     0  0
 23 25  1  0     0  0
 24 26  1  0     0  0
 25 27  2  0     0  0
 26 22  2  0     0  0
 27 22  1  0     0  0
 28 18  1  0     0  0
 29 17  1  0     0  0
 30 10  1  0     0  0
 31  9  1  0     0  0
 32 18  1  0     0  0
 33 28  1  0     0  0
 34 29  1  0     0  0
 35 29  1  0     0  0
 36 30  2  0     0  0
 37 36  1  0     0  0
 24 23  2  0     0  0
 37 32  2  0     0  0
M  END