
  SciTegic01181116592D

 27 31  0  0  0  0            999 V2000
   18.9328  -22.2105    0.0000 C   0  0
   18.9326  -23.0355    0.0000 O   0  0
   18.2185  -21.7978    0.0000 N   0  0
   17.5060  -22.2150    0.0000 C   0  0
   16.7937  -21.8058    0.0000 C   0  0
   16.7897  -20.9805    0.0000 N   0  0
   17.5041  -20.5660    0.0000 C   0  0
   18.2226  -20.9768    0.0000 C   0  0
   19.6474  -21.7982    0.0000 C   0  0
   19.6486  -20.9708    0.0000 C   0  0
   20.3622  -22.2110    0.0000 C   0  0
   20.3604  -20.5580    0.0000 C   0  0
   21.0758  -20.9672    0.0000 C   0  0
   21.0806  -21.7936    0.0000 C   0  0
   21.8681  -22.0444    0.0000 N   0  0
   22.3501  -21.3729    0.0000 C   0  0
   21.8596  -20.7076    0.0000 C   0  0
   22.2797  -19.9976    0.0000 C   0  0
   23.1047  -20.0065    0.0000 N   0  0
   23.5026  -20.7263    0.0000 C   0  0
   24.3239  -20.7371    0.0000 C   0  0
   24.7479  -20.0290    0.0000 O   0  0
   24.3444  -19.3083    0.0000 C   0  0
   23.5168  -19.2957    0.0000 C   0  0
   16.0717  -20.5754    0.0000 C   0  0
   15.6567  -19.8624    0.0000 C   0  0
   15.2467  -20.5783    0.0000 C   0  0
 13 14  1  0
  3  8  1  0
  4  5  1  0
  5  6  1  0
  6  7  1  0
  7  8  1  0
 14 15  1  0
 15 16  1  0
 16 17  2  0
 17 13  1  0
 17 18  1  0
  1  9  1  0
 18 19  1  0
 19 20  1  0
  1  3  1  0
 10  9  2  0
  3  4  1  0
  9 11  1  0
 11 14  2  0
 19 24  1  0
 20 21  1  0
 21 22  1  0
 22 23  1  0
 23 24  1  0
 26 25  1  0
 27 26  1  0
 25 27  1  0
  1  2  2  0
 13 12  2  0
 12 10  1  0
  6 25  1  0
M  END