
          11280715102D 1   1.00000     0.00000     0

 29 32  0     0  0            999 V2000
    0.7542   -2.1292    0.0000 C   0  0  0  0  0  0           0  0  0
    0.7542   -1.3042    0.0000 N   0  0  3  0  0  0           0  0  0
    2.8917   -0.0667    0.0000 N   0  0  3  0  0  0           0  0  0
    1.4667   -0.8917    0.0000 C   0  0  3  0  0  0           0  0  0
    0.0417   -0.8917    0.0000 C   0  0  0  0  0  0           0  0  0
    1.4667   -2.5417    0.0000 O   0  0  0  0  0  0           0  0  0
    2.1792   -1.3042    0.0000 C   0  0  0  0  0  0           0  0  0
    1.4667   -0.0667    0.0000 C   0  0  0  0  0  0           0  0  0
    0.0417   -2.5417    0.0000 C   0  0  0  0  0  0           0  0  0
    2.1792    0.3458    0.0000 C   0  0  0  0  0  0           0  0  0
    2.8917   -0.8917    0.0000 C   0  0  0  0  0  0           0  0  0
    3.6042    0.3458    0.0000 C   0  0  0  0  0  0           0  0  0
    0.0417   -0.0667    0.0000 C   0  0  0  0  0  0           0  0  0
   -0.6708   -1.3125    0.0000 C   0  0  0  0  0  0           0  0  0
   -1.3875   -0.0750    0.0000 C   0  0  0  0  0  0           0  0  0
   -1.3833   -0.9042    0.0000 C   0  0  0  0  0  0           0  0  0
   -0.6708    0.3375    0.0000 C   0  0  0  0  0  0           0  0  0
    4.3167   -0.0750    0.0000 C   0  0  0  0  0  0           0  0  0
   -2.1083    0.3375    0.0000 O   0  0  0  0  0  0           0  0  0
    0.0500   -3.3667    0.0000 C   0  0  0  0  0  0           0  0  0
   -0.6708   -2.1292    0.0000 C   0  0  0  0  0  0           0  0  0
    5.0292    0.3375    0.0000 C   0  0  0  0  0  0           0  0  0
    4.3167   -0.9000    0.0000 C   0  0  0  0  0  0           0  0  0
   -1.3833   -2.5417    0.0000 C   0  0  0  0  0  0           0  0  0
   -0.6625   -3.7792    0.0000 C   0  0  0  0  0  0           0  0  0
    5.0292   -1.3125    0.0000 C   0  0  0  0  0  0           0  0  0
    5.7417   -0.0750    0.0000 C   0  0  0  0  0  0           0  0  0
   -1.3833   -3.3667    0.0000 C   0  0  0  0  0  0           0  0  0
    5.7417   -0.9042    0.0000 C   0  0  0  0  0  0           0  0  0
  2  1  1  0     0  0
  3 10  1  0     0  0
  4  2  1  0     0  0
  5  2  1  0     0  0
  6  1  2  0     0  0
  7  4  1  0     0  0
  8  4  1  0     0  0
  9  1  1  0     0  0
 10  8  1  0     0  0
 11  7  1  0     0  0
 12  3  1  0     0  0
 13  5  2  0     0  0
 14  5  1  0     0  0
 15 16  1  0     0  0
 16 14  2  0     0  0
 17 13  1  0     0  0
 18 12  1  0     0  0
 19 15  1  0     0  0
 20  9  1  0     0  0
 21  9  2  0     0  0
 22 18  1  0     0  0
 23 18  2  0     0  0
 24 21  1  0     0  0
 25 20  2  0     0  0
 26 23  1  0     0  0
 27 22  2  0     0  0
 28 24  2  0     0  0
 29 26  2  0     0  0
 28 25  1  0     0  0
 15 17  2  0     0  0
  3 11  1  0     0  0
 29 27  1  0     0  0
M  END