
  SciTegic01181116592D

 23 25  0  0  0  0            999 V2000
   -4.9014    2.3000    0.0000 C   0  0
   -4.9026    1.4727    0.0000 C   0  0
   -4.1878    1.0598    0.0000 C   0  0
   -3.4713    1.4731    0.0000 C   0  0
   -3.4742    2.3037    0.0000 C   0  0
   -4.1896    2.7128    0.0000 C   0  0
   -5.6174    1.0607    0.0000 Cl  0  0
   -2.7613    2.7189    0.0000 C   0  0
   -2.0453    2.3091    0.0000 C   0  0
   -2.7644    3.5439    0.0000 O   0  0
   -4.1880    0.2348    0.0000 S   0  0
   -3.4736   -0.1779    0.0000 N   0  0
   -4.9917    0.4542    0.0000 O   0  0
   -4.7792   -0.3458    0.0000 O   0  0
   -1.3323    2.7244    0.0000 N   0  0
   -0.5874    3.8275    0.0000 N   0  0
   -1.3627    3.5455    0.0000 C   0  0
   -0.0798    3.1771    0.0000 C   0  0
   -0.5425    2.4950    0.0000 C   0  0
   -0.1830    1.7553    0.0000 C   0  0
    0.6388    1.6966    0.0000 C   0  0
    1.1000    2.3835    0.0000 C   0  0
    0.7380    3.1204    0.0000 C   0  0
  5  6  2  0
 11 12  1  0
  6  1  1  0
 11 13  2  0
  1  2  2  0
 11 14  2  0
  2  7  1  0
  9 15  1  0
 15 19  1  0
  3  4  2  0
  5  8  1  0
 18 16  1  0
 16 17  2  0
 17 15  1  0
  8  9  1  0
 18 19  2  0
  4  5  1  0
 19 20  1  0
  8 10  2  0
 20 21  2  0
  2  3  1  0
 21 22  1  0
  3 11  1  0
 22 23  2  0
 23 18  1  0
M  END