
          03140815512D 1   1.00000     0.00000     0

 19 20  0     0  0            999 V2000
   -2.4676    2.3670    0.0000 C   0  0  0  0  0  0           0  0  0
   -2.4676    1.5383    0.0000 C   0  0  0  0  0  0           0  0  0
   -1.7540    1.1262    0.0000 N   0  0  3  0  0  0           0  0  0
   -1.0357    1.5383    0.0000 C   0  0  0  0  0  0           0  0  0
   -1.0357    2.3670    0.0000 C   0  0  0  0  0  0           0  0  0
   -1.7540    2.7835    0.0000 C   0  0  0  0  0  0           0  0  0
   -1.7552    0.3022    0.0000 S   0  0  3  0  0  0           0  0  0
   -1.7627   -0.5173    0.0000 N   0  0  0  0  0  0           0  0  0
   -0.9311    0.2979    0.0000 O   0  0  0  0  0  0           0  0  0
   -2.5793    0.3019    0.0000 O   0  0  0  0  0  0           0  0  0
   -2.4800   -0.9229    0.0000 C   0  0  0  0  0  0           0  0  0
   -3.1868   -0.5015    0.0000 C   0  0  0  0  0  0           0  0  0
   -3.9036   -0.9063    0.0000 C   0  0  0  0  0  0           0  0  0
   -3.9116   -1.7312    0.0000 C   0  0  0  0  0  0           0  0  0
   -3.1968   -2.1496    0.0000 C   0  0  0  0  0  0           0  0  0
   -2.4828   -1.7424    0.0000 C   0  0  0  0  0  0           0  0  0
   -4.6328   -2.1378    0.0000 N   0  3  0  0  0  0           0  0  0
   -4.6391   -2.9619    0.0000 O   0  0  0  0  0  0           0  0  0
   -5.3432   -1.7201    0.0000 O   0  5  0  0  0  0           0  0  0
  2  3  1  0     0  0
  7 10  2  0     0  0
  3  4  1  0     0  0
  8 11  1  0     0  0
  4  5  1  0     0  0
 11 12  2  0     0  0
  5  6  1  0     0  0
 12 13  1  0     0  0
 13 14  2  0     0  0
  3  7  1  0     0  0
 14 15  1  0     0  0
  1  2  1  0     0  0
 15 16  2  0     0  0
 16 11  1  0     0  0
  7  8  1  0     0  0
  1  6  1  0     0  0
  7  9  2  0     0  0
 17 18  2  0     0  0
 17 19  1  0     0  0
 14 17  1  0     0  0
M  CHG  2  17   1  19  -1
M  END