
  CDK    9/16/09,9:47

 43 46  0  0  0  0  0  0  0  0999 V2000
   14.5909  -19.3688    0.0000 N   0  0  0  0  0  0  0  0  0  0  0  0
   15.4059  -19.4918    0.0000 C   0  0  0  0  0  0  0  0  0  0  0  0
   15.7817  -18.7537    0.0000 N   0  0  0  0  0  0  0  0  0  0  0  0
   15.1925  -18.1731    0.0000 C   0  0  0  0  0  0  0  0  0  0  0  0
   14.4604  -18.5583    0.0000 C   0  0  0  0  0  0  0  0  0  0  0  0
   15.8356  -20.1992    0.0000 C   0  0  0  0  0  0  0  0  0  0  0  0
   15.4334  -20.9217    0.0000 C   0  0  0  0  0  0  0  0  0  0  0  0
   15.8580  -21.6302    0.0000 C   0  0  0  0  0  0  0  0  0  0  0  0
   16.6849  -21.6115    0.0000 C   0  0  0  0  0  0  0  0  0  0  0  0
   17.0823  -20.8829    0.0000 C   0  0  0  0  0  0  0  0  0  0  0  0
   16.6588  -20.1805    0.0000 C   0  0  0  0  0  0  0  0  0  0  0  0
   17.1103  -22.3184    0.0000 F   0  0  0  0  0  0  0  0  0  0  0  0
   15.1581  -17.3452    0.0000 C   0  0  0  0  0  0  0  0  0  0  0  0
   15.8522  -16.8992    0.0000 C   0  0  0  0  0  0  0  0  0  0  0  0
   14.4231  -16.9678    0.0000 C   0  0  0  0  0  0  0  0  0  0  0  0
   16.4831  -18.3125    0.0000 C   0  0  0  0  0  0  0  0  0  0  0  0
   17.2119  -18.6976    0.0000 C   0  0  0  0  0  0  0  0  0  0  0  0
   17.9154  -18.2571    0.0000 C   0  0  0  0  0  0  0  0  0  0  0  0
   18.6438  -18.6401    0.0000 C   0  0  0  0  0  0  0  0  0  0  0  0
   19.3416  -18.1981    0.0000 C   0  0  0  0  0  0  0  0  0  0  0  0
   20.0704  -18.5832    0.0000 C   0  0  0  0  0  0  0  0  0  0  0  0
   20.7719  -18.1434    0.0000 C   0  0  0  0  0  0  0  0  0  0  0  0
   21.5023  -18.5258    0.0000 O   0  0  0  0  0  0  0  0  0  0  0  0
   20.7380  -17.3150    0.0000 O   0  0  0  0  0  0  0  0  0  0  0  0
   17.8766  -17.4335    0.0000 O   0  0  0  0  0  0  0  0  0  0  0  0
   19.3063  -17.3724    0.0000 O   0  0  0  0  0  0  0  0  0  0  0  0
   13.7249  -18.1887    0.0000 C   0  0  0  0  0  0  0  0  0  0  0  0
   13.0101  -18.5950    0.0000 N   0  0  0  0  0  0  0  0  0  0  0  0
   13.6759  -17.3678    0.0000 O   0  0  0  0  0  0  0  0  0  0  0  0
   12.3028  -18.1764    0.0000 C   0  0  0  0  0  0  0  0  0  0  0  0
   11.5823  -18.5812    0.0000 C   0  0  0  0  0  0  0  0  0  0  0  0
   10.8767  -18.1572    0.0000 C   0  0  0  0  0  0  0  0  0  0  0  0
   10.1606  -18.5589    0.0000 C   0  0  0  0  0  0  0  0  0  0  0  0
   10.1525  -19.3851    0.0000 C   0  0  0  0  0  0  0  0  0  0  0  0
   10.8637  -19.8056    0.0000 C   0  0  0  0  0  0  0  0  0  0  0  0
   11.5790  -19.3982    0.0000 C   0  0  0  0  0  0  0  0  0  0  0  0
    9.4510  -18.1385    0.0000 C   0  0  0  0  0  0  0  0  0  0  0  0
    9.4643  -17.3150    0.0000 C   0  0  0  0  0  0  0  0  0  0  0  0
    8.7555  -16.8947    0.0000 C   0  0  0  0  0  0  0  0  0  0  0  0
    8.0357  -17.2991    0.0000 C   0  0  0  0  0  0  0  0  0  0  0  0
    8.0291  -18.1281    0.0000 C   0  0  0  0  0  0  0  0  0  0  0  0
    8.7385  -18.5446    0.0000 C   0  0  0  0  0  0  0  0  0  0  0  0
    8.7331  -19.3693    0.0000 F   0  0  0  0  0  0  0  0  0  0  0  0
  6  7  2  0  0  0  0 
  7  8  1  0  0  0  0 
  8  9  2  0  0  0  0 
  9 10  1  0  0  0  0 
 10 11  2  0  0  0  0 
 11  6  1  0  0  0  0 
  9 12  1  0  0  0  0 
  4 13  1  0  0  0  0 
 13 14  1  0  0  0  0 
 13 15  1  0  0  0  0 
  3 16  1  0  0  0  0 
 16 17  1  0  0  0  0 
 17 18  1  0  0  0  0 
 18 19  1  0  0  0  0 
 19 20  1  0  0  0  0 
 20 21  1  0  0  0  0 
 21 22  1  0  0  0  0 
 22 23  1  0  0  0  0 
 22 24  2  0  0  0  0 
 18 25  1  1  0  0  0 
 20 26  1  1  0  0  0 
  5 27  1  0  0  0  0 
 27 28  1  0  0  0  0 
 27 29  2  0  0  0  0 
 28 30  1  0  0  0  0 
 30 31  1  0  0  0  0 
 31 32  2  0  0  0  0 
 32 33  1  0  0  0  0 
 33 34  2  0  0  0  0 
 34 35  1  0  0  0  0 
 35 36  2  0  0  0  0 
 36 31  1  0  0  0  0 
 33 37  1  0  0  0  0 
  1  2  2  0  0  0  0 
 37 38  2  0  0  0  0 
  2  3  1  0  0  0  0 
 38 39  1  0  0  0  0 
  3  4  1  0  0  0  0 
 39 40  2  0  0  0  0 
  4  5  2  0  0  0  0 
 40 41  1  0  0  0  0 
  5  1  1  0  0  0  0 
 41 42  2  0  0  0  0 
 42 37  1  0  0  0  0 
  2  6  1  0  0  0  0 
 42 43  1  0  0  0  0 
M  END