
  SciTegic12201110432D

 27 29  0  0  0  0            999 V2000
   -3.7765   -0.6703    0.0000 C   0  0
   -3.9480   -1.4773    0.0000 C   0  0
   -3.3349   -2.0293    0.0000 C   0  0
   -3.5064   -2.8363    0.0000 Cl  0  0
   -2.5503   -1.7744    0.0000 C   0  0
   -2.3788   -0.9674    0.0000 C   0  0
   -2.9919   -0.4154    0.0000 C   0  0
   -2.8203    0.3916    0.0000 O   0  0
   -2.0357    0.6465    0.0000 C   0  0
   -1.8642    1.4535    0.0000 C   0  0
   -1.0796    1.7085    0.0000 C   0  0
   -1.4226    0.0945    0.0000 C   0  0
   -0.6380    0.3494    0.0000 C   0  0
   -0.4665    1.1564    0.0000 C   0  0
    0.3181    1.4114    0.0000 O   0  0
    0.9312    0.8593    0.0000 C   0  0
    1.7159    1.1143    0.0000 C   0  0  2  0  0  0
    1.9708    1.8989    0.0000 C   0  0
    2.7958    1.8989    0.0000 C   0  0
    3.0507    1.1143    0.0000 C   0  0
    2.3833    0.6293    0.0000 N   0  0
    2.3833   -0.1957    0.0000 C   0  0
    3.0978   -0.6082    0.0000 C   0  0
    3.8122   -0.1957    0.0000 C   0  0
    4.5267   -0.6082    0.0000 C   0  0
    5.2412   -0.1957    0.0000 O   0  0
    4.5267   -1.4332    0.0000 O   0  0
  2  1  2  0
  1  7  1  0
  3  2  1  0
  3  4  1  0
  5  3  2  0
  5  6  1  0
  7  6  2  0
  7  8  1  0
  9  8  1  0
  9 10  2  0
  9 12  1  0
 11 10  1  0
 14 11  2  0
 12 13  2  0
 13 14  1  0
 14 15  1  0
 16 15  1  0
 17 16  1  6
 17 18  1  0
 17 21  1  0
 18 19  1  0
 19 20  1  0
 20 21  1  0
 22 21  1  0
 22 23  1  0
 23 24  1  0
 24 25  1  0
 25 26  1  0
 25 27  2  0
M  END