
  SciTegic11201309402D

 71 77  0  0  1  0            999 V2000
   -3.0293  -23.2846    0.0000 C   0  0  1  0  0  0
   -2.3121  -23.6971    0.0000 C   0  0
   -3.0293  -22.4596    0.0000 C   0  0
   -2.3121  -24.5220    0.0000 O   0  0
   -0.8823  -23.6971    0.0000 C   0  0  2  0  0  0
   -3.7466  -22.0422    0.0000 C   0  0
   -3.7417  -21.2202    0.0000 C   0  0
   -4.4575  -20.8030    0.0000 C   0  0
   -4.4549  -22.4587    0.0000 C   0  0
   -5.1669  -22.0481    0.0000 C   0  0
   -5.1685  -21.2222    0.0000 C   0  0
   -5.8847  -20.8065    0.0000 C   0  0
   -6.6003  -21.2244    0.0000 C   0  0
   -6.5964  -22.0558    0.0000 C   0  0
   -5.8792  -22.4601    0.0000 C   0  0
   -3.7487  -24.5176    0.0000 C   0  0
   -4.3903  -25.0334    0.0000 C   0  0  2  0  0  0
   -3.0293  -24.9346    0.0000 O   0  0
   -5.1882  -24.8248    0.0000 C   0  0
   -5.6374  -25.5162    0.0000 C   0  0
   -5.1175  -26.1554    0.0000 C   0  0
   -4.3524  -25.8649    0.0000 N   0  0
   -3.6593  -26.3154    0.0000 C   0  0
   -3.7020  -27.1354    0.0000 C   0  0
   -2.9187  -25.9460    0.0000 O   0  0
   -4.4475  -27.5083    0.0000 C   0  0
   -4.4882  -28.3311    0.0000 C   0  0
   -3.7968  -28.7789    0.0000 C   0  0
   -3.0581  -28.4086    0.0000 C   0  0
   -3.0147  -27.5854    0.0000 C   0  0
   -0.1699  -23.2846    0.0000 C   0  0
   -0.8823  -24.5220    0.0000 C   0  0
   -0.1699  -24.9346    0.0000 C   0  0
   -0.1699  -25.7644    0.0000 C   0  0
    0.5472  -26.9987    0.0000 C   0  0
    1.2644  -27.4111    0.0000 N   0  0
   -0.1699  -22.4596    0.0000 O   0  0
    1.2647  -23.2846    0.0000 C   0  0  2  0  0  0
    1.9771  -23.6971    0.0000 C   0  0
    1.2647  -22.4596    0.0000 C   0  0
    1.9771  -22.0422    0.0000 C   0  0
    2.6944  -23.2846    0.0000 O   0  0
    2.6944  -24.9346    0.0000 C   0  0  1  0  0  0
    2.6944  -25.7644    0.0000 C   0  0
    3.4069  -24.5220    0.0000 C   0  0
    4.1242  -24.9346    0.0000 O   0  0
    3.4069  -26.1720    0.0000 C   0  0
    3.4069  -27.0019    0.0000 C   0  0
    4.1242  -27.4143    0.0000 C   0  0
    2.7323  -22.3744    0.0000 C   0  0
    2.0689  -21.2176    0.0000 C   0  0
    2.8727  -21.0523    0.0000 C   0  0
    3.1318  -20.2696    0.0000 C   0  0
    2.5839  -19.6509    0.0000 C   0  0
    1.7712  -19.8292    0.0000 C   0  0
    1.5140  -20.6067    0.0000 C   0  0
    4.1272  -28.2397    0.0000 N   0  0
    3.4129  -28.6573    0.0000 C   0  0
    2.6956  -28.2449    0.0000 C   0  0
    1.9813  -28.6626    0.0000 C   0  0
   -2.2811  -27.2056    0.0000 C   0  0
   -2.2415  -26.3825    0.0000 O   0  0
   -3.7463  -23.6926    0.0000 N   0  0
   -1.5949  -23.2778    0.0000 N   0  0
    0.5464  -26.1737    0.0000 N   0  0
   -0.1653  -27.4092    0.0000 N   0  0
    0.5498  -23.6896    0.0000 N   0  0
    1.9799  -24.5221    0.0000 N   0  0
    3.4061  -23.6988    0.0000 N   0  0
    3.2884  -21.7650    0.0000 N   0  0
   -4.5995  -24.0555    0.0000 H   0  0
 11 12  1  0
 12 13  2  0
 13 14  1  0
 14 15  2  0
 15 10  1  0
 17 16  1  0
 16 18  2  0
 17 19  1  0
 19 20  1  0
 20 21  1  0
 21 22  1  0
 22 17  1  0
 22 23  1  0
 23 24  1  0
 23 25  2  0
 24 26  2  0
 26 27  1  0
 27 28  2  0
 28 29  1  0
 29 30  2  0
 30 24  1  0
  5 31  1  0
  5 32  1  6
 32 33  1  0
 33 34  1  0
 35 36  2  0
 31 37  2  0
 38 39  1  0
 38 40  1  1
 40 41  1  0
 39 42  2  0
 43 44  1  0
 43 45  1  6
 45 46  2  0
 44 47  1  0
 47 48  1  0
 48 49  1  0
 41 50  2  0
 51 41  1  0
 51 52  2  0
 52 53  1  0
 53 54  2  0
 54 55  1  0
 55 56  2  0
 56 51  1  0
 49 57  1  0
 57 58  1  0
  1  2  1  0
 58 59  1  0
  1  3  1  6
 59 60  1  0
  2  4  2  0
 30 61  1  0
 61 62  2  0
 60 61  1  0
  3  6  1  0
  6  7  2  0
  7  8  1  0
  8 11  2  0
 10  9  2  0
  9  6  1  0
 10 11  1  0
 35 66  1  0
  2 64  1  0
 64  5  1  0
 31 67  1  0
 67 38  1  0
 63 16  1  0
 63  1  1  0
 39 68  1  0
 68 43  1  0
 34 65  1  0
 65 35  1  0
 45 69  1  0
 50 70  1  0
 70 52  1  0
 17 71  1  6
M  END