
  SciTegic11201309402D

 92 97  0  0  1  0            999 V2000
    7.3683   -5.8913    0.0000 N   0  0
    6.5707   -5.6804    0.0000 C   0  0
    7.2194   -7.3539    0.0000 C   0  0
    3.5296   -2.6591    0.0000 C   0  0
    2.5159   -1.6520    0.0000 N   0  0
    2.2997   -0.8558    0.0000 C   0  0
    7.6665   -6.6605    0.0000 C   0  0  1  0  0  0
    5.3409   -3.8771    0.0000 C   0  0
    0.4884    0.3622    0.0000 C   0  0
    7.5263   -9.5150    0.0000 C   0  0
    4.3272   -2.8700    0.0000 N   0  0
    3.0303    1.9071    0.0000 C   0  0
    1.2860    0.1513    0.0000 N   0  0
    3.3134   -1.8629    0.0000 C   0  0  1  0  0  0
    5.5570   -4.6733    0.0000 N   0  0
    7.5964   -8.0877    0.0000 N   0  0
    4.5433   -3.6662    0.0000 C   0  0  1  0  0  0
    7.0792  -10.2083    0.0000 N   0  0
    3.9618   -4.2514    0.0000 C   0  0
    1.5021   -0.6449    0.0000 C   0  0  1  0  0  0
    6.3546   -4.8842    0.0000 C   0  0  1  0  0  0
    0.2723    1.1584    0.0000 C   0  0  2  0  0  0
    6.8689  -14.4900    0.0000 C   0  0
    3.9234   -7.1920    0.0000 C   0  0
    1.6513    1.5328    0.0000 C   0  0
    0.8537    1.7437    0.0000 N   0  0
    8.2802  -10.9827    0.0000 C   0  0
    4.1780   -5.0476    0.0000 C   0  0
    7.1493   -8.7811    0.0000 C   0  0  1  0  0  0
    7.4562  -10.9422    0.0000 C   0  0  2  0  0  0
    3.5465   -6.4581    0.0000 N   0  0
    7.2458  -15.2238    0.0000 N   0  0
    3.7658    3.0282    0.0000 C   0  0
    4.5014    1.9071    0.0000 C   0  0
    3.3163    1.4905    0.0000 C   0  0
    5.9893   -6.2656    0.0000 O   0  0
    6.3954   -7.3134    0.0000 O   0  0
    2.9481   -3.2443    0.0000 O   0  0
    2.2328    2.1180    0.0000 C   0  0
    2.8812   -0.2705    0.0000 O   0  0
    5.9223   -3.2918    0.0000 O   0  0
   -0.0930   -0.2231    0.0000 O   0  0
    8.3503   -9.5554    0.0000 O   0  0
    2.5809    1.1168    0.0000 C   0  0
    3.7658    1.5334    0.0000 C   0  0
    3.0303    2.6545    0.0000 C   0  0
   -0.5253    1.3693    0.0000 C   0  0
    0.9207   -1.2302    0.0000 C   0  0
    8.6571  -11.7165    0.0000 O   0  0
    1.8674    0.7366    0.0000 O   0  0
    4.9756   -5.2585    0.0000 O   0  0
    4.5014    2.6545    0.0000 C   0  0
    3.3163    2.2379    0.0000 C   0  0
    4.0519    1.1168    0.0000 C   0  0
    4.7474   -7.2325    0.0000 N   0  0
    7.3160  -13.7966    0.0000 N   0  0
    3.4764   -7.8854    0.0000 N   0  0
    6.0449  -14.4495    0.0000 N   0  0
    8.7272  -10.2893    0.0000 N   0  0
    8.0078   -5.3700    0.0000 C   0  0
    3.8949   -1.2776    0.0000 C   0  0
    3.5965   -5.6329    0.0000 N   0  0
   -0.7414    2.1655    0.0000 C   0  0
   -1.1737    3.7579    0.0000 C   0  0
    1.1368   -2.0263    0.0000 C   0  0
   -0.1600    2.7508    0.0000 C   0  0
   -1.5390    2.3764    0.0000 C   0  0
    7.6667   -1.5360    0.0000 N   0  0
   -1.7552    3.1726    0.0000 C   0  0
   -0.3761    3.5470    0.0000 C   0  0
    8.4902   -6.6146    0.0000 C   0  0
   -1.3898    4.5541    0.0000 O   0  0
    8.7011   -5.8171    0.0000 C   0  0
    6.9360   -4.2989    0.0000 C   0  0
    6.3253   -8.7406    0.0000 C   0  0
    7.0091  -11.6356    0.0000 C   0  0
    6.9390  -13.0628    0.0000 C   0  0
    5.1244   -7.9663    0.0000 C   0  0
    7.0852   -2.1213    0.0000 C   0  0
    4.6925   -1.4885    0.0000 C   0  0
    3.6788   -0.4814    0.0000 C   0  0
   -0.8084    5.1393    0.0000 C   0  0
    0.5554   -2.6116    0.0000 C   0  0
    1.9344   -2.2373    0.0000 C   0  0
    5.9484   -8.0068    0.0000 C   0  0
    7.3861  -12.3694    0.0000 C   0  0
    6.7199   -3.5027    0.0000 C   0  0
    7.3014   -2.9175    0.0000 C   0  0
   -1.0245    5.9355    0.0000 C   0  0
    0.7715   -3.4078    0.0000 C   0  0
    2.1505   -3.0334    0.0000 C   0  0
    1.5691   -3.6187    0.0000 C   0  0
  2  1  1  0
  7  3  1  6
  4 11  1  0
 14  5  1  1
  6  5  1  0
  7  1  1  0
  8 15  1  0
  9 13  1  0
 10 29  1  0
 17 11  1  6
 12 39  1  0
 20 13  1  6
 14  4  1  0
 21 15  1  1
 16  3  1  0
 17  8  1  0
 18 10  1  0
 17 19  1  0
 20  6  1  0
 21  2  1  0
 22  9  1  0
 23 56  2  0
 24 55  2  0
 25 26  1  0
 22 26  1  1
 27 30  1  0
 28 19  1  0
 29 16  1  6
 30 18  1  6
 31 24  1  0
 32 23  1  0
 33 46  1  0
 34 45  1  0
 35 44  1  0
 36  2  2  0
 37  3  2  0
 38  4  2  0
 39 25  1  0
 40  6  2  0
 41  8  2  0
 42  9  2  0
 43 10  2  0
 44 12  1  0
 45 12  1  0
 35 54  1  0
 22 47  1  0
 20 48  1  0
 49 27  2  0
 50 25  2  0
 51 28  2  0
 52 33  1  0
 53 33  1  0
 34 54  1  0
 55 78  1  0
 56 77  1  0
 57 24  1  0
 58 23  1  0
 59 27  1  0
 60  1  1  0
 14 61  1  0
 62 28  1  0
 63 47  1  0
 64 69  1  0
 65 48  1  0
 66 63  2  0
 67 63  1  0
 68 79  1  0
 69 67  2  0
 70 66  1  0
  7 71  1  0
 72 64  1  0
 73 60  1  0
 21 74  1  0
 29 75  1  0
 30 76  1  0
 77 86  1  0
 78 85  1  0
 79 88  1  0
 80 61  1  0
 81 61  1  0
 82 72  1  0
 83 65  1  0
 84 65  2  0
 85 75  1  0
 86 76  1  0
 87 74  1  0
 88 87  1  0
 89 82  1  0
 90 83  2  0
 91 84  1  0
 92 91  2  0
 73 71  1  0
 90 92  1  0
 64 70  2  0
 35 53  1  0
 34 52  1  0
 46 12  1  0
M  END