
  SciTegic06231513572D

 75 81  0  0  0  0            999 V2000
   21.4056  -23.7301    0.0000 N   0  0
   21.4037  -24.5581    0.0000 C   0  0
   22.1210  -24.9716    0.0000 N   0  0
   22.1157  -23.3171    0.0000 C   0  0
   22.8307  -23.7286    0.0000 C   0  0
   22.8379  -24.5558    0.0000 C   0  0
   23.6270  -24.8066    0.0000 N   0  0
   24.1071  -24.1314    0.0000 C   0  0
   23.6192  -23.4682    0.0000 N   0  0
   20.6878  -24.9706    0.0000 O   0  0
   22.1157  -22.4921    0.0000 O   0  0
   24.9321  -24.1314    0.0000 C   0  0
   25.3458  -24.8424    0.0000 C   0  0
   26.1739  -24.8355    0.0000 C   0  0
   26.5812  -24.1190    0.0000 C   0  0
   26.1597  -23.4078    0.0000 C   0  0
   25.3381  -23.4158    0.0000 C   0  0
   27.4062  -24.1190    0.0000 O   0  0
   20.6897  -23.3176    0.0000 C   0  0
   19.9779  -23.7302    0.0000 C   0  0
   19.2621  -23.3177    0.0000 C   0  0
   22.1210  -25.7966    0.0000 C   0  0
   21.4059  -26.2087    0.0000 C   0  0
   21.4059  -27.0341    0.0000 C   0  0
   27.8206  -23.3997    0.0000 C   0  0
   28.6436  -23.3997    0.0000 C   0  0
   29.0566  -22.6872    0.0000 N   0  0
   29.0557  -24.1148    0.0000 O   0  0
   29.8811  -22.6872    0.0000 C   0  0
   30.2937  -21.9711    0.0000 C   0  0
   31.1186  -21.9711    0.0000 N   0  0
   31.5311  -21.2553    0.0000 C   0  0
   32.3561  -21.2553    0.0000 C   0  0
   31.1186  -20.5435    0.0000 O   0  0
   32.7686  -21.9711    0.0000 C   0  0
   33.5936  -21.9711    0.0000 C   0  0
   34.0061  -22.6870    0.0000 C   0  0
   34.8311  -22.6870    0.0000 C   0  0
   35.2436  -23.3986    0.0000 N   0  0
   34.9102  -24.1531    0.0000 C   0  0
   35.5224  -24.7061    0.0000 C   0  0
   36.2341  -24.2937    0.0000 C   0  0
   36.0659  -23.4834    0.0000 C   0  0
   37.0188  -24.5466    0.0000 C   0  0
   37.6352  -23.9977    0.0000 C   0  0
   37.4628  -23.1875    0.0000 C   0  0
   36.6782  -22.9345    0.0000 C   0  0
   34.1000  -24.3255    0.0000 C   0  0
   33.8470  -25.1101    0.0000 C   0  0
   33.0411  -25.2824    0.0000 C   0  0
   32.7840  -26.0672    0.0000 C   0  0
   31.9779  -26.2353    0.0000 C   0  0
   31.7208  -27.0242    0.0000 C   0  0
   30.9403  -27.2771    0.0000 N   0  3
   30.9403  -28.1021    0.0000 C   0  0
   31.7208  -28.3550    0.0000 C   0  0
   32.2056  -27.6896    0.0000 C   0  0
   30.3239  -28.6551    0.0000 C   0  0
   30.4963  -29.4611    0.0000 C   0  0
   31.2809  -29.7141    0.0000 C   0  0
   31.8932  -29.1652    0.0000 C   0  0
   31.4534  -30.5243    0.0000 S   0  0
   30.2708  -26.7924    0.0000 C   0  0
   29.5164  -27.1258    0.0000 C   0  0
   32.9215  -28.1021    0.0000 C   0  0
   32.9215  -27.2771    0.0000 C   0  0
   30.8411  -31.0732    0.0000 O   0  5
   32.0064  -31.1366    0.0000 O   0  0
   32.2594  -30.3519    0.0000 O   0  0
   35.0377  -25.3716    0.0000 C   0  0
   35.8558  -25.4605    0.0000 C   0  0
   38.4198  -24.2506    0.0000 S   0  0
   39.0321  -23.6975    0.0000 O   0  0
   38.1627  -25.0352    0.0000 O   0  0
   38.9687  -24.8629    0.0000 O   0  0
  1  2  1  0
  2  3  1  0
  3  6  1  0
  5  4  1  0
  4  1  1  0
  5  6  2  0
  6  7  1  0
  7  8  2  0
  8  9  1  0
  9  5  1  0
  2 10  2  0
  4 11  2  0
 12 13  2  0
 13 14  1  0
 14 15  2  0
 15 16  1  0
 16 17  2  0
 17 12  1  0
  8 12  1  0
 15 18  1  0
  1 19  1  0
 19 20  1  0
 20 21  1  0
  3 22  1  0
 22 23  1  0
 23 24  1  0
 18 25  1  0
 25 26  1  0
 26 27  1  0
 26 28  2  0
 27 29  1  0
 29 30  1  0
 30 31  1  0
 31 32  1  0
 32 33  1  0
 32 34  2  0
 33 35  1  0
 35 36  1  0
 36 37  1  0
 37 38  1  0
 38 39  1  0
 39 40  1  0
 40 41  1  0
 41 42  1  0
 42 43  2  0
 43 39  1  0
 42 44  1  0
 44 45  2  0
 45 46  1  0
 46 47  2  0
 47 43  1  0
 40 48  2  0
 48 49  1  0
 49 50  2  0
 50 51  1  0
 51 52  2  0
 52 53  1  0
 53 54  2  0
 54 55  1  0
 55 56  2  0
 56 57  1  0
 57 53  1  0
 55 58  1  0
 58 59  2  0
 59 60  1  0
 60 61  2  0
 61 56  1  0
 60 62  1  0
 54 63  1  0
 63 64  1  0
 57 65  1  0
 66 57  1  0
 62 67  1  0
 62 68  2  0
 69 62  2  0
 41 70  1  0
 71 41  1  0
 45 72  1  0
 72 73  1  0
 72 74  2  0
 75 72  2  0
M  CHG  2  54   1  67  -1
M  END