
  SciTegic06231414492D

 22 25  0  0  0  0            999 V2000
    3.8250   -2.9917    0.0000 C   0  0
    3.1042   -2.5792    0.0000 C   0  0
    3.2792   -1.7667    0.0000 N   0  0
    4.1042   -1.6792    0.0000 N   0  0
    4.4375   -2.4375    0.0000 C   0  0
    3.8250   -3.8250    0.0000 C   0  0
    2.3917   -2.9917    0.0000 C   0  0
    3.1042   -4.2375    0.0000 N   0  0
    4.5167   -0.9667    0.0000 C   0  0
    2.3917   -3.8167    0.0000 C   0  0
    5.2417   -2.6125    0.0000 O   0  0
    5.2250   -1.3792    0.0000 C   0  0
    4.5167   -0.1500    0.0000 C   0  0
    5.9375   -0.1500    0.0000 C   0  0
    5.2167    0.2583    0.0000 C   0  0
    5.9375   -0.9667    0.0000 C   0  0
    1.6792   -2.5792    0.0000 C   0  0
    6.6500    0.2625    0.0000 O   0  0
    1.6792   -4.2375    0.0000 C   0  0
    7.3667   -0.1500    0.0000 C   0  0
    0.9667   -3.0000    0.0000 C   0  0
    0.9667   -3.8250    0.0000 C   0  0
  2  1  2  0
  3  2  1  0
  4  5  1  0
  5  1  1  0
  6  1  1  0
  7  2  1  0
  8  6  2  0
  9  4  1  0
 10  8  1  0
 11  5  2  0
 12  9  2  0
 13  9  1  0
 14 15  1  0
 15 13  2  0
 16 12  1  0
 17  7  2  0
 18 14  1  0
 19 10  2  0
 20 18  1  0
 21 17  1  0
 22 19  1  0
  3  4  1  0
 10  7  1  0
 22 21  2  0
 14 16  2  0
M  END