
  SciTegic12191611222D

 25 26  0  0  0  0            999 V2000
    3.8933   -3.7570    0.0000 C   0  0
    2.5951   -3.0039    0.0000 C   0  0
    2.5973   -1.5031    0.0000 O   0  0
    1.2990   -0.7500    0.0000 C   0  0
    1.2990    0.7500    0.0000 C   0  0
    0.0000    1.5000    0.0000 C   0  0
   -1.2990    0.7500    0.0000 C   0  0
   -1.2990   -0.7500    0.0000 C   0  0
    0.0000   -1.5000    0.0000 C   0  0
   -2.5972   -1.5031    0.0000 N   0  0
   -2.5951   -3.0039    0.0000 C   0  0
   -1.5548   -3.6021    0.0000 O   0  0
   -3.8933   -3.7570    0.0000 C   0  0
   -5.2447   -3.1360    0.0000 N   0  0
   -6.2484   -4.2507    0.0000 C   0  0
   -7.4418   -4.1253    0.0000 C   0  0
   -5.4984   -5.5497    0.0000 C   0  0
   -4.0312   -5.2379    0.0000 C   0  0
   -2.9081   -6.2294    0.0000 C   0  0
   -1.7702   -5.8482    0.0000 C   0  0
   -6.1049   -6.9197    0.0000 C   0  0
   -7.2981   -7.0473    0.0000 C   0  0
   -5.3982   -7.8895    0.0000 O   0  0
    3.8916   -4.9570    0.0000 O   0  0
    4.9336   -3.1588    0.0000 N   0  0
  2  1  1  0
  3  2  1  0
  4  3  1  0
  5  4  2  0
  6  5  1  0
  7  6  2  0
  8  7  1  0
  8  9  2  0
  4  9  1  0
 10  8  1  0
 11 10  1  0
 11 12  2  0
 13 11  1  0
 14 13  1  0
 15 14  1  0
 15 16  1  0
 17 15  2  0
 18 17  1  0
 18 13  2  0
 19 18  1  0
 20 19  1  0
 17 21  1  0
 21 22  1  0
 21 23  2  0
  1 24  2  0
  1 25  1  0
M  END