
  SciTegic09261414462D

 19 21  0  0  0  0            999 V2000
   34.9710   -9.1968    0.0000 N   0  0
   34.9710  -10.0140    0.0000 C   0  0
   35.6801  -10.4226    0.0000 N   0  0
   35.6801  -11.2398    0.0000 C   0  0
   34.9710  -11.6484    0.0000 C   0  0
   34.2660  -11.2398    0.0000 C   0  0
   34.2660  -10.4226    0.0000 N   0  0
   33.5569  -11.6484    0.0000 N   0  0
   33.5569  -12.4656    0.0000 C   0  0
   32.8478  -12.8742    0.0000 C   0  0
   32.1429  -12.4656    0.0000 N   0  0
   32.1429  -11.6484    0.0000 C   0  0
   32.8478  -11.2398    0.0000 C   0  0
   31.4338  -12.8742    0.0000 C   0  0
   36.3892  -11.6484    0.0000 C   0  0
   37.1365  -11.3140    0.0000 C   0  0
   37.6802  -11.9204    0.0000 C   0  0
   37.2716  -12.6295    0.0000 C   0  0
   36.4732  -12.4588    0.0000 C   0  0
  2  3  1  0
  3  4  2  0
  4  5  1  0
  5  6  2  0
  6  7  1  0
  2  7  2  0
  1  2  1  0
  8  9  1  0
  9 10  1  0
 10 11  1  0
 11 12  1  0
 12 13  1  0
  8 13  1  0
 11 14  1  0
  6  8  1  0
 15 16  1  0
 16 17  1  0
 17 18  1  0
 18 19  1  0
 15 19  1  0
  4 15  1  0
M  END