
  SciTegic01161211232D

 21 20  0  0  0  0            999 V2000
    3.5250   -3.5042    0.0000 N   0  0
    3.3417   -2.9292    0.0000 C   0  0
    5.4167   -1.7250    0.0000 N   0  0
    3.0375   -3.8542    0.0000 C   0  0
    5.9417   -2.0167    0.0000 C   0  0
    2.5542   -3.4917    0.0000 N   0  0
    3.8667   -2.6292    0.0000 C   0  0
    2.7417   -2.9250    0.0000 C   0  0
    3.7750   -4.2792    0.0000 Cl  0  0
    5.7417   -0.5292    0.0000 Cl  0  0
    4.9042   -2.0292    0.0000 C   0  0
    4.3792   -2.9292    0.0000 C   0  0
    3.8667   -2.0292    0.0000 C   0  0
    6.4542   -1.7167    0.0000 N   0  0
    4.3792   -1.7292    0.0000 C   0  0
    4.9042   -2.6292    0.0000 C   0  0
    6.9792   -2.0167    0.0000 C   0  0
    7.5000   -1.7167    0.0000 C   0  0
    6.9792   -2.6167    0.0000 C   0  0
    8.0167   -2.0125    0.0000 C   0  0
    7.5042   -2.9167    0.0000 C   0  0
  2  1  1  0
  3 11  1  0
  4  1  2  0
  5  3  2  0
  6  4  1  0
  7  2  1  0
  8  2  2  0
 11 15  2  0
 12  7  1  0
 13  7  2  0
 14  5  1  0
 15 13  1  0
 16 12  2  0
 17 14  1  0
 18 17  1  0
 19 17  1  0
 20 18  1  0
 21 19  1  0
  6  8  1  0
 11 16  1  0
M  END