
  SciTegic11201309402D

 22 25  0  0  1  0            999 V2000
   -0.4784  -21.4404    0.0000 C   0  0
   -0.4722  -20.1043    0.0000 C   0  0  2  0  0  0
   -0.9576  -20.7703    0.0000 C   0  0
    0.3135  -20.3642    0.0000 C   0  0  1  0  0  0
    0.3075  -21.1893    0.0000 N   0  0
    1.0904  -21.4500    0.0000 C   0  0
    1.5803  -20.7860    0.0000 C   0  0
    1.1001  -20.1150    0.0000 C   0  0
   -0.7245  -19.3188    0.0000 C   0  0
   -1.5308  -19.1445    0.0000 O   0  0
   -1.7831  -18.3590    0.0000 C   0  0
   -2.5895  -18.1847    0.0000 C   0  0
   -1.2290  -17.7478    0.0000 O   0  0
   -3.9179  -18.3227    0.0000 N   0  0
   -3.2048  -18.7375    0.0000 C   0  0
   -3.7437  -17.5162    0.0000 C   0  0
   -2.9241  -17.4335    0.0000 C   0  0
   -2.5877  -16.6836    0.0000 C   0  0
   -3.0697  -16.0160    0.0000 C   0  0
   -3.8920  -16.1030    0.0000 C   0  0
   -4.2247  -16.8530    0.0000 C   0  0
    0.3198  -19.3642    0.0000 H   0  0
  9 10  1  0
  4  2  1  0
 10 11  1  0
  2  3  1  0
 11 12  1  0
  3  1  1  0
 11 13  2  0
 12 17  1  0
  5  6  1  0
  6  7  1  0
 16 14  1  0
 14 15  1  0
 15 12  2  0
  7  8  1  0
  4  8  1  0
 16 17  2  0
  4  5  1  0
 17 18  1  0
 18 19  2  0
  1  5  1  0
 19 20  1  0
  2  9  1  1
 20 21  2  0
 21 16  1  0
  4 22  1  1
M  END