
          02060813482D 1   1.00000     0.00000     0

 42 45  0     0  0            999 V2000
   -2.6514  -14.2791    0.0000 C   0  0  0  0  0  0           0  0  0
   -2.6526  -15.1065    0.0000 C   0  0  0  0  0  0           0  0  0
   -1.9378  -15.5194    0.0000 C   0  0  0  0  0  0           0  0  0
   -1.2213  -15.1060    0.0000 C   0  0  0  0  0  0           0  0  0
   -1.2242  -14.2755    0.0000 C   0  0  0  0  0  0           0  0  0
   -1.9396  -13.8664    0.0000 C   0  0  0  0  0  0           0  0  0
   -3.3674  -15.5184    0.0000 Cl  0  0  0  0  0  0           0  0  0
   -1.9420  -13.0414    0.0000 C   0  0  0  0  0  0           0  0  0
   -1.2288  -12.6267    0.0000 N   0  0  3  0  0  0           0  0  0
   -1.2313  -11.8017    0.0000 C   0  0  0  0  0  0           0  0  0
   -0.5180  -11.3871    0.0000 C   0  0  3  0  0  0           0  0  0
   -1.9470  -11.3914    0.0000 O   0  0  0  0  0  0           0  0  0
   -0.5113  -13.8603    0.0000 O   0  0  0  0  0  0           0  0  0
   -0.5062  -15.5174    0.0000 C   0  0  0  0  0  0           0  0  0
   -0.5098  -16.3428    0.0000 C   0  0  0  0  0  0           0  0  0
    0.2045  -16.7541    0.0000 C   0  0  0  0  0  0           0  0  0
    0.9193  -16.3404    0.0000 C   0  0  0  0  0  0           0  0  0
    0.9153  -15.5111    0.0000 C   0  0  0  0  0  0           0  0  0
    0.2005  -15.1035    0.0000 N   0  0  0  0  0  0           0  0  0
    1.6277  -15.0950    0.0000 O   0  0  0  0  0  0           0  0  0
    1.6349  -16.7508    0.0000 C   0  0  0  0  0  0           0  0  0
    2.3458  -17.1625    0.0000 N   0  0  0  0  0  0           0  0  0
    0.2054  -17.5791    0.0000 C   0  0  0  0  0  0           0  0  0
   -0.5081  -17.9874    0.0000 C   0  0  0  0  0  0           0  0  0
   -0.5075  -18.8116    0.0000 C   0  0  0  0  0  0           0  0  0
    0.2079  -19.2242    0.0000 C   0  0  0  0  0  0           0  0  0
    0.9243  -18.8065    0.0000 C   0  0  0  0  0  0           0  0  0
    0.9202  -17.9836    0.0000 C   0  0  0  0  0  0           0  0  0
   -1.2219  -17.5738    0.0000 Cl  0  0  0  0  0  0           0  0  0
    1.6407  -19.2157    0.0000 C   0  0  3  0  0  0           0  0  0
    2.3500  -19.6250    0.0000 F   0  0  0  0  0  0           0  0  0
    2.0514  -18.5002    0.0000 F   0  0  0  0  0  0           0  0  0
    1.2352  -19.9341    0.0000 F   0  0  0  0  0  0           0  0  0
   -0.5131  -13.0371    0.0000 C   0  0  0  0  0  0           0  0  0
    0.1924  -11.8003    0.0000 C   0  0  0  0  0  0           0  0  0
    0.9035  -11.3891    0.0000 C   0  0  0  0  0  0           0  0  0
    0.9053  -10.5638    0.0000 N   0  0  3  0  0  0           0  0  0
    0.1898  -10.1512    0.0000 C   0  0  0  0  0  0           0  0  0
   -0.5276  -10.5640    0.0000 C   0  0  0  0  0  0           0  0  0
    1.6201  -10.1519    0.0000 C   0  0  0  0  0  0           0  0  0
    2.3343  -10.5649    0.0000 C   0  0  0  0  0  0           0  0  0
    3.0491  -10.1530    0.0000 C   0  0  0  0  0  0           0  0  0
  9 10  1  0     0  0
 17 21  1  0     0  0
  2  3  1  0     0  0
 21 22  3  0     0  0
 10 11  1  0     0  0
 16 23  1  0     0  0
  5  6  2  0     0  0
 23 24  2  0     0  0
 10 12  2  0     0  0
 24 25  1  0     0  0
  6  1  1  0     0  0
 25 26  2  0     0  0
  5 13  1  0     0  0
 26 27  1  0     0  0
  1  2  2  0     0  0
 27 28  2  0     0  0
 28 23  1  0     0  0
  4 14  1  0     0  0
 24 29  1  0     0  0
  2  7  1  0     0  0
 27 30  1  0     0  0
 14 15  2  0     0  0
 30 31  1  0     0  0
  3  4  2  0     0  0
 30 32  1  0     0  0
 15 16  1  0     0  0
 30 33  1  0     0  0
  6  8  1  0     0  0
  9 34  1  0     0  0
 11 35  1  0     0  0
 16 17  2  0     0  0
 17 18  1  0     0  0
  8  9  1  0     0  0
 18 19  1  0     0  0
 11 39  1  0     0  0
 35 36  1  0     0  0
 36 37  1  0     0  0
 37 38  1  0     0  0
 38 39  1  0     0  0
 19 14  1  0     0  0
 37 40  1  0     0  0
  4  5  1  0     0  0
 40 41  1  0     0  0
 18 20  2  0     0  0
 41 42  1  0     0  0
M  END