
  SciTegic12231509382D

 31 35  0  0  0  0            999 V2000
    5.0055   -2.4838    0.0000 N   0  0
    6.3042   -2.2002    0.0000 N   0  0
    4.5391   -1.0402    0.0000 N   0  0
    1.3869   -2.9567    0.0000 N   0  0
    0.0505   -2.9567    0.0000 N   0  0
    1.1347   -3.7447    0.0000 N   0  0
    0.3089   -3.7447    0.0000 N   0  0
    5.0812   -1.6580    0.0000 C   0  0
    5.8944   -1.4878    0.0000 C   0  0
    5.7494   -2.8117    0.0000 C   0  0
    1.4310   -1.2419    0.0000 C   0  0
    4.2869   -2.8873    0.0000 C   0  0
    0.7124   -1.6454    0.0000 C   0  0
    2.1434   -1.6580    0.0000 C   0  0
    3.5745   -2.4838    0.0000 C   0  0
    0.7124   -2.4838    0.0000 C   0  0
    6.1466   -0.7061    0.0000 C   0  0
    5.9260   -3.6123    0.0000 C   0  0
    2.1434   -2.4838    0.0000 C   0  0
    2.8621   -1.2419    0.0000 C   0  0
    2.8621   -2.8873    0.0000 C   0  0
    3.5745   -1.6580    0.0000 C   0  0
    1.4310   -0.4161    0.0000 C   0  0
    0.0000   -1.2419    0.0000 C   0  0
    4.7849   -0.2585    0.0000 C   0  0
    5.5982   -0.0883    0.0000 C   0  0
    0.7124    0.0000    0.0000 C   0  0
    0.0000   -0.4161    0.0000 C   0  0
    5.3144   -4.1671    0.0000 C   0  0
    5.4783   -4.9740    0.0000 C   0  0
    4.8732   -5.5288    0.0000 C   0  0
  1  8  1  0
  1 10  1  0
  1 12  1  0
  2  9  1  0
  2 10  2  0
  3  8  1  0
  3 25  2  0
  4  6  1  0
  4 16  1  0
  5  7  1  0
  5 16  2  0
  6  7  2  0
  8  9  2  0
  9 17  1  0
 10 18  1  0
 11 13  1  0
 11 14  1  0
 11 23  2  0
 12 15  1  0
 13 16  1  0
 13 24  2  0
 14 19  2  0
 14 20  1  0
 15 21  2  0
 15 22  1  0
 17 26  2  0
 18 29  1  0
 19 21  1  0
 20 22  2  0
 23 27  1  0
 24 28  1  0
 25 26  1  0
 27 28  2  0
 29 30  1  0
 30 31  1  0
M  END