
  SciTegic02011310452D

 23 25  0  0  0  0            999 V2000
   16.8192  -19.1270    0.0000 C   0  0
   16.8181  -19.9553    0.0000 N   0  0
   17.5336  -20.3685    0.0000 C   0  0
   18.2508  -19.9548    0.0000 N   0  0
   18.2478  -19.1234    0.0000 C   0  0
   17.5318  -18.7139    0.0000 C   0  0
   18.9615  -18.7078    0.0000 N   0  0
   19.6782  -19.1180    0.0000 C   0  0
   19.6780  -19.9415    0.0000 C   0  0
   20.3938  -20.3516    0.0000 C   0  0
   21.1084  -19.9360    0.0000 C   0  0
   21.1026  -19.1059    0.0000 C   0  0
   20.3862  -18.6995    0.0000 C   0  0
   17.5334  -21.1943    0.0000 N   0  0
   16.8181  -21.6070    0.0000 C   0  0
   16.1044  -21.1945    0.0000 C   0  0
   15.3896  -21.6065    0.0000 C   0  0
   15.3890  -22.4332    0.0000 C   0  0
   16.1091  -22.8461    0.0000 C   0  0
   16.8210  -22.4317    0.0000 C   0  0
   14.6714  -22.8473    0.0000 C   0  0
   13.9557  -22.4352    0.0000 O   0  0
   14.6722  -23.6732    0.0000 O   0  0
  1  2  2  0
  2  3  1  0
  3  4  2  0
  4  5  1  0
  5  6  2  0
  6  1  1  0
  5  7  1  0
  7  8  1  0
  8  9  2  0
  9 10  1  0
 10 11  2  0
 11 12  1  0
 12 13  2  0
 13  8  1  0
  3 14  1  0
 14 15  1  0
 15 16  2  0
 16 17  1  0
 17 18  2  0
 18 19  1  0
 19 20  2  0
 20 15  1  0
 21 22  1  0
 21 23  2  0
 18 21  1  0
M  END