
  SciTegic01181116592D

  7  6  0  0  0  0            999 V2000
    8.8653  -16.0327    0.0000 C   0  0
    9.2799  -16.7450    0.0000 C   0  0
   10.1049  -16.7450    0.0000 C   0  0
   10.5153  -17.4613    0.0000 C   0  0
   10.5153  -16.0327    0.0000 O   0  0
    8.8653  -17.4613    0.0000 N   0  0
    8.0404  -17.4613    0.0000 O   0  0
  1  2  1  0
  2  3  1  0
  3  4  1  0
  3  5  2  0
  6  7  1  0
  2  6  2  0
M  END