
  CDK    12/20/10,15:21

 37 41  0  0  0  0  0  0  0  0999 V2000
    4.9611   -7.4916    0.0000 C   0  0  0  0  0  0  0  0  0  0  0  0
    4.9599   -8.3190    0.0000 C   0  0  0  0  0  0  0  0  0  0  0  0
    5.6747   -8.7319    0.0000 C   0  0  0  0  0  0  0  0  0  0  0  0
    6.3912   -8.3185    0.0000 C   0  0  0  0  0  0  0  0  0  0  0  0
    6.3883   -7.4880    0.0000 N   0  0  0  0  0  0  0  0  0  0  0  0
    5.6729   -7.0789    0.0000 C   0  0  0  0  0  0  0  0  0  0  0  0
    4.2451   -8.7309    0.0000 C   0  0  0  0  0  0  0  0  0  0  0  0
    3.5310   -8.3179    0.0000 N   0  0  0  0  0  0  0  0  0  0  0  0
    3.5356   -7.4887    0.0000 C   0  0  0  0  0  0  0  0  0  0  0  0
    2.8256   -7.0757    0.0000 C   0  0  0  0  0  0  0  0  0  0  0  0
    2.1083   -7.4841    0.0000 C   0  0  0  0  0  0  0  0  0  0  0  0
    2.1057   -8.3101    0.0000 C   0  0  0  0  0  0  0  0  0  0  0  0
    2.8203   -8.7276    0.0000 C   0  0  0  0  0  0  0  0  0  0  0  0
    1.3958   -7.0683    0.0000 C   0  0  0  0  0  0  0  0  0  0  0  0
    1.3995   -6.2434    0.0000 O   0  0  0  0  0  0  0  0  0  0  0  0
    0.6794   -7.4776    0.0000 N   0  0  0  0  0  0  0  0  0  0  0  0
   -0.0367   -7.0624    0.0000 C   0  0  0  0  0  0  0  0  0  0  0  0
   -0.7509   -7.4682    0.0000 C   0  0  0  0  0  0  0  0  0  0  0  0
   -0.7589   -8.2935    0.0000 C   0  0  0  0  0  0  0  0  0  0  0  0
   -0.0465   -8.7114    0.0000 C   0  0  0  0  0  0  0  0  0  0  0  0
    0.6739   -8.3041    0.0000 C   0  0  0  0  0  0  0  0  0  0  0  0
   -1.4768   -8.7000    0.0000 N   0  0  0  0  0  0  0  0  0  0  0  0
   -2.2294   -8.3574    0.0000 C   0  0  0  0  0  0  0  0  0  0  0  0
   -2.7866   -8.9658    0.0000 N   0  0  0  0  0  0  0  0  0  0  0  0
   -1.5717   -9.5189    0.0000 C   0  0  0  0  0  0  0  0  0  0  0  0
   -2.3773   -9.6857    0.0000 C   0  0  0  0  0  0  0  0  0  0  0  0
   -2.6341  -10.4653    0.0000 C   0  0  0  0  0  0  0  0  0  0  0  0
   -2.0864  -11.0788    0.0000 C   0  0  0  0  0  0  0  0  0  0  0  0
   -1.2785  -10.9074    0.0000 C   0  0  0  0  0  0  0  0  0  0  0  0
   -1.0254  -10.1280    0.0000 C   0  0  0  0  0  0  0  0  0  0  0  0
   -2.3942   -7.5490    0.0000 O   0  0  0  0  0  0  0  0  0  0  0  0
   -3.6064   -8.8735    0.0000 C   0  0  0  0  0  0  0  0  0  0  0  0
   -3.9363   -8.1173    0.0000 C   0  0  0  0  0  0  0  0  0  0  0  0
   -4.7561   -8.0249    0.0000 C   0  0  0  0  0  0  0  0  0  0  0  0
   -5.0860   -7.2687    0.0000 N   0  0  0  0  0  0  0  0  0  0  0  0
   -5.9058   -7.1764    0.0000 C   0  0  0  0  0  0  0  0  0  0  0  0
   -4.5961   -6.6050    0.0000 C   0  0  0  0  0  0  0  0  0  0  0  0
  4  5  1  0  0  0  0 
  2  3  1  0  0  0  0 
 16 21  1  0  0  0  0 
 17 18  1  0  0  0  0 
 18 19  1  0  0  0  0 
 19 20  1  0  0  0  0 
 20 21  1  0  0  0  0 
  5  6  2  0  0  0  0 
 19 22  1  0  0  0  0 
 22 23  1  0  0  0  0 
  6  1  1  0  0  0  0 
  8 13  1  0  0  0  0 
 23 24  1  0  0  0  0 
 24 26  1  0  0  0  0 
 25 22  1  0  0  0  0 
  9 10  1  0  0  0  0 
 10 11  1  0  0  0  0 
 25 26  2  0  0  0  0 
 11 12  1  0  0  0  0 
 26 27  1  0  0  0  0 
 12 13  1  0  0  0  0 
 27 28  2  0  0  0  0 
  1  2  2  0  0  0  0 
 28 29  1  0  0  0  0 
 11 14  1  0  0  0  0 
 29 30  2  0  0  0  0 
 30 25  1  0  0  0  0 
  2  7  1  0  0  0  0 
 23 31  2  0  0  0  0 
 14 15  2  0  0  0  0 
 24 32  1  0  0  0  0 
  3  4  2  0  0  0  0 
 32 33  1  0  0  0  0 
 14 16  1  0  0  0  0 
 33 34  1  0  0  0  0 
 16 17  1  0  0  0  0 
 34 35  1  0  0  0  0 
  7  8  1  0  0  0  0 
 35 36  1  0  0  0  0 
  8  9  1  0  0  0  0 
 35 37  1  0  0  0  0 
M  END