
          03140815512D 1   1.00000     0.00000     0

 19 20  0     0  0            999 V2000
    9.2500    1.6083    0.0000 C   0  0  0  0  0  0           0  0  0
    9.2500    0.7833    0.0000 N   0  0  3  0  0  0           0  0  0
    9.9620    0.3750    0.0000 C   0  0  0  0  0  0           0  0  0
   10.6740    0.7833    0.0000 C   0  0  0  0  0  0           0  0  0
   10.6740    1.6083    0.0000 O   0  0  0  0  0  0           0  0  0
    9.9620    2.0250    0.0000 C   0  0  0  0  0  0           0  0  0
    8.5361    0.3698    0.0000 C   0  0  0  0  0  0           0  0  0
    7.8211    0.7813    0.0000 O   0  0  0  0  0  0           0  0  0
    8.5373   -0.4552    0.0000 C   0  0  0  0  0  0           0  0  0
    7.8235   -0.8687    0.0000 C   0  0  0  0  0  0           0  0  0
    7.8247   -1.6937    0.0000 C   0  0  0  0  0  0           0  0  0
    7.1104   -2.1047    0.0000 C   0  0  0  0  0  0           0  0  0
    7.1113   -2.9289    0.0000 C   0  0  0  0  0  0           0  0  0
    7.8269   -3.3412    0.0000 C   0  0  0  0  0  0           0  0  0
    8.5431   -2.9232    0.0000 C   0  0  0  0  0  0           0  0  0
    8.5387   -2.1004    0.0000 C   0  0  0  0  0  0           0  0  0
    7.8292   -4.1662    0.0000 C   0  0  3  0  0  0           0  0  0
    7.1158   -4.5807    0.0000 C   0  0  0  0  0  0           0  0  0
    8.5448   -4.5767    0.0000 C   0  0  0  0  0  0           0  0  0
  2  3  1  0     0  0
  9 10  1  0     0  0
  3  4  1  0     0  0
 10 11  1  0     0  0
  4  5  1  0     0  0
 11 12  2  0     0  0
  5  6  1  0     0  0
 12 13  1  0     0  0
 13 14  2  0     0  0
  2  7  1  0     0  0
 14 15  1  0     0  0
  1  2  1  0     0  0
 15 16  2  0     0  0
 16 11  1  0     0  0
  7  8  2  0     0  0
 14 17  1  0     0  0
  1  6  1  0     0  0
 17 18  1  0     0  0
  7  9  1  0     0  0
 17 19  1  0     0  0
M  END