
  SciTegic02271515152D

 95 97  0  0  0  0            999 V2000
    8.0612   -4.9363    0.0000 C   0  0
    6.6944   -4.9363    0.0000 C   0  0
    8.0612   -2.5825    0.0000 O   0  0
    8.7377   -4.5389    0.0000 C   0  0
   12.1417   -4.9363    0.0000 C   0  0
   11.4615   -4.5389    0.0000 C   0  0
   12.1417   -2.5825    0.0000 O   0  0
   13.4999   -3.3652    0.0000 C   0  0
   13.5319   -4.1222    0.0000 C   0  0
   14.1852   -4.5389    0.0000 O   0  0
   14.2910   -6.1682    0.0000 C   0  0
   14.1842   -8.7983    0.0000 C   0  0
   15.8550   -8.6420    0.0000 C   0  0
   16.2292   -7.9891    0.0000 C   0  0
   16.2777   -7.5931    0.0000 C   0  0
   16.9847   -8.0083    0.0000 C   0  0
   16.9810   -8.8275    0.0000 O   0  0
   16.2706   -9.2317    0.0000 C   0  0
   15.5683   -8.8213    0.0000 C   0  0
   15.5722   -8.0024    0.0000 N   0  0
   14.8616   -7.5919    0.0000 C   0  0
   14.1852   -7.9816    0.0000 C   0  0  2  0  0  0
   12.8232   -8.7606    0.0000 O   0  0
   12.1417   -9.1666    0.0000 C   0  0
   10.7764   -9.1666    0.0000 C   0  0
   11.4615   -8.7606    0.0000 C   0  0
   10.7764   -6.7998    0.0000 O   0  0
   10.0998   -8.7606    0.0000 C   0  0
    8.0612   -6.7998    0.0000 C   0  0
    8.7377   -5.6232    0.0000 C   0  0
    8.7377   -6.4101    0.0000 C   0  0
    9.4225   -6.7998    0.0000 C   0  0
    8.7377   -8.7606    0.0000 O   0  0
    7.3788   -8.7606    0.0000 C   0  0
    6.6944   -6.7998    0.0000 O   0  0
    5.3287   -6.7998    0.0000 C   0  0
    4.6470   -8.7606    0.0000 O   0  0
    3.2946   -7.9816    0.0000 C   0  0
    4.0080   -5.2361    0.0000 C   0  0
    2.6604   -5.2003    0.0000 C   0  0
    3.3198   -5.6086    0.0000 C   0  0
    3.3059   -6.3908    0.0000 C   0  0
    5.3298   -6.0651    0.0000 O   0  0
    3.9751   -3.3652    0.0000 C   0  0
    3.9751   -2.5825    0.0000 C   0  0
    4.6470   -1.3974    0.0000 C   0  0
    4.6470   -2.1928    0.0000 C   0  0
    5.3287   -2.5825    0.0000 C   0  0
    6.0183   -4.5389    0.0000 O   0  0
    6.6944   -2.5825    0.0000 C   0  0
    6.6944   -3.3652    0.0000 N   0  0
    6.0183   -3.7595    0.0000 C   0  0
    5.3287   -3.3652    0.0000 C   0  0  1  0  0  0
    4.6470   -3.7595    0.0000 N   0  0
    4.6470   -6.4591    0.0000 C   0  0
    3.9751   -6.7998    0.0000 C   0  0  1  0  0  0
    3.9751   -7.5919    0.0000 N   0  0
    4.6470   -7.9816    0.0000 C   0  0
    5.3287   -7.5919    0.0000 C   0  0  2  0  0  0
    6.0183   -7.9816    0.0000 N   0  0
    6.6944   -7.5919    0.0000 C   0  0
    7.3788   -7.9816    0.0000 C   0  0  1  0  0  0
    8.0612   -7.5919    0.0000 N   0  0
    8.7377   -7.9816    0.0000 C   0  0
    9.4225   -7.5919    0.0000 C   0  0  1  0  0  0
   10.0998   -7.9816    0.0000 N   0  0
   10.7764   -7.5919    0.0000 C   0  0
   11.4615   -7.9816    0.0000 C   0  0  1  0  0  0
   12.1417   -7.5919    0.0000 N   0  0
   12.8232   -7.9816    0.0000 C   0  0
   13.4999   -7.5919    0.0000 C   0  0  1  0  0  0
   13.4999   -6.1682    0.0000 N   0  0
   13.4999   -4.9363    0.0000 C   0  0
   12.8232   -4.5389    0.0000 C   0  0  2  0  0  0
   12.8232   -3.7595    0.0000 N   0  0
   12.1417   -3.3652    0.0000 C   0  0
   11.4615   -3.7595    0.0000 C   0  0  1  0  0  0
   10.0998   -4.5389    0.0000 O   0  0
   10.0998   -3.7595    0.0000 C   0  0
    8.6452   -2.2432    0.0000 O   0  0
   10.7764   -2.5825    0.0000 C   0  0
    8.7377    0.1844    0.0000 C   0  0
    9.4225   -0.2152    0.0000 C   0  0
    9.4225   -0.9950    0.0000 C   0  0
   10.0998   -1.3975    0.0000 C   0  0
   10.0998   -2.1928    0.0000 C   0  0  2  0  0  0
    9.4225   -2.5825    0.0000 C   0  0  2  0  0  0
    9.4225   -3.3652    0.0000 C   0  0  2  0  0  0
    8.7377   -3.7595    0.0000 N   0  0
    8.0612   -3.3652    0.0000 C   0  0
    7.3788   -3.7595    0.0000 C   0  0  2  0  0  0
    7.3788   -4.5389    0.0000 C   0  0
   10.7764   -3.3656    0.0000 N   0  0
   14.3643   -7.0891    0.0000 H   0  0
    8.5568   -2.8647    0.0000 H   0  0
 91 92  1  6
 92  2  1  0
 92  1  1  0
 91 90  1  0
 51 91  1  0
 90 89  1  0
 90  3  2  0
 88 89  1  0
 89  4  1  0
 88 87  1  0
 88 79  1  0
 87 86  1  0
 87 80  1  6
 86 85  1  0
 86 81  1  1
 85 84  1  0
 84 83  2  0
 83 82  1  0
 79 78  2  0
 93 79  1  0
 77 76  1  0
 77  6  1  6
 77 93  1  0
 76 75  1  0
 76  7  2  0
 75 74  1  0
 75  8  1  0
 74 73  1  0
 74  9  1  1
 73 72  1  0
 73 10  2  0
 71 72  1  0
 72 11  1  0
 70 71  1  0
 71 22  1  0
 70 69  1  0
 70 23  2  0
 69 68  1  0
 68 67  1  0
 68 26  1  1
 67 66  1  0
 67 27  2  0
 66 65  1  0
 66 28  1  0
 65 64  1  0
 65 32  1  6
 64 63  1  0
 64 33  2  0
 63 62  1  0
 62 61  1  0
 62 34  1  1
 61 60  1  0
 61 35  2  0
 60 59  1  0
 59 58  1  0
 59 36  1  1
 58 57  1  0
 58 37  2  0
 57 56  1  0
 57 38  1  0
 56 55  1  0
 56 42  1  1
 54 55  1  0
 55 43  2  0
 54 53  1  0
 54 44  1  0
 53 52  1  0
 53 48  1  1
 52 51  1  0
 52 49  2  0
 51 50  1  0
 48 47  1  0
 47 46  1  0
 47 45  1  0
 42 41  1  0
 41 40  1  0
 41 39  1  0
 32 31  1  0
 31 30  1  0
 31 29  1  0
 26 25  1  0
 26 24  1  0
 22 21  1  0
 22 12  1  1
 21 20  1  0
 20 19  1  0
 20 15  1  0
 19 18  1  0
 18 17  1  0
 13 18  1  0
 17 16  1  0
 16 15  1  0
 16 14  1  0
 14 13  1  0
  6  5  1  0
 71 94  1  6
 88 95  1  6
M  STY  1   1 SUP
M  SLB  1   1   1
M  SAL   1  1  93
M  SBL   1  2  20  23
M  SMT   1 N
M  END