
  SciTegic09261414462D

 18 20  0  0  0  0            999 V2000
    6.0659  -12.9629    0.0000 N   0  0
    6.0659  -13.7801    0.0000 C   0  0
    6.7709  -14.1887    0.0000 N   0  0
    6.7709  -15.0059    0.0000 C   0  0
    6.0659  -15.4145    0.0000 C   0  0
    5.3568  -15.0059    0.0000 C   0  0
    5.3568  -14.1887    0.0000 N   0  0
    4.6478  -15.4145    0.0000 N   0  0
    4.6478  -16.2317    0.0000 C   0  0
    3.9387  -16.6402    0.0000 C   0  0
    3.2337  -16.2317    0.0000 N   0  0
    3.2337  -15.4145    0.0000 C   0  0
    3.9387  -15.0059    0.0000 C   0  0
    7.4800  -15.4145    0.0000 C   0  0
    8.2273  -15.0801    0.0000 C   0  0
    8.7710  -15.6865    0.0000 C   0  0
    8.3624  -16.3956    0.0000 C   0  0
    7.5640  -16.2249    0.0000 C   0  0
  2  3  1  0
  3  4  2  0
  4  5  1  0
  5  6  2  0
  6  7  1  0
  2  7  2  0
  1  2  1  0
  8  9  1  0
  9 10  1  0
 10 11  1  0
 11 12  1  0
 12 13  1  0
  8 13  1  0
  6  8  1  0
 14 15  1  0
 15 16  1  0
 16 17  1  0
 17 18  1  0
 14 18  1  0
  4 14  1  0
M  END