
  SciTegic06271217572D

 20 21  0  0  0  0            999 V2000
    0.4930  -27.6617    0.0000 S   0  0
    0.0669  -28.3681    0.0000 O   0  0
    0.8917  -28.3839    0.0000 O   0  0
   -0.2134  -27.2356    0.0000 N   0  0
    1.2111  -26.4208    0.0000 C   0  0
    1.2099  -27.2482    0.0000 C   0  0
    1.9247  -27.6610    0.0000 C   0  0
    2.6412  -27.2477    0.0000 C   0  0
    2.6383  -26.4172    0.0000 C   0  0
    1.9229  -26.0080    0.0000 C   0  0
    3.3512  -26.0020    0.0000 C   0  0
    4.0672  -26.4118    0.0000 C   0  0
    3.3481  -25.1770    0.0000 O   0  0
    4.7802  -25.9966    0.0000 S   0  0
    5.4962  -26.4064    0.0000 C   0  0
    5.4962  -27.2303    0.0000 C   0  0
    6.2113  -27.6400    0.0000 C   0  0
    6.9252  -27.2247    0.0000 C   0  0
    6.9195  -26.3955    0.0000 C   0  0
    6.2037  -25.9895    0.0000 C   0  0
  6  1  1  0
  5  6  2  0
  9 11  1  0
 11 12  1  0
  6  7  1  0
 11 13  2  0
  1  4  1  0
 12 14  1  0
  7  8  2  0
 14 15  1  0
  2  1  2  0
 15 16  2  0
  8  9  1  0
 16 17  1  0
  1  3  2  0
 17 18  2  0
  9 10  2  0
 18 19  1  0
 10  5  1  0
 19 20  2  0
 20 15  1  0
M  END