
          11280715112D 1   1.00000     0.00000     0

 25 27  0     0  0            999 V2000
    0.3500   -0.7292    0.0000 C   0  0  0  0  0  0           0  0  0
   -0.4083   -1.0625    0.0000 N   0  0  3  0  0  0           0  0  0
   -0.9583   -0.4417    0.0000 N   0  0  0  0  0  0           0  0  0
    0.2625    0.0958    0.0000 C   0  0  0  0  0  0           0  0  0
   -0.5458    0.2708    0.0000 C   0  0  0  0  0  0           0  0  0
    1.0667   -1.1417    0.0000 N   0  0  0  0  0  0           0  0  0
    1.7792   -0.7292    0.0000 C   0  0  0  0  0  0           0  0  0
   -0.8833    1.0208    0.0000 C   0  0  3  0  0  0           0  0  0
    2.4917   -1.1417    0.0000 N   0  0  0  0  0  0           0  0  0
   -0.6375   -1.8500    0.0000 C   0  0  0  0  0  0           0  0  0
    1.7792    0.0958    0.0000 O   0  0  0  0  0  0           0  0  0
    4.6417    0.0833    0.0000 N   0  0  0  0  0  0           0  0  0
    3.2125   -0.7292    0.0000 C   0  0  0  0  0  0           0  0  0
    3.9167   -1.1500    0.0000 C   0  0  0  0  0  0           0  0  0
    3.2042    0.0958    0.0000 C   0  0  0  0  0  0           0  0  0
    3.9250    0.5000    0.0000 C   0  0  0  0  0  0           0  0  0
    4.6375   -0.7417    0.0000 C   0  0  0  0  0  0           0  0  0
   -0.3958    1.6875    0.0000 C   0  0  0  0  0  0           0  0  0
   -1.7000    1.1083    0.0000 C   0  0  0  0  0  0           0  0  0
   -1.2958    1.7375    0.0000 C   0  0  0  0  0  0           0  0  0
   -1.4375   -2.0375    0.0000 C   0  0  0  0  0  0           0  0  0
   -0.0708   -2.4417    0.0000 C   0  0  0  0  0  0           0  0  0
   -0.3000   -3.2292    0.0000 C   0  0  0  0  0  0           0  0  0
   -1.6750   -2.8292    0.0000 C   0  0  0  0  0  0           0  0  0
   -1.1083   -3.4292    0.0000 C   0  0  0  0  0  0           0  0  0
  2  1  1  0     0  0
  3  2  1  0     0  0
  4  1  2  0     0  0
  5  4  1  0     0  0
  6  1  1  0     0  0
  7  6  1  0     0  0
  8  5  1  0     0  0
  9  7  1  0     0  0
 10  2  1  0     0  0
 11  7  2  0     0  0
 12 16  1  0     0  0
 13  9  1  0     0  0
 14 13  2  0     0  0
 15 13  1  0     0  0
 16 15  2  0     0  0
 17 14  1  0     0  0
 18  8  1  0     0  0
 19  8  1  0     0  0
 20  8  1  0     0  0
 21 10  2  0     0  0
 22 10  1  0     0  0
 23 22  2  0     0  0
 24 21  1  0     0  0
 25 23  1  0     0  0
  3  5  2  0     0  0
 25 24  2  0     0  0
 12 17  2  0     0  0
M  END