
          11280715572D 1   1.00000     0.00000     0

 76 79  0     1  0            999 V2000
   -0.6000    2.1625    0.0000 N   0  0  0  0  0  0           0  0  0
    0.7167    1.3917    0.0000 C   0  0  2  0  0  0           0  0  0
   -4.5917    1.3708    0.0000 N   0  0  0  0  0  0           0  0  0
   -3.2333   -5.5083    0.0000 N   0  0  0  0  0  0           0  0  0
   -5.9208   -2.4375    0.0000 N   0  0  0  0  0  0           0  0  0
   -1.9333    1.3917    0.0000 C   0  0  0  0  0  0           0  0  0
   -1.9125   -4.7167    0.0000 C   0  0  0  0  0  0           0  0  0
   -4.5833   -3.2000    0.0000 C   0  0  0  0  0  0           0  0  0
    2.0167    2.1458    0.0000 C   0  0  0  0  0  0           0  0  0
   -4.5917   -0.1292    0.0000 C   0  0  0  0  0  0           0  0  0
   -3.2708    2.1500    0.0000 C   0  0  2  0  0  0           0  0  0
    0.7583   -4.6875    0.0000 N   0  0  0  0  0  0           0  0  0
    2.0792   -5.4375    0.0000 C   0  0  0  0  0  0           0  0  0
   -4.5708   -4.7583    0.0000 C   0  0  2  0  0  0           0  0  0
   -0.5500   -5.4667    0.0000 C   0  0  1  0  0  0           0  0  0
    2.0167    3.6458    0.0000 N   0  0  3  0  0  0           0  0  0
   -3.2917    3.6542    0.0000 C   0  0  0  0  0  0           0  0  0
   -5.9333   -0.9000    0.0000 C   0  0  2  0  0  0           0  0  0
    3.3125    5.8958    0.0000 C   0  0  0  0  0  0           0  0  0
    3.3125    8.9000    0.0000 C   0  0  0  0  0  0           0  0  0
    8.5042   13.4042    0.0000 C   0  0  0  0  0  0           0  0  0
    3.4000   -4.6500    0.0000 C   0  0  0  0  0  0           0  0  0
    2.0375   -0.8875    0.0000 S   0  0  0  0  0  0           0  0  0
    4.6125    6.6458    0.0000 N   0  0  0  0  0  0           0  0  0
    2.0167   -2.3583    0.0000 S   0  0  0  0  0  0           0  0  0
   -4.6000    4.3833    0.0000 C   0  0  0  0  0  0           0  0  0
    3.3125   10.4000    0.0000 N   0  0  0  0  0  0           0  0  0
    3.3792   -3.1083    0.0000 C   0  0  3  0  0  0           0  0  0
    3.3167    4.3917    0.0000 C   0  0  0  0  0  0           0  0  0
    4.6125    8.1458    0.0000 C   0  0  1  0  0  0           0  0  0
    2.0167   12.6542    0.0000 C   0  0  0  0  0  0           0  0  0
   -9.8292   -0.1667    0.0000 C   0  0  0  0  0  0           0  0  0
    8.5042   14.6042    0.0000 N   0  0  0  0  0  0           0  0  0
    0.7375   -0.1083    0.0000 C   0  0  0  0  0  0           0  0  0
   -1.9333   -3.5167    0.0000 O   0  0  0  0  0  0           0  0  0
   -1.9250    0.1917    0.0000 O   0  0  0  0  0  0           0  0  0
   -3.5458   -2.5917    0.0000 O   0  0  0  0  0  0           0  0  0
   -3.5542   -0.7292    0.0000 O   0  0  0  0  0  0           0  0  0
    3.0583    1.5458    0.0000 O   0  0  0  0  0  0           0  0  0
   -5.8583   -5.5292    0.0000 C   0  0  0  0  0  0           0  0  0
   -0.5167   -6.9667    0.0000 C   0  0  0  0  0  0           0  0  0
    2.0917   -6.6375    0.0000 O   0  0  0  0  0  0           0  0  0
    2.2708    8.3000    0.0000 O   0  0  0  0  0  0           0  0  0
    2.2750    6.4917    0.0000 O   0  0  0  0  0  0           0  0  0
   -4.6125    5.5833    0.0000 O   0  0  0  0  0  0           0  0  0
    0.9750   13.2542    0.0000 O   0  0  0  0  0  0           0  0  0
  -10.8667   -0.7708    0.0000 O   0  0  0  0  0  0           0  0  0
   -7.2292   -0.1542    0.0000 C   0  0  0  0  0  0           0  0  0
    7.2083   12.6542    0.0000 N   0  0  0  0  0  0           0  0  0
    2.0125   11.1500    0.0000 C   0  0  0  0  0  0           0  0  0
    9.5458   12.8042    0.0000 N   0  0  0  0  0  0           0  0  0
   -5.6292    3.7750    0.0000 N   0  0  0  0  0  0           0  0  0
   -8.5292   -0.9125    0.0000 C   0  0  0  0  0  0           0  0  0
   -9.8375    1.0333    0.0000 N   0  0  0  0  0  0           0  0  0
    3.0542   13.2500    0.0000 N   0  0  0  0  0  0           0  0  0
   -1.7958   -7.7500    0.0000 C   0  0  0  0  0  0           0  0  0
   -7.1667   -4.8000    0.0000 C   0  0  0  0  0  0           0  0  0
    0.9750    4.2417    0.0000 C   0  0  0  0  0  0           0  0  0
    3.3583   -1.5667    0.0000 C   0  0  0  0  0  0           0  0  0
    4.7292   -3.8583    0.0000 C   0  0  0  0  0  0           0  0  0
    5.9083    8.9000    0.0000 C   0  0  0  0  0  0           0  0  0
    7.2083   11.1500    0.0000 C   0  0  0  0  0  0           0  0  0
   -1.7667   -9.2500    0.0000 C   0  0  0  0  0  0           0  0  0
   -3.1125   -7.0292    0.0000 C   0  0  0  0  0  0           0  0  0
   -8.4542   -5.5708    0.0000 C   0  0  0  0  0  0           0  0  0
   -7.1875   -3.3000    0.0000 C   0  0  0  0  0  0           0  0  0
    5.9083   10.4000    0.0000 C   0  0  0  0  0  0           0  0  0
    6.0583   -3.0792    0.0000 C   0  0  0  0  0  0           0  0  0
    4.6875   -0.7667    0.0000 C   0  0  0  0  0  0           0  0  0
   -4.3958   -7.8083    0.0000 C   0  0  0  0  0  0           0  0  0
   -9.7667   -4.8375    0.0000 C   0  0  0  0  0  0           0  0  0
   -8.5000   -2.5708    0.0000 C   0  0  0  0  0  0           0  0  0
   -3.0458  -10.0292    0.0000 C   0  0  0  0  0  0           0  0  0
   -4.3625   -9.3083    0.0000 C   0  0  0  0  0  0           0  0  0
   -9.7875   -3.3375    0.0000 C   0  0  0  0  0  0           0  0  0
    6.0375   -1.5292    0.0000 C   0  0  0  0  0  0           0  0  0
  2  1  1  0     0  0
  3 11  1  0     0  0
  4 14  1  0     0  0
  5 18  1  0     0  0
  6  1  1  0     0  0
  7 15  1  0     0  0
  8  5  1  0     0  0
  2  9  1  6     0  0
 10  3  1  0     0  0
 11  6  1  0     0  0
 12 13  1  0     0  0
 13 22  1  0     0  0
 14  8  1  0     0  0
 15 12  1  0     0  0
 16  9  1  0     0  0
 11 17  1  1     0  0
 18 10  1  0     0  0
 19 29  1  0     0  0
 20 30  1  0     0  0
 21 49  2  0     0  0
 22 28  1  0     0  0
 23 34  1  0     0  0
 24 19  1  0     0  0
 25 23  1  0     0  0
 26 17  1  0     0  0
 27 20  1  0     0  0
 28 25  1  0     0  0
 29 16  1  0     0  0
 30 24  1  6     0  0
 31 50  1  0     0  0
 32 53  1  0     0  0
 33 21  1  0     0  0
 34  2  1  0     0  0
 35  7  2  0     0  0
 36  6  2  0     0  0
 37  8  2  0     0  0
 38 10  2  0     0  0
 39  9  2  0     0  0
 14 40  1  1     0  0
 15 41  1  1     0  0
 42 13  2  0     0  0
 43 20  2  0     0  0
 44 19  2  0     0  0
 45 26  2  0     0  0
 46 31  2  0     0  0
 47 32  2  0     0  0
 18 48  1  1     0  0
 49 62  1  0     0  0
 50 27  1  0     0  0
 51 21  1  0     0  0
 52 26  1  0     0  0
 53 48  1  0     0  0
 54 32  1  0     0  0
 55 31  1  0     0  0
 56 41  1  0     0  0
 57 40  1  0     0  0
 58 16  1  0     0  0
 59 28  1  0     0  0
 60 28  1  0     0  0
 61 30  1  0     0  0
 62 67  1  0     0  0
 63 56  2  0     0  0
 64 56  1  0     0  0
 65 57  2  0     0  0
 66 57  1  0     0  0
 67 61  1  0     0  0
 68 60  1  0     0  0
 69 59  1  0     0  0
 70 64  2  0     0  0
 71 65  1  0     0  0
 72 66  2  0     0  0
 73 63  1  0     0  0
 74 70  1  0     0  0
 75 72  1  0     0  0
 76 69  1  0     0  0
 76 68  1  0     0  0
  4  7  1  0     0  0
 75 71  2  0     0  0
 74 73  2  0     0  0
M  END