
  SciTegic12171313052D

 29 32  0  0  0  0            999 V2000
    7.4669   -3.5251    0.0000 O   0  0
    7.4710   -4.3501    0.0000 S   0  0
    8.1835   -3.9341    0.0000 O   0  0
    3.9403   -3.9417    0.0000 C   0  0
    3.9392   -4.7692    0.0000 C   0  0
    4.6540   -5.1820    0.0000 C   0  0
    4.6523   -3.5290    0.0000 C   0  0
    5.3677   -3.9381    0.0000 C   0  0
    5.3679   -4.7692    0.0000 C   0  0
    6.1584   -5.0258    0.0000 O   0  0
    6.6467   -4.3532    0.0000 C   0  0
    6.1580   -3.6812    0.0000 C   0  0
    7.8845   -5.0673    0.0000 N   0  0
    8.7095   -5.0670    0.0000 C   0  0
    9.1223   -5.7814    0.0000 C   0  0
    9.1218   -4.3524    0.0000 O   0  0
    8.7854   -6.5330    0.0000 C   0  0
    9.9412   -5.8652    0.0000 C   0  0
   10.1131   -6.6721    0.0000 C   0  0
    9.4009   -7.0825    0.0000 C   0  0
    9.4012   -7.9025    0.0000 C   0  0
   10.1129   -8.3132    0.0000 C   0  0
   10.8258   -7.8978    0.0000 C   0  0
   10.8221   -7.0791    0.0000 C   0  0
   11.5421   -8.3073    0.0000 C   0  0
    7.9786   -6.7053    0.0000 C   0  0
    7.7244   -7.4901    0.0000 C   0  0
    6.9173   -7.6651    0.0000 O   0  0
    8.2768   -8.1054    0.0000 O   0  0
  2  1  2  0
  3  2  2  0
  4  5  2  0
  5  6  1  0
  6  9  2  0
  8  7  2  0
  7  4  1  0
  8  9  1  0
  9 10  1  0
 10 11  1  0
 11 12  2  0
 12  8  1  0
 11  2  1  0
  2 13  1  0
 13 14  1  0
 14 15  1  0
 14 16  2  0
 15 17  1  0
 17 20  1  0
 19 18  1  0
 18 15  2  0
 19 20  2  0
 20 21  1  0
 21 22  2  0
 22 23  1  0
 23 24  2  0
 24 19  1  0
 23 25  1  0
 17 26  1  0
 26 27  1  0
 27 28  1  0
 27 29  2  0
M  END