
  SciTegic01091215432D

 13 14  0  0  0  0            999 V2000
    1.1710    2.0519    0.0000 C   0  0
    1.1694    1.2279    0.0000 C   0  0
    1.8809    0.8163    0.0000 C   0  0
    2.5947    1.2276    0.0000 C   0  0
    2.5923    2.0547    0.0000 C   0  0
    1.8800    2.4625    0.0000 C   0  0
    3.3103    0.8157    0.0000 C   0  0
    3.3191   -0.0092    0.0000 C   0  0
    4.1061   -0.2590    0.0000 N   0  0
    4.5870    0.4123    0.0000 O   0  0
    4.0972    1.0771    0.0000 C   0  0
    4.3471    1.8641    0.0000 C   0  0
    2.6554   -0.5005    0.0000 C   0  0
  1  2  2  0
  4  7  1  0
 10 11  1  0
  3  4  2  0
  8  9  2  0
  4  5  1  0
  2  3  1  0
  7  8  1  0
  9 10  1  0
 11  7  2  0
  5  6  2  0
 11 12  1  0
  6  1  1  0
  8 13  1  0
M  END