
          11280714562D 1   1.00000     0.00000     0

 24 25  0     1  0            999 V2000
    5.0250   -0.4542    0.0000 C   0  0  3  0  0  0           0  0  0
    5.2125    0.1125    0.0000 S   0  0  0  0  0  0           0  0  0
    5.5125   -0.8125    0.0000 O   0  0  0  0  0  0           0  0  0
    5.9917   -0.4542    0.0000 C   0  0  1  0  0  0           0  0  0
    6.5042    0.4458    0.0000 N   0  3  3  0  0  0           0  0  0
    4.6000   -0.8792    0.0000 C   0  0  3  0  0  0           0  0  0
    4.5042   -0.1542    0.0000 C   0  0  3  0  0  0           0  0  0
    5.8125    0.1125    0.0000 C   0  0  0  0  0  0           0  0  0
    7.4542    0.1583    0.0000 I   0  5  0  0  0  0           0  0  0
    6.5125   -0.1542    0.0000 C   0  0  0  0  0  0           0  0  0
    5.9792    0.7458    0.0000 C   0  0  0  0  0  0           0  0  0
    7.0167    0.7583    0.0000 C   0  0  0  0  0  0           0  0  0
    6.0792    0.0208    0.0000 C   0  0  0  0  0  0           0  0  0
    4.0417    0.0000    0.0000 C   0  0  0  0  0  0           0  0  0
    4.6875   -1.3542    0.0000 C   0  0  0  0  0  0           0  0  0
    4.2917   -1.3917    0.0000 C   0  0  0  0  0  0           0  0  0
    4.2000    0.3625    0.0000 C   0  0  0  0  0  0           0  0  0
    5.2250   -1.8042    0.0000 C   0  0  0  0  0  0           0  0  0
    4.8167   -1.8167    0.0000 C   0  0  0  0  0  0           0  0  0
    3.5667    0.1125    0.0000 C   0  0  0  0  0  0           0  0  0
    3.3750   -0.2500    0.0000 C   0  0  0  0  0  0           0  0  0
    4.9250   -2.3250    0.0000 C   0  0  0  0  0  0           0  0  0
    3.0667    0.2708    0.0000 C   0  0  0  0  0  0           0  0  0
    6.4167   -0.8792    0.0000 H   0  0  0  0  0  0           0  0  0
  2  1  1  0     0  0
  3  1  1  0     0  0
  4  3  1  0     0  0
  5 10  1  0     0  0
  6  1  1  0     0  0
  7  1  1  0     0  0
  8  2  1  0     0  0
  4 10  1  1     0  0
 11  5  1  0     0  0
 12  5  1  0     0  0
 13  5  1  0     0  0
 14  7  1  0     0  0
 15  6  1  0     0  0
 16  6  1  0     0  0
 17  7  1  0     0  0
 18 15  1  0     0  0
 19 16  1  0     0  0
 20 17  1  0     0  0
 21 14  1  0     0  0
 22 19  1  0     0  0
 23 20  1  0     0  0
  4 24  1  6     0  0
  8  4  1  0     0  0
 21 23  1  0     0  0
 18 22  1  0     0  0
M  CHG  2   5   1   9  -1
M  END