
  CDK    9/16/09,9:50

 28 29  0  0  0  0  0  0  0  0999 V2000
   12.4430   -1.1441    0.0000 C   0  0  0  0  0  0  0  0  0  0  0  0
   12.4745    1.3329    0.0000 C   0  0  0  0  0  0  0  0  0  0  0  0
   11.7625    1.7558    0.0000 C   0  0  0  0  0  0  0  0  0  0  0  0
   11.0465    1.3542    0.0000 C   0  0  0  0  0  0  0  0  0  0  0  0
   11.0318    0.5298    0.0000 C   0  0  0  0  0  0  0  0  0  0  0  0
   11.7389    0.1069    0.0000 C   0  0  0  0  0  0  0  0  0  0  0  0
   12.4639    0.5025    0.0000 O   0  0  0  0  0  0  0  0  0  0  0  0
   11.7273   -0.7276    0.0000 O   0  0  0  0  0  0  0  0  0  0  0  0
   10.3373    1.7834    0.0000 O   0  0  0  0  0  0  0  0  0  0  0  0
   11.7801    2.5753    0.0000 O   0  0  0  0  0  0  0  0  0  0  0  0
   13.1978    1.7318    0.0000 C   0  0  0  0  0  0  0  0  0  0  0  0
   10.3049    0.1332    0.0000 O   0  0  0  0  0  0  0  0  0  0  0  0
   12.4372   -1.9746    0.0000 C   0  0  0  0  0  0  0  0  0  0  0  0
   13.1488   -2.3911    0.0000 O   0  0  0  0  0  0  0  0  0  0  0  0
   13.8698   -1.9831    0.0000 C   0  0  0  0  0  0  0  0  0  0  0  0
   13.8747   -1.1541    0.0000 C   0  0  0  0  0  0  0  0  0  0  0  0
   13.1586   -0.7331    0.0000 C   0  0  0  0  0  0  0  0  0  0  0  0
   13.1628    0.0917    0.0000 O   0  0  0  0  0  0  0  0  0  0  0  0
   14.5918   -0.7467    0.0000 N   0  0  0  0  0  0  0  0  0  0  0  0
   14.5810   -2.4007    0.0000 O   0  0  0  0  0  0  0  0  0  0  0  0
   14.5750   -3.2255    0.0000 C   0  0  0  0  0  0  0  0  0  0  0  0
   11.7258   -1.5496    0.0000 H   0  0  0  0  0  0  0  0  0  0  0  0
   11.7204   -2.3824    0.0000 C   0  0  0  0  0  0  0  0  0  0  0  0
   11.7151   -3.2072    0.0000 O   0  0  0  0  0  0  0  0  0  0  0  0
   15.3032   -1.1640    0.0000 C   0  0  0  0  0  0  0  0  0  0  0  0
   16.0203   -0.7566    0.0000 C   0  0  0  0  0  0  0  0  0  0  0  0
   15.2975   -1.9887    0.0000 O   0  0  0  0  0  0  0  0  0  0  0  0
   13.2141    2.5564    0.0000 O   0  0  0  0  0  0  0  0  0  0  0  0
  2  7  1  0  0  0  0 
  3  4  1  0  0  0  0 
  4  5  1  0  0  0  0 
  1 17  1  0  0  0  0 
 13 14  1  0  0  0  0 
 14 15  1  0  0  0  0 
 15 16  1  0  0  0  0 
 16 17  1  0  0  0  0 
  5  6  1  0  0  0  0 
 17 18  1  6  0  0  0 
  6  7  1  0  0  0  0 
 16 19  1  1  0  0  0 
  6  8  1  1  0  0  0 
 15 20  1  6  0  0  0 
  4  9  1  1  0  0  0 
 20 21  1  0  0  0  0 
  3 10  1  1  0  0  0 
  1 22  1  6  0  0  0 
  2 11  1  1  0  0  0 
 13 23  1  6  0  0  0 
  8  1  1  0  0  0  0 
 23 24  1  0  0  0  0 
  5 12  1  6  0  0  0 
 19 25  1  0  0  0  0 
  1 13  1  0  0  0  0 
 25 26  1  0  0  0  0 
 25 27  2  0  0  0  0 
  2  3  1  0  0  0  0 
 11 28  1  0  0  0  0 
M  END