
  SciTegic02211318192D

 21 23  0  0  0  0            999 V2000
    1.8531   -3.7462    0.0000 C   0  0
    2.3507   -4.2267    0.0000 C   0  0
    1.8417   -2.9055    0.0000 C   0  0
    1.1324   -4.1523    0.0000 C   0  0
    0.4176   -3.7405    0.0000 C   0  0
    3.5403   -3.3344    0.0000 N   0  0
    0.4176   -2.9169    0.0000 C   0  0
    1.1324   -2.4937    0.0000 C   0  0
    3.1571   -4.1008    0.0000 C   0  0
    2.0991   -5.0159    0.0000 C   0  0
    2.3678   -2.4079    0.0000 C   0  0
    1.2926   -5.1875    0.0000 C   0  0
    2.6595   -5.6165    0.0000 C   0  0
    3.1743   -2.5566    0.0000 C   0  0
   -0.2917   -2.5051    0.0000 Cl  0  0
    1.6129   -6.5887    0.0000 C   0  0
   -0.2917   -4.1523    0.0000 O   0  0
    2.4193   -6.4058    0.0000 C   0  0
    1.0524   -5.9768    0.0000 C   0  0
    1.3613   -7.3666    0.0000 I   0  0
    4.3639   -3.3516    0.0000 C   0  0
  2  1  1  0
  3  1  1  0
  4  1  2  0
  5  4  1  0
  6  9  1  0
  7  5  2  0
  8  3  2  0
  9  2  1  0
 10  2  1  0
 11  3  1  0
 12 10  2  0
 13 10  1  0
 14 11  1  0
 15  7  1  0
 16 18  1  0
 17  5  1  0
 18 13  2  0
 19 12  1  0
 20 16  1  0
 21  6  1  0
  8  7  1  0
  6 14  1  0
 19 16  2  0
M  ISO  1  20 125
M  END