
  SciTegic11111309142D

 48 52  0  0  0  0            999 V2000
   -1.3539    2.0163    0.0000 C   0  0
   -0.4452   -4.9982    0.0000 C   0  0
    0.3417   -5.2494    0.0000 C   0  0
    0.8235   -4.5809    0.0000 C   0  0
    0.3380   -3.9188    0.0000 C   0  0
   -0.4452   -4.1732    0.0000 C   0  0
   -2.4763   -0.7388    0.0000 O   0  0
   -2.9615   -1.4067    0.0000 C   0  0
   -2.6587   -2.1747    0.0000 C   0  0
   -3.1605   -2.7867    0.0000 C   0  0
   -2.8798   -3.5210    0.0000 C   0  0
   -2.1028   -3.6247    0.0000 C   0  0
   -1.6409   -2.9902    0.0000 C   0  0
   -1.9635   -2.2677    0.0000 C   0  0
   -3.9754   -2.6546    0.0000 Cl  0  0
   -1.4692   -1.6065    0.0000 Cl  0  0
   -0.8199   -3.0765    0.0000 S   0  0
   -0.7336   -2.2556    0.0000 O   0  0
   -0.9061   -3.8975    0.0000 O   0  0
    1.0529   -3.5060    0.0000 C   0  0
    1.7671   -3.9184    0.0000 N   0  0
    1.0529   -2.6797    0.0000 O   0  0
    1.7671   -4.7455    0.0000 C   0  0
    2.4773   -5.1555    0.0000 C   0  0
    3.1880   -4.7451    0.0000 N   0  0
    3.1880   -3.9229    0.0000 C   0  0
    2.4775   -3.5082    0.0000 C   0  0
    3.8994   -5.1559    0.0000 C   0  0
    3.8994   -5.9770    0.0000 O   0  0
    4.6181   -4.7409    0.0000 C   0  0
   -2.8131    0.0176    0.0000 C   0  0
   -3.4845    1.5260    0.0000 C   0  0
   -3.9716    0.8510    0.0000 C   0  0
   -3.6328    0.0979    0.0000 C   0  0
   -2.6602    1.4389    0.0000 C   0  0
   -2.3280    0.6818    0.0000 C   0  0
   -1.5081    0.5922    0.0000 N   0  0
   -1.0194    1.2587    0.0000 C   0  0
   -2.1756    2.1030    0.0000 C   0  0
   -0.1962    1.1702    0.0000 C   0  0
   -2.5116    2.8597    0.0000 C   0  0
    5.3352   -5.1549    0.0000 C   0  0
    6.0523   -4.7409    0.0000 C   0  0
    6.7694   -5.1549    0.0000 N   0  3
    7.4865   -4.7409    0.0000 C   0  0
    6.7694   -5.9829    0.0000 C   0  0
    7.4826   -5.5686    0.0000 C   0  0
    0.0002   -3.1661    0.0000 N   0  0
 17 19  2  0
  5 20  1  0
 20 21  1  0
 20 22  2  0
 21 23  1  0
 21 27  1  0
 23 24  1  0
 24 25  1  0
 25 26  1  0
 26 27  1  0
 25 28  1  0
 28 29  2  0
 28 30  1  0
  7 31  1  0
 31 36  2  0
  2  3  1  0
 35 32  2  0
  3  4  1  0
 32 33  1  0
  4  5  1  0
 33 34  2  0
 34 31  1  0
  5  6  1  0
  6  2  1  0
 35 36  1  0
  7  8  1  0
 36 37  1  0
  8  9  1  0
 37 38  2  0
 38  1  1  0
  9 10  2  0
  1 39  2  0
 39 35  1  0
 10 11  1  0
 38 40  1  0
 11 12  2  0
 39 41  1  0
 12 13  1  0
 30 42  1  0
 13 14  2  0
 42 43  1  0
 14  9  1  0
 43 44  1  0
 10 15  1  0
 44 45  1  0
 14 16  1  0
 44 46  1  0
 13 17  1  0
 44 47  1  0
 17 18  2  0
 17 48  1  0
 48  5  1  0
M  CHG  1  44   1
M  END