
  SciTegic05061116452D

 23 24  0  0  0  0            999 V2000
   12.0194  -13.8000    0.0000 C   0  0
   12.0182  -14.6273    0.0000 C   0  0
   12.7331  -15.0402    0.0000 C   0  0
   12.7313  -13.3872    0.0000 C   0  0
   13.4466  -13.7963    0.0000 C   0  0
   13.4474  -14.6232    0.0000 C   0  0
   14.1627  -15.0341    0.0000 N   0  0
   14.8777  -14.6194    0.0000 C   0  0
   14.8730  -13.7894    0.0000 C   0  0
   14.1571  -13.3822    0.0000 N   0  0
   15.5938  -15.0291    0.0000 O   0  0
   15.5970  -15.8541    0.0000 C   0  0
   16.3131  -16.2638    0.0000 C   0  0
   15.5849  -13.3726    0.0000 C   0  0
   16.3019  -13.7807    0.0000 N   0  0
   17.0096  -13.3657    0.0000 C   0  0
   15.5799  -12.5476    0.0000 O   0  0
   17.7269  -13.7734    0.0000 C   0  0
   18.4386  -13.3561    0.0000 N   0  0
   19.1558  -13.7638    0.0000 C   0  0
   19.8675  -13.3465    0.0000 C   0  0
   18.4330  -12.5311    0.0000 C   0  0
   19.1447  -12.1139    0.0000 C   0  0
  8 11  1  0
  2  3  1  0
 11 12  1  0
  5  6  1  0
 12 13  1  0
  3  6  2  0
  9 14  1  0
  6  7  1  0
 14 15  1  0
  1  2  2  0
 15 16  1  0
  7  8  2  0
 14 17  2  0
  5  4  2  0
 16 18  1  0
  8  9  1  0
 18 19  1  0
  4  1  1  0
 19 20  1  0
  9 10  2  0
 20 21  1  0
 10  5  1  0
 19 22  1  0
 22 23  1  0
M  END