
  SciTegic11201309402D

 69 70  0  0  1  0            999 V2000
    1.4792    4.5583    0.0000 N   0  0
    3.8750    2.8208    0.0000 C   0  0
    0.0000   -4.7917    0.0000 N   0  0
   -1.4833   -4.5583    0.0000 C   0  0  1  0  0  0
    3.8750   -2.8167    0.0000 N   0  0
    4.5583    1.4833    0.0000 N   0  0
    0.0000    4.7917    0.0000 C   0  0
    1.4792   -4.5583    0.0000 C   0  0
   -1.9458   -5.9958    0.0000 C   0  0
    4.5583   -1.4792    0.0000 C   0  0
    2.8167    3.8792    0.0000 C   0  0  2  0  0  0
    2.8167   -3.8750    0.0000 C   0  0  2  0  0  0
   -2.8208    3.8792    0.0000 N   0  0
   -1.4833    4.5583    0.0000 C   0  0  1  0  0  0
   -0.9417   -7.1083    0.0000 N   0  0
    3.7000   -5.1000    0.0000 C   0  0
    4.7917    0.0000    0.0000 C   0  0  2  0  0  0
   -3.8792    2.8208    0.0000 C   0  0
   -0.3958   -9.6500    0.0000 C   0  0
    1.6167  -11.8833    0.0000 C   0  0
    0.7750  -18.7083    0.0000 C   0  0
   -0.8583  -11.0792    0.0000 N   0  0
    3.0875   -6.4708    0.0000 C   0  0
    2.6208  -12.9958    0.0000 N   0  0
   -3.8792   -2.8167    0.0000 S   0  0
   -1.4042   -8.5375    0.0000 C   0  0
   -4.5625   -1.4792    0.0000 S   0  0
    0.1458  -12.1958    0.0000 C   0  0  1  0  0  0
    5.0917  -13.8000    0.0000 C   0  0
    8.5542   -1.3042    0.0000 C   0  0
    1.5792  -19.5958    0.0000 N   0  0
    4.8458    3.5250    0.0000 O   0  0
    0.0000    5.9917    0.0000 O   0  0
    1.8500   -5.7000    0.0000 O   0  0
    5.7000   -1.8500    0.0000 O   0  0
   -3.1208   -6.2458    0.0000 O   0  0
   -2.8208   -3.8750    0.0000 C   0  0
   -1.9458    5.9958    0.0000 C   0  0
   -4.5625    1.4833    0.0000 C   0  0
    1.9875  -10.7417    0.0000 O   0  0
    0.7750   -9.4000    0.0000 O   0  0
   -4.8500    3.5250    0.0000 O   0  0
    3.7917   -7.4417    0.0000 O   0  0
    9.1500   -2.3458    0.0000 O   0  0
    6.2667  -13.5542    0.0000 O   0  0
    6.3042    0.0000    0.0000 C   0  0
    1.2375  -17.2792    0.0000 N   0  0
    4.0875  -12.6875    0.0000 C   0  0
   -0.3958  -18.9583    0.0000 N   0  0
    3.7000    5.1000    0.0000 C   0  0  2  0  0  0
    1.8958   -6.5958    0.0000 N   0  0
    7.0500   -1.3000    0.0000 C   0  0
    9.1542   -0.2667    0.0000 N   0  0
    4.7208  -14.9417    0.0000 N   0  0
   -0.9417    7.1083    0.0000 C   0  0
   -4.7958    0.0000    0.0000 C   0  0
    0.2333   -6.8583    0.0000 C   0  0
   -0.3125  -13.6208    0.0000 C   0  0
    0.2333  -16.1667    0.0000 C   0  0
    3.0875    6.4708    0.0000 C   0  0
    4.8958    4.9792    0.0000 C   0  0
    0.5250    6.7917    0.0000 C   0  0
   -1.4000    8.5375    0.0000 C   0  0
    0.6917  -14.7375    0.0000 C   0  0
    3.7917    7.4417    0.0000 C   0  0
    1.5333    7.9042    0.0000 C   0  0
   -0.3917    9.6500    0.0000 C   0  0
    1.0750    9.3333    0.0000 C   0  0
    2.5816    4.8512    0.0000 H   0  0
  2 11  1  0
  3  8  1  0
  4 37  1  0
  5 10  1  0
  6  2  1  0
  7  1  1  0
  8 12  1  0
  4  9  1  1
 10 17  1  0
 11  1  1  0
 12  5  1  0
 13 14  1  0
 14  7  1  0
 15  9  1  0
 12 16  1  1
 17  6  1  0
 18 13  1  0
 19 26  1  0
 20 28  1  0
 21 47  2  0
 22 19  1  0
 23 16  1  0
 24 20  1  0
 25 27  1  0
 26 15  1  0
 27 56  1  0
 28 22  1  6
 29 48  1  0
 30 52  1  0
 31 21  1  0
 32  2  2  0
 33  7  2  0
 34  8  2  0
 35 10  2  0
 36  9  2  0
 37 25  1  0
 14 38  1  1
 39 18  1  0
 40 20  2  0
 41 19  2  0
 42 18  2  0
 43 23  2  0
 44 30  2  0
 45 29  2  0
 17 46  1  1
 47 59  1  0
 48 24  1  0
 49 21  1  0
 50 11  1  0
 51 23  1  0
 52 46  1  0
 53 30  1  0
 54 29  1  0
 55 38  1  0
 56 39  1  0
 57 15  1  0
 58 28  1  0
 59 64  1  0
 60 50  1  0
 50 61  1  6
 62 55  1  0
 63 55  2  0
 64 58  1  0
 65 60  1  0
 66 62  2  0
 67 63  1  0
 68 66  1  0
 68 67  2  0
  3  4  1  0
 11 69  1  6
M  END