
          11280715132D 1   1.00000     0.00000     0

 33 36  0     0  0            999 V2000
    3.8875   -5.0042    0.0000 C   0  0  0  0  0  0           0  0  0
    3.1750   -4.5917    0.0000 C   0  0  0  0  0  0           0  0  0
   -0.8708   -5.1042    0.0000 N   0  0  3  0  0  0           0  0  0
   -1.5875   -4.6917    0.0000 C   0  0  0  0  0  0           0  0  0
    3.8875   -5.8292    0.0000 C   0  0  0  0  0  0           0  0  0
   -1.5875   -3.8667    0.0000 C   0  0  0  0  0  0           0  0  0
    0.4917   -6.0292    0.0000 N   0  0  3  0  0  0           0  0  0
    3.1750   -3.7667    0.0000 N   0  0  3  0  0  0           0  0  0
    4.6000   -6.2417    0.0000 N   0  0  0  0  0  0           0  0  0
    2.4542   -5.0042    0.0000 O   0  0  0  0  0  0           0  0  0
   -0.1333   -4.7417    0.0000 C   0  0  0  0  0  0           0  0  0
   -0.9333   -5.9292    0.0000 C   0  0  0  0  0  0           0  0  0
   -0.8750   -3.4500    0.0000 C   0  0  0  0  0  0           0  0  0
    3.1750   -6.2417    0.0000 N   0  0  0  0  0  0           0  0  0
   -0.2500   -6.3875    0.0000 C   0  0  0  0  0  0           0  0  0
    0.5500   -5.2042    0.0000 C   0  0  0  0  0  0           0  0  0
    4.6000   -4.5875    0.0000 C   0  0  0  0  0  0           0  0  0
    1.1667   -6.4917    0.0000 C   0  0  0  0  0  0           0  0  0
    1.8792   -6.0792    0.0000 C   0  0  0  0  0  0           0  0  0
   -2.3083   -5.1042    0.0000 C   0  0  0  0  0  0           0  0  0
   -2.3083   -3.4542    0.0000 C   0  0  0  0  0  0           0  0  0
    5.3167   -5.8292    0.0000 C   0  0  0  0  0  0           0  0  0
    2.4625   -6.6625    0.0000 C   0  0  0  0  0  0           0  0  0
    2.4542   -3.3542    0.0000 C   0  0  0  0  0  0           0  0  0
    3.8875   -3.3542    0.0000 C   0  0  0  0  0  0           0  0  0
   -0.1625   -3.8625    0.0000 C   0  0  0  0  0  0           0  0  0
   -0.8833   -2.6292    0.0000 C   0  0  0  0  0  0           0  0  0
    5.3167   -5.0000    0.0000 C   0  0  0  0  0  0           0  0  0
   -3.0208   -3.8667    0.0000 C   0  0  0  0  0  0           0  0  0
   -3.0208   -4.6917    0.0000 C   0  0  0  0  0  0           0  0  0
   -0.1750   -2.2125    0.0000 C   0  0  0  0  0  0           0  0  0
    0.5500   -3.4500    0.0000 C   0  0  0  0  0  0           0  0  0
    0.5417   -2.6167    0.0000 C   0  0  0  0  0  0           0  0  0
  2  1  1  0     0  0
  3 11  1  0     0  0
  4  3  1  0     0  0
  5  1  2  0     0  0
  6  4  1  0     0  0
  7 18  1  0     0  0
  8  2  1  0     0  0
  9  5  1  0     0  0
 10  2  2  0     0  0
 11 16  1  0     0  0
 12 15  1  0     0  0
 13  6  1  0     0  0
 14  5  1  0     0  0
 15  7  1  0     0  0
 16  7  1  0     0  0
 17  1  1  0     0  0
 18 19  1  0     0  0
 19 23  1  0     0  0
 20  4  2  0     0  0
 21  6  2  0     0  0
 22 28  1  0     0  0
 23 14  1  0     0  0
 24  8  1  0     0  0
 25  8  1  0     0  0
 26 13  2  0     0  0
 27 13  1  0     0  0
 28 17  2  0     0  0
 29 30  2  0     0  0
 30 20  1  0     0  0
 31 27  2  0     0  0
 32 26  1  0     0  0
 33 31  1  0     0  0
 22  9  2  0     0  0
 12  3  1  0     0  0
 29 21  1  0     0  0
 33 32  2  0     0  0
M  END