
  SciTegic01181116592D

 26 29  0  0  0  0            999 V2000
   -6.5212   -3.4332    0.0000 C   0  0
   -5.7801   -3.0953    0.0000 N   0  0
   -6.3696   -2.6875    0.0000 C   0  0
   -4.9581   -3.4439    0.0000 C   0  0  2  0  0  0
   -5.9170   -2.0751    0.0000 C   0  0
   -5.6405   -2.3625    0.0000 C   0  0
   -4.8544   -2.7050    0.0000 C   0  0  1  0  0  0
   -5.6783   -1.4818    0.0000 C   0  0
   -4.1345   -2.3019    0.0000 N   0  0
   -4.5517   -4.1619    0.0000 C   0  0
   -4.9702   -4.8729    0.0000 C   0  0
   -5.7946   -4.8622    0.0000 C   0  0
   -6.2211   -5.5723    0.0000 C   0  0
   -5.8065   -6.2913    0.0000 C   0  0
   -4.9771   -6.2957    0.0000 N   0  0
   -4.5624   -5.5849    0.0000 C   0  0
   -3.4255   -2.7239    0.0000 C   0  0
   -2.7056   -2.3209    0.0000 N   0  0
   -3.4364   -3.5489    0.0000 O   0  0
   -1.9966   -2.7429    0.0000 C   0  0
   -2.0097   -3.5678    0.0000 C   0  0
   -1.3016   -3.9897    0.0000 C   0  0
   -0.5806   -3.5867    0.0000 C   0  0
   -0.5722   -2.7575    0.0000 C   0  0
   -1.2811   -2.3392    0.0000 C   0  0
    0.1289   -4.0077    0.0000 Br  0  0
  2  5  1  0
 12 13  1  0
  3  6  1  0
 13 14  2  0
  4  7  1  0
 14 15  1  0
  5  8  1  0
 15 16  2  0
 16 11  1  0
  6  7  1  0
  9 17  1  0
  6  8  1  0
 17 18  1  0
 17 19  2  0
  7  9  1  1
 18 20  1  0
  1  2  1  0
 20 21  2  0
  4 10  1  6
 21 22  1  0
  1  3  1  0
 22 23  2  0
 10 11  1  0
 23 24  1  0
  2  4  1  0
 24 25  2  0
 25 20  1  0
 11 12  2  0
 23 26  1  0
M  END