
  SciTegic05201615352D

 44 48  0  0  0  0            999 V2000
    0.7913   -0.8344    0.0000 P   0  0
    0.3064   -0.1670    0.0000 O   0  0
    1.2763   -1.5019    0.0000 O   0  0
    1.4588   -0.3495    0.0000 O   0  0
    2.2124   -0.6851    0.0000 C   0  0
    2.8799   -0.2001    0.0000 C   0  0  1  0  0  0
    2.8799    0.6249    0.0000 O   0  0
    3.6645   -0.4551    0.0000 C   0  0  1  0  0  0
    3.9194   -1.2397    0.0000 O   0  0
    4.1494    0.2124    0.0000 C   0  0  1  0  0  0
    4.9744    0.2124    0.0000 O   0  0
    3.6645    0.8798    0.0000 C   0  0  2  0  0  0
    3.9194    1.6644    0.0000 N   0  0
    3.4345    2.3319    0.0000 C   0  0
    3.9194    2.9993    0.0000 N   0  0
    4.7041    2.7444    0.0000 C   0  0
    5.4185    3.1569    0.0000 C   0  0
    5.4185    3.9819    0.0000 N   0  0
    6.1330    2.7444    0.0000 N   0  0
    6.1330    1.9194    0.0000 C   0  0
    5.4185    1.5069    0.0000 N   0  0
    4.7041    1.9194    0.0000 C   0  0
    0.1239   -1.3193    0.0000 O   0  0
   -0.6298   -0.9838    0.0000 P   0  0
   -0.2942   -0.2301    0.0000 O   0  0
   -0.9653   -1.7375    0.0000 O   0  5
   -1.3835   -0.6482    0.0000 O   0  0
   -2.0509   -1.1332    0.0000 C   0  0
   -2.8046   -0.7976    0.0000 C   0  0  1  0  0  0
   -3.5190   -1.2101    0.0000 O   0  0
   -2.9761    0.0094    0.0000 C   0  0  1  0  0  0
   -2.4241    0.6225    0.0000 O   0  0
   -3.7966    0.0956    0.0000 C   0  0  1  0  0  0
   -4.2091    0.8101    0.0000 O   0  0
   -4.1321   -0.6581    0.0000 C   0  0  2  0  0  0
   -4.9391   -0.8296    0.0000 C   0  0
   -5.1940   -1.6142    0.0000 C   0  0
   -6.0010   -1.7857    0.0000 C   0  0
   -6.2560   -2.5704    0.0000 C   0  0
   -7.0629   -2.7419    0.0000 O   0  0
   -5.7039   -3.1835    0.0000 N   0  0
   -6.5531   -1.1726    0.0000 C   0  0
   -6.2981   -0.3880    0.0000 N   0  3
   -5.4911   -0.2165    0.0000 C   0  0
  2  1  2  0
  1  3  1  0
  1  4  1  0
 23  1  1  0
  5  4  1  0
  6  5  1  1
  6  7  1  0
  8  6  1  0
 12  7  1  0
  8  9  1  6
 10  8  1  0
 10 11  1  6
 12 10  1  0
 12 13  1  1
 14 13  1  0
 22 13  1  0
 14 15  2  0
 16 15  1  0
 16 17  1  0
 22 16  2  0
 17 18  1  0
 17 19  2  0
 20 19  1  0
 20 21  2  0
 22 21  1  0
 24 23  1  0
 25 24  2  0
 24 26  1  0
 27 24  1  0
 28 27  1  0
 29 28  1  1
 29 30  1  0
 31 29  1  0
 35 30  1  0
 31 32  1  6
 33 31  1  0
 33 34  1  6
 35 33  1  0
 35 36  1  1
 36 37  2  0
 36 44  1  0
 37 38  1  0
 38 39  1  0
 38 42  2  0
 39 40  2  0
 39 41  1  0
 42 43  1  0
 44 43  2  0
M  CHG  2  26  -1  43   1
M  END