
  SciTegic03291108542D

 24 27  0  0  0  0            999 V2000
   -0.7955    3.7887    0.0000 S   0  0
    0.7036    1.4713    0.0000 S   0  0
    1.4181    2.7088    0.0000 N   0  0
    0.7036    3.9463    0.0000 N   0  0
    2.1717    1.3944    0.0000 N   0  0
    1.5043    0.2383    0.0000 N   0  0
    2.7238    0.7813    0.0000 N   0  0
    2.3113    0.0668    0.0000 N   0  0
   -2.0702   -1.4692    0.0000 N   0  0
   -0.0109    2.7088    0.0000 C   0  0
   -0.7955    2.4539    0.0000 C   0  0
   -0.0109    3.5338    0.0000 C   0  0
    0.7036    2.2963    0.0000 C   0  0
   -1.0504    1.6692    0.0000 C   0  0
   -1.2804    3.1213    0.0000 C   0  0
    1.4181    1.0588    0.0000 C   0  0
    1.4181    3.5338    0.0000 C   0  0
   -0.4984    1.0562    0.0000 C   0  0
   -1.8574    1.4977    0.0000 C   0  0
   -0.7534    0.2715    0.0000 C   0  0
   -2.1124    0.7131    0.0000 C   0  0
   -1.5603    0.1000    0.0000 C   0  0
    2.3433    2.2013    0.0000 C   0  0
   -1.8153   -0.6846    0.0000 C   0  0
  1 12  1  0
  1 15  1  0
  2 13  1  0
  2 16  1  0
  3 13  2  0
  3 17  1  0
  4 12  1  0
  4 17  2  0
  5  7  1  0
  5 16  1  0
  5 23  1  0
  6  8  1  0
  6 16  2  0
  7  8  2  0
  9 24  3  0
 10 11  1  0
 10 12  2  0
 10 13  1  0
 11 14  1  0
 11 15  2  0
 14 18  2  0
 14 19  1  0
 18 20  1  0
 19 21  2  0
 20 22  2  0
 21 22  1  0
 22 24  1  0
M  END