
          11280715212D 1   1.00000     0.00000     0

 37 40  0     1  0            999 V2000
    3.0542   -2.3500    0.0000 N   0  0  3  0  0  0           0  0  0
    3.4417   -4.1542    0.0000 N   0  0  0  0  0  0           0  0  0
    3.9667   -3.5167    0.0000 C   0  0  2  0  0  0           0  0  0
    3.7917   -2.7167    0.0000 C   0  0  0  0  0  0           0  0  0
    2.6167   -4.1500    0.0000 C   0  0  0  0  0  0           0  0  0
    2.1167   -3.5000    0.0000 C   0  0  0  0  0  0           0  0  0
    2.3042   -2.6917    0.0000 C   0  0  0  0  0  0           0  0  0
    4.7667   -3.7125    0.0000 N   0  0  0  0  0  0           0  0  0
    5.3417   -3.1125    0.0000 C   0  0  0  0  0  0           0  0  0
    3.0542   -1.5250    0.0000 C   0  0  0  0  0  0           0  0  0
    3.7792   -1.1167    0.0000 C   0  0  0  0  0  0           0  0  0
    6.1417   -3.3042    0.0000 N   0  0  0  0  0  0           0  0  0
    2.2542   -4.8917    0.0000 C   0  0  0  0  0  0           0  0  0
    3.7917   -0.2917    0.0000 C   0  0  3  0  0  0           0  0  0
    4.4417   -2.2042    0.0000 O   0  0  0  0  0  0           0  0  0
    1.4292   -4.9417    0.0000 N   0  0  0  0  0  0           0  0  0
    5.1042   -2.3167    0.0000 O   0  0  0  0  0  0           0  0  0
    6.7042   -2.7042    0.0000 C   0  0  0  0  0  0           0  0  0
    4.4917   -1.5417    0.0000 O   0  0  0  0  0  0           0  0  0
    7.5042   -2.9000    0.0000 C   0  0  0  0  0  0           0  0  0
    8.0792   -2.3000    0.0000 C   0  0  0  0  0  0           0  0  0
    8.8792   -2.4917    0.0000 N   0  0  0  0  0  0           0  0  0
    1.3292   -3.7375    0.0000 C   0  0  0  0  0  0           0  0  0
    1.7042   -2.1292    0.0000 C   0  0  0  0  0  0           0  0  0
    7.0292   -1.3167    0.0000 C   0  0  0  0  0  0           0  0  0
    4.5042    0.1083    0.0000 C   0  0  0  0  0  0           0  0  0
    3.0792    0.1333    0.0000 C   0  0  0  0  0  0           0  0  0
    3.7792    0.5333    0.0000 C   0  0  0  0  0  0           0  0  0
    1.0667   -5.6792    0.0000 C   0  0  0  0  0  0           0  0  0
    6.4667   -1.9167    0.0000 C   0  0  0  0  0  0           0  0  0
    2.7167   -5.5667    0.0000 C   0  0  0  0  0  0           0  0  0
    7.8417   -1.5042    0.0000 C   0  0  0  0  0  0           0  0  0
    9.4417   -1.8917    0.0000 C   0  0  0  0  0  0           0  0  0
    0.7292   -3.1667    0.0000 C   0  0  0  0  0  0           0  0  0
    0.9167   -2.3625    0.0000 C   0  0  0  0  0  0           0  0  0
    1.5292   -6.3667    0.0000 C   0  0  0  0  0  0           0  0  0
    2.3542   -6.3125    0.0000 C   0  0  0  0  0  0           0  0  0
  2  3  1  0     0  0
  3  4  1  0     0  0
  4  1  1  0     0  0
  5  6  1  0     0  0
  6  7  2  0     0  0
  7  1  1  0     0  0
  3  8  1  6     0  0
  9  8  1  0     0  0
 10  1  1  0     0  0
 11 10  1  0     0  0
 12  9  1  0     0  0
 13  5  1  0     0  0
 14 11  1  0     0  0
 15  4  2  0     0  0
 16 13  2  0     0  0
 17  9  2  0     0  0
 18 12  1  0     0  0
 19 11  2  0     0  0
 20 18  2  0     0  0
 21 20  1  0     0  0
 22 21  1  0     0  0
 23  6  1  0     0  0
 24  7  1  0     0  0
 25 30  2  0     0  0
 26 14  1  0     0  0
 27 14  1  0     0  0
 28 14  1  0     0  0
 29 16  1  0     0  0
 30 18  1  0     0  0
 31 13  1  0     0  0
 32 25  1  0     0  0
 33 22  1  0     0  0
 34 35  1  0     0  0
 35 24  2  0     0  0
 36 37  1  0     0  0
 37 31  2  0     0  0
  2  5  2  0     0  0
 23 34  2  0     0  0
 36 29  2  0     0  0
 32 21  2  0     0  0
M  END