
  SciTegic06051313552D

 23 25  0  0  0  0            999 V2000
   35.2390   -7.9747    0.0000 C   0  0
   35.2378   -8.8020    0.0000 C   0  0
   35.9526   -9.2149    0.0000 C   0  0
   36.6690   -8.8015    0.0000 C   0  0
   36.6662   -7.9711    0.0000 C   0  0
   35.9508   -7.5619    0.0000 N   0  3
   35.9484   -6.7369    0.0000 C   0  0
   34.5245   -7.5624    0.0000 C   0  0
   37.3791   -7.5559    0.0000 C   0  0
   38.0903   -7.1372    0.0000 C   0  0
   33.8071   -7.1497    0.0000 C   0  0
   38.8013   -6.7188    0.0000 C   0  0
   33.0921   -6.7384    0.0000 C   0  0
   33.0951   -5.9135    0.0000 C   0  0
   32.3808   -5.5022    0.0000 C   0  0
   31.6660   -5.9159    0.0000 C   0  0
   31.6700   -6.7451    0.0000 C   0  0
   32.3848   -7.1527    0.0000 C   0  0
   39.5153   -7.1293    0.0000 C   0  0
   40.2258   -6.7116    0.0000 C   0  0
   40.2194   -5.8858    0.0000 C   0  0
   39.4965   -5.4795    0.0000 C   0  0
   38.7890   -5.8996    0.0000 C   0  0
  1  2  2  0
  2  3  1  0
  3  4  2  0
  4  5  1  0
  5  6  2  0
  6  1  1  0
  6  7  1  0
  1  8  1  0
  5  9  1  0
  9 10  3  0
  8 11  3  0
 10 12  1  0
 11 13  1  0
 13 14  2  0
 14 15  1  0
 15 16  2  0
 16 17  1  0
 17 18  2  0
 18 13  1  0
 12 19  2  0
 19 20  1  0
 20 21  2  0
 21 22  1  0
 22 23  2  0
 23 12  1  0
M  CHG  1   6   1
M  END