
          11280715402D 1   1.00000     0.00000     0

 47 51  0     0  0            999 V2000
    1.0792    1.9333    0.0000 S   0  0  3  0  0  0           0  0  0
    1.8042    0.7000    0.0000 C   0  0  0  0  0  0           0  0  0
    4.6667   -3.4250    0.0000 S   0  0  3  0  0  0           0  0  0
    1.8000    1.5250    0.0000 N   0  0  0  0  0  0           0  0  0
    2.5167    0.2875    0.0000 C   0  0  0  0  0  0           0  0  0
    1.0917    0.2875    0.0000 N   0  0  0  0  0  0           0  0  0
    1.8042   -0.9542    0.0000 N   0  0  0  0  0  0           0  0  0
    1.0917   -0.5417    0.0000 C   0  0  0  0  0  0           0  0  0
    2.5167   -0.5417    0.0000 C   0  0  0  0  0  0           0  0  0
    5.3792   -3.8375    0.0000 C   0  0  0  0  0  0           0  0  0
    3.2292    0.7083    0.0000 O   0  0  0  0  0  0           0  0  0
    0.3792   -0.9542    0.0000 C   0  0  0  0  0  0           0  0  0
    0.3625    1.5250    0.0000 C   0  0  0  0  0  0           0  0  0
    5.4667   -4.6542    0.0000 S   0  0  0  0  0  0           0  0  0
    3.9500    0.2958    0.0000 C   0  0  0  0  0  0           0  0  0
    0.3625    2.3458    0.0000 O   0  0  0  0  0  0           0  0  0
    1.4875    2.6500    0.0000 O   0  0  0  0  0  0           0  0  0
    4.4500   -4.2167    0.0000 O   0  0  0  0  0  0           0  0  0
    4.8792   -2.6250    0.0000 O   0  0  0  0  0  0           0  0  0
    3.9542   -3.0125    0.0000 N   0  0  0  0  0  0           0  0  0
    0.3792   -1.7750    0.0000 N   0  0  0  0  0  0           0  0  0
   -0.3375   -0.5375    0.0000 N   0  0  0  0  0  0           0  0  0
    6.1292   -3.5000    0.0000 C   0  0  0  0  0  0           0  0  0
   -1.7958    0.3083    0.0000 C   0  0  3  0  0  0           0  0  0
   -1.0833    0.7208    0.0000 C   0  0  0  0  0  0           0  0  0
    6.2667   -4.8292    0.0000 C   0  0  0  0  0  0           0  0  0
    4.6542    0.7125    0.0000 C   0  0  0  0  0  0           0  0  0
    6.6792   -4.1125    0.0000 C   0  0  0  0  0  0           0  0  0
   -0.3500    1.9583    0.0000 C   0  0  0  0  0  0           0  0  0
    0.3542    0.7083    0.0000 C   0  0  0  0  0  0           0  0  0
   -0.3625    0.2958    0.0000 C   0  0  0  0  0  0           0  0  0
   -1.0708    1.5458    0.0000 C   0  0  0  0  0  0           0  0  0
    3.2375   -0.9542    0.0000 O   0  0  0  0  0  0           0  0  0
    3.9542   -2.1875    0.0000 C   0  0  0  0  0  0           0  0  0
    4.6500    1.5375    0.0000 O   0  0  0  0  0  0           0  0  0
   -1.0500   -1.7750    0.0000 C   0  0  0  0  0  0           0  0  0
   -0.3333   -2.1875    0.0000 C   0  0  0  0  0  0           0  0  0
   -1.0500   -0.9500    0.0000 C   0  0  0  0  0  0           0  0  0
    3.9500   -0.5292    0.0000 C   0  0  0  0  0  0           0  0  0
   -2.0083    1.1083    0.0000 C   0  0  0  0  0  0           0  0  0
   -2.5083    0.7250    0.0000 C   0  0  0  0  0  0           0  0  0
   -1.8083   -0.5167    0.0000 C   0  0  0  0  0  0           0  0  0
    3.2375   -1.7792    0.0000 C   0  0  0  0  0  0           0  0  0
    5.3667    0.3083    0.0000 C   0  0  0  0  0  0           0  0  0
    3.9292    1.9458    0.0000 C   0  0  0  0  0  0           0  0  0
    4.6625   -0.9375    0.0000 C   0  0  0  0  0  0           0  0  0
    5.3792   -0.5167    0.0000 C   0  0  0  0  0  0           0  0  0
  2  4  1  0     0  0
  3 20  1  0     0  0
  4  1  1  0     0  0
  5  2  2  0     0  0
  6  2  1  0     0  0
  7  8  1  0     0  0
  8  6  2  0     0  0
  9  5  1  0     0  0
 10  3  1  0     0  0
 11  5  1  0     0  0
 12  8  1  0     0  0
 13  1  1  0     0  0
 14 10  1  0     0  0
 15 11  1  0     0  0
 16  1  2  0     0  0
 17  1  2  0     0  0
 18  3  2  0     0  0
 19  3  2  0     0  0
 20 34  1  0     0  0
 21 12  1  0     0  0
 22 12  2  0     0  0
 23 10  2  0     0  0
 24 25  1  0     0  0
 25 31  1  0     0  0
 26 14  1  0     0  0
 27 15  1  0     0  0
 28 23  1  0     0  0
 29 13  2  0     0  0
 30 13  1  0     0  0
 31 30  2  0     0  0
 32 29  1  0     0  0
 33  9  1  0     0  0
 34 43  1  0     0  0
 35 27  1  0     0  0
 36 38  2  0     0  0
 37 21  2  0     0  0
 38 22  1  0     0  0
 39 15  2  0     0  0
 40 24  1  0     0  0
 41 24  1  0     0  0
 42 24  1  0     0  0
 43 33  1  0     0  0
 44 27  2  0     0  0
 45 35  1  0     0  0
 46 39  1  0     0  0
 47 46  2  0     0  0
 25 32  2  0     0  0
  7  9  2  0     0  0
 36 37  1  0     0  0
 44 47  1  0     0  0
 28 26  2  0     0  0
M  END