
  SciTegic06051315212D

 26 28  0  0  0  0            999 V2000
   34.1715  -20.6978    0.0000 C   0  0
   34.8763  -20.2870    0.0000 N   0  0
   34.8719  -19.4730    0.0000 C   0  0
   34.1635  -19.0690    0.0000 C   0  0
   33.4658  -20.2974    0.0000 C   0  0
   33.4591  -19.4867    0.0000 C   0  0
   32.7548  -19.0890    0.0000 C   0  0
   32.0568  -19.5008    0.0000 C   0  0
   32.0675  -20.3145    0.0000 C   0  0
   32.7723  -20.7086    0.0000 C   0  0
   35.5774  -19.0607    0.0000 C   0  0
   36.2873  -19.4655    0.0000 N   0  0
   36.9928  -19.0531    0.0000 C   0  0  2  0  0  0
   35.5731  -18.2435    0.0000 O   0  0
   37.7027  -19.4580    0.0000 C   0  0
   37.7070  -20.2751    0.0000 O   0  0
   38.4082  -19.0456    0.0000 O   0  0
   34.1565  -18.2518    0.0000 O   0  0
   34.1762  -21.5150    0.0000 Cl  0  0
   36.9885  -18.2360    0.0000 C   0  0
   37.6940  -17.8236    0.0000 C   0  0
   38.4015  -18.2303    0.0000 C   0  0
   39.1065  -17.8186    0.0000 C   0  0
   39.1026  -17.0005    0.0000 C   0  0
   38.3878  -16.5959    0.0000 C   0  0
   37.6857  -17.0099    0.0000 C   0  0
  1  2  2  0
  2  3  1  0
  3  4  2  0
  4  6  1  0
  5  1  1  0
  5  6  1  0
  6  7  2  0
  7  8  1  0
  8  9  2  0
  9 10  1  0
 10  5  2  0
  3 11  1  0
 11 12  1  0
 12 13  1  0
 11 14  2  0
 13 15  1  0
 15 16  1  0
 15 17  2  0
  4 18  1  0
  1 19  1  0
 13 20  1  1
 20 21  1  0
 21 22  2  0
 22 23  1  0
 23 24  2  0
 24 25  1  0
 25 26  2  0
 26 21  1  0
M  END