
  SciTegic07101214422D

 32 36  0  0  0  0            999 V2000
   -5.4769   -9.1799    0.0000 C   0  0
   -5.4781  -10.0073    0.0000 C   0  0
   -4.7632  -10.4203    0.0000 C   0  0
   -4.0466  -10.0068    0.0000 C   0  0
   -4.7650   -8.7671    0.0000 C   0  0
   -4.0532   -9.1781    0.0000 C   0  0
   -4.0609   -7.5365    0.0000 C   0  0
   -4.7677   -7.9497    0.0000 N   0  0
   -3.3445   -7.9456    0.0000 C   0  0
   -3.3393   -8.7689    0.0000 N   0  0
   -2.5546   -9.0185    0.0000 C   0  0
   -2.0748   -8.3492    0.0000 N   0  0
   -2.5630   -7.6862    0.0000 N   0  0
   -2.2947   -9.8015    0.0000 O   0  0
   -4.0652   -6.7115    0.0000 N   0  0
   -3.3528   -6.2952    0.0000 C   0  0
   -3.3571   -5.4702    0.0000 C   0  0
   -2.6361   -6.7041    0.0000 O   0  0
   -1.2521   -8.3435    0.0000 C   0  0
   -0.8357   -9.0571    0.0000 C   0  0
   -0.0114   -9.0522    0.0000 C   0  0
    0.3974   -8.3344    0.0000 C   0  0
   -0.0241   -7.6202    0.0000 C   0  0
   -0.8470   -7.6286    0.0000 C   0  0
    1.2225   -8.3281    0.0000 O   0  0
    1.6405   -9.0395    0.0000 C   0  0
   -2.6442   -5.0586    0.0000 C   0  0
   -2.6481   -4.2344    0.0000 C   0  0
   -3.3653   -3.8247    0.0000 C   0  0
   -4.0800   -4.2454    0.0000 C   0  0
   -4.0726   -5.0683    0.0000 C   0  0
   -3.3706   -2.9997    0.0000 N   0  0
  7 15  1  0
  9  7  1  0
 15 16  1  0
  3  4  2  0
 16 17  1  0
  7  8  2  0
 16 18  2  0
  8  5  1  0
  9 10  1  0
 19 20  2  0
  4  6  1  0
 20 21  1  0
  5  1  1  0
 21 22  2  0
 22 23  1  0
  2  3  1  0
 23 24  2  0
 24 19  1  0
 12 19  1  0
  5  6  2  0
 22 25  1  0
 10 11  1  0
 25 26  1  0
 11 12  1  0
 17 27  2  0
 12 13  1  0
 27 28  1  0
 13  9  2  0
 28 29  2  0
  6 10  1  0
 29 30  1  0
 11 14  2  0
 30 31  2  0
 31 17  1  0
  1  2  2  0
 29 32  1  0
M  END