
  SciTegic01161211252D

 40 44  0  0  0  0            999 V2000
   -1.0375    0.1625    0.0000 C   0  0  1  0  0  0
   -1.7583    0.5833    0.0000 C   0  0
    1.1167    0.5833    0.0000 C   0  0  1  0  0  0
    1.8292    0.1625    0.0000 C   0  0
   -0.3208    0.5833    0.0000 C   0  0  1  0  0  0
   -2.4708    0.1625    0.0000 N   0  0
    2.5542    0.5833    0.0000 N   0  0
    0.3917    0.1625    0.0000 C   0  0  1  0  0  0
   -3.1958    0.5833    0.0000 C   0  0
    3.2667    0.1625    0.0000 C   0  0
   -3.9458    0.2458    0.0000 C   0  0
    4.0167    0.5000    0.0000 C   0  0
   -4.4958    0.8500    0.0000 C   0  0
    4.5667   -0.1125    0.0000 C   0  0
    3.3542   -0.6542    0.0000 C   0  0  2  0  0  0
   -3.2750    1.3958    0.0000 C   0  0  2  0  0  0
   -1.0375   -0.6667    0.0000 O   0  0
   -4.0833    1.5625    0.0000 C   0  0
    4.1542   -0.8167    0.0000 C   0  0
    1.1167    1.4000    0.0000 O   0  0
   -1.7583    1.4000    0.0000 O   0  0
    1.8292   -0.6667    0.0000 O   0  0
   -0.3208    1.4000    0.0000 O   0  0
    0.3917   -0.6667    0.0000 O   0  0
   -2.6625    1.9458    0.0000 O   0  0
    2.7375   -1.2042    0.0000 O   0  0
   -0.6333   -1.3750    0.0000 C   0  0
   -4.1958   -0.5417    0.0000 C   0  0
    4.2792    1.2833    0.0000 C   0  0
   -5.3000    0.6833    0.0000 C   0  0
    5.3667    0.0500    0.0000 C   0  0
   -1.0458   -2.0750    0.0000 C   0  0
    0.1792   -1.3750    0.0000 C   0  0
   -5.0000   -0.7125    0.0000 C   0  0
    5.0792    1.4500    0.0000 C   0  0
   -5.5583   -0.0917    0.0000 C   0  0
    5.6292    0.8458    0.0000 C   0  0
   -0.6458   -2.7792    0.0000 C   0  0
    0.5875   -2.0792    0.0000 C   0  0
    0.1792   -2.7792    0.0000 C   0  0
  2  1  1  0
  3  8  1  0
  4  3  1  0
  5  1  1  0
  6  2  1  0
  7  4  1  0
  8  5  1  0
  9  6  1  0
 10  7  1  0
 11  9  1  0
 12 10  1  0
 13 11  2  0
 14 12  2  0
 15 10  1  0
 16  9  1  0
  1 17  1  1
 18 16  1  0
 19 15  1  0
  3 20  1  1
 21  2  2  0
 22  4  2  0
  5 23  1  6
  8 24  1  6
 16 25  1  6
 15 26  1  6
 27 17  1  0
 28 11  1  0
 29 12  1  0
 30 13  1  0
 31 14  1  0
 32 27  2  0
 33 27  1  0
 34 28  2  0
 35 29  2  0
 36 34  1  0
 37 35  1  0
 38 32  1  0
 39 33  2  0
 40 39  1  0
 38 40  2  0
 13 18  1  0
 30 36  2  0
 14 19  1  0
 31 37  2  0
M  END