
  SciTegic11201309402D

 55 57  0  0  0  0            999 V2000
    1.5667   -8.0417    0.0000 N   0  0
    8.4417   -5.3667    0.0000 C   0  0
    0.5042   -7.0417    0.0000 C   0  0
    9.1167   -4.8917    0.0000 N   0  0
    4.1750   -5.7542    0.0000 C   0  0
    2.0042   -5.5292    0.0000 C   0  0
    0.7792   -7.8167    0.0000 C   0  0  2  0  0  0
    1.2167   -6.6375    0.0000 N   0  0
    2.7542   -5.8792    0.0000 N   0  0
    4.8500   -5.2792    0.0000 N   0  0
    3.4292   -5.4042    0.0000 C   0  0  1  0  0  0
    2.3917   -8.0417    0.0000 C   0  0
    7.6917   -5.0167    0.0000 C   0  0  1  0  0  0
    9.8667   -5.2375    0.0000 C   0  0  2  0  0  0
    1.2167   -5.8125    0.0000 C   0  0  1  0  0  0
    5.2000   -3.3792    0.0000 N   0  0
    7.0167   -5.4917    0.0000 C   0  0
   10.5417   -4.7625    0.0000 C   0  0
    5.6000   -5.6250    0.0000 C   0  0  2  0  0  0
    4.0042   -3.9917    0.0000 C   0  0
    3.4250   -4.5792    0.0000 C   0  0
    3.8750   -3.1792    0.0000 N   0  0
    4.6042   -2.8000    0.0000 C   0  0
    6.2750   -5.1500    0.0000 C   0  0  1  0  0  0
    4.8250   -4.1167    0.0000 C   0  0
    8.5167   -6.1875    0.0000 O   0  0
   -0.3333   -6.8792    0.0000 O   0  0
    4.2500   -6.5750    0.0000 O   0  0
    2.0167   -4.7792    0.0000 O   0  0
    0.5875   -5.2667    0.0000 C   0  0
    2.8000   -7.3250    0.0000 O   0  0
   10.4667   -3.9375    0.0000 O   0  0
    5.6750   -6.4417    0.0000 C   0  0
   11.2917   -5.1042    0.0000 N   0  0
    7.6167   -4.1917    0.0000 C   0  0
    9.9417   -6.0542    0.0000 C   0  0  2  0  0  0
    1.5875   -8.8625    0.0000 C   0  0
    0.7417   -4.4542    0.0000 C   0  0
    6.2000   -4.3292    0.0000 O   0  0
    0.3042   -8.4917    0.0000 C   0  0
    2.8042   -8.7542    0.0000 C   0  0
    0.7917   -9.1250    0.0000 C   0  0
    6.4167   -6.7917    0.0000 C   0  0
    9.2667   -6.5292    0.0000 C   0  0
    8.2917   -3.7167    0.0000 C   0  0
    6.8750   -3.8500    0.0000 C   0  0
   10.6917   -6.4042    0.0000 C   0  0
    0.1125   -3.9292    0.0000 C   0  0
    1.5167   -4.1917    0.0000 C   0  0
    6.4917   -7.6125    0.0000 C   0  0
    7.0917   -6.3167    0.0000 C   0  0
    9.2625   -7.3542    0.0000 C   0  0
    1.6667   -3.3792    0.0000 C   0  0
    0.2542   -3.1167    0.0000 C   0  0
    1.0417   -2.8417    0.0000 C   0  0
  2 13  1  0
  7  3  1  1
  4  2  1  0
  5 11  1  0
  6 15  1  0
  7  1  1  0
  8  3  1  0
  9  6  1  0
 10  5  1  0
 11  9  1  1
 12  1  1  0
 13 17  1  1
 14  4  1  6
 15  8  1  1
 16 25  1  0
 17 24  1  0
 18 14  1  0
 19 10  1  6
 20 21  1  0
 11 21  1  0
 22 20  1  0
 23 22  2  0
 24 19  1  0
 25 20  2  0
 26  2  2  0
 27  3  2  0
 28  5  2  0
 29  6  2  0
 15 30  1  0
 31 12  2  0
 32 18  2  0
 19 33  1  0
 34 18  1  0
 13 35  1  0
 14 36  1  0
 37  1  1  0
 38 30  1  0
 24 39  1  1
 40  7  1  0
 41 12  1  0
 42 37  1  0
 43 33  1  0
 44 36  1  0
 45 35  1  0
 46 35  1  0
 36 47  1  1
 48 38  1  0
 49 38  2  0
 50 43  1  0
 51 43  1  0
 52 44  1  0
 53 49  1  0
 54 48  2  0
 55 53  2  0
 40 42  1  0
 54 55  1  0
 16 23  1  0
M  END