
  SciTegic11111309142D

 50 54  0  0  0  0            999 V2000
    9.3233   -7.2307    0.0000 C   0  0
    4.8649  -14.6377    0.0000 C   0  0
    5.4780  -14.0857    0.0000 C   0  0
    5.1425  -13.3320    0.0000 C   0  0
    4.3220  -13.4182    0.0000 C   0  0
    4.1505  -14.2252    0.0000 C   0  0
    7.1799   -9.2932    0.0000 O   0  0
    6.4654   -9.7057    0.0000 C   0  0
    6.4654  -10.5307    0.0000 C   0  0
    7.1799  -10.9432    0.0000 C   0  0
    7.1799  -11.7682    0.0000 C   0  0
    6.4654  -12.1807    0.0000 C   0  0
    5.7509  -11.7682    0.0000 C   0  0
    5.7509  -10.9432    0.0000 C   0  0
    7.8943  -10.5307    0.0000 Cl  0  0
    5.0365  -10.5307    0.0000 Cl  0  0
    5.0365  -12.1807    0.0000 S   0  0
    4.6240  -11.4663    0.0000 O   0  0
    5.4490  -12.8952    0.0000 O   0  0
    3.5015  -13.3320    0.0000 C   0  0
    3.0166  -13.9994    0.0000 N   0  0
    3.1660  -12.5783    0.0000 O   0  0
    3.3521  -14.7531    0.0000 C   0  0
    2.8672  -15.4206    0.0000 C   0  0
    2.0467  -15.3343    0.0000 N   0  0
    1.7112  -14.5806    0.0000 C   0  0
    2.1961  -13.9132    0.0000 C   0  0
    1.5618  -16.0018    0.0000 C   0  0
    1.8974  -16.7554    0.0000 O   0  0
    0.7413  -15.9155    0.0000 C   0  0
    0.2564  -16.5830    0.0000 C   0  0
   -0.5641  -16.4967    0.0000 C   0  0
   -1.0490  -17.1642    0.0000 C   0  0
   -1.8695  -17.0779    0.0000 C   0  0
    7.1799   -8.4682    0.0000 C   0  0
    7.1799   -6.8182    0.0000 C   0  0
    6.4654   -7.2307    0.0000 C   0  0
    6.4654   -8.0557    0.0000 C   0  0
    7.8943   -7.2307    0.0000 C   0  0
    7.8943   -8.0557    0.0000 C   0  0
    8.6088   -8.4682    0.0000 N   0  0
    9.3233   -8.0557    0.0000 C   0  0
    8.6088   -6.8182    0.0000 C   0  0
   10.0378   -8.4682    0.0000 C   0  0
    8.6088   -5.9932    0.0000 C   0  0
   -2.3544  -17.7454    0.0000 N   0  3
   -2.8393  -18.4128    0.0000 C   0  0
   -3.0218  -17.2604    0.0000 C   0  0
   -1.6870  -18.2303    0.0000 C   0  0
    4.3220  -12.5932    0.0000 N   0  0
 13 17  1  0
 17 18  2  0
 17 19  2  0
  5 20  1  0
 20 21  1  0
 20 22  2  0
 21 23  1  0
 21 27  1  0
 23 24  1  0
 24 25  1  0
 25 26  1  0
 26 27  1  0
 25 28  1  0
 28 29  2  0
 28 30  1  0
 30 31  1  0
 31 32  1  0
 32 33  1  0
 33 34  1  0
  7 35  1  0
 35 40  2  0
  2  3  1  0
 39 36  2  0
  3  4  1  0
 36 37  1  0
  4  5  1  0
 37 38  2  0
 38 35  1  0
  5  6  1  0
  6  2  1  0
 39 40  1  0
  7  8  1  0
 40 41  1  0
  8  9  1  0
 41 42  2  0
 42  1  1  0
  9 10  2  0
  1 43  2  0
 43 39  1  0
 10 11  1  0
 42 44  1  0
 11 12  2  0
 43 45  1  0
 12 13  1  0
 34 46  1  0
 13 14  2  0
 46 47  1  0
 14  9  1  0
 46 48  1  0
 10 15  1  0
 46 49  1  0
 14 16  1  0
 17 50  1  0
 50  5  1  0
M  CHG  1  46   1
M  END