
  SciTegic05301215432D

 17 19  0  0  0  0            999 V2000
    2.6866    2.7856    0.0000 S   0  0
    4.5854    0.5759    0.0000 F   0  0
    2.2741    0.9783    0.0000 N   0  0
    3.4570    0.2350    0.0000 N   0  0
    3.6134    1.6234    0.0000 C   0  0
    3.4299    2.4277    0.0000 C   0  0
    3.0991    0.9783    0.0000 C   0  0
    1.9433    2.4277    0.0000 C   0  0
    1.7597    1.6234    0.0000 C   0  0
    4.4018    1.3802    0.0000 C   0  0
    4.0346    2.9888    0.0000 C   0  0
    5.0066    1.9413    0.0000 C   0  0
    1.3385    2.9888    0.0000 C   0  0
    0.9713    1.3802    0.0000 C   0  0
    4.8230    2.7456    0.0000 C   0  0
    0.5501    2.7456    0.0000 C   0  0
    0.3666    1.9413    0.0000 C   0  0
  1  6  1  0
  1  8  1  0
  2 10  1  0
  3  7  2  0
  3  9  1  0
  4  7  1  0
  5  6  2  0
  5  7  1  0
  5 10  1  0
  6 11  1  0
  8  9  1  0
  8 13  2  0
  9 14  2  0
 10 12  2  0
 11 15  2  0
 12 15  1  0
 13 16  1  0
 14 17  1  0
 16 17  2  0
M  END