
          11280715382D 1   1.00000     0.00000     0

 22 24  0     0  0            999 V2000
    0.2042   -2.2917    0.0000 C   0  0  0  0  0  0           0  0  0
    0.7167   -2.5917    0.0000 C   0  0  0  0  0  0           0  0  0
   -0.3125   -2.5917    0.0000 C   0  0  0  0  0  0           0  0  0
    0.2042   -1.6917    0.0000 C   0  0  0  0  0  0           0  0  0
    1.2417   -2.2917    0.0000 C   0  0  0  0  0  0           0  0  0
    1.2417   -1.6917    0.0000 C   0  0  0  0  0  0           0  0  0
    0.7167   -1.3917    0.0000 O   0  0  0  0  0  0           0  0  0
   -0.8375   -2.2917    0.0000 C   0  0  0  0  0  0           0  0  0
   -0.8375   -1.6917    0.0000 C   0  0  0  0  0  0           0  0  0
   -0.3125   -1.3917    0.0000 C   0  0  0  0  0  0           0  0  0
    0.7167   -3.1917    0.0000 O   0  0  0  0  0  0           0  0  0
    1.7667   -1.3917    0.0000 C   0  0  0  0  0  0           0  0  0
   -0.3083   -3.1917    0.0000 O   0  0  0  0  0  0           0  0  0
   -1.3583   -2.5792    0.0000 C   0  0  3  0  0  0           0  0  0
   -1.3750   -1.4042    0.0000 O   0  0  0  0  0  0           0  0  0
    2.2875   -1.6917    0.0000 C   0  0  0  0  0  0           0  0  0
    1.7667   -0.7917    0.0000 C   0  0  0  0  0  0           0  0  0
   -1.9458   -2.4292    0.0000 C   0  0  0  0  0  0           0  0  0
   -1.3625   -3.1792    0.0000 C   0  0  0  0  0  0           0  0  0
    2.2875   -0.4875    0.0000 C   0  0  0  0  0  0           0  0  0
    2.8125   -1.3917    0.0000 C   0  0  0  0  0  0           0  0  0
    2.8125   -0.7917    0.0000 C   0  0  0  0  0  0           0  0  0
  2  1  1  0     0  0
  3  1  1  0     0  0
  4  1  2  0     0  0
  5  2  1  0     0  0
  6  7  1  0     0  0
  7  4  1  0     0  0
  8  3  2  0     0  0
  9 10  2  0     0  0
 10  4  1  0     0  0
 11  2  2  0     0  0
 12  6  1  0     0  0
 13  3  1  0     0  0
 14  8  1  0     0  0
 15  9  1  0     0  0
 16 12  2  0     0  0
 17 12  1  0     0  0
 18 14  1  0     0  0
 19 14  1  0     0  0
 20 17  2  0     0  0
 21 16  1  0     0  0
 22 20  1  0     0  0
  9  8  1  0     0  0
  6  5  2  0     0  0
 22 21  2  0     0  0
M  END