
  SciTegic04091415222D

 27 30  0  0  0  0            999 V2000
    1.4555  -10.3593    0.0000 C   0  0
    2.8692  -10.3557    0.0000 C   0  0
    2.1606   -9.9504    0.0000 C   0  0
    2.8721  -11.1784    0.0000 C   0  0
    2.8682  -12.8135    0.0000 C   0  0
    3.5794  -12.4012    0.0000 C   0  0
    3.5775  -11.5855    0.0000 C   0  0
    2.1616  -11.5856    0.0000 C   0  0
    1.4543  -11.1788    0.0000 C   0  0
    0.7505  -11.5878    0.0000 C   0  0
    0.7527  -12.4035    0.0000 O   0  0
    1.4646  -12.8084    0.0000 C   0  0
    2.1655  -12.3971    0.0000 C   0  0
    3.5724   -9.9457    0.0000 C   0  0
    4.2819  -10.3534    0.0000 N   0  0
    4.9876   -9.9428    0.0000 C   0  0
    4.9849   -9.1247    0.0000 N   0  0
    4.2707   -8.7190    0.0000 C   0  0
    3.5680   -9.1319    0.0000 N   0  0
    2.1582   -9.1333    0.0000 Cl  0  0
    4.2648   -7.9018    0.0000 N   0  0
    5.6966  -10.3491    0.0000 S   0  0
    6.4030   -9.9381    0.0000 C   0  0
    7.1120  -10.3444    0.0000 C   0  0
    7.8184   -9.9335    0.0000 N   0  0
    8.5274  -10.3398    0.0000 C   0  0
    7.8157   -9.1163    0.0000 C   0  0
  1  9  2  0
  4  2  1  0
  2  3  2  0
  3  1  1  0
  4  8  1  0
 13  5  1  0
  5  6  2  0
  6  7  1  0
  7  4  2  0
  8  9  1  0
  9 10  1  0
 10 11  1  0
 11 12  1  0
 12 13  1  0
 13  8  2  0
 14 15  2  0
 15 16  1  0
 16 17  2  0
 17 18  1  0
 18 19  2  0
 19 14  1  0
  2 14  1  0
  3 20  1  0
 18 21  1  0
 16 22  1  0
 22 23  1  0
 23 24  1  0
 24 25  1  0
 25 26  1  0
 25 27  1  0
M  END