
  SciTegic12231509382D

 32 35  0  0  0  0            999 V2000
   -1.2291   -0.5000    0.0000 C   0  0  1  0  0  0
   -1.2291   -1.2084    0.0000 C   0  0  2  0  0  0
   -2.4625   -3.3459    0.0000 C   0  0
   -0.5542   -0.2750    0.0000 C   0  0  2  0  0  0
   -2.4625   -2.6375    0.0000 C   0  0
   -1.8458   -3.6959    0.0000 C   0  0
   -1.8458   -1.5667    0.0000 C   0  0
   -1.8458   -2.2750    0.0000 C   0  0
   -0.5500   -1.4209    0.0000 C   0  0
   -0.1333   -0.8417    0.0000 C   0  0
   -3.0792   -3.6959    0.0000 C   0  0
   -1.8458   -4.4125    0.0000 C   0  0  2  0  0  0
   -1.2291   -3.3417    0.0000 C   0  0
   -0.5625    0.4375    0.0000 C   0  0  1  0  0  0
   -1.8458   -0.1375    0.0000 C   0  0
   -1.2333    0.2125    0.0000 C   0  0
   -3.0792   -4.4083    0.0000 C   0  0  2  0  0  0
   -2.4667   -4.7667    0.0000 C   0  0
   -2.4625   -1.2084    0.0000 C   0  0
   -2.4625   -0.5000    0.0000 C   0  0
    0.6709    0.4500    0.0000 C   0  0
    1.2875    0.8166    0.0000 C   0  0  2  0  0  0
    0.0542    0.8041    0.0000 C   0  0
   -1.1791    0.7916    0.0000 C   0  0
    0.0625    0.0875    0.0000 H   0  0
   -1.2333   -1.9167    0.0000 H   0  0
   -3.6936   -4.7607    0.0000 O   0  0
   -1.2333   -4.7683    0.0000 O   0  0
    1.9055    0.4704    0.0000 C   0  0
    2.2638   -0.1392    0.0000 C   0  0
    2.6101    0.4787    0.0000 C   0  0
    1.2784    1.5249    0.0000 O   0  0
  8  7  2  0
  9  2  1  0
 10  4  1  0
 11  3  1  0
 12  6  1  0
 13  6  2  0
 14  4  1  0
 15  1  1  0
  1 16  1  1
 17 11  1  0
 18 17  1  0
 19 20  1  0
 20 15  1  0
 21 23  2  0
 22 21  1  0
 23 14  1  0
 14 24  1  6
  4 25  1  6
 10  9  1  0
 19  7  1  0
 12 18  1  0
  2 26  1  6
 17 27  1  6
  2  1  1  0
 12 28  1  1
  3  5  2  0
 22 29  1  0
 30 29  1  0
 31 30  1  0
 29 31  1  0
  4  1  1  0
  5  8  1  0
  6  3  1  0
 22 32  1  1
  7  2  1  0
M  END