
  SciTegic01161211232D

 21 23  0  0  0  0            999 V2000
   15.0762   -0.4232    0.0000 C   0  0
   15.0751   -1.2470    0.0000 C   0  0
   15.7868   -1.6582    0.0000 C   0  0
   15.7850   -0.0121    0.0000 C   0  0
   16.4974   -0.4195    0.0000 C   0  0
   16.4962   -1.2491    0.0000 C   0  0
   17.2101   -1.6626    0.0000 C   0  0
   17.9296   -1.2512    0.0000 C   0  0
   17.2125   -0.0035    0.0000 C   0  0
   17.9300   -0.4226    0.0000 N   0  0
   18.6496   -0.0108    0.0000 C   0  0
   18.6529    0.8199    0.0000 C   0  0
   17.2139    0.8230    0.0000 C   0  0
   17.9300    1.2359    0.0000 C   0  0
   17.9296    2.0606    0.0000 C   0  0
   17.2137    2.4735    0.0000 C   0  0
   16.4968    2.0556    0.0000 C   0  0
   16.5008    1.2322    0.0000 C   0  0
   14.3633   -1.6573    0.0000 O   0  0
   13.6521   -1.2459    0.0000 C   0  0
   18.6375   -0.8298    0.0000 C   0  0
  5  6  1  0
 10 11  1  0
 11 12  1  0
 12 14  1  0
 13  9  1  0
  2  3  1  0
  3  6  2  0
 13 14  2  0
  1  2  2  0
 14 15  1  0
  5  9  1  0
 15 16  2  0
  6  7  1  0
 16 17  1  0
  7  8  1  0
 17 18  2  0
 18 13  1  0
  8 10  1  0
  2 19  1  0
  5  4  2  0
 19 20  1  0
  4  1  1  0
 10 21  1  0
M  END