
  SciTegic01161211242D

 19 21  0  0  0  0            999 V2000
    2.4094    0.1411    0.0000 C   0  0
    2.4082   -0.6829    0.0000 C   0  0
    3.1202   -1.0940    0.0000 C   0  0
    3.1184    0.5522    0.0000 C   0  0
    3.8307    0.1447    0.0000 C   0  0
    3.8342   -0.6849    0.0000 C   0  0
    4.5504   -1.0945    0.0000 C   0  0
    5.2678   -0.6790    0.0000 C   0  0
    4.5436    0.5648    0.0000 C   0  0  2  0  0  0
    5.2649    0.1487    0.0000 C   0  0  1  0  0  0
    5.8835    0.7061    0.0000 N   0  0
    5.5445    1.4668    0.0000 C   0  0
    4.7165    1.3794    0.0000 C   0  0
    3.1159    1.3738    0.0000 O   0  0
    6.7058    0.7125    0.0000 C   0  0
    7.1118    1.4269    0.0000 C   0  0
    7.9334    1.4325    0.0000 C   0  0
    3.8259    0.9792    0.0000 H   0  0
    6.0541   -0.0622    0.0000 H   0  0
  9 10  1  0
  5  4  2  0
  4  1  1  0
  5  6  1  0
  2  3  1  0
 10 11  1  0
 11 12  1  0
 12 13  1  0
 13  9  1  0
  3  6  2  0
  4 14  1  0
  1  2  2  0
 11 15  1  0
  5  9  1  0
 15 16  1  0
  6  7  1  0
 16 17  1  0
  7  8  1  0
  9 18  1  6
  8 10  1  0
 10 19  1  6
M  END