
  SciTegic11201309402D

 79 83  0  0  1  0            999 V2000
    6.6750   -3.2375    0.0000 N   0  0
    0.6167   -4.2667    0.0000 N   0  0
    6.0625   -3.7875    0.0000 C   0  0
    1.2042   -4.8542    0.0000 C   0  0
    0.1167   -2.7167    0.0000 C   0  0
    5.2667   -3.5292    0.0000 C   0  0  2  0  0  0
    5.4000   -2.7167    0.0000 N   0  0
    0.2417   -1.8917    0.0000 N   0  0
    0.2417   -3.5292    0.0000 C   0  0  2  0  0  0
    4.3125   -0.5750    0.0000 N   0  0
    1.9417   -0.2000    0.0000 N   0  0
    5.2667   -1.8917    0.0000 C   0  0
    1.2042   -0.5750    0.0000 C   0  0
    7.6250   -2.1042    0.0000 C   0  0
    3.5750   -0.2000    0.0000 C   0  0
    4.9000   -1.1625    0.0000 C   0  0  1  0  0  0
    7.4375   -2.9167    0.0000 C   0  0  2  0  0  0
    0.6167   -1.1625    0.0000 C   0  0  1  0  0  0
    1.9417   -5.2292    0.0000 C   0  0
    8.4167   -1.8667    0.0000 N   0  0
    5.4750   -0.6125    0.0000 C   0  0
    2.7542   -0.0667    0.0000 C   0  0  2  0  0  0
    7.1667    2.2458    0.0000 C   0  0
    4.3125   -4.8542    0.0000 S   0  0
    9.3917   -0.8250    0.0000 C   0  0
    3.5750   -5.2292    0.0000 S   0  0
    5.2542    0.1875    0.0000 C   0  0
    2.7542   -5.3542    0.0000 C   0  0
    8.6042   -1.0667    0.0000 C   0  0  2  0  0  0
    3.4750    1.9958    0.0000 C   0  0
    7.3542    3.0500    0.0000 N   0  0
    6.2292   -4.5917    0.0000 O   0  0
   -0.5458   -3.7875    0.0000 C   0  0
    0.7167   -5.5167    0.0000 O   0  0
   -0.7125   -2.7167    0.0000 O   0  0
    4.9000   -4.2667    0.0000 C   0  0
    7.0167   -1.5417    0.0000 O   0  0
    0.7167    0.0958    0.0000 O   0  0
    6.0625   -1.6417    0.0000 O   0  0
    3.8292    0.5875    0.0000 O   0  0
   -0.0500   -0.6750    0.0000 C   0  0
    9.9917   -1.3875    0.0000 O   0  0
    5.7625    0.8375    0.0000 O   0  0
    4.1917    2.4083    0.0000 O   0  0
    2.7542    0.7583    0.0000 C   0  0
    7.7667    1.6750    0.0000 N   0  0
    9.5792   -0.0167    0.0000 N   0  0
    6.3750    2.0083    0.0000 N   0  0
    6.7417   -4.0625    0.0000 C   0  0
    4.4417    0.2875    0.0000 N   0  0
    3.4750    1.1708    0.0000 C   0  0
   -1.1583   -3.2292    0.0000 C   0  0
    2.7542    2.4083    0.0000 N   0  0
   -0.0500   -4.7542    0.0000 C   0  0
   -2.3833   -2.1250    0.0000 C   0  0
    0.0375    0.1458    0.0000 C   0  0
   -0.9833   -2.4250    0.0000 C   0  0
   -1.9458   -3.4875    0.0000 C   0  0
   11.3500    1.2708    0.0000 N   0  0
   -1.6000   -1.8667    0.0000 C   0  0
   -2.5583   -2.9292    0.0000 C   0  0
    7.9750   -3.5375    0.0000 C   0  0
   -3.0000   -1.5750    0.0000 O   0  0
    7.5500   -4.2500    0.0000 C   0  0
    2.0417   -5.6625    0.0000 C   0  0
    3.4750   -5.6625    0.0000 C   0  0
    8.0000   -0.5000    0.0000 C   0  0
   10.3667    0.2208    0.0000 C   0  0
    7.5875    0.8708    0.0000 C   0  0
   10.5625    1.0333    0.0000 C   0  0
   -0.6333    0.6333    0.0000 C   0  0
    0.7917    0.4833    0.0000 C   0  0
    8.1875    0.3083    0.0000 C   0  0
    3.4750   -6.4875    0.0000 C   0  0
    2.0417   -6.4875    0.0000 C   0  0
    0.8792    1.3083    0.0000 C   0  0
   -0.5458    1.4583    0.0000 C   0  0
    2.7542   -6.9000    0.0000 C   0  0
    0.2042    1.7958    0.0000 C   0  0
  2  4  1  0
  3  1  1  0
  4 19  1  0
  5  9  1  0
  6  3  1  1
  7  6  1  0
  8  5  1  0
  9  2  1  0
 10 16  1  0
 11 22  1  0
 12  7  1  0
 13 11  1  0
 17 14  1  6
 15 10  1  0
 16 12  1  0
 17  1  1  0
 18 13  1  0
 19 28  1  0
 20 14  1  0
 16 21  1  6
 22 15  1  0
 23 46  2  0
 24 36  1  0
 25 29  1  0
 26 24  1  0
 27 21  1  0
 28 26  1  0
 29 20  1  1
 30 51  1  0
 31 23  1  0
 32  3  2  0
  9 33  1  1
 34  4  2  0
 35  5  2  0
  6 36  1  0
 37 14  2  0
 38 13  2  0
 39 12  2  0
 40 15  2  0
 18 41  1  6
 42 25  2  0
 43 27  2  0
 44 30  2  0
 22 45  1  1
 46 69  1  0
 47 25  1  0
 48 23  1  0
 49  1  1  0
 50 27  1  0
 51 45  1  0
 52 33  1  0
 53 30  1  0
 54  2  1  0
 55 61  1  0
 56 41  1  0
 57 52  2  0
 58 52  1  0
 59 70  1  0
 60 57  1  0
 61 58  2  0
 17 62  1  0
 63 55  1  0
 64 49  1  0
 65 28  1  0
 66 28  1  0
 29 67  1  0
 68 47  1  0
 69 73  1  0
 70 68  1  0
 71 56  1  0
 72 56  2  0
 73 67  1  0
 74 66  1  0
 75 65  1  0
 76 72  1  0
 77 71  2  0
 78 74  1  0
 79 76  2  0
 62 64  1  0
 78 75  1  0
 18  8  1  0
 60 55  2  0
 79 77  1  0
M  END