
          11280714492D 1   1.00000     0.00000     0

 32 35  0     0  0            999 V2000
    1.3750   -0.5167    0.0000 C   0  0  0  0  0  0           0  0  0
    2.1917   -0.5792    0.0000 N   0  0  0  0  0  0           0  0  0
    0.9417    0.1833    0.0000 C   0  0  3  0  0  0           0  0  0
    2.3917   -1.3792    0.0000 C   0  0  0  0  0  0           0  0  0
    1.4042    0.7333    0.0000 C   0  0  3  0  0  0           0  0  0
    0.1667    0.0083    0.0000 C   0  0  3  0  0  0           0  0  0
    0.1625   -0.7125    0.0000 O   0  0  0  0  0  0           0  0  0
    1.0625   -1.2792    0.0000 O   0  0  0  0  0  0           0  0  0
    0.6542    0.6625    0.0000 C   0  0  3  0  0  0           0  0  0
    1.6875   -1.8167    0.0000 C   0  0  0  0  0  0           0  0  0
    2.0292    1.0625    0.0000 C   0  0  0  0  0  0           0  0  0
    3.1542   -1.7000    0.0000 C   0  0  0  0  0  0           0  0  0
    2.0625    1.7750    0.0000 C   0  0  0  0  0  0           0  0  0
    4.5417    1.6708    0.0000 C   0  0  0  0  0  0           0  0  0
   -0.3708    0.5458    0.0000 C   0  0  0  0  0  0           0  0  0
    0.1500    1.1333    0.0000 C   0  0  0  0  0  0           0  0  0
    2.7000    2.1083    0.0000 C   0  0  0  0  0  0           0  0  0
    3.8042   -1.2000    0.0000 O   0  0  0  0  0  0           0  0  0
    5.1750    2.0083    0.0000 O   0  0  0  0  0  0           0  0  0
    3.2625   -2.5167    0.0000 N   0  0  0  0  0  0           0  0  0
    3.3042    1.7250    0.0000 C   0  0  0  0  0  0           0  0  0
    3.9375    2.0583    0.0000 C   0  0  0  0  0  0           0  0  0
    4.5042    0.9583    0.0000 O   0  0  0  0  0  0           0  0  0
    1.4625    2.1583    0.0000 C   0  0  0  0  0  0           0  0  0
    2.7292    2.8208    0.0000 C   0  0  0  0  0  0           0  0  0
    4.0250   -2.8292    0.0000 C   0  0  0  0  0  0           0  0  0
    4.1292   -3.6542    0.0000 C   0  0  0  0  0  0           0  0  0
    5.0042   -4.7875    0.0000 C   0  0  0  0  0  0           0  0  0
    4.8917   -3.9667    0.0000 C   0  0  0  0  0  0           0  0  0
    1.4875    2.8708    0.0000 C   0  0  0  0  0  0           0  0  0
    5.7667   -5.1000    0.0000 C   0  0  0  0  0  0           0  0  0
    2.1250    3.2083    0.0000 C   0  0  0  0  0  0           0  0  0
  2  1  2  0     0  0
  3  1  1  0     0  0
  4  2  1  0     0  0
  5  3  1  0     0  0
  6  3  1  0     0  0
  7  6  1  0     0  0
  8  1  1  0     0  0
  9  5  1  0     0  0
 10  8  1  0     0  0
 11  5  1  0     0  0
 12  4  1  0     0  0
 13 11  1  0     0  0
 14 22  1  0     0  0
 15  6  1  0     0  0
 16 15  1  0     0  0
 17 13  2  0     0  0
 18 12  2  0     0  0
 19 14  2  0     0  0
 20 12  1  0     0  0
 21 17  1  0     0  0
 22 21  1  0     0  0
 23 14  1  0     0  0
 24 13  1  0     0  0
 25 17  1  0     0  0
 26 20  1  0     0  0
 27 26  1  0     0  0
 28 29  1  0     0  0
 29 27  1  0     0  0
 30 24  2  0     0  0
 31 28  1  0     0  0
 32 30  1  0     0  0
  4 10  2  0     0  0
  9  7  1  0     0  0
 16  9  1  0     0  0
 32 25  2  0     0  0
M  END