
          11280715182D 1   1.00000     0.00000     0

 15 15  0     0  0            999 V2000
    4.9292   -5.8042    0.0000 N   0  0  3  0  0  0           0  0  0
    5.0125   -4.9792    0.0000 C   0  0  0  0  0  0           0  0  0
    7.1167   -5.6125    0.0000 C   0  0  0  0  0  0           0  0  0
    6.3542   -5.9500    0.0000 C   0  0  0  0  0  0           0  0  0
    5.5917   -6.2875    0.0000 C   0  0  3  0  0  0           0  0  0
    5.7667   -4.6375    0.0000 O   0  0  0  0  0  0           0  0  0
    7.9667   -4.4417    0.0000 N   0  0  3  0  0  0           0  0  0
    7.8792   -5.2750    0.0000 C   0  0  0  0  0  0           0  0  0
    4.1750   -6.1417    0.0000 C   0  0  0  0  0  0           0  0  0
    4.3375   -4.4917    0.0000 C   0  0  0  0  0  0           0  0  0
    5.5042   -7.1042    0.0000 C   0  0  0  0  0  0           0  0  0
    7.3000   -3.9625    0.0000 C   0  0  0  0  0  0           0  0  0
    8.7250   -4.1125    0.0000 C   0  0  0  0  0  0           0  0  0
    4.0875   -6.9625    0.0000 C   0  0  0  0  0  0           0  0  0
    4.7542   -7.4417    0.0000 C   0  0  0  0  0  0           0  0  0
  2  1  1  0     0  0
  3  4  3  0     0  0
  4  5  1  0     0  0
  5  1  1  0     0  0
  6  2  2  0     0  0
  7  8  1  0     0  0
  8  3  1  0     0  0
  9  1  1  0     0  0
 10  2  1  0     0  0
 11  5  1  0     0  0
 12  7  1  0     0  0
 13  7  1  0     0  0
 14  9  1  0     0  0
 15 14  1  0     0  0
 11 15  1  0     0  0
M  END