
          11280715342D 1   1.00000     0.00000     0

 29 32  0     0  0            999 V2000
   -0.5708    0.9125    0.0000 C   0  0  0  0  0  0           0  0  0
   -0.5708    0.3083    0.0000 C   0  0  0  0  0  0           0  0  0
   -1.1458    0.1250    0.0000 N   0  0  0  0  0  0           0  0  0
   -1.1458    1.1000    0.0000 C   0  0  0  0  0  0           0  0  0
   -1.4958    0.6125    0.0000 C   0  0  0  0  0  0           0  0  0
   -0.0583    1.2083    0.0000 C   0  0  0  0  0  0           0  0  0
    3.0667    1.8083    0.0000 N   0  0  3  0  0  0           0  0  0
    3.5875    2.1000    0.0000 C   0  0  0  0  0  0           0  0  0
    2.0250    1.2125    0.0000 N   0  0  3  0  0  0           0  0  0
   -0.0583    0.0083    0.0000 C   0  0  0  0  0  0           0  0  0
    0.4667    0.9083    0.0000 C   0  0  3  0  0  0           0  0  0
   -0.0583    1.8083    0.0000 O   0  0  0  0  0  0           0  0  0
    2.5417    2.1083    0.0000 C   0  0  0  0  0  0           0  0  0
    3.0625    1.2083    0.0000 C   0  0  0  0  0  0           0  0  0
    4.1042    1.7958    0.0000 C   0  0  0  0  0  0           0  0  0
    0.4667    0.3083    0.0000 C   0  0  0  0  0  0           0  0  0
    0.9875    1.2125    0.0000 C   0  0  0  0  0  0           0  0  0
    1.5042    0.9125    0.0000 C   0  0  0  0  0  0           0  0  0
    2.5417    0.9083    0.0000 C   0  0  0  0  0  0           0  0  0
    2.0250    1.8083    0.0000 C   0  0  0  0  0  0           0  0  0
   -1.3333    1.6708    0.0000 C   0  0  0  0  0  0           0  0  0
   -2.0958    0.6125    0.0000 C   0  0  0  0  0  0           0  0  0
    4.1042    1.1958    0.0000 O   0  0  0  0  0  0           0  0  0
    3.5875    2.7083    0.0000 C   0  0  0  0  0  0           0  0  0
    4.6250    2.0958    0.0000 C   0  0  0  0  0  0           0  0  0
    4.6250    0.8958    0.0000 C   0  0  0  0  0  0           0  0  0
   -1.9208    1.7958    0.0000 C   0  0  0  0  0  0           0  0  0
    4.1042    2.9958    0.0000 C   0  0  0  0  0  0           0  0  0
    4.6292    2.6958    0.0000 C   0  0  0  0  0  0           0  0  0
  2  1  2  0     0  0
  3  2  1  0     0  0
  4  1  1  0     0  0
  5  4  2  0     0  0
  6  1  1  0     0  0
  7 13  1  0     0  0
  8  7  1  0     0  0
  9 18  1  0     0  0
 10  2  1  0     0  0
 11  6  1  0     0  0
 12  6  2  0     0  0
 13 20  1  0     0  0
 14 19  1  0     0  0
 15  8  2  0     0  0
 16 11  1  0     0  0
 17 11  1  0     0  0
 18 17  1  0     0  0
 19  9  1  0     0  0
 20  9  1  0     0  0
 21  4  1  0     0  0
 22  5  1  0     0  0
 23 15  1  0     0  0
 24  8  1  0     0  0
 25 15  1  0     0  0
 26 23  1  0     0  0
 27 21  1  0     0  0
 28 24  2  0     0  0
 29 28  1  0     0  0
  5  3  1  0     0  0
 10 16  1  0     0  0
 14  7  1  0     0  0
 25 29  2  0     0  0
M  END