
          11290715552D 1   1.00000     0.00000     0

 31 34  0     0  0            999 V2000
   10.7439   -4.4839    0.0000 O   0  0  0  0  0  0           0  0  0
   11.5506   -4.6566    0.0000 C   0  0  0  0  0  0           0  0  0
   11.9660   -3.9437    0.0000 C   0  0  0  0  0  0           0  0  0
   11.4134   -3.3276    0.0000 C   0  0  0  0  0  0           0  0  0
   10.6612   -3.6642    0.0000 C   0  0  0  0  0  0           0  0  0
   11.8841   -5.4112    0.0000 C   0  0  0  0  0  0           0  0  0
   12.7044   -5.4997    0.0000 C   0  0  0  0  0  0           0  0  0
   13.1180   -6.2128    0.0000 C   0  0  0  0  0  0           0  0  0
   13.9255   -6.0435    0.0000 N   0  0  0  0  0  0           0  0  0
   14.0139   -5.2232    0.0000 N   0  0  3  0  0  0           0  0  0
   13.2612   -4.8857    0.0000 C   0  0  0  0  0  0           0  0  0
   13.0921   -4.0782    0.0000 O   0  0  0  0  0  0           0  0  0
   12.7822   -6.9664    0.0000 O   0  0  0  0  0  0           0  0  0
   14.7262   -4.8115    0.0000 C   0  0  0  0  0  0           0  0  0
   15.4398   -5.2277    0.0000 C   0  0  0  0  0  0           0  0  0
   16.1549   -4.8177    0.0000 C   0  0  0  0  0  0           0  0  0
   16.1575   -3.9919    0.0000 C   0  0  0  0  0  0           0  0  0
   15.4391   -3.5776    0.0000 C   0  0  0  0  0  0           0  0  0
   14.7270   -3.9899    0.0000 C   0  0  0  0  0  0           0  0  0
   16.8726   -3.5803    0.0000 Cl  0  0  0  0  0  0           0  0  0
   16.8681   -5.2325    0.0000 Cl  0  0  0  0  0  0           0  0  0
    9.9488   -3.2539    0.0000 C   0  0  0  0  0  0           0  0  0
    9.9511   -2.4278    0.0000 C   0  0  0  0  0  0           0  0  0
    9.2379   -2.0146    0.0000 C   0  0  0  0  0  0           0  0  0
    8.5220   -2.4264    0.0000 C   0  0  0  0  0  0           0  0  0
    8.5237   -3.2556    0.0000 C   0  0  0  0  0  0           0  0  0
    9.2375   -3.6651    0.0000 C   0  0  0  0  0  0           0  0  0
   10.6665   -2.0169    0.0000 C   0  0  0  0  0  0           0  0  0
   11.3800   -2.4309    0.0000 O   0  0  0  0  0  0           0  0  0
   10.6682   -1.1919    0.0000 O   0  0  0  0  0  0           0  0  0
    7.8075   -2.0140    0.0000 Br  0  0  0  0  0  0           0  0  0
  7  8  1  0     0  0
 15 16  1  0     0  0
  2  3  2  0     0  0
 16 17  2  0     0  0
  3  4  1  0     0  0
 17 18  1  0     0  0
  4  5  2  0     0  0
 18 19  2  0     0  0
 19 14  1  0     0  0
 10 14  1  0     0  0
  5  1  1  0     0  0
 17 20  1  0     0  0
  8  9  1  0     0  0
 16 21  1  0     0  0
  9 10  1  0     0  0
 10 11  1  0     0  0
 22 23  2  0     0  0
 11  7  1  0     0  0
 23 24  1  0     0  0
  1  2  1  0     0  0
 24 25  2  0     0  0
 11 12  2  0     0  0
 25 26  1  0     0  0
  2  6  1  0     0  0
 26 27  2  0     0  0
 27 22  1  0     0  0
  5 22  1  0     0  0
  8 13  2  0     0  0
 23 28  1  0     0  0
 28 29  1  0     0  0
  6  7  2  0     0  0
 28 30  2  0     0  0
 14 15  2  0     0  0
 25 31  1  0     0  0
M  END