
  SciTegic01161211242D

 25 27  0  0  0  0            999 V2000
   -1.4417    1.4042    0.0000 N   0  0
   -1.4417    0.5792    0.0000 C   0  0
   -0.7296    0.1708    0.0000 C   0  0
   -0.0176    0.5792    0.0000 N   0  0
   -0.0176    1.4042    0.0000 C   0  0
   -0.7296    1.8208    0.0000 C   0  0
    0.6962    0.1656    0.0000 C   0  0
    0.6950   -0.6594    0.0000 C   0  0
   -2.1573    1.8146    0.0000 C   0  0
   -2.1598    2.6396    0.0000 O   0  0
   -0.0211   -1.0691    0.0000 C   0  0
   -0.0226   -1.8934    0.0000 C   0  0
    0.6918   -2.3077    0.0000 C   0  0
    1.4093   -1.8918    0.0000 C   0  0
    1.4073   -1.0690    0.0000 C   0  0
   -2.8706    1.4000    0.0000 C   0  0
   -3.5863    1.8104    0.0000 C   0  0
   -4.2995    1.3958    0.0000 C   0  0
   -5.0145    1.8095    0.0000 C   0  0
   -5.7273    1.3956    0.0000 C   0  0
   -5.7253    0.5697    0.0000 C   0  0
   -5.0046    0.1595    0.0000 C   0  0
   -4.2948    0.5758    0.0000 C   0  0
   -5.0151    2.6345    0.0000 Cl  0  0
    0.6917   -3.1327    0.0000 F   0  0
  5  6  1  0
 12 13  2  0
 13 14  1  0
  4  7  1  0
 14 15  2  0
 15  8  1  0
  1  2  1  0
  9 16  1  0
  7  8  1  0
 16 17  2  0
  1  6  1  0
 17 18  1  0
  1  9  1  0
 18 19  2  0
  2  3  1  0
 19 20  1  0
  9 10  2  0
 20 21  2  0
  3  4  1  0
 21 22  1  0
  8 11  2  0
 22 23  2  0
 23 18  1  0
  4  5  1  0
 19 24  1  0
 11 12  1  0
 13 25  1  0
M  END