
  SciTegic11201309402D

110119  0  0  0  0            999 V2000
   -9.8930   -1.5804    0.0000 C   0  0
   -9.8465   -3.2345    0.0000 O   0  0
   -6.9007    0.5190    0.0000 C   0  0
   -7.3251    1.2265    0.0000 S   0  0
   -8.1286   -0.2115    0.0000 C   0  0
   -8.5474    0.4965    0.0000 C   0  0
   -9.3715    0.4830    0.0000 C   0  0
   -8.5211   -0.9316    0.0000 C   0  0
   -9.3438   -0.9486    0.0000 C   0  0
   -9.7744   -0.2345    0.0000 C   0  0
  -10.5867   -0.4234    0.0000 C   0  0
  -10.6580   -1.2543    0.0000 O   0  0
  -11.2102    0.1168    0.0000 O   0  0
   -9.1636   -1.9692    0.0000 C   0  0
   -9.1443   -2.7985    0.0000 C   0  0
   -8.4176   -3.1947    0.0000 C   0  0
   -7.7097   -2.7627    0.0000 C   0  0
   -7.7331   -1.9303    0.0000 C   0  0
   -8.4603   -1.5378    0.0000 C   0  0
  -10.5744   -2.8394    0.0000 C   0  0
  -10.5958   -2.0173    0.0000 C   0  0
  -11.3173   -1.6265    0.0000 C   0  0
  -12.0180   -2.0567    0.0000 C   0  0
  -11.9925   -2.8819    0.0000 C   0  0
  -11.2705   -3.2689    0.0000 C   0  0
    3.1939   -0.6312    0.0000 C   0  0
    2.7961   -1.3539    0.0000 O   0  0
    4.4457   -1.3202    0.0000 C   0  0  2  0  0  0
    5.2706   -1.3033    0.0000 C   0  0
    4.0479   -2.0429    0.0000 C   0  0  1  0  0  0
    3.2231   -2.0598    0.0000 C   0  0
    5.6684   -0.5805    0.0000 O   0  0
    1.9471    0.0589    0.0000 N   0  0
    2.7673    0.0745    0.0000 C   0  0  1  0  0  0
    3.0057    0.8596    0.0000 C   0  0
    2.3327    1.3290    0.0000 C   0  0
    1.6784    0.8339    0.0000 C   0  0
    6.5224   -1.9923    0.0000 C   0  0  2  0  0  0
    6.9495   -2.6982    0.0000 C   0  0
    6.9202   -1.2695    0.0000 C   0  0
    6.5517   -3.4209    0.0000 O   0  0
    7.7718   -2.6813    0.0000 N   0  0
    7.7847   -3.5049    0.0000 C   0  0
    8.5718   -3.7520    0.0000 C   0  0
    9.0500   -3.0796    0.0000 C   0  0
    8.5586   -2.4156    0.0000 C   0  0  1  0  0  0
    8.9298   -1.6788    0.0000 C   0  0
    9.7528   -1.6320    0.0000 N   0  0
    8.4774   -0.9890    0.0000 O   0  0
   10.0512   -2.4005    0.0000 C   0  0
   10.8750   -2.3562    0.0000 C   0  0
   11.0875   -1.5590    0.0000 C   0  0
   10.3953   -1.1094    0.0000 C   0  0  1  0  0  0
   10.0864   -0.3445    0.0000 C   0  0
    9.2694   -0.2295    0.0000 O   0  0
    3.4459   -1.3406    0.0000 H   0  0
    1.5551   -0.6670    0.0000 C   0  0
    0.7304   -0.6905    0.0000 C   0  0
    1.9877   -1.3695    0.0000 O   0  0
    0.2978    0.0120    0.0000 N   0  0
   10.1725    1.0238    0.0000 C   0  0  2  0  0  0
    9.3475    1.0152    0.0000 C   0  0
   10.5765    1.7424    0.0000 C   0  0
   11.4008    1.7767    0.0000 C   0  0
   11.8427    1.0800    0.0000 C   0  0
   12.6685    1.1132    0.0000 O   0  0
    8.9272    1.7252    0.0000 N   0  0
    8.9425    0.2964    0.0000 O   0  0
    9.2284    2.4943    0.0000 C   0  0
   -0.5269   -0.0115    0.0000 C   0  0
   -0.9594    0.6912    0.0000 C   0  0  2  0  0  0
   -0.9189   -0.7374    0.0000 O   0  0
    8.1024    1.7096    0.0000 C   0  0
    7.6765    2.4162    0.0000 C   0  0
    6.8516    2.4006    0.0000 C   0  0
    6.4527    1.6785    0.0000 C   0  0
   -0.6929    1.4675    0.0000 C   0  0
   -1.3510    1.9650    0.0000 C   0  0
   -2.0276    1.4927    0.0000 C   0  0
   -1.7886    0.7035    0.0000 N   0  0
   -2.4864    0.2634    0.0000 C   0  0
   -3.2165    0.6476    0.0000 C   0  0
   -2.4541   -0.5610    0.0000 O   0  0
   -3.9143    0.2074    0.0000 C   0  0
   -4.6443    0.5917    0.0000 C   0  0
   -5.3421    0.1515    0.0000 C   0  0
    5.6028    1.8088    0.0000 C   0  0
    0.2913    0.8402    0.0000 C   0  0
    1.0025    1.2583    0.0000 C   0  0
    0.9960    2.0832    0.0000 C   0  0
    1.7322    2.3638    0.0000 C   0  0
    4.8519    1.4945    0.0000 C   0  0
    2.3721    1.8431    0.0000 C   0  0
    3.1680    2.4952    0.0000 C   0  0
    4.2271    2.4956    0.0000 C   0  0
    9.9371    2.9110    0.0000 C   0  0
   10.6548    2.5042    0.0000 O   0  0
    9.9224    3.7342    0.0000 N   0  0
   -6.0758    0.5288    0.0000 N   0  0
   -6.9899   -3.1596    0.0000 O   0  0
   -7.3037   -0.2008    0.0000 N   0  0
    5.6975   -2.0093    0.0000 N   0  0
    4.0187   -0.6143    0.0000 N   0  0
   10.5875    0.3108    0.0000 N   0  0
   11.4617    0.3479    0.0000 O   0  0
  -12.6938   -3.3164    0.0000 O   0  0
    4.4750   -2.7488    0.0000 O   0  0
   11.1670   -0.4734    0.0000 H   0  0
    9.5550   -2.3305    0.0000 H   0  0
    3.7596    0.1986    0.0000 H   0  0
  1 21  1  0
  1 14  1  0
 20  2  1  0
  2 15  1  0
  3  4  2  0
  5  6  2  0
  6  7  1  0
  7 10  2  0
  9  8  2  0
  8  5  1  0
  9 10  1  0
 10 11  1  0
 11 12  1  0
 12  1  1  0
  1  9  1  0
 11 13  2  0
 14 15  2  0
 15 16  1  0
 16 17  2  0
 17 18  1  0
 18 19  2  0
 19 14  1  0
 20 21  2  0
 21 22  1  0
 22 23  2  0
 23 24  1  0
 24 25  2  0
 25 20  1  0
 34 26  1  0
 26 27  2  0
 28 29  1  0
 28 30  1  0
 30 31  1  6
 29 32  2  0
 33 34  1  0
 34 35  1  0
 35 36  1  0
 36 37  1  0
 37 33  1  0
 38 39  1  0
 38 40  1  1
 39 41  2  0
 39 42  1  0
 42 43  1  0
 43 44  1  0
 44 45  1  0
 45 46  1  0
 46 42  1  0
 46 47  1  0
 47 48  1  0
 47 49  2  0
 48 50  1  0
 50 51  1  0
 51 52  1  0
 52 53  1  0
 53 48  1  0
 53 54  1  0
 54 55  2  0
 28 56  1  1
 33 57  1  0
 57 58  1  0
 57 59  2  0
 58 60  1  0
 61 62  1  0
 61 63  1  6
 63 64  1  0
 64 65  1  0
 65 66  2  0
 62 67  1  0
 62 68  2  0
 67 69  1  0
 60 70  1  0
 71 70  1  1
 70 72  2  0
 67 73  1  0
 73 74  1  0
 74 75  1  0
 75 76  1  0
 71 77  1  0
 77 78  1  0
 78 79  1  0
 79 80  1  0
 80 71  1  0
 80 81  1  0
 81 82  1  0
 81 83  2  0
 82 84  1  0
 84 85  1  0
 85 86  1  0
 76 87  1  0
 60 88  1  0
 88 89  1  0
 89 90  1  0
 90 91  1  0
 87 92  1  0
 91 93  1  0
 93 94  1  0
 92 95  1  0
 94 95  2  0
 69 96  1  0
 96 97  2  0
 96 98  1  0
  3 99  1  0
 86 99  1  0
 17100  1  0
  3101  1  0
  5101  1  0
 29102  1  0
 38102  1  0
 26103  1  0
 28103  1  0
 54104  1  0
 61104  1  0
 65105  1  0
 24106  1  0
 30107  1  0
 53108  1  1
 46109  1  1
 34110  1  6
M  END