
  SciTegic12091613532D

 38 43  0  0  0  0            999 V2000
   -2.6111    0.7486    0.0000 C   0  0
   -3.9091    1.5019    0.0000 C   0  0
   -2.9635   12.2757    0.0000 C   0  0
   -1.4990   12.5763    0.0000 C   0  0
   -0.4849   11.4444    0.0000 C   0  0
   -3.4496   10.8358    0.0000 C   0  0
   -2.4392    9.7218    0.0000 C   0  0
   -0.9747   10.0224    0.0000 C   0  0
   -0.2423    8.7210    0.0000 N   0  0
   -1.2629    7.6181    0.0000 C   0  0
   -2.5838    8.2475    0.0000 C   0  0
   -3.8873    7.5036    0.0000 C   0  0
   -3.8958    6.0028    0.0000 N   0  0
   -5.1976    5.2575    0.0000 C   0  0
   -5.2030    3.7575    0.0000 C   0  0
   -3.9067    3.0027    0.0000 N   0  0
   -4.9494    0.9039    0.0000 O   0  0
    1.2482    8.5458    0.0000 C   0  0
    1.9411    7.2211    0.0000 C   0  0
    3.4398    7.1595    0.0000 C   0  0
    4.2425    8.4267    0.0000 C   0  0
    3.5465    9.7554    0.0000 C   0  0
    2.0477    9.8170    0.0000 C   0  0
   -2.5995    5.2481    0.0000 C   0  0
   -2.6050    3.7481    0.0000 C   0  0
    4.3496   11.0232    0.0000 C   0  0
    5.5486   10.9748    0.0000 F   0  0
    3.7924   12.0861    0.0000 F   0  0
    4.9913   12.0373    0.0000 F   0  0
   -2.6111   -0.7486    0.0000 C   0  0
   -1.2964   -1.4973    0.0000 C   0  0
   -1.2964    1.4973    0.0000 C   0  0
    0.0000    0.7486    0.0000 C   0  0
    0.0000   -0.7486    0.0000 C   0  0
    1.2964   -1.4973    0.0000 C   0  0
    2.5929   -0.7486    0.0000 C   0  0
    2.5929    0.7486    0.0000 C   0  0
    1.2964    1.4973    0.0000 C   0  0
  1  2  1  0
  3  4  2  0
  4  5  1  0
  5  8  2  0
  7  6  2  0
  6  3  1  0
  7  8  1  0
  8  9  1  0
  9 10  1  0
 10 11  2  0
 11  7  1  0
 11 12  1  0
 12 13  1  0
 13 14  1  0
 14 15  1  0
 15 16  1  0
 16  2  1  0
  2 17  2  0
 18 19  2  0
 19 20  1  0
 20 21  2  0
 21 22  1  0
 22 23  2  0
 23 18  1  0
  9 18  1  0
 13 24  1  0
 16 25  1  0
 24 25  1  0
 26 27  1  0
 26 28  1  0
 26 29  1  0
 22 26  1  0
  1 30  2  0
 30 31  1  0
 31 34  2  0
 33 32  2  0
 32  1  1  0
 33 34  1  0
 34 35  1  0
 35 36  2  0
 36 37  1  0
 37 38  2  0
 38 33  1  0
M  END