
  SciTegic03291108472D

 18 20  0  0  0  0            999 V2000
   -4.2847    1.1858    0.0000 Cl  0  0
   -0.7124   -2.5267    0.0000 O   0  0
   -0.7124   -0.0517    0.0000 N   0  0
   -1.4268   -0.4642    0.0000 C   0  0
    0.0021   -1.2892    0.0000 C   0  0
    0.0021   -0.4642    0.0000 C   0  0
   -0.7124   -1.7017    0.0000 C   0  0
   -2.1413   -0.0517    0.0000 C   0  0
   -1.4268   -1.2892    0.0000 C   0  0
    0.7166   -1.7017    0.0000 C   0  0
    0.7166   -0.0517    0.0000 C   0  0
   -2.8558   -0.4642    0.0000 C   0  0
   -2.1413    0.7733    0.0000 C   0  0
    1.4311   -1.2892    0.0000 C   0  0
    1.4311   -0.4642    0.0000 C   0  0
   -3.5702    0.7733    0.0000 C   0  0
   -3.5702   -0.0517    0.0000 C   0  0
   -2.8558    1.1858    0.0000 C   0  0
  1 16  1  0
  2  7  1  0
  3  4  2  0
  3  6  1  0
  4  8  1  0
  4  9  1  0
  5  6  1  0
  5  7  1  0
  5 10  2  0
  6 11  2  0
  7  9  2  0
  8 12  2  0
  8 13  1  0
 10 14  1  0
 11 15  1  0
 12 17  1  0
 13 18  2  0
 14 15  2  0
 16 17  2  0
 16 18  1  0
M  END