
  SciTegic01161211252D

 28 30  0  0  0  0            999 V2000
    4.1064  -15.0431    0.0000 C   0  0
    0.5360  -15.4638    0.0000 C   0  0
    0.5348  -16.2910    0.0000 C   0  0
    1.2495  -16.7039    0.0000 C   0  0
    1.9658  -16.2905    0.0000 C   0  0
    1.9629  -15.4602    0.0000 C   0  0
    1.2477  -15.0512    0.0000 C   0  0
   -0.1799  -16.7029    0.0000 N   0  0
   -0.8938  -16.2899    0.0000 C   0  0
   -1.6085  -16.7018    0.0000 N   0  0
   -0.8932  -15.4651    0.0000 O   0  0
   -2.3226  -16.2883    0.0000 C   0  0
   -2.5963  -15.5091    0.0000 C   0  0
   -3.4220  -15.5248    0.0000 C   0  0
   -3.6608  -16.3154    0.0000 O   0  0
   -2.9821  -16.7858    0.0000 N   0  0
   -3.9202  -14.8672    0.0000 C   0  0
   -3.5448  -14.1328    0.0000 C   0  0
   -4.7439  -14.9093    0.0000 C   0  0
   -4.4461  -14.2218    0.0000 C   0  0
    4.8204  -15.4581    0.0000 C   0  0
    5.5347  -15.0472    0.0000 C   0  0
    4.1058  -14.2218    0.0000 C   0  0
    4.8170  -13.8084    0.0000 C   0  0
    5.5343  -14.2228    0.0000 C   0  0
    2.6757  -15.0451    0.0000 C   0  0
    2.6726  -14.2201    0.0000 O   0  0
    3.3916  -15.4548    0.0000 N   0  0
  3  8  1  0
 12 13  1  0
 14 15  1  0
 15 16  1  0
 16 12  2  0
  4  5  2  0
 14 17  1  0
  8  9  1  0
 17 18  1  0
 17 19  1  0
  9 10  1  0
 17 20  1  0
  5  6  1  0
  6 26  1  0
  9 11  2  0
 26 28  1  0
  3  4  1  0
 28  1  1  0
 10 12  1  0
  1 21  2  0
 13 14  2  0
 21 22  1  0
 22 25  2  0
  6  7  2  0
 24 23  2  0
 23  1  1  0
  7  2  1  0
  2  3  2  0
 24 25  1  0
 26 27  2  0
M  END