
          11280715092D 1   1.00000     0.00000     0

 30 32  0     0  0            999 V2000
    4.7250    1.1375    0.0000 N   0  3  0  0  0  0           0  0  0
    2.2375   -0.1667    0.0000 C   0  0  0  0  0  0           0  0  0
    4.2417    0.7708    0.0000 C   0  0  0  0  0  0           0  0  0
   -2.6833   -1.7625    0.0000 N   0  0  3  0  0  0           0  0  0
    5.2792    0.9083    0.0000 O   0  5  0  0  0  0           0  0  0
    2.8167   -0.3167    0.0000 N   0  0  0  0  0  0           0  0  0
    4.6417    1.7333    0.0000 O   0  0  0  0  0  0           0  0  0
    2.0792    0.4125    0.0000 O   0  0  0  0  0  0           0  0  0
   -2.0833   -1.7667    0.0000 C   0  0  0  0  0  0           0  0  0
    1.8125   -0.5917    0.0000 N   0  0  0  0  0  0           0  0  0
   -1.7833   -1.2417    0.0000 C   0  0  0  0  0  0           0  0  0
    3.6875    1.0000    0.0000 C   0  0  0  0  0  0           0  0  0
    4.3167    0.1708    0.0000 C   0  0  0  0  0  0           0  0  0
    3.2917    0.0458    0.0000 C   0  0  0  0  0  0           0  0  0
   -1.1958   -1.4000    0.0000 C   0  0  0  0  0  0           0  0  0
    3.2125    0.6333    0.0000 C   0  0  0  0  0  0           0  0  0
    3.8417   -0.1917    0.0000 C   0  0  0  0  0  0           0  0  0
   -0.7750   -0.9792    0.0000 C   0  0  0  0  0  0           0  0  0
    0.8042   -0.8625    0.0000 C   0  0  0  0  0  0           0  0  0
   -0.1958   -1.1292    0.0000 O   0  0  0  0  0  0           0  0  0
   -2.9833   -2.2792    0.0000 C   0  0  0  0  0  0           0  0  0
   -2.9750   -1.2417    0.0000 C   0  0  0  0  0  0           0  0  0
   -1.5125   -0.2500    0.0000 C   0  0  0  0  0  0           0  0  0
    1.2292   -0.4375    0.0000 C   0  0  0  0  0  0           0  0  0
   -1.9333   -0.6667    0.0000 C   0  0  0  0  0  0           0  0  0
    0.2292   -0.7042    0.0000 C   0  0  0  0  0  0           0  0  0
   -0.9333   -0.4000    0.0000 C   0  0  0  0  0  0           0  0  0
   -3.5750   -1.2417    0.0000 C   0  0  0  0  0  0           0  0  0
   -3.5833   -2.2750    0.0000 C   0  0  0  0  0  0           0  0  0
   -3.8833   -1.7542    0.0000 C   0  0  0  0  0  0           0  0  0
  2  6  1  0     0  0
  3  1  1  0     0  0
  4  9  1  0     0  0
  5  1  1  0     0  0
  6 14  1  0     0  0
  7  1  2  0     0  0
  8  2  2  0     0  0
  9 11  1  0     0  0
 10  2  1  0     0  0
 11 15  2  0     0  0
 12  3  1  0     0  0
 13  3  2  0     0  0
 14 17  2  0     0  0
 15 18  1  0     0  0
 16 12  2  0     0  0
 17 13  1  0     0  0
 18 20  1  0     0  0
 19 24  1  0     0  0
 20 26  1  0     0  0
 21  4  1  0     0  0
 22  4  1  0     0  0
 23 27  1  0     0  0
 24 10  1  0     0  0
 25 23  2  0     0  0
 26 19  1  0     0  0
 27 18  2  0     0  0
 28 22  1  0     0  0
 29 21  1  0     0  0
 30 28  1  0     0  0
 14 16  1  0     0  0
 25 11  1  0     0  0
 30 29  1  0     0  0
M  CHG  2   1   1   5  -1
M  END