
  SciTegic12231509382D

 20 22  0  0  0  0            999 V2000
    0.0000   -0.7623    0.0000 C   0  0
    0.7805    1.6880    0.0000 N   0  0
    0.0000    0.7623    0.0000 C   0  0
    0.7442   -1.6517    0.0000 C   0  0
    2.2325   -1.4158    0.0000 N   0  0
    2.2507    1.3976    0.0000 C   0  0
    2.9404    0.0000    0.0000 C   0  0
   -1.4884    1.5247    0.0000 C   0  0
   -1.4884   -1.5247    0.0000 C   0  0
    0.2177   -3.0571    0.0000 C   0  0
    2.9804    2.3502    0.0000 O   0  0
   -2.8315   -0.7623    0.0000 C   0  0
   -2.8315    0.7623    0.0000 C   0  0
    0.3830    2.8203    0.0000 C   0  0
   -3.8685   -1.3662    0.0000 Cl  0  0
    1.1747   -4.2127    0.0000 C   0  0
   -1.2610   -3.3085    0.0000 C   0  0
   -1.7830   -4.7148    0.0000 C   0  0
    0.6526   -5.6189    0.0000 C   0  0
   -0.8262   -5.8700    0.0000 C   0  0
  1  3  2  0
  2  3  1  0
  1  4  1  0
  4  5  2  0
  2  6  1  0
  5  7  1  0
  6  7  1  0
  3  8  1  0
  1  9  1  0
  4 10  1  0
  6 11  2  0
  9 12  2  0
  8 13  2  0
 12 13  1  0
  2 14  1  0
 12 15  1  0
 10 16  1  0
 10 17  2  0
 17 18  1  0
 16 19  2  0
 18 20  2  0
 19 20  1  0
M  END