
          11280715192D 1   1.00000     0.00000     0

 22 26  0     0  0            999 V2000
    5.1917   -1.7542    0.0000 N   0  0  3  0  0  0           0  0  0
    2.3667   -4.2792    0.0000 C   0  0  0  0  0  0           0  0  0
    4.0917   -2.9375    0.0000 C   0  0  3  0  0  0           0  0  0
    4.9292   -2.5042    0.0000 C   0  0  3  0  0  0           0  0  0
    4.9292   -2.9917    0.0000 C   0  0  3  0  0  0           0  0  0
    2.8167   -3.5875    0.0000 C   0  0  0  0  0  0           0  0  0
    3.6417   -3.6292    0.0000 O   0  0  0  0  0  0           0  0  0
    2.6667   -5.0500    0.0000 C   0  0  0  0  0  0           0  0  0
    5.9542   -1.7542    0.0000 C   0  0  0  0  0  0           0  0  0
    1.5500   -4.3167    0.0000 C   0  0  0  0  0  0           0  0  0
    2.0292   -5.5667    0.0000 N   0  0  0  0  0  0           0  0  0
    5.5042   -2.9917    0.0000 C   0  0  0  0  0  0           0  0  0
    5.5375   -3.5292    0.0000 C   0  0  0  0  0  0           0  0  0
    6.2750   -3.0667    0.0000 C   0  0  3  0  0  0           0  0  0
    6.5542   -2.3000    0.0000 C   0  0  0  0  0  0           0  0  0
    1.3292   -5.1167    0.0000 C   0  0  0  0  0  0           0  0  0
    2.4417   -2.8500    0.0000 O   0  0  0  0  0  0           0  0  0
    7.3542   -2.1042    0.0000 O   0  0  0  0  0  0           0  0  0
    0.9667   -3.7292    0.0000 C   0  0  0  0  0  0           0  0  0
    0.5292   -5.3250    0.0000 C   0  0  0  0  0  0           0  0  0
    0.1750   -3.9500    0.0000 C   0  0  0  0  0  0           0  0  0
   -0.0458   -4.7417    0.0000 C   0  0  0  0  0  0           0  0  0
  2  6  1  0     0  0
  3  5  1  0     0  0
  4  1  1  0     0  0
  5  1  1  0     0  0
  6  7  1  0     0  0
  7  3  1  0     0  0
  8  2  2  0     0  0
  9  1  1  0     0  0
 10  2  1  0     0  0
 11  8  1  0     0  0
 12  4  1  0     0  0
 13  5  1  0     0  0
 14 15  1  0     0  0
 15  9  1  0     0  0
 16 10  2  0     0  0
 17  6  2  0     0  0
 18 15  2  0     0  0
 19 10  1  0     0  0
 20 16  1  0     0  0
 21 19  2  0     0  0
 22 21  1  0     0  0
  4  3  1  0     0  0
 13 14  1  0     0  0
 12 14  1  0     0  0
 16 11  1  0     0  0
 20 22  2  0     0  0
M  END