
  SciTegic06051315212D

 23 24  0  0  0  0            999 V2000
   37.6554  -16.4635    0.0000 C   0  0
   37.6543  -17.2830    0.0000 C   0  0
   38.3623  -17.6920    0.0000 C   0  0
   39.0720  -17.2825    0.0000 C   0  0
   39.0691  -16.4599    0.0000 C   0  0
   38.3605  -16.0546    0.0000 C   0  0
   38.3581  -15.2374    0.0000 S   0  0
   39.0646  -14.8267    0.0000 N   0  0
   37.5619  -15.4441    0.0000 O   0  0
   37.9416  -14.5237    0.0000 O   0  0
   39.7753  -16.0486    0.0000 F   0  0
   36.9476  -16.0551    0.0000 F   0  0
   36.9462  -17.6910    0.0000 F   0  0
   39.7803  -17.6900    0.0000 F   0  0
   38.3621  -18.5092    0.0000 S   0  0
   37.6543  -18.9176    0.0000 C   0  0
   36.9501  -18.5058    0.0000 N   0  0
   36.2428  -18.9135    0.0000 C   0  0
   36.2422  -19.7316    0.0000 C   0  0
   36.9547  -20.1402    0.0000 C   0  0
   37.6591  -19.7301    0.0000 N   0  0
   35.5354  -18.5044    0.0000 C   0  0
   36.9574  -20.9574    0.0000 C   0  0
  1  2  2  0
  2  3  1  0
  3  4  2  0
  4  5  1  0
  5  6  2  0
  6  1  1  0
  6  7  1  0
  7  8  1  0
  7  9  2  0
  7 10  2  0
  5 11  1  0
  1 12  1  0
  2 13  1  0
  4 14  1  0
  3 15  1  0
 15 16  1  0
 16 17  2  0
 17 18  1  0
 18 19  2  0
 19 20  1  0
 20 21  2  0
 21 16  1  0
 18 22  1  0
 20 23  1  0
M  END