
  SciTegic01161211252D

 27 28  0  0  0  0            999 V2000
    6.6792   -1.7167    0.0000 C   0  0
    7.6042   -1.9167    0.0000 C   0  0
    5.8750   -3.0917    0.0000 S   0  0
    8.5500   -3.0042    0.0000 S   0  0
    6.0750   -2.0250    0.0000 C   0  0
    7.9417   -1.1500    0.0000 C   0  0
    7.3042   -1.4542    0.0000 O   0  0
    6.4625   -2.5125    0.0000 O   0  0
    7.7667   -2.7292    0.0000 O   0  0
    6.4042   -1.2500    0.0000 C   0  0
    5.2750   -1.8042    0.0000 O   0  0
    5.2875   -3.6792    0.0000 O   0  0
    9.3500   -3.2125    0.0000 O   0  0
    6.4542   -3.6792    0.0000 O   0  0
    5.2875   -2.5042    0.0000 O   0  0
    8.7625   -2.1917    0.0000 O   0  0
    8.3292   -3.8000    0.0000 O   0  0
    4.4750   -2.0167    0.0000 C   0  0
    8.5167   -0.5542    0.0000 O   0  0
    3.6750   -1.8042    0.0000 C   0  0
    5.6000   -1.4625    0.0000 C   0  0
    8.2917    0.2458    0.0000 C   0  0
    3.4625   -1.0000    0.0000 C   0  0
    3.0917   -2.3792    0.0000 C   0  0
    2.2917   -2.1667    0.0000 C   0  0
    2.6625   -0.7792    0.0000 C   0  0
    2.0667   -1.3667    0.0000 C   0  0
  2  1  1  0
  3  8  1  0
  4  9  1  0
  5  1  1  0
  6  2  1  0
  7 10  1  0
  8  1  1  0
  9  2  1  0
 10  5  1  0
 11  5  1  0
 12  3  1  0
 13  4  1  0
 14  3  2  0
 15  3  2  0
 16  4  2  0
 17  4  2  0
 18 11  1  0
 19  6  1  0
 20 18  1  0
 21 10  1  0
 22 19  1  0
 23 20  2  0
 24 20  1  0
 25 24  2  0
 26 23  1  0
 27 25  1  0
  7  6  1  0
 27 26  2  0
M  END