
          11280715362D 1   1.00000     0.00000     0

 37 40  0     1  0            999 V2000
    1.3417   -3.2542    0.0000 C   0  0  1  0  0  0           0  0  0
    1.1625   -2.4542    0.0000 C   0  0  2  0  0  0           0  0  0
    1.9292   -3.8417    0.0000 N   0  0  3  0  0  0           0  0  0
    0.6375   -3.6792    0.0000 C   0  0  0  0  0  0           0  0  0
    0.3417   -2.3792    0.0000 C   0  0  1  0  0  0           0  0  0
    6.1167   -3.2417    0.0000 C   0  0  0  0  0  0           0  0  0
    2.7750   -0.9000    0.0000 C   0  0  0  0  0  0           0  0  0
    3.5917   -0.8750    0.0000 C   0  0  0  0  0  0           0  0  0
   -0.0833   -1.6667    0.0000 O   0  0  0  0  0  0           0  0  0
    0.0167   -3.1375    0.0000 C   0  0  0  0  0  0           0  0  0
    6.7792   -2.9750    0.0000 O   0  0  0  0  0  0           0  0  0
    2.3750   -1.6167    0.0000 C   0  0  0  0  0  0           0  0  0
    4.0000   -1.5792    0.0000 C   0  0  0  0  0  0           0  0  0
    3.9917   -0.1542    0.0000 C   0  0  0  0  0  0           0  0  0
    2.3625   -0.1917    0.0000 C   0  0  0  0  0  0           0  0  0
    3.2542   -2.4042    0.0000 C   0  0  0  0  0  0           0  0  0
    4.1167   -2.4667    0.0000 C   0  0  0  0  0  0           0  0  0
    1.9542   -2.2375    0.0000 O   0  0  0  0  0  0           0  0  0
    0.3167   -0.9542    0.0000 C   0  0  0  0  0  0           0  0  0
    1.1417   -0.9417    0.0000 C   0  0  0  0  0  0           0  0  0
    6.0167   -3.9500    0.0000 O   0  0  0  0  0  0           0  0  0
    1.5542   -1.6375    0.0000 C   0  0  0  0  0  0           0  0  0
    1.5417   -0.2167    0.0000 C   0  0  0  0  0  0           0  0  0
    4.8042   -0.1417    0.0000 C   0  0  0  0  0  0           0  0  0
    4.8167   -1.5667    0.0000 C   0  0  0  0  0  0           0  0  0
    5.2167   -0.8417    0.0000 C   0  0  0  0  0  0           0  0  0
    2.7000   -3.5667    0.0000 C   0  0  0  0  0  0           0  0  0
    1.6625   -4.6167    0.0000 C   0  0  0  0  0  0           0  0  0
    6.4500   -0.1167    0.0000 O   0  0  0  0  0  0           0  0  0
    2.5417   -2.8167    0.0000 C   0  0  0  0  0  0           0  0  0
    5.5542   -2.8042    0.0000 C   0  0  0  0  0  0           0  0  0
    4.6167   -3.0542    0.0000 C   0  0  0  0  0  0           0  0  0
    6.0417   -0.8292    0.0000 C   0  0  0  0  0  0           0  0  0
    3.4000   -4.0042    0.0000 C   0  0  0  0  0  0           0  0  0
    2.1000   -5.3125    0.0000 C   0  0  0  0  0  0           0  0  0
    3.5000   -4.8167    0.0000 C   0  0  0  0  0  0           0  0  0
    2.9167   -5.3917    0.0000 C   0  0  0  0  0  0           0  0  0
  2  1  1  0     0  0
  1  3  1  1     0  0
  4  1  1  0     0  0
  5  2  1  0     0  0
  6 31  1  0     0  0
  7 15  2  0     0  0
  8  7  1  0     0  0
  5  9  1  6     0  0
 10  4  1  0     0  0
 11  6  2  0     0  0
 12 22  2  0     0  0
 13  8  2  0     0  0
 14  8  1  0     0  0
 15 23  1  0     0  0
 16 30  1  0     0  0
 17 16  2  0     0  0
  2 18  1  6     0  0
 19  9  1  0     0  0
 20 19  1  0     0  0
 21  6  1  0     0  0
 22 20  1  0     0  0
 23 20  2  0     0  0
 24 14  2  0     0  0
 25 13  1  0     0  0
 26 24  1  0     0  0
 27  3  1  0     0  0
 28  3  1  0     0  0
 29 33  1  0     0  0
 30 18  1  0     0  0
 31 32  1  0     0  0
 32 17  1  0     0  0
 33 26  1  0     0  0
 34 27  1  0     0  0
 35 28  1  0     0  0
 36 34  1  0     0  0
 37 35  1  0     0  0
  5 10  1  0     0  0
 36 37  1  0     0  0
 12  7  1  0     0  0
 25 26  2  0     0  0
M  END