
  SciTegic02261315432D

 83 88  0  0  1  0            999 V2000
    3.6224   -4.2867    0.0000 N   0  0
    4.3131   -4.7329    0.0000 C   0  0
    9.7466   -4.3627    0.0000 N   0  0
    5.0502   -4.3627    0.0000 C   0  0  1  0  0  0
    8.5899   -5.5128    0.0000 C   0  0
    5.5327   -5.0303    0.0000 N   0  0
    7.8066   -5.7640    0.0000 N   0  0
    6.9836   -0.5586    0.0000 C   0  0
    7.8066   -0.5586    0.0000 N   0  0
    9.7466   -1.9665    0.0000 N   0  0
    9.9978   -3.5728    0.0000 C   0  0
    6.2003   -5.5128    0.0000 C   0  0
    9.2641   -1.2989    0.0000 C   0  0
    2.6374   -5.3774    0.0000 C   0  0
    9.2641   -5.0303    0.0000 C   0  0  2  0  0  0
    6.9836   -5.7640    0.0000 C   0  0  2  0  0  0
    6.2003   -0.8130    0.0000 C   0  0
    2.8490   -4.5841    0.0000 C   0  0  2  0  0  0
    9.9978   -2.7498    0.0000 C   0  0  2  0  0  0
    8.5899   -0.8164    0.0000 C   0  0  2  0  0  0
    2.2111   -6.9737    0.0000 C   0  0
    3.2224   -5.9624    0.0000 N   0  0
    1.9963   -7.7669    0.0000 N   0  0
    6.8547   -6.5837    0.0000 C   0  0
    1.2031   -7.9817    0.0000 C   0  0  2  0  0  0
    0.9849   -8.7783    0.0000 C   0  0
    6.0879   -6.8745    0.0000 C   0  0
    3.0076   -6.7556    0.0000 C   0  0  1  0  0  0
    4.7924   -2.7498    0.0000 S   0  0
    5.0502   -1.9665    0.0000 S   0  0
    4.2669   -5.5558    0.0000 O   0  0
    8.9667   -6.2499    0.0000 O   0  0
    1.8376   -5.5922    0.0000 O   0  0
    6.8547    0.2545    0.0000 O   0  0
   10.8175   -3.7017    0.0000 O   0  0
    9.8458   -0.7172    0.0000 O   0  0
    5.8235   -6.2499    0.0000 O   0  0
    4.7924   -3.5728    0.0000 C   0  0
    8.9667   -0.0727    0.0000 C   0  0
   10.8175   -2.6209    0.0000 C   0  0
    1.6294   -6.3887    0.0000 O   0  0
    0.6181   -7.4001    0.0000 C   0  0
    0.1917   -8.9931    0.0000 O   0  0
    5.9590   -7.6942    0.0000 O   0  0
    5.5327   -1.2989    0.0000 C   0  0
    1.5699   -9.3633    0.0000 N   0  0
    9.8458   -5.6120    0.0000 C   0  0
    3.5794   -3.4637    0.0000 C   0  0
    5.4468   -6.3590    0.0000 N   0  0
    9.7896   -0.0331    0.0000 C   0  0
   -0.1785   -7.6149    0.0000 C   0  0
   -1.7715   -8.0412    0.0000 C   0  0
   11.4421    0.0496    0.0000 C   0  0
   11.3364   -3.2654    0.0000 C   0  0
    5.3774   -0.8560    0.0000 C   0  0
    6.4085   -0.0132    0.0000 C   0  0
   10.1664    0.7006    0.0000 C   0  0
   -0.7601   -7.0299    0.0000 C   0  0
   10.2424   -0.7271    0.0000 C   0  0
   -0.3867   -8.4114    0.0000 C   0  0
    4.3329  -10.1036    0.0000 N   0  0
   -1.1799   -8.6262    0.0000 C   0  0
   -1.5534   -7.2414    0.0000 C   0  0
   11.0653   -0.6875    0.0000 C   0  0
   10.9893    0.7403    0.0000 C   0  0
    2.3334   -3.9397    0.0000 C   0  0
   -2.5680   -8.2528    0.0000 O   0  0
   12.2651    0.0958    0.0000 O   0  0
    2.7796   -3.2456    0.0000 C   0  0
    3.5926   -7.3406    0.0000 C   0  0
    3.7479   -9.5186    0.0000 C   0  0
    9.6310   -6.4085    0.0000 C   0  0
   10.6423   -5.3972    0.0000 C   0  0
   11.0389   -4.0355    0.0000 C   0  0
   12.1494   -3.1365    0.0000 C   0  0
   12.8732   -0.6379    0.0000 C   0  0
    3.3745   -8.1404    0.0000 C   0  0
    3.9595   -8.7188    0.0000 C   0  0
    5.7145    0.4329    0.0000 C   0  0
    5.0766   -0.0892    0.0000 C   0  0
   11.5611   -4.6734    0.0000 C   0  0
   12.6716   -3.7777    0.0000 C   0  0
   12.3741   -4.5445    0.0000 C   0  0
  2  1  1  0
  3 15  1  0
  4  2  1  6
  5  7  1  0
  6  4  1  0
  7 16  1  0
  8 17  1  0
  9  8  1  0
 10 13  1  0
 11  3  1  0
 12  6  1  0
 13 20  1  0
 18 14  1  6
 15  5  1  0
 16 12  1  0
 17 45  1  0
 18  1  1  0
 19 11  1  0
 20  9  1  0
 28 21  1  1
 22 14  1  0
 23 21  1  0
 16 24  1  1
 25 23  1  0
 26 25  1  0
 27 24  1  0
 28 22  1  0
 29 38  1  0
 30 29  1  0
 31  2  2  0
 32  5  2  0
 33 14  2  0
 34  8  2  0
 35 11  2  0
 36 13  2  0
 37 12  2  0
 38  4  1  0
 20 39  1  1
 19 40  1  1
 41 21  2  0
 25 42  1  6
 43 26  2  0
 44 27  2  0
 45 30  1  0
 46 26  1  0
 15 47  1  1
 48  1  1  0
 49 27  1  0
 50 39  1  0
 51 42  1  0
 52 62  1  0
 53 64  2  0
 54 40  1  0
 55 17  1  0
 56 17  1  0
 57 50  1  0
 58 51  2  0
 59 50  2  0
 60 51  1  0
 61 71  1  0
 62 60  2  0
 63 58  1  0
 64 59  1  0
 65 57  2  0
 66 18  1  0
 67 52  1  0
 68 53  1  0
 69 48  1  0
 70 28  1  0
 71 78  1  0
 72 47  1  0
 73 47  1  0
 74 54  2  0
 75 54  1  0
 76 68  1  0
 77 70  1  0
 78 77  1  0
 79 56  1  0
 80 55  1  0
 81 74  1  0
 82 75  2  0
 83 82  1  0
 69 66  1  0
 79 80  1  0
 63 52  2  0
 10 19  1  0
 65 53  1  0
 83 81  2  0
M  END