
          11280714582D 1   1.00000     0.00000     0

 34 37  0     0  0            999 V2000
    4.4500   -6.6917    0.0000 N   0  0  3  0  0  0           0  0  0
    5.1667   -6.2792    0.0000 C   0  0  0  0  0  0           0  0  0
    6.6042  -10.4250    0.0000 C   0  0  0  0  0  0           0  0  0
    3.7375   -6.2792    0.0000 C   0  0  0  0  0  0           0  0  0
    5.8875   -6.6917    0.0000 C   0  0  0  0  0  0           0  0  0
    5.2875  -10.7042    0.0000 N   0  0  0  0  0  0           0  0  0
    5.8417  -10.0875    0.0000 N   0  0  0  0  0  0           0  0  0
    5.7042  -11.4167    0.0000 N   0  0  0  0  0  0           0  0  0
    6.5167  -11.2500    0.0000 N   0  0  0  0  0  0           0  0  0
    7.3167  -10.0042    0.0000 C   0  0  0  0  0  0           0  0  0
    7.3167   -9.1750    0.0000 C   0  0  0  0  0  0           0  0  0
    6.6042   -6.2792    0.0000 C   0  0  0  0  0  0           0  0  0
    5.1667   -5.4542    0.0000 C   0  0  0  0  0  0           0  0  0
    4.4500   -5.0292    0.0000 C   0  0  3  0  0  0           0  0  0
    3.7375   -5.4542    0.0000 C   0  0  0  0  0  0           0  0  0
    4.4500   -7.5167    0.0000 C   0  0  0  0  0  0           0  0  0
    6.6042   -8.7667    0.0000 C   0  0  0  0  0  0           0  0  0
    3.0167   -6.6917    0.0000 O   0  0  0  0  0  0           0  0  0
    6.6042   -5.4542    0.0000 O   0  0  0  0  0  0           0  0  0
    6.6000   -7.9292    0.0000 C   0  0  0  0  0  0           0  0  0
    5.8792   -9.1792    0.0000 C   0  0  0  0  0  0           0  0  0
    5.1667   -7.9375    0.0000 C   0  0  0  0  0  0           0  0  0
    7.3250   -6.6917    0.0000 O   0  0  0  0  0  0           0  0  0
    5.8792   -7.5167    0.0000 C   0  0  0  0  0  0           0  0  0
    5.1667   -8.7667    0.0000 C   0  0  0  0  0  0           0  0  0
    8.0417  -10.4250    0.0000 C   0  0  0  0  0  0           0  0  0
    8.0375   -8.7625    0.0000 C   0  0  0  0  0  0           0  0  0
    5.0375   -4.4417    0.0000 C   0  0  0  0  0  0           0  0  0
    3.7292   -4.6167    0.0000 C   0  0  0  0  0  0           0  0  0
    8.0417   -6.2875    0.0000 C   0  0  0  0  0  0           0  0  0
    4.8167   -3.6417    0.0000 C   0  0  0  0  0  0           0  0  0
    8.7542  -10.0042    0.0000 C   0  0  0  0  0  0           0  0  0
    8.7500   -9.1667    0.0000 C   0  0  0  0  0  0           0  0  0
    8.7542   -6.7000    0.0000 C   0  0  0  0  0  0           0  0  0
  2  1  1  0     0  0
  3 10  1  0     0  0
  4  1  1  0     0  0
  5  2  2  0     0  0
  6  7  2  0     0  0
  7  3  1  0     0  0
  8  9  1  0     0  0
  9  3  2  0     0  0
 10 11  2  0     0  0
 11 17  1  0     0  0
 12  5  1  0     0  0
 13  2  1  0     0  0
 14 15  1  0     0  0
 15  4  1  0     0  0
 16  1  1  0     0  0
 17 21  2  0     0  0
 18  4  2  0     0  0
 19 12  2  0     0  0
 20 24  2  0     0  0
 21 25  1  0     0  0
 22 16  1  0     0  0
 23 12  1  0     0  0
 24 22  1  0     0  0
 25 22  2  0     0  0
 26 10  1  0     0  0
 27 11  1  0     0  0
 28 14  1  0     0  0
 29 14  1  0     0  0
 30 23  1  0     0  0
 31 28  1  0     0  0
 32 33  1  0     0  0
 33 27  2  0     0  0
 34 30  1  0     0  0
 14 13  1  0     0  0
 20 17  1  0     0  0
 32 26  2  0     0  0
  8  6  1  0     0  0
M  END