
          11280715362D 1   1.00000     0.00000     0

 38 41  0     1  0            999 V2000
    1.4042   -3.2542    0.0000 C   0  0  1  0  0  0           0  0  0
    1.2250   -2.4542    0.0000 C   0  0  2  0  0  0           0  0  0
    1.9917   -3.8417    0.0000 N   0  0  3  0  0  0           0  0  0
    0.7000   -3.6792    0.0000 C   0  0  0  0  0  0           0  0  0
    3.6542   -0.8750    0.0000 C   0  0  0  0  0  0           0  0  0
    0.4042   -2.3792    0.0000 C   0  0  3  0  0  0           0  0  0
    2.8375   -0.9000    0.0000 C   0  0  0  0  0  0           0  0  0
    6.1792   -3.2417    0.0000 C   0  0  0  0  0  0           0  0  0
   -0.0208   -1.6667    0.0000 O   0  0  0  0  0  0           0  0  0
    0.0792   -3.1375    0.0000 C   0  0  0  0  0  0           0  0  0
    6.8417   -2.9750    0.0000 O   0  0  0  0  0  0           0  0  0
    4.0542   -0.1542    0.0000 C   0  0  0  0  0  0           0  0  0
    2.4250   -0.1917    0.0000 C   0  0  0  0  0  0           0  0  0
    2.4375   -1.6167    0.0000 C   0  0  0  0  0  0           0  0  0
    3.3167   -2.4042    0.0000 C   0  0  0  0  0  0           0  0  0
    4.1792   -2.4667    0.0000 C   0  0  0  0  0  0           0  0  0
    2.0167   -2.2375    0.0000 O   0  0  0  0  0  0           0  0  0
    0.3792   -0.9542    0.0000 C   0  0  0  0  0  0           0  0  0
    1.2042   -0.9417    0.0000 C   0  0  0  0  0  0           0  0  0
    6.0792   -3.9500    0.0000 O   0  0  0  0  0  0           0  0  0
    1.6042   -0.2167    0.0000 C   0  0  0  0  0  0           0  0  0
    1.6167   -1.6375    0.0000 C   0  0  0  0  0  0           0  0  0
    2.7625   -3.5667    0.0000 C   0  0  0  0  0  0           0  0  0
    1.7250   -4.6167    0.0000 C   0  0  0  0  0  0           0  0  0
    3.6000    1.9750    0.0000 O   0  0  0  0  0  0           0  0  0
    2.6042   -2.8167    0.0000 C   0  0  0  0  0  0           0  0  0
    4.0625   -1.5792    0.0000 C   0  0  0  0  0  0           0  0  0
    5.6167   -2.8042    0.0000 C   0  0  0  0  0  0           0  0  0
    4.6792   -3.0542    0.0000 C   0  0  0  0  0  0           0  0  0
    3.6250    0.5458    0.0000 C   0  0  0  0  0  0           0  0  0
    4.8667   -0.1417    0.0000 C   0  0  0  0  0  0           0  0  0
    4.0250    1.2708    0.0000 C   0  0  0  0  0  0           0  0  0
    2.1625   -5.3125    0.0000 C   0  0  0  0  0  0           0  0  0
    3.4625   -4.0042    0.0000 C   0  0  0  0  0  0           0  0  0
    4.8792   -1.5667    0.0000 C   0  0  0  0  0  0           0  0  0
    5.2792   -0.8417    0.0000 C   0  0  0  0  0  0           0  0  0
    2.9792   -5.3917    0.0000 C   0  0  0  0  0  0           0  0  0
    3.5625   -4.8167    0.0000 C   0  0  0  0  0  0           0  0  0
  2  1  1  0     0  0
  1  3  1  1     0  0
  4  1  1  0     0  0
  5  7  1  0     0  0
  6  2  1  0     0  0
  7 14  1  0     0  0
  8 28  1  0     0  0
  9  6  1  0     0  0
 10  4  1  0     0  0
 11  8  2  0     0  0
 12  5  1  0     0  0
 13 21  1  0     0  0
 14 22  2  0     0  0
 15 26  1  0     0  0
 16 15  2  0     0  0
  2 17  1  6     0  0
 18  9  1  0     0  0
 19 18  1  0     0  0
 20  8  1  0     0  0
 21 19  2  0     0  0
 22 19  1  0     0  0
 23  3  1  0     0  0
 24  3  1  0     0  0
 25 32  1  0     0  0
 26 17  1  0     0  0
 27  5  2  0     0  0
 28 29  1  0     0  0
 29 16  1  0     0  0
 30 12  1  0     0  0
 31 12  2  0     0  0
 32 30  1  0     0  0
 33 24  1  0     0  0
 34 23  1  0     0  0
 35 27  1  0     0  0
 36 35  2  0     0  0
 37 33  1  0     0  0
 38 34  1  0     0  0
  6 10  1  0     0  0
 38 37  1  0     0  0
  7 13  2  0     0  0
 36 31  1  0     0  0
M  END