
          11280715072D 1   1.00000     0.00000     0

 27 29  0     1  0            999 V2000
    0.2417   -2.7292    0.0000 S   0  0  3  0  0  0           0  0  0
   -0.2750   -3.0375    0.0000 C   0  0  0  0  0  0           0  0  0
    0.7750   -3.0375    0.0000 C   0  0  0  0  0  0           0  0  0
   -0.2750   -3.6417    0.0000 C   0  0  0  0  0  0           0  0  0
    0.2417   -3.9417    0.0000 O   0  0  0  0  0  0           0  0  0
    3.8917   -3.6500    0.0000 C   0  0  0  0  0  0           0  0  0
    0.8167   -2.4167    0.0000 O   0  0  0  0  0  0           0  0  0
   -0.2750   -2.4292    0.0000 O   0  0  0  0  0  0           0  0  0
    0.7750   -3.6417    0.0000 C   0  0  2  0  0  0           0  0  0
    4.4042   -3.9500    0.0000 C   0  0  0  0  0  0           0  0  0
    3.8917   -3.0542    0.0000 C   0  0  0  0  0  0           0  0  0
    3.3667   -3.9417    0.0000 O   0  0  0  0  0  0           0  0  0
   -0.7958   -2.7375    0.0000 C   0  0  0  0  0  0           0  0  0
    1.8125   -3.6417    0.0000 N   0  0  0  0  0  0           0  0  0
    3.3667   -2.7542    0.0000 O   0  0  0  0  0  0           0  0  0
    4.4042   -4.5500    0.0000 O   0  0  0  0  0  0           0  0  0
    1.2917   -3.9417    0.0000 C   0  0  0  0  0  0           0  0  0
   -0.7958   -3.9417    0.0000 C   0  0  0  0  0  0           0  0  0
    4.9292   -3.0542    0.0000 C   0  0  0  0  0  0           0  0  0
    4.4042   -2.7500    0.0000 C   0  0  0  0  0  0           0  0  0
    4.9292   -3.6542    0.0000 C   0  0  0  0  0  0           0  0  0
    2.3292   -3.9417    0.0000 C   0  0  0  0  0  0           0  0  0
    2.8500   -3.6417    0.0000 C   0  0  0  0  0  0           0  0  0
    2.8500   -3.0542    0.0000 C   0  0  0  0  0  0           0  0  0
    4.9250   -4.8500    0.0000 C   0  0  0  0  0  0           0  0  0
   -1.3125   -3.0417    0.0000 C   0  0  0  0  0  0           0  0  0
   -1.3125   -3.6417    0.0000 C   0  0  0  0  0  0           0  0  0
  2  1  1  0     0  0
  3  1  1  0     0  0
  4  2  2  0     0  0
  5  9  1  0     0  0
  6 12  1  0     0  0
  7  1  2  0     0  0
  8  1  2  0     0  0
  9  3  1  0     0  0
 10  6  2  0     0  0
 11  6  1  0     0  0
 12 23  1  0     0  0
 13  2  1  0     0  0
 14 17  1  0     0  0
 15 11  1  0     0  0
 16 10  1  0     0  0
  9 17  1  1     0  0
 18  4  1  0     0  0
 19 20  1  0     0  0
 20 11  2  0     0  0
 21 10  1  0     0  0
 22 14  1  0     0  0
 23 22  1  0     0  0
 24 15  1  0     0  0
 25 16  1  0     0  0
 26 13  2  0     0  0
 27 26  1  0     0  0
  4  5  1  0     0  0
 18 27  2  0     0  0
 21 19  2  0     0  0
M  END