
  SciTegic12231509382D

 20 23  0  0  0  0            999 V2000
    3.5042   -4.1417    0.0000 N   0  0
    2.7917   -3.7417    0.0000 C   0  0
    2.9667   -2.9292    0.0000 N   0  0
    4.1167   -3.5917    0.0000 N   0  0
    3.7792   -2.8417    0.0000 C   0  0
    3.5167   -4.9792    0.0000 C   0  0
    2.0875   -4.1542    0.0000 C   0  0
    2.8042   -5.3917    0.0000 N   0  0
    2.0875   -4.9792    0.0000 C   0  0
    4.1917   -2.1292    0.0000 C   0  0
    1.3667   -3.7417    0.0000 C   0  0
    3.8542   -1.3792    0.0000 O   0  0
    4.2292   -5.3792    0.0000 N   0  0
    5.0250   -2.0417    0.0000 C   0  0
    1.3667   -5.3917    0.0000 C   0  0
    4.4667   -0.8292    0.0000 C   0  0
    5.1875   -1.2417    0.0000 C   0  0
    0.6542   -4.1542    0.0000 C   0  0
    0.6542   -4.9792    0.0000 C   0  0
   -0.0583   -3.7417    0.0000 Cl  0  0
  2  1  1  0
  3  2  2  0
  4  1  1  0
  5  4  2  0
  6  1  1  0
  7  2  1  0
  8  6  2  0
  9  8  1  0
 10  5  1  0
 11  7  2  0
 12 10  1  0
 13  6  1  0
 14 10  2  0
 15  9  2  0
 16 12  1  0
 17 14  1  0
 18 11  1  0
 19 15  1  0
 20 18  1  0
  5  3  1  0
  7  9  1  0
 18 19  2  0
 17 16  2  0
M  END