
  SciTegic09261414552D

 37 42  0  0  0  0            999 V2000
   10.6844   -5.3121    0.0000 C   0  0
   10.7707   -6.1325    0.0000 C   0  0
    9.9307   -4.9765    0.0000 O   0  0
   11.3519   -4.8271    0.0000 N   0  0
   10.1032   -6.6175    0.0000 N   0  0
   10.1032   -7.4425    0.0000 N   0  0
    9.3186   -7.6974    0.0000 N   0  0
    8.8337   -7.0300    0.0000 C   0  0
    9.3186   -6.3625    0.0000 C   0  0
    8.0087   -7.0300    0.0000 C   0  0
    7.5962   -7.7444    0.0000 C   0  0
    6.7712   -7.7444    0.0000 C   0  0
    6.3587   -7.0300    0.0000 C   0  0
    6.7712   -6.3155    0.0000 C   0  0
    7.5962   -6.3155    0.0000 C   0  0
    5.0488   -7.6974    0.0000 C   0  0
    4.2641   -7.4425    0.0000 N   0  0
    4.2641   -6.6175    0.0000 C   0  0
    5.0488   -6.3625    0.0000 C   0  0
    5.5337   -7.0300    0.0000 N   0  0
    3.5967   -6.1325    0.0000 C   0  0
    6.3587   -8.4589    0.0000 O   0  0
    5.5337   -8.4589    0.0000 C   0  0
   12.8200   -4.7502    0.0000 N   0  0
   13.4331   -5.3022    0.0000 N   0  0
   13.0975   -6.0559    0.0000 C   0  0
   12.2771   -5.9697    0.0000 C   0  0
   12.1055   -5.1627    0.0000 C   0  0
   12.9062   -3.9297    0.0000 C   0  0
   12.2388   -3.4448    0.0000 C   0  0
   12.3250   -2.6243    0.0000 C   0  0
   13.0787   -2.2888    0.0000 C   0  0
   13.7462   -2.7737    0.0000 C   0  0
   13.6599   -3.5942    0.0000 C   0  0
   13.5100   -6.7704    0.0000 C   0  0
   14.2245   -7.1829    0.0000 C   0  0
   13.5100   -7.5954    0.0000 C   0  0
  1  2  1  0
  1  3  2  0
  1  4  1  0
  5  6  1  0
  6  7  2  0
  7  8  1  0
  8  9  2  0
  5  9  1  0
 10 11  1  0
 11 12  2  0
 12 13  1  0
 13 14  2  0
 14 15  1  0
 10 15  2  0
 16 17  2  0
 17 18  1  0
 18 19  2  0
 19 20  1  0
 16 20  1  0
 18 21  1  0
 13 20  1  0
 22 23  1  0
 12 22  1  0
  8 10  1  0
  2  5  1  0
 24 25  1  0
 25 26  2  0
 26 27  1  0
 27 28  2  0
 24 28  1  0
 29 30  1  0
 30 31  2  0
 31 32  1  0
 32 33  2  0
 33 34  1  0
 29 34  2  0
 24 29  1  0
 35 36  1  0
 36 37  1  0
 35 37  1  0
 26 35  1  0
  4 28  1  0
M  END