
  SciTegic04091414152D

 33 38  0  0  0  0            999 V2000
   11.4154   -8.2593    0.0000 C   0  0
   11.5598   -9.0676    0.0000 O   0  0
   12.1459   -7.8721    0.0000 N   0  0
   12.7326   -8.4450    0.0000 C   0  0
   12.3708   -9.1811    0.0000 C   0  0
   12.8278   -9.8626    0.0000 C   0  0
   13.6465   -9.8090    0.0000 C   0  0
   14.0062   -9.0683    0.0000 C   0  0
   13.5470   -8.3899    0.0000 C   0  0
   10.2974   -5.4926    0.0000 C   0  0
    9.6787   -6.0286    0.0000 C   0  0  2  0  0  0
    9.8325   -6.8317    0.0000 C   0  0
   10.6221   -7.0760    0.0000 N   0  3
   11.2310   -6.5659    0.0000 C   0  0
   11.0736   -5.7564    0.0000 C   0  0
    9.9055   -6.2115    0.0000 C   0  0
   10.7056   -6.3957    0.0000 C   0  0
    8.9029   -5.7598    0.0000 O   0  0
    7.4871   -5.5850    0.0000 C   0  0
    6.9428   -6.2070    0.0000 C   0  0
    8.1503   -6.0822    0.0000 C   0  0
    6.7294   -5.2636    0.0000 C   0  0
    6.5029   -4.4730    0.0000 C   0  0
    6.9801   -3.8022    0.0000 C   0  0
    7.7982   -3.7682    0.0000 C   0  0
    8.3447   -4.3835    0.0000 C   0  0
    8.2056   -5.1953    0.0000 C   0  0
    6.1250   -6.1370    0.0000 C   0  0
    5.8024   -6.8956    0.0000 C   0  0
    6.4244   -7.4397    0.0000 C   0  0
    7.1329   -7.0148    0.0000 C   0  0
    8.0534   -6.8977    0.0000 O   0  0
   10.6775   -7.8954    0.0000 C   0  0
  1  2  1  0
  2  5  1  0
  4  3  1  0
  3  1  2  0
  4  5  2  0
  5  6  1  0
  6  7  2  0
  7  8  1  0
  8  9  2  0
  9  4  1  0
 10 11  1  0
 10 15  1  0
 11 12  1  0
 12 13  1  0
 13 14  1  0
 14 15  1  0
 10 16  1  0
 13 17  1  0
 16 17  1  0
 11 18  1  6
 20 19  1  0
 19 21  1  0
 22 23  1  0
 23 24  1  0
 24 25  1  0
 22 19  1  0
 25 26  1  0
 19 27  1  0
 26 27  1  0
 20 28  2  0
 28 29  1  0
 29 30  2  0
 30 31  1  0
 31 20  1  0
 21 32  2  0
 21 18  1  0
 13 33  1  0
 33  1  1  0
M  CHG  1  13   1
M  END