
  SciTegic01311317052D

 27 30  0  0  1  0            999 V2000
    3.0897   -5.5445    0.0000 C   0  0  2  0  0  0
    3.0897   -4.7192    0.0000 C   0  0
    3.8041   -4.3065    0.0000 C   0  0
    2.3707   -5.9572    0.0000 O   0  0
    3.8041   -5.9572    0.0000 C   0  0
    4.5185   -5.5445    0.0000 C   0  0
    5.2329   -5.9572    0.0000 C   0  0
    5.9473   -5.5445    0.0000 C   0  0
    5.9473   -4.7192    0.0000 C   0  0  1  0  0  0
    6.6616   -4.3065    0.0000 C   0  0  2  0  0  0
    7.4471   -4.5620    0.0000 C   0  0
    7.9301   -3.8939    0.0000 C   0  0
    7.4471   -3.2258    0.0000 C   0  0  1  0  0  0
    6.6616   -3.4812    0.0000 C   0  0  2  0  0  0
    6.6616   -2.6559    0.0000 C   0  0
    5.9473   -3.0686    0.0000 C   0  0
    5.2329   -3.4812    0.0000 C   0  0
    5.2329   -4.3065    0.0000 C   0  0
    4.5185   -4.7192    0.0000 C   0  0  1  0  0  0
    4.5185   -3.8939    0.0000 C   0  0
    5.9473   -3.8939    0.0000 H   0  0
    6.6616   -5.1319    0.0000 H   0  0
    4.5180   -3.0687    0.0000 C   0  0
    5.9469   -2.2433    0.0000 C   0  0
    7.2305   -2.4255    0.0000 O   0  0
    8.2714   -3.2233    0.0000 C   0  0
    9.0967   -3.2233    0.0000 C   0  0
  5  6  2  0
  6  7  1  0
  7  8  1  0
  8  9  1  0
  9 10  1  0
 10 11  1  0
 11 12  1  0
 12 13  1  0
 13 14  1  0
 10 14  1  0
 14 15  1  1
 14 16  1  0
 16 17  1  0
 18 17  1  0
  9 18  1  0
 18 19  1  0
  3 19  1  0
  6 19  1  0
 19 20  1  1
  9 21  1  1
 10 22  1  6
 17 23  2  0
  1  2  1  0
 15 24  1  0
  2  3  1  0
 13 25  1  1
  1  4  1  1
 13 26  1  0
  1  5  1  0
 26 27  3  0
M  END