
          01230816042D 1   1.00000     0.00000     0

 47 52  0     1  0            999 V2000
   -4.3973  -24.0583    0.0000 C   0  0  0  0  0  0           0  0  0
   -4.3984  -24.8857    0.0000 C   0  0  0  0  0  0           0  0  0
   -3.6836  -25.2985    0.0000 C   0  0  0  0  0  0           0  0  0
   -3.6854  -23.6455    0.0000 C   0  0  0  0  0  0           0  0  0
   -2.9700  -24.0547    0.0000 C   0  0  0  0  0  0           0  0  0
   -2.9666  -24.8877    0.0000 C   0  0  0  0  0  0           0  0  0
   -2.2474  -25.2990    0.0000 C   0  0  0  0  0  0           0  0  0
   -1.5270  -24.8818    0.0000 C   0  0  0  0  0  0           0  0  0
   -3.4667  -26.0500    0.0000 N   0  0  0  0  0  0           0  0  0
   -2.4667  -26.0917    0.0000 C   0  0  0  0  0  0           0  0  0
   -2.2543  -23.6329    0.0000 C   0  0  0  0  0  0           0  0  0
   -1.5285  -24.0482    0.0000 C   0  0  2  0  0  0           0  0  0
   -0.8100  -23.6297    0.0000 N   0  0  3  0  0  0           0  0  0
   -0.8109  -22.7942    0.0000 C   0  0  0  0  0  0           0  0  0
   -1.5366  -22.3788    0.0000 C   0  0  1  0  0  0           0  0  0
   -2.2614  -22.7991    0.0000 C   0  0  0  0  0  0           0  0  0
   -0.0945  -24.0405    0.0000 C   0  0  0  0  0  0           0  0  0
   -1.5389  -21.5538    0.0000 C   0  0  0  0  0  0           0  0  0
   -0.8256  -21.1393    0.0000 N   0  0  0  0  0  0           0  0  0
   -2.2545  -21.1433    0.0000 O   0  0  0  0  0  0           0  0  0
   -0.8279  -20.3144    0.0000 C   0  0  2  0  0  0           0  0  0
   -0.1146  -19.8999    0.0000 C   0  0  0  0  0  0           0  0  0
   -1.5435  -19.9038    0.0000 C   0  0  0  0  0  0           0  0  0
   -1.5458  -19.0789    0.0000 C   0  0  0  0  0  0           0  0  0
    0.6011  -20.3104    0.0000 N   0  0  0  0  0  0           0  0  0
   -0.1169  -19.0749    0.0000 O   0  0  0  0  0  0           0  0  0
    1.3144  -19.8959    0.0000 C   0  0  2  0  0  0           0  0  0
    1.9050  -20.3689    0.0000 C   0  0  0  0  0  0           0  0  0
    1.3121  -19.0709    0.0000 C   0  0  3  0  0  0           0  0  0
    2.0254  -18.6564    0.0000 C   0  0  0  0  0  0           0  0  0
    1.5917  -21.1167    0.0000 O   0  0  0  0  0  0           0  0  0
    2.7072  -20.1762    0.0000 N   0  0  3  0  0  0           0  0  0
    3.3299  -20.7122    0.0000 C   0  0  1  0  0  0           0  0  0
    4.0333  -20.2811    0.0000 C   0  0  0  0  0  0           0  0  0
    3.8406  -19.4789    0.0000 C   0  0  0  0  0  0           0  0  0
    3.0182  -19.4143    0.0000 C   0  0  0  0  0  0           0  0  0
    3.2636  -21.5346    0.0000 C   0  0  0  0  0  0           0  0  0
    2.5183  -21.8883    0.0000 O   0  0  0  0  0  0           0  0  0
    3.9426  -22.0031    0.0000 N   0  0  0  0  0  0           0  0  0
   -0.8167  -24.4583    0.0000 H   0  0  0  0  0  0           0  0  0
   -2.2614  -18.6683    0.0000 C   0  0  3  0  0  0           0  0  0
   -2.2651  -17.8442    0.0000 C   0  0  0  0  0  0           0  0  0
   -2.9766  -17.4338    0.0000 C   0  0  0  0  0  0           0  0  0
   -3.6924  -17.8448    0.0000 C   0  0  0  0  0  0           0  0  0
   -3.6921  -18.6708    0.0000 C   0  0  0  0  0  0           0  0  0
   -2.9760  -19.0857    0.0000 C   0  0  0  0  0  0           0  0  0
    0.5964  -18.6604    0.0000 C   0  0  0  0  0  0           0  0  0
 21 22  1  0     0  0
  7 10  2  0     0  0
 21 23  1  1     0  0
  9 10  1  0     0  0
 23 24  1  0     0  0
 11 12  1  0     0  0
 22 25  1  0     0  0
  5  6  1  0     0  0
 22 26  2  0     0  0
 25 27  1  0     0  0
  2  3  1  0     0  0
 27 28  1  0     0  0
  3  6  2  0     0  0
 27 29  1  1     0  0
  1  2  2  0     0  0
 29 30  1  0     0  0
  5 11  1  0     0  0
 28 31  2  0     0  0
 11 16  2  0     0  0
 28 32  1  0     0  0
 32 33  1  0     0  0
 12 13  1  0     0  0
 13 14  1  0     0  0
 14 15  1  0     0  0
 15 16  1  0     0  0
 33 34  1  0     0  0
 34 35  1  0     0  0
 35 36  1  0     0  0
 36 32  1  0     0  0
  6  7  1  0     0  0
 33 37  1  1     0  0
 13 17  1  0     0  0
 37 38  2  0     0  0
  7  8  1  0     0  0
 37 39  1  0     0  0
 15 18  1  1     0  0
 12 40  1  1     0  0
  8 12  1  0     0  0
 24 41  1  0     0  0
 41 42  1  0     0  0
 18 19  1  0     0  0
  5  4  2  0     0  0
 18 20  2  0     0  0
  3  9  1  0     0  0
 19 21  1  0     0  0
 41 46  1  0     0  0
 42 43  1  0     0  0
 43 44  1  0     0  0
 44 45  1  0     0  0
 45 46  1  0     0  0
  4  1  1  0     0  0
 29 47  1  0     0  0
M  END