
          11280715362D 1   1.00000     0.00000     0

 29 33  0     0  0            999 V2000
    5.3000   -6.1875    0.0000 C   0  0  0  0  0  0           0  0  0
    5.3000   -6.7917    0.0000 C   0  0  0  0  0  0           0  0  0
    4.7750   -7.1000    0.0000 N   0  0  3  0  0  0           0  0  0
    4.2500   -6.1875    0.0000 C   0  0  0  0  0  0           0  0  0
    5.8250   -5.8875    0.0000 C   0  0  0  0  0  0           0  0  0
    4.2500   -6.7917    0.0000 C   0  0  0  0  0  0           0  0  0
    6.3500   -6.1917    0.0000 C   0  0  3  0  0  0           0  0  0
    8.8250   -5.7500    0.0000 N   0  0  3  0  0  0           0  0  0
    5.8250   -7.1000    0.0000 C   0  0  0  0  0  0           0  0  0
    7.3917   -6.2000    0.0000 N   0  0  3  0  0  0           0  0  0
    9.2417   -6.1750    0.0000 C   0  0  0  0  0  0           0  0  0
    6.8750   -5.8917    0.0000 C   0  0  0  0  0  0           0  0  0
    6.3500   -6.8000    0.0000 C   0  0  0  0  0  0           0  0  0
    5.8250   -5.2875    0.0000 O   0  0  0  0  0  0           0  0  0
    8.5250   -6.2750    0.0000 C   0  0  0  0  0  0           0  0  0
    8.3250   -5.9125    0.0000 C   0  0  0  0  0  0           0  0  0
    9.8125   -6.0125    0.0000 C   0  0  0  0  0  0           0  0  0
    7.6917   -5.6750    0.0000 C   0  0  0  0  0  0           0  0  0
    7.8542   -6.0375    0.0000 C   0  0  0  0  0  0           0  0  0
    4.7750   -7.7000    0.0000 C   0  0  0  0  0  0           0  0  0
    9.9625   -5.4375    0.0000 F   0  0  0  0  0  0           0  0  0
    3.7292   -5.8875    0.0000 C   0  0  0  0  0  0           0  0  0
    3.7292   -7.0917    0.0000 C   0  0  0  0  0  0           0  0  0
    9.0875   -6.7417    0.0000 C   0  0  0  0  0  0           0  0  0
   10.2292   -6.4292    0.0000 C   0  0  0  0  0  0           0  0  0
    3.2125   -6.1917    0.0000 C   0  0  0  0  0  0           0  0  0
    3.2125   -6.7917    0.0000 C   0  0  0  0  0  0           0  0  0
    9.5042   -7.1625    0.0000 C   0  0  0  0  0  0           0  0  0
   10.0792   -7.0125    0.0000 C   0  0  0  0  0  0           0  0  0
  2  1  2  0     0  0
  3  2  1  0     0  0
  4  1  1  0     0  0
  5  1  1  0     0  0
  6  4  2  0     0  0
  7  5  1  0     0  0
  8 15  1  0     0  0
  9  2  1  0     0  0
 10 12  1  0     0  0
 11  8  1  0     0  0
  7 12  1  0     0  0
 13  7  1  0     0  0
 14  5  2  0     0  0
 15 19  1  0     0  0
 16 18  1  0     0  0
 17 11  1  0     0  0
 18 10  1  0     0  0
 19 10  1  0     0  0
 20  3  1  0     0  0
 21 17  1  0     0  0
 22  4  1  0     0  0
 23  6  1  0     0  0
 24 11  2  0     0  0
 25 17  2  0     0  0
 26 22  2  0     0  0
 27 26  1  0     0  0
 28 24  1  0     0  0
 29 28  2  0     0  0
  6  3  1  0     0  0
  9 13  1  0     0  0
 23 27  2  0     0  0
 16  8  1  0     0  0
 25 29  1  0     0  0
M  END