
  SciTegic12011114592D

 40 45  0  0  0  0            999 V2000
   18.7954   -0.4247    0.0000 N   0  0
   19.5106   -0.0149    0.0000 C   0  0
   19.5135    0.8109    0.0000 N   0  0
   18.7952    1.2254    0.0000 C   0  0
   18.7947    2.0504    0.0000 N   0  0
   19.5093    2.4634    0.0000 C   0  0
   20.2237   -0.4299    0.0000 S   0  0
   20.9395   -0.0198    0.0000 C   0  0
   21.6484   -0.4379    0.0000 C   0  0
   22.3638   -0.0285    0.0000 C   0  0
   22.3670    0.7974    0.0000 C   0  0
   21.6490    1.2122    0.0000 C   0  0
   20.9365    0.8004    0.0000 C   0  0
   23.0824    1.2084    0.0000 N   0  0
   23.7960    0.7944    0.0000 C   0  0
   24.5113    1.2054    0.0000 C   0  0
   23.7943   -0.0306    0.0000 O   0  0
   25.3330    1.2069    0.0000 C   0  0
   24.9220    1.9222    0.0000 C   0  0
   20.2950    2.2153    0.0000 C   0  0
   20.7741    2.8869    0.0000 C   0  0
   20.2834    3.5501    0.0000 N   0  0
   19.5010    3.2884    0.0000 N   0  0
   21.5991    2.8941    0.0000 C   0  0
   17.3086    1.0645    0.0000 C   0  0
   16.8276    0.4034    0.0000 C   0  0
   17.3078   -0.2584    0.0000 C   0  0
   18.0855   -0.0063    0.0000 N   0  0
   18.0861    0.8114    0.0000 C   0  0
   16.0026    0.4039    0.0000 N   0  0
   15.5896   -0.3103    0.0000 C   0  0
   14.7646   -0.3097    0.0000 C   0  0
   16.0016   -1.0250    0.0000 O   0  0
   14.3526    0.4050    0.0000 C   0  0
   13.5276    0.4056    0.0000 N   0  0
   13.1207    1.1209    0.0000 C   0  0
   12.2993    1.1235    0.0000 C   0  0
   11.8825    0.4111    0.0000 C   0  0
   12.2933   -0.3055    0.0000 C   0  0
   13.1209   -0.3097    0.0000 C   0  0
  7  8  1  0
  3  4  2  0
 22 23  1  0
  8  9  2  0
 20 21  2  0
  4 29  1  0
  9 10  1  0
  1  2  2  0
  6 20  1  0
 21 22  1  0
 23  6  2  0
 10 11  2  0
 21 24  1  0
 28 29  1  0
  4  5  1  0
 11 12  1  0
 26 27  2  0
 28  1  1  0
 12 13  2  0
 13  8  1  0
 25 26  1  0
 27 28  1  0
 29 25  2  0
  5  6  1  0
 26 30  1  0
 11 14  1  0
 30 31  1  0
  2  3  1  0
 31 32  1  0
 14 15  1  0
 31 33  2  0
  2  7  1  0
 32 34  1  0
 15 16  1  0
 34 35  1  0
 35 36  1  0
 15 17  2  0
 18 16  1  0
 19 18  1  0
 16 19  1  0
 35 40  1  0
 36 37  1  0
 37 38  1  0
 38 39  1  0
 39 40  1  0
M  END