
  SciTegic01201417202D

147149  0  0  0  0            999 V2000
   14.6623  -26.0289    0.0000 C   0  0
   14.2540  -25.3164    0.0000 C   0  0  2  0  0  0
   13.8412  -26.0263    0.0000 C   0  0
    6.0875  -26.0289    0.0000 C   0  0
    5.6791  -25.3164    0.0000 C   0  0  2  0  0  0
    5.2662  -26.0263    0.0000 C   0  0
   -5.0375  -24.4106    0.0000 N   0  0
   -4.3608  -23.9458    0.0000 C   0  0  2  0  0  0
   -3.5575  -25.1264    0.0000 O   0  0
   -3.6125  -24.3037    0.0000 C   0  0
   -4.4241  -23.1231    0.0000 C   0  0
   -3.7391  -22.6583    0.0000 C   0  0
   -3.8023  -21.8356    0.0000 C   0  0
   -3.1173  -21.3709    0.0000 O   0  0
   -4.5423  -21.4778    0.0000 O   0  0
   -2.9358  -23.8389    0.0000 N   0  0
   -2.1958  -24.1968    0.0000 C   0  0  2  0  0  0
   -1.5740  -22.9093    0.0000 O   0  0
   -1.5107  -23.7320    0.0000 C   0  0
   -2.1325  -25.0194    0.0000 C   0  0
   -1.3842  -25.3773    0.0000 C   0  0
   -1.3209  -26.2000    0.0000 C   0  0
   -0.5809  -26.5579    0.0000 O   0  0
   -2.0060  -26.6648    0.0000 O   0  0
   -0.7707  -24.0899    0.0000 N   0  0
   -0.0857  -23.6251    0.0000 C   0  0  2  0  0  0
    1.3439  -23.5182    0.0000 O   0  0
    0.6624  -23.9829    0.0000 C   0  0
   -0.1490  -22.8024    0.0000 C   0  0
    0.5389  -22.3376    0.0000 C   0  0
    1.2822  -22.6955    0.0000 O   0  0
    0.4772  -21.5149    0.0000 N   0  0
    0.7240  -24.8056    0.0000 N   0  0
    1.3731  -25.2801    0.0000 C   0  0  2  0  0  0
    2.1089  -24.0821    0.0000 O   0  0
    2.1089  -24.9071    0.0000 C   0  0
    1.3722  -26.1113    0.0000 C   0  0
    0.0855  -25.4386    0.0000 C   0  0
    0.4845  -26.2423    0.0000 C   0  0
    2.8234  -25.3196    0.0000 N   0  0
    3.5378  -24.9071    0.0000 C   0  0  2  0  0  0
    4.2523  -26.1446    0.0000 O   0  0
    4.2523  -25.3196    0.0000 C   0  0
    3.5378  -24.0821    0.0000 C   0  0
    4.2523  -23.6696    0.0000 C   0  0
    4.2523  -22.8446    0.0000 C   0  0
    4.9668  -22.4321    0.0000 O   0  0
    3.5378  -22.4321    0.0000 O   0  0
    4.9668  -24.9071    0.0000 N   0  0
    6.3957  -24.0821    0.0000 O   0  0
    6.3957  -24.9071    0.0000 C   0  0
    7.1101  -25.3196    0.0000 N   0  0
    7.8246  -24.9071    0.0000 C   0  0  2  0  0  0
    8.5390  -26.1446    0.0000 O   0  0
    8.5390  -25.3196    0.0000 C   0  0
    7.8246  -24.0821    0.0000 C   0  0  1  0  0  0
    8.5390  -23.6696    0.0000 C   0  0
    7.1101  -23.6696    0.0000 C   0  0
    7.1101  -22.8446    0.0000 C   0  0
    9.2535  -24.9071    0.0000 N   0  0
    9.9679  -25.3196    0.0000 C   0  0  2  0  0  0
   10.6825  -24.0821    0.0000 O   0  0
   10.6825  -24.9071    0.0000 C   0  0
    9.9679  -26.1446    0.0000 C   0  0
   10.6825  -26.5571    0.0000 C   0  0
   10.6825  -27.3821    0.0000 C   0  0
   11.3970  -26.1446    0.0000 C   0  0
   11.3970  -25.3196    0.0000 N   0  0
   12.1114  -24.9071    0.0000 C   0  0  2  0  0  0
   12.8259  -26.1446    0.0000 O   0  0
   12.8259  -25.3196    0.0000 C   0  0
   12.1114  -24.0821    0.0000 C   0  0
   12.8259  -23.6696    0.0000 C   0  0
   12.8259  -22.8446    0.0000 O   0  0
   13.5403  -24.0821    0.0000 O   0  0
   13.5403  -24.9071    0.0000 N   0  0
   14.9692  -24.0821    0.0000 O   0  0
   14.9692  -24.9071    0.0000 C   0  0
   15.6837  -25.3196    0.0000 N   0  0
   16.3981  -24.9071    0.0000 C   0  0  2  0  0  0
   17.1126  -26.1446    0.0000 O   0  0
   17.1126  -25.3196    0.0000 C   0  0
   16.3981  -24.0821    0.0000 C   0  0
   17.1986  -22.8511    0.0000 N   0  0
   18.0035  -22.6801    0.0000 C   0  0
   18.4150  -23.3928    0.0000 N   0  0
   17.8644  -24.0042    0.0000 C   0  0
   17.1126  -23.6696    0.0000 C   0  0
   17.8270  -24.9071    0.0000 N   0  0
   18.5415  -25.3196    0.0000 C   0  0  2  0  0  0
   19.2561  -24.0821    0.0000 O   0  0
   19.2561  -24.9071    0.0000 C   0  0
   18.5415  -26.1446    0.0000 C   0  0
   19.2561  -26.5571    0.0000 C   0  0
   17.8270  -26.5571    0.0000 C   0  0
   19.9705  -25.3196    0.0000 N   0  0
   20.6850  -24.9071    0.0000 C   0  0  2  0  0  0
   21.3994  -26.1446    0.0000 O   0  0
   21.3994  -25.3196    0.0000 C   0  0
   20.6850  -24.0821    0.0000 C   0  0
   21.3994  -23.6696    0.0000 C   0  0
   21.3994  -22.8446    0.0000 C   0  0
   22.1139  -22.4321    0.0000 O   0  0
   20.6850  -22.4321    0.0000 N   0  0
   24.2572  -27.7946    0.0000 N   0  0
   24.2572  -28.6195    0.0000 C   0  0
   23.5428  -29.0320    0.0000 N   0  0
   24.9717  -29.0320    0.0000 N   0  0
   22.1139  -24.9071    0.0000 N   0  0
   22.8283  -25.3196    0.0000 C   0  0  2  0  0  0
   23.5428  -24.0821    0.0000 O   0  0
   23.5428  -24.9071    0.0000 C   0  0
   22.8283  -26.1446    0.0000 C   0  0
   23.5428  -26.5571    0.0000 C   0  0
   23.5428  -27.3821    0.0000 C   0  0
   24.2572  -25.3196    0.0000 N   0  0
   24.9717  -24.9071    0.0000 C   0  0  2  0  0  0
   25.6862  -26.1446    0.0000 O   0  0
   25.6862  -25.3196    0.0000 C   0  0
   24.9717  -24.0821    0.0000 C   0  0
   25.6862  -23.6696    0.0000 C   0  0
   24.2572  -23.6696    0.0000 C   0  0
   26.4006  -24.9071    0.0000 N   0  0
   27.1151  -25.3196    0.0000 C   0  0  2  0  0  0
   27.8296  -24.0821    0.0000 O   0  0
   27.8296  -24.9071    0.0000 C   0  0
   27.1151  -26.1446    0.0000 C   0  0
   27.8296  -26.5571    0.0000 C   0  0
   27.8296  -27.3821    0.0000 S   0  0
   28.5441  -27.7946    0.0000 C   0  0
   28.5441  -25.3196    0.0000 N   0  0
   29.2585  -24.9071    0.0000 C   0  0  2  0  0  0
   29.9730  -26.1446    0.0000 O   0  0
   29.9730  -25.3196    0.0000 C   0  0
   29.2585  -24.0821    0.0000 C   0  0
   29.9730  -23.6696    0.0000 C   0  0
   29.9730  -22.8446    0.0000 C   0  0
   30.6874  -22.4321    0.0000 C   0  0
   30.6874  -21.6071    0.0000 N   0  0
   30.6874  -24.9071    0.0000 O   0  0
    5.6726  -26.7420    0.0000 C   0  0
    6.0829  -27.4578    0.0000 C   0  0
   14.2476  -26.7420    0.0000 C   0  0
   14.6578  -27.4578    0.0000 C   0  0
    5.6681  -28.1709    0.0000 C   0  0
    6.0783  -28.8867    0.0000 C   0  0
    7.1101  -24.4946    0.0000 H   0  0
  2  1  1  0
  2  3  1  1
  5  4  1  0
  5  6  1  1
 10 16  1  0
 19 25  1  0
 28 33  1  0
 36 40  1  0
 43 49  1  0
 51 52  1  0
 55 60  1  0
 63 68  1  0
 71 76  1  0
 78 79  1  0
 82 89  1  0
 92 96  1  0
 99109  1  0
112116  1  0
119123  1  0
126131  1  0
134140  1  0
  7  8  1  0
  8 10  1  0
 10  9  2  0
  8 11  1  1
 11 12  1  0
 12 13  1  0
 13 14  2  0
 13 15  1  0
 16 17  1  0
 17 19  1  0
 19 18  2  0
 17 20  1  6
 20 21  1  0
 21 22  1  0
 22 23  2  0
 22 24  1  0
 25 26  1  0
 26 28  1  0
 28 27  2  0
 26 29  1  1
 29 30  1  0
 30 31  2  0
 30 32  1  0
 33 34  1  0
 34 36  1  6
 36 35  2  0
 34 37  1  0
 38 39  1  0
 39 37  1  0
 38 33  1  0
 40 41  1  0
 41 43  1  0
 43 42  2  0
 41 44  1  1
 44 45  1  0
 45 46  1  0
 46 47  2  0
 46 48  1  0
 49  5  1  0
  5 51  1  0
 51 50  2  0
 53 52  1  0
 53 55  1  0
 55 54  2  0
 53 56  1  0
 56 57  1  6
 56 58  1  0
 58 59  1  0
 60 61  1  0
 61 63  1  0
 63 62  2  0
 61 64  1  6
 64 65  1  0
 65 66  1  0
 65 67  1  0
 68 69  1  0
 69 71  1  0
 71 70  2  0
 69 72  1  1
 72 73  1  0
 73 74  2  0
 73 75  1  0
 76  2  1  0
  2 78  1  0
 78 77  2  0
 79 80  1  0
 80 82  1  0
 82 81  2  0
 80 83  1  1
 83 88  1  0
 84 85  1  0
 85 86  2  0
 86 87  1  0
 87 88  2  0
 88 84  1  0
 89 90  1  0
 90 92  1  0
 92 91  2  0
 90 93  1  6
 93 94  1  0
 93 95  1  0
 96 97  1  0
 97 99  1  0
 99 98  2  0
 97100  1  1
100101  1  0
101102  1  0
102103  2  0
102104  1  0
105106  1  0
106107  1  0
106108  2  0
109110  1  0
110112  1  0
112111  2  0
110113  1  6
113114  1  0
114115  1  0
115105  1  0
116117  1  0
117119  1  0
119118  2  0
117120  1  1
120121  1  0
120122  1  0
123124  1  0
124126  1  0
126125  2  0
124127  1  6
127128  1  0
128129  1  0
129130  1  0
131132  1  0
132134  1  0
134133  2  0
132135  1  1
135136  1  0
136137  1  0
137138  1  0
138139  1  0
  4141  1  0
141142  1  0
  1143  1  0
143144  1  0
142145  1  0
145146  2  0
146144  1  0
 53147  1  6
M  END