
          11280714582D 1   1.00000     0.00000     0

 29 32  0     0  0            999 V2000
    6.9917   -3.5125    0.0000 C   0  0  0  0  0  0           0  0  0
    6.2792   -3.0917    0.0000 C   0  0  0  0  0  0           0  0  0
    5.5625   -4.3292    0.0000 C   0  0  0  0  0  0           0  0  0
    5.5667   -3.5042    0.0000 C   0  0  0  0  0  0           0  0  0
    6.9917   -4.3375    0.0000 C   0  0  0  0  0  0           0  0  0
    6.2667   -4.7417    0.0000 O   0  0  0  0  0  0           0  0  0
   -0.8708   -5.5125    0.0000 N   0  0  3  0  0  0           0  0  0
   -1.5958   -5.9250    0.0000 C   0  0  0  0  0  0           0  0  0
    4.8417   -4.7417    0.0000 C   0  0  0  0  0  0           0  0  0
    0.5625   -4.7042    0.0000 N   0  0  3  0  0  0           0  0  0
    4.8542   -3.0917    0.0000 C   0  0  0  0  0  0           0  0  0
   -2.3000   -5.4917    0.0000 N   0  0  0  0  0  0           0  0  0
    7.7000   -4.7542    0.0000 O   0  0  0  0  0  0           0  0  0
   -0.1625   -5.9292    0.0000 C   0  0  0  0  0  0           0  0  0
   -0.8625   -4.6792    0.0000 C   0  0  0  0  0  0           0  0  0
   -0.1500   -4.2792    0.0000 C   0  0  0  0  0  0           0  0  0
    0.5542   -5.5167    0.0000 C   0  0  0  0  0  0           0  0  0
    4.1375   -4.3167    0.0000 C   0  0  0  0  0  0           0  0  0
    6.2917   -2.2750    0.0000 O   0  0  0  0  0  0           0  0  0
    4.1417   -3.4917    0.0000 C   0  0  0  0  0  0           0  0  0
    1.2792   -4.2917    0.0000 C   0  0  0  0  0  0           0  0  0
    1.9917   -4.7042    0.0000 C   0  0  0  0  0  0           0  0  0
    3.4167   -4.7250    0.0000 O   0  0  0  0  0  0           0  0  0
   -1.5958   -6.7375    0.0000 C   0  0  0  0  0  0           0  0  0
   -3.0208   -5.9042    0.0000 C   0  0  0  0  0  0           0  0  0
    2.7042   -4.3042    0.0000 C   0  0  0  0  0  0           0  0  0
    5.5792   -1.8542    0.0000 C   0  0  0  0  0  0           0  0  0
   -2.3125   -7.1500    0.0000 C   0  0  0  0  0  0           0  0  0
   -3.0208   -6.7292    0.0000 C   0  0  0  0  0  0           0  0  0
  2  1  2  0     0  0
  3  6  1  0     0  0
  4  2  1  0     0  0
  5  1  1  0     0  0
  6  5  1  0     0  0
  7 14  1  0     0  0
  8  7  1  0     0  0
  9  3  1  0     0  0
 10 21  1  0     0  0
 11  4  1  0     0  0
 12  8  2  0     0  0
 13  5  2  0     0  0
 14 17  1  0     0  0
 15 16  1  0     0  0
 16 10  1  0     0  0
 17 10  1  0     0  0
 18  9  2  0     0  0
 19  2  1  0     0  0
 20 11  2  0     0  0
 21 22  1  0     0  0
 22 26  1  0     0  0
 23 18  1  0     0  0
 24  8  1  0     0  0
 25 12  1  0     0  0
 26 23  1  0     0  0
 27 19  1  0     0  0
 28 24  2  0     0  0
 29 28  1  0     0  0
  4  3  2  0     0  0
 20 18  1  0     0  0
 15  7  1  0     0  0
 25 29  2  0     0  0
M  END