
  SciTegic04151115542D

 25 26  0  0  0  0            999 V2000
   -4.9848   -2.4500    0.0000 C   0  0
   -4.9859   -3.2773    0.0000 C   0  0
   -4.2711   -3.6902    0.0000 C   0  0
   -3.5547   -3.2769    0.0000 C   0  0
   -3.5575   -2.4463    0.0000 C   0  0
   -4.2729   -2.0372    0.0000 C   0  0
   -4.2713   -4.5152    0.0000 F   0  0
   -5.7007   -3.6893    0.0000 Cl  0  0
   -2.8446   -2.0311    0.0000 N   0  0
   -2.1286   -2.4409    0.0000 C   0  0
   -1.4157   -2.0258    0.0000 C   0  0
   -2.1255   -3.2659    0.0000 O   0  0
   -0.6997   -2.4356    0.0000 N   0  0
   -1.4188   -1.2008    0.0000 O   0  0
    0.0133   -2.0204    0.0000 C   0  0
    0.7293   -2.4302    0.0000 C   0  0
    1.4422   -2.0150    0.0000 C   0  0
    2.1554   -2.4261    0.0000 C   0  0
    2.8662   -2.0144    0.0000 C   0  0
    2.8674   -1.1891    0.0000 C   0  0
    2.1515   -0.7771    0.0000 C   0  0
    1.4345   -1.1904    0.0000 N   0  0
    0.7182   -0.7811    0.0000 C   0  0
    0.7146    0.0439    0.0000 C   0  0
    0.0055   -1.1967    0.0000 C   0  0
  6  1  1  0
 11 13  1  0
  1  2  2  0
 11 14  2  0
  3  7  1  0
 13 15  1  0
  3  4  2  0
 15 16  1  0
  2  8  1  0
 16 17  1  0
 17 18  1  0
  5  9  1  0
  4  5  1  0
  9 10  1  0
  2  3  1  0
 17 22  1  0
 18 19  1  0
 19 20  1  0
 20 21  1  0
 21 22  1  0
 10 11  1  0
 22 23  1  0
  5  6  2  0
 23 24  1  0
 10 12  2  0
 23 25  1  0
M  END