
  Mrv0541 05211314572D          

 25 26  0  0  0  0            999 V2000
    1.0985   -0.4373    0.0000 C   0  0  0  0  0  0  0  0  0  0  0  0
    0.2735   -0.4365    0.0000 N   0  0  0  0  0  0  0  0  0  0  0  0
    1.5103   -1.1522    0.0000 C   0  0  0  0  0  0  0  0  0  0  0  0
   -3.0026    2.2359    0.0000 N   0  0  0  0  0  0  0  0  0  0  0  0
   -0.1383    0.2784    0.0000 C   0  0  0  0  0  0  0  0  0  0  0  0
   -2.4420    1.7960    0.0000 C   0  0  0  0  0  0  0  0  0  0  0  0
   -2.8629    1.4228    0.0000 C   0  0  0  0  0  0  0  0  0  0  0  0
    2.3353   -1.1530    0.0000 C   0  0  0  0  0  0  0  0  0  0  0  0
   -1.3750    0.9941    0.0000 C   0  0  0  0  0  0  0  0  0  0  0  0
   -1.8912    1.4228    0.0000 C   0  0  0  0  0  0  0  0  0  0  0  0
   -1.5132    1.8115    0.0000 C   0  0  0  0  0  0  0  0  0  0  0  0
   -0.9633    0.2792    0.0000 N   0  0  0  0  0  0  0  0  0  0  0  0
    1.0971   -1.8663    0.0000 C   0  0  0  0  0  0  0  0  0  0  0  0
    2.7471   -1.8679    0.0000 C   0  0  0  0  0  0  0  0  0  0  0  0
    1.5117    0.2767    0.0000 O   0  0  0  0  0  0  0  0  0  0  0  0
    0.2749    0.9924    0.0000 O   0  0  0  0  0  0  0  0  0  0  0  0
   -2.7625    1.0874    0.0000 C   0  0  0  0  0  0  0  0  0  0  0  0
   -3.3828    0.7105    0.0000 C   0  0  0  0  0  0  0  0  0  0  0  0
    2.3339   -2.5820    0.0000 C   0  0  0  0  0  0  0  0  0  0  0  0
    1.5089   -2.5811    0.0000 C   0  0  0  0  0  0  0  0  0  0  0  0
    2.7485   -0.4389    0.0000 O   0  0  0  0  0  0  0  0  0  0  0  0
    2.7457   -3.2968    0.0000 N   0  0  0  0  0  0  0  0  0  0  0  0
   -3.4253    2.9444    0.0000 C   0  0  0  0  0  0  0  0  0  0  0  0
    5.8128    0.0000    0.0000 Cl  0  0  0  0  0  0  0  0  0  0  0  0
    3.5735   -0.4398    0.0000 C   0  0  0  0  0  0  0  0  0  0  0  0
  1  2  1  0  0  0  0
  1  3  1  0  0  0  0
  2  5  1  0  0  0  0
  4  6  1  0  0  0  0
  4  7  1  0  0  0  0
  3  8  2  0  0  0  0
  7 10  1  0  0  0  0
  9 10  1  0  0  0  0
  6 11  1  0  0  0  0
  9 11  1  0  0  0  0
  5 12  1  0  0  0  0
  9 12  1  0  0  0  0
  3 13  1  0  0  0  0
  8 14  1  0  0  0  0
  1 15  2  0  0  0  0
  5 16  2  0  0  0  0
  6 17  1  0  0  0  0
  7 18  1  0  0  0  0
 17 18  1  0  0  0  0
 14 19  2  0  0  0  0
 13 20  2  0  0  0  0
 19 20  1  0  0  0  0
  8 21  1  0  0  0  0
 19 22  1  0  0  0  0
  4 23  1  0  0  0  0
 21 25  1  0  0  0  0
M  END