
  SciTegic04191613082D

178188  0  0  1  0            999 V2000
    8.7767    6.8092    0.0000 C   0  0  2  0  0  0
    9.7832    7.9385    0.0000 C   0  0
    9.3130    9.3638    0.0000 C   0  0
   10.1936   10.5623    0.0000 N   0  0
    9.3041   11.7701    0.0000 C   0  0
    7.8805   11.2972    0.0000 N   0  0
    7.8903    9.7973    0.0000 C   0  0
    7.5687    7.6986    0.0000 N   0  0
    6.2143    8.3433    0.0000 C   0  0
    6.6247    9.4709    0.0000 O   0  0
    4.7624    8.7200    0.0000 C   0  0
    4.6224    7.0122    0.0000 C   0  0
    3.3478    6.2213    0.0000 C   0  0
    5.7594    6.0867    0.0000 C   0  0
    6.8367    5.0429    0.0000 N   0  0
    7.6818    3.8037    0.0000 C   0  0
    8.2601    2.4196    0.0000 C   0  0  1  0  0  0
    9.7084    2.8558    0.0000 C   0  0
   10.5824    2.0335    0.0000 O   0  0
   10.0530    4.3165    0.0000 N   0  0
   11.4901    4.7493    0.0000 C   0  0  1  0  0  0
   11.8347    6.2101    0.0000 C   0  0
   13.2718    6.6429    0.0000 C   0  0
   13.6164    8.1036    0.0000 C   0  0
   15.0535    8.5364    0.0000 C   0  0
   15.3290    9.7044    0.0000 N   0  0
   12.5852    3.7231    0.0000 C   0  0
   13.7339    4.0705    0.0000 O   0  0
   12.3121    2.5546    0.0000 O   0  0
    8.5480    0.9475    0.0000 N   0  0
    8.5336   -0.5524    0.0000 C   0  0
    9.7263   -0.6852    0.0000 O   0  0
    8.2176   -2.0188    0.0000 C   0  0  2  0  0  0
    9.7291   -1.9622    0.0000 C   0  0
   10.4312   -0.6357    0.0000 C   0  0
   10.1174    0.8319    0.0000 C   0  0
   11.5078    1.3968    0.0000 N   0  0
   12.6928    0.4757    0.0000 C   0  0
   13.8046    0.9274    0.0000 N   0  0
   12.5284   -0.7129    0.0000 N   0  0
    7.6129   -3.3915    0.0000 N   0  0
    6.7443   -4.6144    0.0000 C   0  0
    7.6473   -5.4047    0.0000 O   0  0
    5.6473   -5.6374    0.0000 C   0  0  1  0  0  0
    4.3668   -6.4186    0.0000 N   0  0
    2.9552   -6.9261    0.0000 C   0  0
    3.2449   -8.0906    0.0000 O   0  0
    1.4704   -7.1390    0.0000 C   0  0  2  0  0  0
    1.5355   -8.6502    0.0000 C   0  0
    0.2697   -9.4566    0.0000 C   0  0
    0.3343  -10.9561    0.0000 C   0  0
   -0.9315  -11.7625    0.0000 N   0  0
   -0.8669  -13.2619    0.0000 C   0  0
    0.1973  -13.8163    0.0000 N   0  0
   -1.8790  -13.9067    0.0000 N   0  0
   -0.0269   -7.0487    0.0000 N   0  0
   -1.4753   -6.6589    0.0000 C   0  0
   -1.9028   -7.7801    0.0000 O   0  0
   -2.8156   -5.9854    0.0000 C   0  0  2  0  0  0
   -3.6255   -7.2629    0.0000 C   0  0
   -3.4272   -8.7506    0.0000 C   0  0
   -4.6159   -9.6669    0.0000 C   0  0
   -4.4176  -11.1546    0.0000 N   0  0
   -5.6062  -12.0709    0.0000 C   0  0
   -6.7157  -11.6138    0.0000 N   0  0
   -5.4477  -13.2604    0.0000 N   0  0
   -3.9930   -5.0560    0.0000 N   0  0
   -4.9591   -3.9085    0.0000 C   0  0
   -5.9505   -4.5846    0.0000 O   0  0
   -5.6745   -2.5901    0.0000 C   0  0  1  0  0  0
   -6.1098   -1.1547    0.0000 N   0  0
   -6.2473    0.3390    0.0000 C   0  0
   -7.4472    0.3505    0.0000 O   0  0
   -6.0813    1.8298    0.0000 C   0  0  2  0  0  0
   -7.5605    2.1456    0.0000 C   0  0
   -8.5664    1.0317    0.0000 C   0  0
  -10.0338    1.3427    0.0000 C   0  0
  -11.0369    0.2275    0.0000 C   0  0
  -10.5726   -1.1989    0.0000 C   0  0
   -9.1053   -1.5099    0.0000 C   0  0
   -8.1022   -0.3947    0.0000 C   0  0
   -5.6185    3.2566    0.0000 N   0  0
   -4.8781    4.5611    0.0000 C   0  0
   -5.6689    5.4637    0.0000 O   0  0
   -3.0533    5.2994    0.0000 C   0  0  2  0  0  0
   -2.1074    6.4637    0.0000 C   0  0
   -0.9584    7.4278    0.0000 N   0  0
    0.3524    8.1571    0.0000 C   0  0
    1.7775    8.6252    0.0000 C   0  0
    3.2654    8.8151    0.0000 C   0  0
    2.0256    6.9298    0.0000 C   0  0
   -0.1287    9.2565    0.0000 O   0  0
   -3.7617    3.9773    0.0000 N   0  0
   -4.2070    2.5449    0.0000 C   0  0
   -5.3816    2.7907    0.0000 O   0  0
   -4.3733    1.0541    0.0000 C   0  0  1  0  0  0
   -5.5731    1.0732    0.0000 C   0  0
   -4.2544   -0.4411    0.0000 N   0  0
   -3.8547   -1.8869    0.0000 C   0  0
   -4.9757   -2.3152    0.0000 O   0  0
   -3.1886   -3.2309    0.0000 C   0  0  2  0  0  0
   -4.2083   -3.8636    0.0000 C   0  0
   -2.2802   -4.4245    0.0000 N   0  0
   -1.1623   -5.4247    0.0000 C   0  0
   -1.8738   -6.3910    0.0000 O   0  0
    0.1247   -6.1952    0.0000 C   0  0  2  0  0  0
   -0.0220   -7.7008    0.0000 C   0  0
   -1.3880   -8.3225    0.0000 C   0  0
   -1.5336   -9.8162    0.0000 C   0  0
   -2.8996  -10.4379    0.0000 N   0  0
   -3.0452  -11.9317    0.0000 C   0  0
   -4.1374  -12.4287    0.0000 N   0  0
   -2.0688  -12.6293    0.0000 N   0  0
    1.5342   -6.7082    0.0000 N   0  0
    3.0154   -6.9452    0.0000 C   0  0
    2.9393   -8.1428    0.0000 O   0  0
    4.5146   -6.8976    0.0000 C   0  0  2  0  0  0
    5.2052   -8.2435    0.0000 C   0  0
    4.3922   -9.5050    0.0000 C   0  0
    5.4886  -10.5251    0.0000 C   0  0
    5.1400  -11.9973    0.0000 C   0  0
    3.7085  -12.4353    0.0000 C   0  0
    2.6131  -11.4145    0.0000 C   0  0
    1.1816  -11.8526    0.0000 C   0  0
    0.8454  -13.3114    0.0000 C   0  0
    1.9408  -14.3322    0.0000 C   0  0
    3.3723  -13.8941    0.0000 C   0  0
    2.9492   -9.9557    0.0000 C   0  0
    5.9778   -6.5672    0.0000 N   0  0
    7.3519   -5.9658    0.0000 C   0  0
    7.9354   -7.0144    0.0000 O   0  0
    8.5875   -5.1152    0.0000 C   0  0  2  0  0  0
    9.6397   -4.0461    0.0000 N   0  0
   10.4705   -2.7973    0.0000 C   0  0
   11.5283   -3.3640    0.0000 O   0  0
   11.0501   -1.4137    0.0000 C   0  0  2  0  0  0
   11.3573    0.0545    0.0000 N   0  0
   11.3811    1.5543    0.0000 C   0  0
   12.5773    1.6494    0.0000 O   0  0
   11.1206    3.0315    0.0000 C   0  0  1  0  0  0
   10.5853    4.4327    0.0000 N   0  0
    9.7944    5.7073    0.0000 C   0  0
   10.7493    6.4340    0.0000 O   0  0
   12.5671    3.4314    0.0000 C   0  0
   12.5092    4.9549    0.0000 C   0  0
   13.7728    5.7631    0.0000 C   0  0
   15.1046    5.0728    0.0000 C   0  0
   15.1727    3.5744    0.0000 C   0  0
   13.9090    2.7662    0.0000 C   0  0
   12.2521   -2.3322    0.0000 C   0  0  1  0  0  0
   12.0986   -3.5223    0.0000 O   0  0
   13.3597   -1.8704    0.0000 C   0  0
   11.0988   -4.4299    0.0000 C   0  0
   11.4985   -5.8757    0.0000 C   0  0
   10.4463   -6.9447    0.0000 C   0  0
    8.9943   -6.5680    0.0000 C   0  0
   -7.0690   -3.1760    0.0000 C   0  0
   -7.2583   -4.6648    0.0000 C   0  0
   -8.6380   -5.2471    0.0000 C   0  0
   -8.8152   -6.7496    0.0000 C   0  0
   -7.6206   -7.6519    0.0000 C   0  0
   -6.2416   -7.0685    0.0000 C   0  0
   -6.0573   -5.5828    0.0000 C   0  0
   -5.0470   -7.9708    0.0000 C   0  0
   -5.2314   -9.4564    0.0000 C   0  0
   -6.6103  -10.0398    0.0000 C   0  0
   -7.8049   -9.1376    0.0000 C   0  0
    6.5640   -6.8405    0.0000 C   0  0
    5.9858   -8.2255    0.0000 C   0  0
    6.8953   -9.4193    0.0000 C   0  0
    6.3171  -10.8043    0.0000 N   0  0
    7.2267  -11.9981    0.0000 C   0  0
    6.7643  -13.1054    0.0000 N   0  0
    8.4169  -11.8451    0.0000 N   0  0
    6.2407    7.1860    0.0000 O   0  0
   11.9874   -1.0652    0.0000 H   0  0
    8.2470   -6.0554    0.0000 H   0  0
   -3.7973    4.6313    0.0000 H   0  0
  1  2  1  1
  2  3  1  0
  4  3  1  0
  5  4  1  0
  6  5  2  0
  7  6  1  0
  3  7  2  0
  8  1  1  0
  8  9  1  0
  9 10  2  0
  9 11  1  0
 11 12  2  0
 12 13  1  0
 13 14  1  0
 14 15  1  0
 15 16  1  0
 17 16  1  0
 17 18  1  1
 18 19  2  0
 18 20  1  0
 21 20  1  1
 21 22  1  0
 22 23  1  0
 23 24  1  0
 24 25  1  0
 25 26  1  0
 21 27  1  0
 27 28  2  0
 27 29  1  0
 17 30  1  0
 30 31  1  0
 31 32  2  0
 31 33  1  0
 33 34  1  6
 34 35  1  0
 35 36  1  0
 36 37  1  0
 37 38  1  0
 38 39  2  0
 38 40  1  0
 33 41  1  0
 41 42  1  0
 42 43  2  0
 42 44  1  0
 44 45  1  0
 46 45  1  0
 46 47  2  0
 48 46  1  0
 48 49  1  6
 49 50  1  0
 50 51  1  0
 51 52  1  0
 52 53  1  0
 53 54  1  0
 53 55  2  0
 56 48  1  0
 57 56  1  0
 57 58  2  0
 59 57  1  0
 59 60  1  6
 60 61  1  0
 61 62  1  0
 62 63  1  0
 63 64  1  0
 64 65  1  0
 64 66  2  0
 67 59  1  0
 68 67  1  0
 68 69  2  0
 70 68  1  0
 71 70  1  0
 72 71  1  0
 72 73  2  0
 74 72  1  0
 74 75  1  6
 75 76  1  0
 77 76  1  0
 78 77  2  0
 79 78  1  0
 80 79  2  0
 81 80  1  0
 76 81  2  0
 82 74  1  0
 83 82  1  0
 83 84  2  0
 85 83  1  0
 85 86  1  0
 86 87  1  0
 88 87  1  0
 89 88  1  0
 89 90  2  0
 90 11  1  0
 91 89  1  0
 13 91  2  0
 88 92  2  0
 93 85  1  0
 94 93  1  0
 94 95  2  0
 96 94  1  0
 96 97  1  6
 98 96  1  0
 99 98  1  0
 99100  2  0
101 99  1  0
101102  1  1
103101  1  0
104103  1  0
104105  2  0
106104  1  0
106107  1  1
107108  1  0
108109  1  0
109110  1  0
110111  1  0
111112  2  0
111113  1  0
114106  1  0
115114  1  0
115116  2  0
117115  1  0
117118  1  1
118119  1  0
120119  1  0
121120  2  0
122121  1  0
122123  1  0
123124  2  0
124125  1  0
125126  2  0
126127  1  0
127122  2  0
128123  1  0
119128  2  0
117129  1  0
129130  1  0
130131  2  0
132130  1  0
132133  1  0
133134  1  0
134135  2  0
136134  1  0
136137  1  0
137138  1  0
138139  2  0
140138  1  0
140141  1  0
141142  1  0
  1142  1  0
142143  2  0
140144  1  1
145144  1  0
146145  2  0
147146  1  0
148147  2  0
149148  1  0
144149  2  0
136150  1  0
150151  1  6
150152  1  0
153133  1  0
154153  1  0
155154  1  0
156155  1  0
132156  1  0
 70157  1  6
157158  1  0
159158  1  0
160159  2  0
161160  1  0
161162  1  0
163162  1  0
158163  2  0
162164  2  0
164165  1  0
165166  2  0
166167  1  0
167161  2  0
 44168  1  6
168169  1  0
169170  1  0
170171  1  0
171172  1  0
172173  2  0
172174  1  0
 14175  2  0
136176  1  1
132177  1  1
 85178  1  1
M  END