
  SciTegic06011109532D

180188  0  0  0  0            999 V2000
   -2.5338   -0.9377    0.0000 C   0  0  2  0  0  0
   -1.8136    0.3041    0.0000 O   0  0
   -1.8136   -0.5252    0.0000 C   0  0
   -2.5338   -1.7670    0.0000 C   0  0
   -1.8136   -2.1796    0.0000 C   0  0
   -1.8136   -3.0088    0.0000 O   0  0
   -0.3846   -0.5262    0.0000 C   0  0  1  0  0  0
    0.3314   -1.7680    0.0000 O   0  0
   -0.3846    0.3031    0.0000 C   0  0
    0.3314   -0.9387    0.0000 C   0  0
    1.7621   -0.9369    0.0000 C   0  0  1  0  0  0
    2.4780    0.3050    0.0000 O   0  0
    1.7621   -1.7662    0.0000 C   0  0
    2.4780   -0.5243    0.0000 C   0  0
    3.1924   -0.9372    0.0000 N   0  0
    8.8751   -5.9476    0.0000 C   0  0  1  0  0  0
    8.1653   -4.7078    0.0000 O   0  0
    8.1653   -5.5287    0.0000 C   0  0
    8.8751   -6.7686    0.0000 C   0  0  1  0  0  0
    8.1653   -7.1832    0.0000 C   0  0
    6.7313   -5.5287    0.0000 C   0  0  2  0  0  0
    6.0132   -5.9476    0.0000 C   0  0
    5.3129   -2.1782    0.0000 C   0  0  2  0  0  0
    6.0363   -0.9428    0.0000 O   0  0
    6.0390   -1.7633    0.0000 C   0  0
    5.3233   -2.9983    0.0000 C   0  0
    7.4607   -1.7558    0.0000 C   0  0  2  0  0  0
    8.1784   -2.9858    0.0000 O   0  0
    8.1788   -2.1612    0.0000 C   0  0
    7.4579   -0.9361    0.0000 C   0  0
    6.7408   -0.5220    0.0000 C   0  0
   11.0150   -4.7101    0.0000 C   0  0
   11.0150   -5.5329    0.0000 C   0  0  1  0  0  0
   10.3348   -1.7615    0.0000 C   0  0
    9.6031   -2.1711    0.0000 C   0  0  2  0  0  0
    9.5990   -3.0016    0.0000 C   0  0
   10.3157   -3.4315    0.0000 S   0  0
   10.3111   -4.2712    0.0000 S   0  0
   13.1512   -1.8139    0.0000 C   0  0
   11.7386   -0.9749    0.0000 C   0  0
   11.0189   -0.5524    0.0000 C   0  0  2  0  0  0
   10.2982   -5.9476    0.0000 C   0  0
   10.2978   -6.7639    0.0000 O   0  0
   11.0548   -2.1602    0.0000 O   0  0
   13.1599   -0.9945    0.0000 C   0  0  2  0  0  0
   11.0308    0.2679    0.0000 C   0  0
   11.7289   -1.7984    0.0000 O   0  0
   13.8672   -0.5927    0.0000 C   0  0
   13.8842    0.2317    0.0000 C   0  0
   12.4325   -2.2174    0.0000 O   0  0
   11.7196   -6.7748    0.0000 C   0  0
   11.0101   -7.1816    0.0000 O   0  0
   12.4299   -7.1839    0.0000 C   0  0  2  0  0  0
   12.4253   -8.0138    0.0000 C   0  0
   11.7057   -8.4235    0.0000 C   0  0
   13.8486   -7.1925    0.0000 C   0  0
   13.8453   -8.0162    0.0000 O   0  0
   13.8528   -5.5609    0.0000 C   0  0
   13.8514   -4.7365    0.0000 C   0  0  2  0  0  0
   13.1481   -5.9691    0.0000 O   0  0
   14.5610   -3.4962    0.0000 C   0  0
   13.8437   -3.0925    0.0000 O   0  0
   15.2720   -3.0795    0.0000 C   0  0  2  0  0  0
   15.9816   -1.8477    0.0000 C   0  0
   15.9740   -1.0178    0.0000 C   0  0  1  0  0  0
   16.6905   -2.2513    0.0000 O   0  0
   16.6870   -0.6011    0.0000 C   0  0  2  0  0  0
    7.4474   -5.9476    0.0000 N   0  0
   15.9851   -3.4930    0.0000 C   0  0
   10.9578   -8.0855    0.0000 C   0  0
   10.4043   -8.6962    0.0000 N   0  0
   10.8139   -9.4118    0.0000 C   0  0
   14.5726   -5.9633    0.0000 N   0  0
   14.5697   -6.7837    0.0000 C   0  0  1  0  0  0
   15.3491   -7.0380    0.0000 C   0  0
   15.8335   -6.3780    0.0000 C   0  0
   15.3538   -5.7105    0.0000 C   0  0
   14.5627   -7.6039    0.0000 H   0  0
   13.1406   -4.3295    0.0000 C   0  0
   12.4278   -4.7434    0.0000 C   0  0
   11.7129   -4.3364    0.0000 C   0  0
   12.4301   -5.5684    0.0000 C   0  0
   15.9793   -4.3180    0.0000 C   0  0
   17.4010   -1.0099    0.0000 C   0  0
   16.6826    0.2199    0.0000 C   0  0
   10.3230    0.6901    0.0000 C   0  0
    4.6148   -3.4194    0.0000 C   0  0
    4.6179   -0.9480    0.0000 C   0  0
    3.9052   -0.5297    0.0000 C   0  0  2  0  0  0
    5.3330   -0.5370    0.0000 O   0  0
    3.9118    0.2912    0.0000 C   0  0
    8.1680   -0.5208    0.0000 C   0  0
    6.7297   -4.7078    0.0000 C   0  0
    6.0130   -4.2966    0.0000 C   0  0
    4.6269    0.6980    0.0000 C   0  0
    5.3351    0.2819    0.0000 C   0  0
    6.0494    0.6919    0.0000 C   0  0
    6.0567    1.5141    0.0000 C   0  0
    5.3406    1.9280    0.0000 C   0  0
    4.6265    1.5186    0.0000 C   0  0
    3.8957   -3.0154    0.0000 C   0  0
    3.8894   -2.1945    0.0000 O   0  0
   10.2485    1.5048    0.0000 C   0  0
    9.4459    1.6888    0.0000 N   0  0
    9.0235    0.9809    0.0000 C   0  0
   14.5966    0.6281    0.0000 C   0  0
   14.6058    1.4513    0.0000 C   0  0
   13.9023    1.8712    0.0000 C   0  0
   13.1831    1.4671    0.0000 C   0  0
   13.1751    0.6458    0.0000 C   0  0
   18.1147   -0.5977    0.0000 C   0  0
   15.5591   -0.3004    0.0000 H   0  0
   16.6881   -4.7314    0.0000 C   0  0
    5.3061   -4.7105    0.0000 C   0  0
    3.8784   -4.7132    0.0000 C   0  0
    5.3034   -5.5388    0.0000 O   0  0
    5.3122   -7.1807    0.0000 C   0  0  1  0  0  0
    4.5940   -6.7720    0.0000 C   0  0
    4.5938   -5.9511    0.0000 O   0  0
    5.3159   -8.0141    0.0000 C   0  0
    4.5948   -8.4341    0.0000 C   0  0
    3.8709   -8.0188    0.0000 C   0  0
    3.1546   -8.4380    0.0000 C   0  0
    3.1578   -9.2723    0.0000 C   0  0
    3.8833   -9.6856    0.0000 C   0  0
    4.6009   -9.2641    0.0000 C   0  0
    2.4373   -9.6931    0.0000 O   0  0
    9.5880   -5.5369    0.0000 N   0  0
    4.6154   -1.7689    0.0000 N   0  0
    6.7407   -2.1674    0.0000 N   0  0
   11.7221   -5.9511    0.0000 N   0  0
   10.3041   -0.9680    0.0000 N   0  0
   12.4499   -0.5699    0.0000 N   0  0
   13.1478   -6.7812    0.0000 N   0  0
   14.5687   -4.3165    0.0000 N   0  0
   15.2871   -2.2498    0.0000 N   0  0
   13.8624   -2.2325    0.0000 N   0  0
    8.8959   -1.7593    0.0000 N   0  0
   11.6226   -9.2432    0.0000 N   0  0
    3.1956   -3.4364    0.0000 O   0  0
    9.5648    0.3622    0.0000 N   0  0
   13.9135    2.6961    0.0000 O   0  0
    9.5880   -7.1792    0.0000 O   0  0
    4.5935   -4.2994    0.0000 N   0  0
    3.1700   -4.3021    0.0000 N   0  0
    3.8799   -5.5342    0.0000 N   0  0
    6.0176   -6.7685    0.0000 N   0  0
    3.8803   -7.1883    0.0000 N   0  0
   16.6860   -5.5648    0.0000 C   0  0
   17.4079   -5.9834    0.0000 N   0  0
   18.1318   -5.5684    0.0000 C   0  0
   18.8537   -5.9869    0.0000 C   0  0
   18.1339   -4.7349    0.0000 O   0  0
   19.5735   -5.5720    0.0000 O   0  0
   20.2953   -5.9905    0.0000 C   0  0
   21.0193   -5.5755    0.0000 C   0  0
   21.7410   -5.9941    0.0000 N   0  0
   21.0213   -4.7421    0.0000 O   0  0
   22.4608   -5.5791    0.0000 C   0  0
   23.1815   -6.0008    0.0000 C   0  0
   23.9049   -5.5865    0.0000 C   0  0
   23.9075   -4.7522    0.0000 C   0  0
   23.1806   -4.3339    0.0000 C   0  0
   22.4601   -4.7504    0.0000 C   0  0
   24.6308   -4.3363    0.0000 C   0  0
   25.3491   -4.7538    0.0000 C   0  0
   26.0724   -4.3380    0.0000 C   0  0
   26.7948   -4.7555    0.0000 N   0  0
   26.0733   -3.5046    0.0000 O   0  0
   27.0062   -5.5591    0.0000 C   0  0
   27.8117   -5.3423    0.0000 C   0  0
   27.5990   -4.5367    0.0000 C   0  0
   28.0156   -3.8179    0.0000 O   0  0
   -3.9628   -0.9408    0.0000 C   0  0
   -4.6777   -0.5288    0.0000 C   0  0
   -3.9621   -1.7659    0.0000 O   0  0
   -3.2492   -0.5268    0.0000 N   0  0
   -1.0999   -1.7670    0.0000 O   0  0
   -1.0994   -0.9381    0.0000 N   0  0
    1.0462   -0.5268    0.0000 N   0  0
131 51  1  0
 51 52  2  0
 51 53  1  0
 53 54  1  1
 53134  1  0
 54 55  1  0
134 56  1  0
 74 56  1  0
 56 57  2  0
 73 58  1  0
 58 59  1  0
 58 60  2  0
 59135  1  0
135 61  1  0
 61 62  2  0
 61 63  1  0
 63136  1  0
136 64  1  0
 64 65  1  0
 64 66  2  0
 65 67  1  0
 65137  1  0
 42128  1  0
 63 69  1  1
 55 70  2  0
 70 71  1  0
 71 72  2  0
 72139  1  0
139 55  1  0
 73 74  1  0
 74 75  1  0
 75 76  1  0
 76 77  1  0
 77 73  1  0
 74 78  1  6
 59 79  1  6
 79 80  1  0
 80 81  1  0
 80 82  1  0
 69 83  1  0
 67 84  1  0
 67 85  1  1
 46 86  1  0
 26 87  1  0
129 88  1  0
 88 89  1  0
 88 90  2  0
 89 91  1  1
 89 15  1  0
 30 92  1  0
 21 93  1  1
 93 94  1  0
 91 95  1  0
 95 96  2  0
 96 97  1  0
 97 98  2  0
 98 99  1  0
 99100  2  0
100 95  1  0
 87101  1  0
101140  1  0
101102  2  0
 86103  2  0
103104  1  0
104105  2  0
105141  1  0
141 86  1  0
 49106  2  0
106107  1  0
107108  2  0
108109  1  0
109110  2  0
110 49  1  0
108142  1  0
 84111  1  0
 65112  1  6
 83113  1  0
 19143  1  6
 94114  1  0
114144  1  0
144115  1  0
115145  1  0
115146  2  0
 22116  2  0
 22147  1  0
147117  1  0
117118  1  0
118119  2  0
118148  1  0
117120  1  6
  7 10  1  0
120121  1  0
 10  8  2  0
121122  2  0
  7  9  1  1
122123  1  0
123124  2  0
 11 14  1  0
124125  1  0
 14 12  2  0
125126  2  0
126121  1  0
 11 13  1  6
124127  1  0
 14 15  1  0
  1  3  1  0
  3  2  2  0
  1  4  1  6
  4  5  1  0
  5  6  2  0
 18 68  1  0
 16 18  1  6
 18 17  2  0
 16 19  1  0
 19 20  1  0
 68 21  1  0
 21 22  1  0
 16128  1  0
 23 25  1  0
 25 24  2  0
 23 26  1  6
113149  1  0
 27 29  1  0
149150  1  0
 29 28  2  0
150151  1  0
 27 30  1  0
151152  1  0
 30 31  1  0
151153  2  0
 25130  1  0
152154  1  0
 27130  1  1
154155  1  0
129 23  1  0
155156  1  0
 32 33  1  0
156157  1  0
 33131  1  0
156158  2  0
 34 35  1  0
157159  1  0
 35 36  1  0
159160  2  0
 36 37  1  0
160161  1  0
 38 37  1  0
161162  2  0
 39137  1  0
162163  1  0
133 40  1  0
163164  2  0
164159  1  0
 39 45  1  0
162165  1  0
 41132  1  0
165166  1  0
 40 41  1  0
166167  1  0
132 34  1  0
167168  1  0
 38 32  1  0
167169  2  0
168170  1  0
 33 42  1  6
 42 43  2  0
 35138  1  6
170171  1  0
171172  1  0
172168  1  0
138 29  1  0
172173  2  0
 34 44  2  0
133 45  1  0
174175  1  0
 41 46  1  1
174176  2  0
 40 47  2  0
 45 48  1  1
 48 49  1  0
 39 50  2  0
177  1  1  0
177174  1  0
  5178  1  0
179  7  1  0
  3179  1  0
180 11  1  0
 10180  1  0
M  END