
          11280714482D 1   1.00000     0.00000     0

 26 27  0     0  0            999 V2000
    3.9625   -2.1167    0.0000 C   0  0  3  0  0  0           0  0  0
    6.8292   -2.1250    0.0000 C   0  0  0  0  0  0           0  0  0
    6.1125   -1.7042    0.0000 C   0  0  0  0  0  0           0  0  0
    4.6792   -1.7042    0.0000 C   0  0  0  0  0  0           0  0  0
    5.4000   -2.1167    0.0000 C   0  0  0  0  0  0           0  0  0
    7.5417   -1.7125    0.0000 C   0  0  0  0  0  0           0  0  0
    6.8292   -2.9542    0.0000 N   0  0  0  0  0  0           0  0  0
    4.6917   -6.6792    0.0000 C   0  0  0  0  0  0           0  0  0
    8.9750   -1.7125    0.0000 N   0  0  0  0  0  0           0  0  0
    3.9792   -7.0917    0.0000 O   0  0  0  0  0  0           0  0  0
    3.2417   -2.5292    0.0000 F   0  0  0  0  0  0           0  0  0
    4.3750   -2.8417    0.0000 F   0  0  0  0  0  0           0  0  0
    3.5500   -1.4000    0.0000 F   0  0  0  0  0  0           0  0  0
    5.4125   -7.0917    0.0000 O   0  0  0  0  0  0           0  0  0
    6.1167   -3.3667    0.0000 O   0  0  0  0  0  0           0  0  0
    8.2542   -2.1250    0.0000 C   0  0  0  0  0  0           0  0  0
    6.1125   -0.8792    0.0000 C   0  0  0  0  0  0           0  0  0
    4.6792   -0.8792    0.0000 C   0  0  0  0  0  0           0  0  0
    5.4000   -0.4667    0.0000 C   0  0  0  0  0  0           0  0  0
    7.5417   -0.8792    0.0000 C   0  0  0  0  0  0           0  0  0
    4.6917   -5.8500    0.0000 C   0  0  0  0  0  0           0  0  0
    8.9750   -0.8792    0.0000 C   0  0  0  0  0  0           0  0  0
    6.1167   -4.1917    0.0000 C   0  0  0  0  0  0           0  0  0
    5.4042   -5.4375    0.0000 C   0  0  0  0  0  0           0  0  0
    5.4042   -4.6042    0.0000 C   0  0  0  0  0  0           0  0  0
    8.2542   -0.4667    0.0000 C   0  0  0  0  0  0           0  0  0
  2  3  1  0     0  0
  3  5  1  0     0  0
  4  1  1  0     0  0
  5  4  2  0     0  0
  6  2  1  0     0  0
  7  2  2  0     0  0
  8 21  1  0     0  0
  9 16  2  0     0  0
 10  8  2  0     0  0
 11  1  1  0     0  0
 12  1  1  0     0  0
 13  1  1  0     0  0
 14  8  1  0     0  0
 15  7  1  0     0  0
 16  6  1  0     0  0
 17 19  1  0     0  0
 18  4  1  0     0  0
 19 18  2  0     0  0
 20  6  2  0     0  0
 21 24  1  0     0  0
 22 26  2  0     0  0
 23 15  1  0     0  0
 24 25  1  0     0  0
 25 23  1  0     0  0
 26 20  1  0     0  0
 17  3  2  0     0  0
 22  9  1  0     0  0
M  END