
  SciTegic01061111512D

 21 22  0  0  0  0            999 V2000
    2.2311    2.5214    0.0000 C   0  0  2  0  0  0
    2.2311    1.6962    0.0000 C   0  0  1  0  0  0
    2.9398    1.2856    0.0000 C   0  0  1  0  0  0
    3.6526    1.6962    0.0000 C   0  0  2  0  0  0
    3.6526    2.5214    0.0000 C   0  0  1  0  0  0
    2.9398    2.9361    0.0000 O   0  0
    4.3690    2.9298    0.0000 S   0  0
    5.0830    2.5172    0.0000 C   0  0
    4.3672    1.2804    0.0000 O   0  0
    2.9398    0.4603    0.0000 N   0  0
    2.2788   -0.0199    0.0000 N   0  0
    2.5325   -0.8050    0.0000 N   0  0
    3.3578   -0.8050    0.0000 C   0  0
    3.6114   -0.0199    0.0000 C   0  0
    1.5164    1.2804    0.0000 O   0  0
    1.5146    2.9298    0.0000 C   0  0
    1.5122    3.7551    0.0000 O   0  0
    3.8446   -1.4734    0.0000 C   0  0
    3.5066   -2.2276    0.0000 O   0  0
    4.6654   -1.3875    0.0000 O   0  0
    3.9935   -2.8961    0.0000 C   0  0
 10 11  1  0
  3  4  1  0
  4  5  1  0
  5  6  1  0
 11 12  2  0
 12 13  1  0
 13 14  2  0
 14 10  1  0
  5  7  1  1
  2 15  1  1
  1  2  1  0
  1 16  1  1
  7  8  1  0
 16 17  1  0
  1  6  1  0
 13 18  1  0
  4  9  1  6
 18 19  1  0
  2  3  1  0
 18 20  2  0
  3 10  1  1
 19 21  1  0
M  END