
  CDK    9/16/09,9:50

 25 28  0  0  0  0  0  0  0  0999 V2000
   10.4281  -18.8394    0.0000 N   0  0  0  0  0  0  0  0  0  0  0  0
    9.9313  -18.1807    0.0000 C   0  0  0  0  0  0  0  0  0  0  0  0
    9.1513  -18.4498    0.0000 C   0  0  0  0  0  0  0  0  0  0  0  0
    9.1661  -19.2747    0.0000 C   0  0  0  0  0  0  0  0  0  0  0  0
    9.9552  -19.5154    0.0000 N   0  0  0  0  0  0  0  0  0  0  0  0
    8.4372  -18.0348    0.0000 C   0  0  0  0  0  0  0  0  0  0  0  0
    8.4424  -17.2078    0.0000 C   0  0  0  0  0  0  0  0  0  0  0  0
    7.7291  -16.7930    0.0000 C   0  0  0  0  0  0  0  0  0  0  0  0
    7.7259  -18.4453    0.0000 C   0  0  0  0  0  0  0  0  0  0  0  0
    7.0121  -18.0342    0.0000 C   0  0  0  0  0  0  0  0  0  0  0  0
    7.0158  -17.2038    0.0000 C   0  0  0  0  0  0  0  0  0  0  0  0
    6.2273  -16.9436    0.0000 C   0  0  0  0  0  0  0  0  0  0  0  0
    5.7362  -17.6132    0.0000 C   0  0  0  0  0  0  0  0  0  0  0  0
    6.2212  -18.2871    0.0000 C   0  0  0  0  0  0  0  0  0  0  0  0
    5.9768  -16.1604    0.0000 N   0  0  0  0  0  0  0  0  0  0  0  0
    5.1733  -15.9859    0.0000 O   0  0  0  0  0  0  0  0  0  0  0  0
    8.4509  -19.6793    0.0000 C   0  0  0  0  0  0  0  0  0  0  0  0
    7.7435  -19.2593    0.0000 C   0  0  0  0  0  0  0  0  0  0  0  0
    7.0288  -19.6633    0.0000 C   0  0  0  0  0  0  0  0  0  0  0  0
    7.0212  -20.4858    0.0000 N   0  0  0  0  0  0  0  0  0  0  0  0
    7.7341  -20.9027    0.0000 C   0  0  0  0  0  0  0  0  0  0  0  0
    8.4459  -20.4964    0.0000 C   0  0  0  0  0  0  0  0  0  0  0  0
   11.2502  -18.8246    0.0000 C   0  0  0  0  0  0  0  0  0  0  0  0
   11.6741  -19.5292    0.0000 C   0  0  0  0  0  0  0  0  0  0  0  0
   12.4962  -19.5146    0.0000 O   0  0  0  0  0  0  0  0  0  0  0  0
  3  6  1  0  0  0  0 
 11 12  1  0  0  0  0 
 12 13  1  0  0  0  0 
 13 14  1  0  0  0  0 
 14 10  1  0  0  0  0 
  6  7  2  0  0  0  0 
 12 15  2  0  0  0  0 
  2  3  2  0  0  0  0 
 15 16  1  0  0  0  0 
  7  8  1  0  0  0  0 
  4 17  1  0  0  0  0 
  8 11  2  0  0  0  0 
 17 18  2  0  0  0  0 
  3  4  1  0  0  0  0 
 18 19  1  0  0  0  0 
 10  9  2  0  0  0  0 
 19 20  2  0  0  0  0 
  9  6  1  0  0  0  0 
 20 21  1  0  0  0  0 
 10 11  1  0  0  0  0 
 21 22  2  0  0  0  0 
 22 17  1  0  0  0  0 
  4  5  2  0  0  0  0 
  1 23  1  0  0  0  0 
  5  1  1  0  0  0  0 
 23 24  1  0  0  0  0 
  1  2  1  0  0  0  0 
 24 25  1  0  0  0  0 
M  END