
  SciTegic03291108492D

 19 21  0  0  0  0            999 V2000
   -1.2487    1.4582    0.0000 N   0  0
   -2.6776    0.6332    0.0000 N   0  0
   -2.6776    1.4582    0.0000 N   0  0
   -1.9632    2.6957    0.0000 N   0  0
   -1.2487    0.6332    0.0000 C   0  0
   -1.9632    0.2207    0.0000 C   0  0
   -0.5342    0.2207    0.0000 C   0  0
   -1.9632   -0.6043    0.0000 C   0  0
   -1.9632    1.8707    0.0000 C   0  0
    0.1802    0.6332    0.0000 C   0  0
   -0.5342   -0.6043    0.0000 C   0  0
   -1.2487   -1.0168    0.0000 C   0  0
   -2.6776   -1.0168    0.0000 C   0  0
    0.8947    0.2207    0.0000 C   0  0
    0.1802   -1.0168    0.0000 C   0  0
   -1.2487   -1.8418    0.0000 C   0  0
   -2.6776   -1.8418    0.0000 C   0  0
    0.8947   -0.6043    0.0000 C   0  0
   -1.9632   -2.2543    0.0000 C   0  0
  1  5  2  0
  1  9  1  0
  2  3  1  0
  2  6  2  0
  3  9  2  0
  4  9  1  0
  5  6  1  0
  5  7  1  0
  6  8  1  0
  7 10  2  0
  7 11  1  0
  8 12  2  0
  8 13  1  0
 10 14  1  0
 11 15  2  0
 12 16  1  0
 13 17  2  0
 14 18  2  0
 15 18  1  0
 16 19  2  0
 17 19  1  0
M  END