
          11280715372D 1   1.00000     0.00000     0

 26 28  0     0  0            999 V2000
   -0.6208   -2.7792    0.0000 C   0  0  0  0  0  0           0  0  0
   -0.6208   -3.6042    0.0000 C   0  0  0  0  0  0           0  0  0
   -1.3333   -2.3667    0.0000 C   0  0  3  0  0  0           0  0  0
   -1.3333   -4.0167    0.0000 C   0  0  3  0  0  0           0  0  0
    2.2500    2.1833    0.0000 C   0  0  0  0  0  0           0  0  0
    0.0917   -4.0167    0.0000 C   0  0  0  0  0  0           0  0  0
    2.2500    1.3583    0.0000 C   0  0  0  0  0  0           0  0  0
    0.0917   -2.3667    0.0000 C   0  0  0  0  0  0           0  0  0
    1.5375   -1.5417    0.0000 C   0  0  0  0  0  0           0  0  0
   -2.0458   -2.7792    0.0000 C   0  0  0  0  0  0           0  0  0
   -2.0458   -3.6042    0.0000 C   0  0  0  0  0  0           0  0  0
    1.5292    2.5958    0.0000 O   0  0  0  0  0  0           0  0  0
    2.2500   -1.1292    0.0000 C   0  0  0  0  0  0           0  0  0
    2.9667    0.9458    0.0000 C   0  0  0  0  0  0           0  0  0
    1.5375    0.9458    0.0000 C   0  0  0  0  0  0           0  0  0
    2.2500   -0.3000    0.0000 C   0  0  0  0  0  0           0  0  0
    0.8125   -2.7792    0.0000 C   0  0  0  0  0  0           0  0  0
    0.8125   -3.6042    0.0000 C   0  0  0  0  0  0           0  0  0
    2.9625    2.5958    0.0000 O   0  0  0  0  0  0           0  0  0
    1.5375    0.1125    0.0000 C   0  0  0  0  0  0           0  0  0
    2.9667    0.1125    0.0000 C   0  0  0  0  0  0           0  0  0
    1.5292   -2.3667    0.0000 C   0  0  0  0  0  0           0  0  0
   -1.3333   -1.5375    0.0000 C   0  0  0  0  0  0           0  0  0
   -0.6125   -1.9542    0.0000 C   0  0  0  0  0  0           0  0  0
   -1.5458   -4.8167    0.0000 C   0  0  0  0  0  0           0  0  0
   -0.9125   -4.7375    0.0000 C   0  0  0  0  0  0           0  0  0
  2  1  2  0     0  0
  3  1  1  0     0  0
  4  2  1  0     0  0
  5  7  1  0     0  0
  6  2  1  0     0  0
  7 14  2  0     0  0
  8  1  1  0     0  0
  9 22  1  0     0  0
 10  3  1  0     0  0
 11 10  1  0     0  0
 12  5  2  0     0  0
 13  9  2  0     0  0
 14 21  1  0     0  0
 15 20  2  0     0  0
 16 13  1  0     0  0
 17  8  2  0     0  0
 18 17  1  0     0  0
 19  5  1  0     0  0
 20 16  1  0     0  0
 21 16  2  0     0  0
 22 17  1  0     0  0
 23  3  1  0     0  0
 24  3  1  0     0  0
 25  4  1  0     0  0
 26  4  1  0     0  0
  6 18  2  0     0  0
 11  4  1  0     0  0
 15  7  1  0     0  0
M  END