
          11280715152D 1   1.00000     0.00000     0

 31 34  0     0  0            999 V2000
    1.5667   -3.5667    0.0000 C   0  0  3  0  0  0           0  0  0
    0.4167   -5.2792    0.0000 O   0  0  0  0  0  0           0  0  0
    1.3292   -4.4417    0.0000 C   0  0  3  0  0  0           0  0  0
   -0.0333   -4.4917    0.0000 C   0  0  3  0  0  0           0  0  0
    0.7750   -4.0292    0.0000 C   0  0  3  0  0  0           0  0  0
    2.1542   -3.4417    0.0000 C   0  0  0  0  0  0           0  0  0
    3.1667   -5.0542    0.0000 C   0  0  0  0  0  0           0  0  0
    2.3500   -2.8750    0.0000 C   0  0  0  0  0  0           0  0  0
    2.1250   -5.0542    0.0000 N   0  0  0  0  0  0           0  0  0
    3.6792   -5.3542    0.0000 N   0  0  0  0  0  0           0  0  0
    4.3542   -3.2917    0.0000 C   0  0  0  0  0  0           0  0  0
    2.6417   -5.3542    0.0000 N   0  0  0  0  0  0           0  0  0
    1.6042   -5.3542    0.0000 C   0  0  0  0  0  0           0  0  0
    3.1667   -4.4542    0.0000 O   0  0  0  0  0  0           0  0  0
    2.9167   -3.0667    0.0000 C   0  0  0  0  0  0           0  0  0
   -0.3375   -3.9667    0.0000 C   0  0  0  0  0  0           0  0  0
    0.3417   -3.6042    0.0000 C   0  0  0  0  0  0           0  0  0
    4.8042   -2.8917    0.0000 O   0  0  0  0  0  0           0  0  0
    3.3375   -3.4917    0.0000 C   0  0  0  0  0  0           0  0  0
    3.7875   -3.0917    0.0000 C   0  0  0  0  0  0           0  0  0
    4.2042   -5.0542    0.0000 C   0  0  0  0  0  0           0  0  0
    4.7000   -3.6667    0.0000 O   0  0  0  0  0  0           0  0  0
    2.2292   -2.2917    0.0000 C   0  0  0  0  0  0           0  0  0
    3.3667   -2.6792    0.0000 C   0  0  0  0  0  0           0  0  0
    4.7167   -5.3542    0.0000 C   0  0  0  0  0  0           0  0  0
    4.2000   -4.4625    0.0000 C   0  0  0  0  0  0           0  0  0
    2.6792   -1.8917    0.0000 C   0  0  0  0  0  0           0  0  0
    3.2500   -2.0875    0.0000 C   0  0  0  0  0  0           0  0  0
    4.7167   -4.1542    0.0000 C   0  0  0  0  0  0           0  0  0
    5.2417   -5.0542    0.0000 C   0  0  0  0  0  0           0  0  0
    5.2417   -4.4542    0.0000 C   0  0  0  0  0  0           0  0  0
  2  5  1  0     0  0
  3  1  1  0     0  0
  4  3  1  0     0  0
  5  1  1  0     0  0
  6  1  1  0     0  0
  7 12  1  0     0  0
  8  6  1  0     0  0
  9 13  2  0     0  0
 10  7  1  0     0  0
 11 20  1  0     0  0
 12  9  1  0     0  0
 13  3  1  0     0  0
 14  7  2  0     0  0
 15  8  2  0     0  0
 16 17  1  0     0  0
 17  5  1  0     0  0
 18 11  2  0     0  0
 19 15  1  0     0  0
 20 19  1  0     0  0
 21 10  1  0     0  0
 22 11  1  0     0  0
 23  8  1  0     0  0
 24 15  1  0     0  0
 25 21  2  0     0  0
 26 21  1  0     0  0
 27 23  2  0     0  0
 28 27  1  0     0  0
 29 26  2  0     0  0
 30 25  1  0     0  0
 31 29  1  0     0  0
  4  2  1  0     0  0
  4 16  1  0     0  0
 24 28  2  0     0  0
 30 31  2  0     0  0
M  END