
  Mrv0541 04051115152D          

 34 37  0  0  0  0            999 V2000
   -2.2822    1.8963    0.0000 O   0  0  0  0  0  0  0  0  0  0  0  0
   -1.8697    1.1818    0.0000 C   0  0  0  0  0  0  0  0  0  0  0  0
   -1.0447    1.1818    0.0000 O   0  0  0  0  0  0  0  0  0  0  0  0
   -2.2822    0.4674    0.0000 C   0  0  1  0  0  0  0  0  0  0  0  0
   -1.8697   -0.2471    0.0000 C   0  0  0  0  0  0  0  0  0  0  0  0
   -1.0447   -0.2471    0.0000 N   0  0  0  0  0  0  0  0  0  0  0  0
   -0.6322   -0.9616    0.0000 C   0  0  0  0  0  0  0  0  0  0  0  0
   -1.0447   -1.6760    0.0000 O   0  0  0  0  0  0  0  0  0  0  0  0
    0.1928   -0.9616    0.0000 C   0  0  0  0  0  0  0  0  0  0  0  0
    0.6777   -0.2941    0.0000 C   0  0  0  0  0  0  0  0  0  0  0  0
    1.4623   -0.5491    0.0000 C   0  0  0  0  0  0  0  0  0  0  0  0
    2.2469   -0.2941    0.0000 C   0  0  0  0  0  0  0  0  0  0  0  0
    2.7319   -0.9616    0.0000 C   0  0  0  0  0  0  0  0  0  0  0  0
    3.5569   -0.9616    0.0000 C   0  0  0  0  0  0  0  0  0  0  0  0
    3.9694   -1.6760    0.0000 C   0  0  0  0  0  0  0  0  0  0  0  0
    4.7944   -1.6760    0.0000 C   0  0  0  0  0  0  0  0  0  0  0  0
    5.2069   -0.9616    0.0000 C   0  0  0  0  0  0  0  0  0  0  0  0
    6.0319   -0.9616    0.0000 C   0  0  0  0  0  0  0  0  0  0  0  0
    6.4444   -1.6760    0.0000 N   0  0  0  0  0  0  0  0  0  0  0  0
    6.0319   -2.3905    0.0000 C   0  0  0  0  0  0  0  0  0  0  0  0
    5.2069   -2.3905    0.0000 C   0  0  0  0  0  0  0  0  0  0  0  0
    2.2469   -1.6290    0.0000 S   0  0  0  0  0  0  0  0  0  0  0  0
    1.4623   -1.3741    0.0000 C   0  0  0  0  0  0  0  0  0  0  0  0
    0.6777   -1.6290    0.0000 S   0  0  0  0  0  0  0  0  0  0  0  0
   -3.1072    0.4674    0.0000 N   0  0  0  0  0  0  0  0  0  0  0  0
   -3.5197    1.1818    0.0000 S   0  0  0  0  0  0  0  0  0  0  0  0
   -2.8053    1.5943    0.0000 O   0  0  0  0  0  0  0  0  0  0  0  0
   -4.2342    0.7693    0.0000 O   0  0  0  0  0  0  0  0  0  0  0  0
   -3.9322    1.8963    0.0000 C   0  0  0  0  0  0  0  0  0  0  0  0
   -4.7572    1.8963    0.0000 C   0  0  0  0  0  0  0  0  0  0  0  0
   -5.1697    2.6108    0.0000 C   0  0  0  0  0  0  0  0  0  0  0  0
   -4.7572    3.3253    0.0000 C   0  0  0  0  0  0  0  0  0  0  0  0
   -3.9322    3.3253    0.0000 N   0  0  0  0  0  0  0  0  0  0  0  0
   -3.5197    2.6108    0.0000 C   0  0  0  0  0  0  0  0  0  0  0  0
  2  1  1  0  0  0  0
  2  3  2  0  0  0  0
  2  4  1  0  0  0  0
  4  5  1  0  0  0  0
  4 25  1  1  0  0  0
  5  6  1  0  0  0  0
  7  6  1  0  0  0  0
  7  8  2  0  0  0  0
  7  9  1  0  0  0  0
  9 10  2  0  0  0  0
  9 24  1  0  0  0  0
 10 11  1  0  0  0  0
 11 12  1  0  0  0  0
 23 11  2  0  0  0  0
 12 13  2  0  0  0  0
 14 13  1  0  0  0  0
 13 22  1  0  0  0  0
 14 15  1  0  0  0  0
 15 16  1  0  0  0  0
 16 17  1  0  0  0  0
 16 21  1  0  0  0  0
 17 18  1  0  0  0  0
 18 19  1  0  0  0  0
 20 19  1  0  0  0  0
 20 21  1  0  0  0  0
 23 22  1  0  0  0  0
 23 24  1  0  0  0  0
 25 26  1  0  0  0  0
 27 26  2  0  0  0  0
 28 26  2  0  0  0  0
 29 26  1  0  0  0  0
 29 30  2  0  0  0  0
 29 34  1  0  0  0  0
 30 31  1  0  0  0  0
 31 32  2  0  0  0  0
 32 33  1  0  0  0  0
 34 33  2  0  0  0  0
M  END