
  SciTegic05071316162D

 19 20  0  0  0  0            999 V2000
   20.4687  -22.9616    0.0000 C   0  0
   20.4674  -23.7890    0.0000 C   0  0
   21.1823  -24.2017    0.0000 C   0  0
   21.8986  -23.7885    0.0000 C   0  0
   21.8958  -22.9579    0.0000 C   0  0
   21.1805  -22.5489    0.0000 C   0  0
   19.7540  -22.5493    0.0000 C   0  0  1  0  0  0
   19.0397  -22.9620    0.0000 C   0  0
   18.3251  -22.5496    0.0000 C   0  0
   17.6108  -22.9623    0.0000 N   0  0
   16.8577  -22.6230    0.0000 N   0  0
   16.3059  -23.2361    0.0000 C   0  0
   16.7186  -23.9506    0.0000 N   0  0
   17.5254  -23.7787    0.0000 C   0  0
   19.7539  -21.7243    0.0000 C   0  0
   20.4683  -21.3116    0.0000 C   0  0
   21.1828  -21.7240    0.0000 C   0  0
   21.8971  -21.3113    0.0000 C   0  0
   22.6138  -24.1998    0.0000 C   0  0
  1  2  2  0
  2  3  1  0
  3  4  2  0
  4  5  1  0
  5  6  2  0
  6  1  1  0
  1  7  1  0
  7  8  1  0
  8  9  1  0
  9 10  1  0
 10 11  1  0
 11 12  2  0
 12 13  1  0
 13 14  2  0
 14 10  1  0
  7 15  1  1
 15 16  1  0
 16 17  1  0
 17 18  1  0
  4 19  1  0
M  END