
          11280715042D 1   1.00000     0.00000     0

 21 22  0     0  0            999 V2000
    2.1250   -2.5125    0.0000 S   0  0  3  0  0  0           0  0  0
   -1.5708   -2.6667    0.0000 N   0  0  0  0  0  0           0  0  0
    2.6542   -2.7875    0.0000 C   0  0  0  0  0  0           0  0  0
    1.6042   -2.8125    0.0000 N   0  0  3  0  0  0           0  0  0
    1.7750   -1.8042    0.0000 O   0  0  0  0  0  0           0  0  0
    2.4625   -1.8042    0.0000 O   0  0  0  0  0  0           0  0  0
   -1.5208   -1.7000    0.0000 N   0  0  0  0  0  0           0  0  0
   -1.8958   -2.1667    0.0000 C   0  0  0  0  0  0           0  0  0
   -0.9875   -2.5125    0.0000 C   0  0  0  0  0  0           0  0  0
   -0.9583   -1.9125    0.0000 C   0  0  0  0  0  0           0  0  0
    3.1542   -2.4750    0.0000 C   0  0  0  0  0  0           0  0  0
    2.6792   -3.3667    0.0000 C   0  0  0  0  0  0           0  0  0
    3.7167   -3.3292    0.0000 C   0  0  0  0  0  0           0  0  0
    3.2125   -3.6417    0.0000 C   0  0  0  0  0  0           0  0  0
    3.6917   -2.7500    0.0000 C   0  0  0  0  0  0           0  0  0
    4.2500   -3.6167    0.0000 Cl  0  0  0  0  0  0           0  0  0
    1.0875   -2.5125    0.0000 C   0  0  0  0  0  0           0  0  0
    1.6042   -3.4125    0.0000 C   0  0  0  0  0  0           0  0  0
   -0.4708   -2.8125    0.0000 C   0  0  0  0  0  0           0  0  0
    0.0417   -2.5125    0.0000 C   0  0  0  0  0  0           0  0  0
    0.5667   -2.8125    0.0000 C   0  0  0  0  0  0           0  0  0
  2  9  1  0     0  0
  3  1  1  0     0  0
  4  1  1  0     0  0
  5  1  2  0     0  0
  6  1  2  0     0  0
  7 10  1  0     0  0
  8  2  2  0     0  0
  9 19  1  0     0  0
 10  9  2  0     0  0
 11  3  2  0     0  0
 12  3  1  0     0  0
 13 14  1  0     0  0
 14 12  2  0     0  0
 15 11  1  0     0  0
 16 13  1  0     0  0
 17  4  1  0     0  0
 18  4  1  0     0  0
 19 20  1  0     0  0
 20 21  1  0     0  0
 21 17  1  0     0  0
 15 13  2  0     0  0
  7  8  1  0     0  0
M  END