
  SciTegic12201615512D

 30 32  0  0  0  0            999 V2000
    1.2990   -0.7500    0.0000 C   0  0
    1.2990    0.7500    0.0000 C   0  0
    0.0000    1.5000    0.0000 C   0  0
   -1.2990    0.7500    0.0000 C   0  0
   -1.2990   -0.7500    0.0000 C   0  0
    0.0000   -1.5000    0.0000 C   0  0
    2.5973   -1.5031    0.0000 O   0  0
    2.5951   -3.0039    0.0000 C   0  0
    3.8933   -3.7570    0.0000 C   0  0
    3.8916   -4.9570    0.0000 O   0  0
    4.9336   -3.1588    0.0000 O   0  0
    0.0000   -2.7000    0.0000 Cl  0  0
    2.5972    1.5031    0.0000 O   0  0
    2.5955    2.7031    0.0000 C   0  0
   -2.6003    1.4977    0.0000 C   0  0
   -3.8990    0.7455    0.0000 C   0  0
   -4.0317   -0.7359    0.0000 S   0  0
   -5.4979   -1.0529    0.0000 C   0  0
   -6.2524    0.2436    0.0000 N   0  0
   -5.2526    1.3618    0.0000 C   0  0
   -5.4992    2.5362    0.0000 O   0  0
   -5.9821   -2.1508    0.0000 O   0  0
   -7.7426    0.3981    0.0000 C   0  0
   -8.3559    1.7679    0.0000 C   0  0
   -7.4742    2.9816    0.0000 C   0  0
   -8.0843    4.3519    0.0000 C   0  0
   -9.5761    4.5087    0.0000 C   0  0
  -10.4578    3.2951    0.0000 C   0  0
   -9.8477    1.9248    0.0000 C   0  0
  -10.5530    0.9540    0.0000 Cl  0  0
  1  2  2  0
  2  3  1  0
  3  4  2  0
  4  5  1  0
  5  6  2  0
  6  1  1  0
  1  7  1  0
  7  8  1  0
  8  9  1  0
  9 10  2  0
  9 11  1  0
  6 12  1  0
  2 13  1  0
 13 14  1  0
  4 15  1  0
 15 16  2  0
 16 17  1  0
 17 18  1  0
 18 19  1  0
 19 20  1  0
 20 16  1  0
 20 21  2  0
 18 22  2  0
 19 23  1  0
 23 24  1  0
 24 25  2  0
 25 26  1  0
 26 27  2  0
 27 28  1  0
 28 29  2  0
 29 24  1  0
 29 30  1  0
M  END