
  CDK    9/16/09,10:2

 30 33  0  0  0  0  0  0  0  0999 V2000
    4.2611  -14.4416    0.0000 N   0  0  0  0  0  0  0  0  0  0  0  0
    4.2599  -15.2690    0.0000 C   0  0  0  0  0  0  0  0  0  0  0  0
    4.9747  -15.6819    0.0000 N   0  0  0  0  0  0  0  0  0  0  0  0
    4.9729  -14.0289    0.0000 C   0  0  0  0  0  0  0  0  0  0  0  0
    5.6883  -14.4380    0.0000 C   0  0  0  0  0  0  0  0  0  0  0  0
    5.6886  -15.2644    0.0000 C   0  0  0  0  0  0  0  0  0  0  0  0
    6.4747  -15.5196    0.0000 N   0  0  0  0  0  0  0  0  0  0  0  0
    6.9603  -14.8508    0.0000 C   0  0  0  0  0  0  0  0  0  0  0  0
    6.4742  -14.1824    0.0000 N   0  0  0  0  0  0  0  0  0  0  0  0
    4.9705  -13.2039    0.0000 N   0  0  0  0  0  0  0  0  0  0  0  0
    6.7298  -16.3042    0.0000 C   0  0  0  0  0  0  0  0  0  0  0  0
    6.2455  -16.9711    0.0000 C   0  0  0  0  0  0  0  0  0  0  0  0
    6.7307  -17.6384    0.0000 C   0  0  0  0  0  0  0  0  0  0  0  0
    7.5153  -17.3832    0.0000 C   0  0  0  0  0  0  0  0  0  0  0  0
    7.5149  -16.5583    0.0000 O   0  0  0  0  0  0  0  0  0  0  0  0
    8.1829  -17.8679    0.0000 C   0  0  0  0  0  0  0  0  0  0  0  0
    6.4759  -18.4231    0.0000 O   0  0  0  0  0  0  0  0  0  0  0  0
    5.4205  -16.9713    0.0000 O   0  0  0  0  0  0  0  0  0  0  0  0
    8.0969  -18.6884    0.0000 O   0  0  0  0  0  0  0  0  0  0  0  0
    7.7853  -14.8505    0.0000 N   0  0  0  0  0  0  0  0  0  0  0  0
    8.1981  -15.5648    0.0000 C   0  0  0  0  0  0  0  0  0  0  0  0
    9.0231  -15.5645    0.0000 C   0  0  0  0  0  0  0  0  0  0  0  0
    9.4310  -16.2805    0.0000 C   0  0  0  0  0  0  0  0  0  0  0  0
   10.2552  -16.2806    0.0000 C   0  0  0  0  0  0  0  0  0  0  0  0
   10.6683  -15.5654    0.0000 C   0  0  0  0  0  0  0  0  0  0  0  0
   10.2511  -14.8487    0.0000 C   0  0  0  0  0  0  0  0  0  0  0  0
    9.4283  -14.8522    0.0000 C   0  0  0  0  0  0  0  0  0  0  0  0
   10.6608  -14.1327    0.0000 Cl  0  0  0  0  0  0  0  0  0  0  0  0
   11.4933  -15.5640    0.0000 Cl  0  0  0  0  0  0  0  0  0  0  0  0
    7.3434  -19.0243    0.0000 C   0  0  0  0  0  0  0  0  0  0  0  0
 13 14  1  0  0  0  0 
 14 15  1  0  0  0  0 
 15 11  1  0  0  0  0 
  5  4  2  0  0  0  0 
 14 16  1  6  0  0  0 
  6  7  1  0  0  0  0 
 13 17  1  1  0  0  0 
  7  8  1  0  0  0  0 
 12 18  1  1  0  0  0 
  8  9  2  0  0  0  0 
 16 19  1  0  0  0  0 
  9  5  1  0  0  0  0 
  8 20  1  0  0  0  0 
  4  1  1  0  0  0  0 
 20 21  1  0  0  0  0 
  4 10  1  0  0  0  0 
 21 22  1  0  0  0  0 
  5  6  1  0  0  0  0 
 22 23  2  0  0  0  0 
 11  7  1  6  0  0  0 
 23 24  1  0  0  0  0 
 11 12  1  0  0  0  0 
 24 25  2  0  0  0  0 
 25 26  1  0  0  0  0 
  2  3  1  0  0  0  0 
 26 27  2  0  0  0  0 
 27 22  1  0  0  0  0 
  3  6  2  0  0  0  0 
 26 28  1  0  0  0  0 
  1  2  2  0  0  0  0 
 25 29  1  0  0  0  0 
 12 13  1  0  0  0  0 
 19 30  1  0  0  0  0 
M  END