
  Mrv0541 05211314572D          

 21 21  0  0  0  0            999 V2000
   -1.6369   -0.4708    0.0000 C   0  0  0  0  0  0  0  0  0  0  0  0
   -0.8164   -0.3846    0.0000 N   0  0  0  0  0  0  0  0  0  0  0  0
   -0.3315   -1.0520    0.0000 C   0  0  0  0  0  0  0  0  0  0  0  0
   -0.6670   -1.8057    0.0000 C   0  0  0  0  0  0  0  0  0  0  0  0
   -1.4875   -1.8919    0.0000 N   0  0  0  0  0  0  0  0  0  0  0  0
   -1.9724   -1.2245    0.0000 C   0  0  0  0  0  0  0  0  0  0  0  0
   -0.4809    0.3691    0.0000 C   0  0  0  0  0  0  0  0  0  0  0  0
    0.3261    0.5406    0.0000 S   0  0  0  0  0  0  0  0  0  0  0  0
    0.4124    1.3611    0.0000 C   0  0  0  0  0  0  0  0  0  0  0  0
   -0.3413    1.6967    0.0000 C   0  0  0  0  0  0  0  0  0  0  0  0
   -0.8934    1.0836    0.0000 N   0  0  0  0  0  0  0  0  0  0  0  0
    1.1268    1.7736    0.0000 C   0  0  0  0  0  0  0  0  0  0  0  0
    1.8413    1.3611    0.0000 C   0  0  0  0  0  0  0  0  0  0  0  0
    2.5558    1.7736    0.0000 N   0  0  0  0  0  0  0  0  0  0  0  0
    2.5558    2.5986    0.0000 C   0  0  0  0  0  0  0  0  0  0  0  0
   -1.8231   -2.6456    0.0000 C   0  0  0  0  0  0  0  0  0  0  0  0
   -2.6436   -2.7318    0.0000 C   0  0  0  0  0  0  0  0  0  0  0  0
   -2.9791   -3.4855    0.0000 C   0  0  0  0  0  0  0  0  0  0  0  0
    3.2702    1.3611    0.0000 C   0  0  0  0  0  0  0  0  0  0  0  0
    3.9847    1.7736    0.0000 O   0  0  0  0  0  0  0  0  0  0  0  0
    6.2240    0.0000    0.0000 Br  0  0  0  0  0  0  0  0  0  0  0  0
  8  9  1  0  0  0  0
  9 10  2  0  0  0  0
 10 11  1  0  0  0  0
 11  7  2  0  0  0  0
  4  5  1  0  0  0  0
  9 12  1  0  0  0  0
  5  6  1  0  0  0  0
 12 13  1  0  0  0  0
 13 14  1  0  0  0  0
  2  7  1  0  0  0  0
 14 15  1  0  0  0  0
  7  8  1  0  0  0  0
  5 16  1  0  0  0  0
  1  2  1  0  0  0  0
 16 17  1  0  0  0  0
  1  6  1  0  0  0  0
 17 18  1  0  0  0  0
  2  3  1  0  0  0  0
 14 19  1  0  0  0  0
  3  4  1  0  0  0  0
 19 20  2  0  0  0  0
M  END