
  SciTegic01161211252D

 33 36  0  0  0  0            999 V2000
    8.4917  -23.9667    0.0000 O   0  0
    7.7792  -24.3833    0.0000 S   0  0
    8.4963  -24.7920    0.0000 O   0  0
    8.4636  -22.3125    0.0000 C   0  0
    9.1229  -21.8165    0.0000 C   0  0
    8.8567  -21.0355    0.0000 C   0  0
    8.0292  -21.0489    0.0000 N   0  0
    7.7904  -21.8377    0.0000 N   0  0
    7.5330  -20.3894    0.0000 C   0  0
    7.8564  -19.6293    0.0000 C   0  0
    7.3602  -18.9712    0.0000 C   0  0
    6.5405  -19.0720    0.0000 C   0  0
    6.2195  -19.8366    0.0000 C   0  0
    6.7177  -20.4915    0.0000 C   0  0
    9.3327  -20.3644    0.0000 C   0  0
   10.1554  -20.4396    0.0000 C   0  0
   10.6299  -19.7656    0.0000 C   0  0
   10.2829  -19.0162    0.0000 C   0  0
    9.4567  -18.9448    0.0000 C   0  0
    8.9859  -19.6196    0.0000 C   0  0
    8.4763  -23.1374    0.0000 C   0  0
    7.7683  -23.5608    0.0000 N   0  0
    9.1971  -23.5388    0.0000 N   0  0
    6.0426  -18.4142    0.0000 Cl  0  0
    6.3980  -21.2521    0.0000 Cl  0  0
    9.9051  -23.1154    0.0000 C   0  0
    7.0729  -24.8092    0.0000 C   0  0
    6.3544  -24.4033    0.0000 C   0  0
    5.6468  -24.8261    0.0000 C   0  0
    5.6591  -25.6519    0.0000 C   0  0
    6.3848  -26.0531    0.0000 C   0  0
    7.0894  -25.6280    0.0000 C   0  0
    6.4004  -26.8779    0.0000 Cl  0  0
 16 17  1  0
  3  2  2  0
 17 18  2  0
  9 10  2  0
 18 19  1  0
  4  5  1  0
 19 20  2  0
 20 15  1  0
  6 15  1  0
 10 11  1  0
  4 21  1  0
 21 22  2  0
 11 12  2  0
 21 23  1  0
  5  6  1  0
 12 24  1  0
 12 13  1  0
 14 25  1  0
  6  7  1  0
 23 26  1  0
 22  2  1  0
 13 14  2  0
  2 27  1  0
 14  9  1  0
 27 28  2  0
  7  9  1  0
 28 29  1  0
  7  8  1  0
 29 30  2  0
  8  4  2  0
 30 31  1  0
 15 16  2  0
 31 32  2  0
 32 27  1  0
  2  1  2  0
 31 33  1  0
M  END