
  SciTegic01161211222D

 20 22  0  0  0  0            999 V2000
    2.2351    0.5436    0.0000 C   0  0
    2.2340   -0.2803    0.0000 C   0  0
    2.9459   -0.6915    0.0000 C   0  0
    2.9441    0.9546    0.0000 C   0  0
    3.6565    0.5472    0.0000 C   0  0
    3.6599   -0.2824    0.0000 C   0  0
    4.3761   -0.6920    0.0000 C   0  0
    5.0935   -0.2766    0.0000 C   0  0
    4.3693    0.9673    0.0000 C   0  0  1  0  0  0
    5.0906    0.5512    0.0000 C   0  0  2  0  0  0
    5.7093    1.1086    0.0000 N   0  0
    5.3703    1.8693    0.0000 C   0  0
    4.5422    1.7818    0.0000 C   0  0
    6.5316    1.1151    0.0000 C   0  0
    6.9375    1.8293    0.0000 C   0  0
    7.7591    1.8349    0.0000 C   0  0
    3.6516    1.3818    0.0000 H   0  0
    5.8799    0.3403    0.0000 H   0  0
    2.9444   -1.5131    0.0000 O   0  0
    2.2322   -1.9226    0.0000 C   0  0
  5  4  2  0
  4  1  1  0
  5  6  1  0
  2  3  1  0
 10 11  1  0
 11 12  1  0
 12 13  1  0
 13  9  1  0
  3  6  2  0
 11 14  1  0
  1  2  2  0
 14 15  1  0
  5  9  1  0
 15 16  2  0
  6  7  1  0
  9 17  1  1
  7  8  1  0
 10 18  1  1
  8 10  1  0
  3 19  1  0
  9 10  1  0
 19 20  1  0
M  END