
  SciTegic          2D

 29 32  0  0  0  0            999 V2000
    0.0000    0.0000    0.0000 Cl  0  0
    3.0213   -2.6209    0.0000 O   0  0
    2.4693   -2.0078    0.0000 N   0  0
    2.7242   -1.2232    0.0000 C   0  0
    2.2393   -0.5558    0.0000 C   0  0
    2.7242    0.1117    0.0000 C   0  0
    3.5088   -0.1433    0.0000 C   0  0
    4.2233    0.2692    0.0000 C   0  0
    4.9378   -0.1433    0.0000 C   0  0
    4.9378   -0.9683    0.0000 C   0  0
    4.2233   -1.3808    0.0000 C   0  0
    3.5088   -0.9683    0.0000 C   0  0
    5.6522    0.2692    0.0000 C   0  0
    5.7385    1.0897    0.0000 N   0  0
    6.5455    1.2612    0.0000 C   0  0
    6.9580    0.5468    0.0000 N   0  0
    6.4059   -0.0663    0.0000 C   0  0
    6.5774   -0.8733    0.0000 C   0  0
    7.3621   -1.1282    0.0000 C   0  0
    7.5336   -1.9352    0.0000 C   0  0
    6.9205   -2.4872    0.0000 N   0  0
    6.1359   -2.2323    0.0000 C   0  0
    5.9644   -1.4253    0.0000 C   0  0
    6.8810    2.0149    0.0000 C   0  0
    6.3961    2.6824    0.0000 C   0  0
    6.7316    3.4360    0.0000 C   0  0
    7.5521    3.5223    0.0000 N   0  0
    8.0370    2.8548    0.0000 C   0  0
    7.7015    2.1012    0.0000 C   0  0
  3  2  1  0
  3  4  2  3
  4  5  1  0
  5  6  1  0
  6  7  1  0
  7  8  2  0
  8  9  1  0
  9 10  2  0
 10 11  1  0
 11 12  2  0
  4 12  1  0
  7 12  1  0
  9 13  1  0
 13 14  1  0
 14 15  2  0
 15 16  1  0
 16 17  1  0
 13 17  2  0
 17 18  1  0
 18 19  2  0
 19 20  1  0
 20 21  2  0
 21 22  1  0
 22 23  2  0
 18 23  1  0
 15 24  1  0
 24 25  1  0
 25 26  1  0
 26 27  1  0
 27 28  1  0
 28 29  1  0
 24 29  1  0
M  END