
          11280715412D 1   1.00000     0.00000     0

 30 33  0     0  0            999 V2000
    0.2167    0.7625    0.0000 C   0  0  0  0  0  0           0  0  0
   -0.7708   -0.1292    0.0000 C   0  0  0  0  0  0           0  0  0
   -0.5958    0.6833    0.0000 N   0  0  0  0  0  0           0  0  0
   -0.0583   -0.5417    0.0000 N   0  0  3  0  0  0           0  0  0
    0.5542    0.0083    0.0000 C   0  0  0  0  0  0           0  0  0
    0.6375    1.4833    0.0000 C   0  0  0  0  0  0           0  0  0
   -1.4958   -0.2125    0.0000 C   0  0  0  0  0  0           0  0  0
   -1.9083    0.5000    0.0000 C   0  0  0  0  0  0           0  0  0
    1.3667    1.0875    0.0000 N   0  0  0  0  0  0           0  0  0
   -0.0625   -1.3750    0.0000 C   0  0  0  0  0  0           0  0  0
    2.0625    1.5333    0.0000 N   0  0  3  0  0  0           0  0  0
   -1.9125   -0.9292    0.0000 C   0  0  0  0  0  0           0  0  0
   -2.7333    0.5000    0.0000 C   0  0  0  0  0  0           0  0  0
    0.6000    2.3000    0.0000 O   0  0  0  0  0  0           0  0  0
    0.6417   -1.7792    0.0000 C   0  0  0  0  0  0           0  0  0
   -0.7833   -1.7750    0.0000 C   0  0  0  0  0  0           0  0  0
   -3.1500   -0.2125    0.0000 C   0  0  0  0  0  0           0  0  0
   -1.4958    1.2208    0.0000 Cl  0  0  0  0  0  0           0  0  0
    1.3625   -0.1542    0.0000 C   0  0  0  0  0  0           0  0  0
   -2.7375   -0.9167    0.0000 C   0  0  0  0  0  0           0  0  0
   -0.0833   -3.0125    0.0000 C   0  0  0  0  0  0           0  0  0
    0.6375   -2.6000    0.0000 C   0  0  0  0  0  0           0  0  0
   -0.7875   -2.5917    0.0000 C   0  0  0  0  0  0           0  0  0
   -3.9750   -0.2042    0.0000 Cl  0  0  0  0  0  0           0  0  0
   -0.0875   -3.8375    0.0000 Br  0  0  0  0  0  0           0  0  0
    2.0292    2.3583    0.0000 C   0  0  0  0  0  0           0  0  0
    2.7917    1.1458    0.0000 C   0  0  0  0  0  0           0  0  0
    2.7292    2.7958    0.0000 C   0  0  0  0  0  0           0  0  0
    3.4917    1.5833    0.0000 C   0  0  0  0  0  0           0  0  0
    3.4542    2.4083    0.0000 C   0  0  0  0  0  0           0  0  0
  2  3  2  0     0  0
  3  1  1  0     0  0
  4  5  1  0     0  0
  5  1  2  0     0  0
  6  1  1  0     0  0
  7  2  1  0     0  0
  8  7  2  0     0  0
  9  6  1  0     0  0
 10  4  1  0     0  0
 11  9  1  0     0  0
 12  7  1  0     0  0
 13  8  1  0     0  0
 14  6  2  0     0  0
 15 10  1  0     0  0
 16 10  2  0     0  0
 17 20  1  0     0  0
 18  8  1  0     0  0
 19  5  1  0     0  0
 20 12  2  0     0  0
 21 23  2  0     0  0
 22 15  2  0     0  0
 23 16  1  0     0  0
 24 17  1  0     0  0
 25 21  1  0     0  0
 26 11  1  0     0  0
 27 11  1  0     0  0
 28 26  1  0     0  0
 29 27  1  0     0  0
 30 29  1  0     0  0
  4  2  1  0     0  0
 21 22  1  0     0  0
 30 28  1  0     0  0
 17 13  2  0     0  0
M  END