
          11280714442D 1   1.00000     0.00000     0

 62 67  0     1  0            999 V2000
    9.3875   -2.3417    0.0000 N   0  0  3  0  0  0           0  0  0
    9.3875   -1.0042    0.0000 C   0  0  0  0  0  0           0  0  0
    8.6042   -2.0875    0.0000 C   0  0  0  0  0  0           0  0  0
    9.8667   -1.6667    0.0000 C   0  0  0  0  0  0           0  0  0
    8.6042   -1.2625    0.0000 C   0  0  0  0  0  0           0  0  0
    5.7417   -2.0792    0.0000 C   0  0  0  0  0  0           0  0  0
    3.6000   -2.4917    0.0000 C   0  0  0  0  0  0           0  0  0
    7.6875   -6.3375    0.0000 C   0  0  3  0  0  0           0  0  0
    2.8792   -2.0792    0.0000 N   0  0  0  0  0  0           0  0  0
    5.0292   -2.4917    0.0000 N   0  0  0  0  0  0           0  0  0
    4.3125   -2.0792    0.0000 C   0  0  1  0  0  0           0  0  0
    1.4542   -2.0792    0.0000 C   0  0  0  0  0  0           0  0  0
    0.7417   -5.8042    0.0000 C   0  0  0  0  0  0           0  0  0
    9.6417   -0.2167    0.0000 C   0  0  0  0  0  0           0  0  0
    7.8917   -2.5000    0.0000 C   0  0  0  0  0  0           0  0  0
    9.0875    0.3875    0.0000 N   0  0  3  0  0  0           0  0  0
    6.4542   -2.5000    0.0000 N   0  0  0  0  0  0           0  0  0
    9.6417   -3.1292    0.0000 C   0  0  0  0  0  0           0  0  0
    0.7417   -2.4917    0.0000 N   0  0  0  0  0  0           0  0  0
    7.8917   -0.8500    0.0000 C   0  0  0  0  0  0           0  0  0
    2.1667   -2.4917    0.0000 C   0  0  2  0  0  0           0  0  0
    0.0375   -6.2167    0.0000 N   0  0  0  0  0  0           0  0  0
    7.1750   -2.0875    0.0000 C   0  0  0  0  0  0           0  0  0
    7.4375   -5.5542    0.0000 O   0  0  0  0  0  0           0  0  0
    5.7417   -1.2542    0.0000 O   0  0  0  0  0  0           0  0  0
    3.6000   -3.3250    0.0000 O   0  0  0  0  0  0           0  0  0
    4.3125   -1.2542    0.0000 C   0  0  0  0  0  0           0  0  0
    1.4542   -1.2542    0.0000 O   0  0  0  0  0  0           0  0  0
    0.7417   -4.9792    0.0000 N   0  0  0  0  0  0           0  0  0
    7.9250   -7.0542    0.0000 F   0  0  0  0  0  0           0  0  0
    7.2250   -7.0625    0.0000 F   0  0  0  0  0  0           0  0  0
    8.4917   -6.6500    0.0000 F   0  0  0  0  0  0           0  0  0
    1.4625   -6.2167    0.0000 N   0  0  0  0  0  0           0  0  0
    7.1750   -1.2625    0.0000 C   0  0  0  0  0  0           0  0  0
    9.0875   -3.7375    0.0000 C   0  0  0  0  0  0           0  0  0
    4.8917   -0.6667    0.0000 C   0  0  0  0  0  0           0  0  0
    7.9875   -4.9417    0.0000 C   0  0  0  0  0  0           0  0  0
    0.7417   -3.3250    0.0000 C   0  0  0  0  0  0           0  0  0
    6.0625    0.5083    0.0000 C   0  0  0  0  0  0           0  0  0
    8.2792   -3.5542    0.0000 C   0  0  0  0  0  0           0  0  0
    5.6917   -0.8792    0.0000 C   0  0  0  0  0  0           0  0  0
    9.3375   -4.5167    0.0000 C   0  0  0  0  0  0           0  0  0
    4.6750    0.1333    0.0000 C   0  0  0  0  0  0           0  0  0
    8.7792   -5.1250    0.0000 C   0  0  0  0  0  0           0  0  0
    7.7292   -4.1667    0.0000 C   0  0  0  0  0  0           0  0  0
    5.2542    0.7208    0.0000 C   0  0  0  0  0  0           0  0  0
    6.2792   -0.2917    0.0000 C   0  0  0  0  0  0           0  0  0
    0.0292   -3.7375    0.0000 C   0  0  0  0  0  0           0  0  0
    6.6417    1.0958    0.0000 O   0  0  0  0  0  0           0  0  0
    9.2500    1.1958    0.0000 C   0  0  0  0  0  0           0  0  0
    8.2667    0.3000    0.0000 C   0  0  0  0  0  0           0  0  0
    2.1667   -3.3250    0.0000 C   0  0  0  0  0  0           0  0  0
    1.4542   -4.5667    0.0000 C   0  0  0  0  0  0           0  0  0
   -0.6875   -3.3250    0.0000 C   0  0  0  0  0  0           0  0  0
    0.0292   -4.5667    0.0000 C   0  0  0  0  0  0           0  0  0
    6.4250    1.8958    0.0000 C   0  0  0  0  0  0           0  0  0
    1.4542   -3.7375    0.0000 C   0  0  0  0  0  0           0  0  0
    7.9292    1.0500    0.0000 C   0  0  0  0  0  0           0  0  0
    8.5375    1.6083    0.0000 C   0  0  0  0  0  0           0  0  0
   -0.6833   -4.9792    0.0000 C   0  0  0  0  0  0           0  0  0
   -1.4083   -3.7375    0.0000 C   0  0  0  0  0  0           0  0  0
   -1.4083   -4.5667    0.0000 C   0  0  0  0  0  0           0  0  0
  2  4  2  0     0  0
  3  1  1  0     0  0
  4  1  1  0     0  0
  5  3  2  0     0  0
  6 17  1  0     0  0
  7 11  1  0     0  0
  8 24  1  0     0  0
  9  7  1  0     0  0
 10  6  1  0     0  0
 11 10  1  0     0  0
 12 21  1  0     0  0
 13 29  2  0     0  0
 14  2  1  0     0  0
 15  3  1  0     0  0
 16 14  1  0     0  0
 17 23  1  0     0  0
 18  1  1  0     0  0
 19 12  1  0     0  0
 20  5  1  0     0  0
 21  9  1  0     0  0
 22 13  1  0     0  0
 23 15  2  0     0  0
 24 37  1  0     0  0
 25  6  2  0     0  0
 26  7  2  0     0  0
 11 27  1  6     0  0
 28 12  2  0     0  0
 29 53  1  0     0  0
 30  8  1  0     0  0
 31  8  1  0     0  0
 32  8  1  0     0  0
 33 13  1  0     0  0
 34 23  1  0     0  0
 35 18  1  0     0  0
 36 27  1  0     0  0
 37 44  2  0     0  0
 38 19  1  0     0  0
 39 46  1  0     0  0
 40 35  1  0     0  0
 41 36  2  0     0  0
 42 35  2  0     0  0
 43 36  1  0     0  0
 44 42  1  0     0  0
 45 40  2  0     0  0
 46 43  2  0     0  0
 47 41  1  0     0  0
 48 38  1  0     0  0
 49 39  1  0     0  0
 50 16  1  0     0  0
 51 16  1  0     0  0
 21 52  1  1     0  0
 53 57  1  0     0  0
 54 48  1  0     0  0
 55 48  2  0     0  0
 56 49  1  0     0  0
 57 52  1  0     0  0
 58 51  1  0     0  0
 59 50  1  0     0  0
 60 55  1  0     0  0
 61 54  2  0     0  0
 62 60  2  0     0  0
  2  5  1  0     0  0
 45 37  1  0     0  0
 34 20  2  0     0  0
 58 59  1  0     0  0
 39 47  2  0     0  0
 62 61  1  0     0  0
M  END