
  SciTegic12171313022D

 19 20  0  0  0  0            999 V2000
    4.9932   -2.5340    0.0000 N   0  0
    5.8182   -2.5340    0.0000 C   0  0
    6.2307   -3.2484    0.0000 C   0  0
    5.8182   -3.9629    0.0000 C   0  0
    4.9932   -3.9629    0.0000 C   0  0
    4.5807   -4.6774    0.0000 C   0  0
    3.7557   -4.6774    0.0000 C   0  0
    3.3432   -3.9629    0.0000 C   0  0
    3.7557   -3.2484    0.0000 C   0  0
    4.5807   -3.2484    0.0000 C   0  0
    6.2307   -4.6774    0.0000 O   0  0
    7.0557   -3.2484    0.0000 O   0  0
    6.2307   -1.8195    0.0000 C   0  0
    7.0557   -1.8195    0.0000 C   0  0
    7.4682   -2.5340    0.0000 C   0  0
    8.2932   -2.5340    0.0000 C   0  0
    8.7057   -3.2484    0.0000 C   0  0
    9.5307   -3.2484    0.0000 C   0  0
    9.9432   -3.9629    0.0000 C   0  0
  1  2  1  0
  2  3  2  0
  3  4  1  0
  4  5  1  0
  5  6  1  0
  6  7  2  0
  7  8  1  0
  8  9  2  0
  9 10  1  0
  1 10  1  0
  5 10  2  0
  4 11  2  0
  3 12  1  0
 13 14  1  0
 14 15  1  0
 15 16  1  0
 16 17  1  0
 17 18  1  0
 18 19  1  0
  2 13  1  0
M  END