
          11280715122D 1   1.00000     0.00000     0

 25 28  0     0  0            999 V2000
    2.2917    1.3208    0.0000 C   0  0  0  0  0  0           0  0  0
    3.0417    1.6583    0.0000 C   0  0  0  0  0  0           0  0  0
    3.5917    1.0458    0.0000 N   0  0  0  0  0  0           0  0  0
    2.3792    0.5000    0.0000 C   0  0  0  0  0  0           0  0  0
    3.1875    0.3333    0.0000 O   0  0  0  0  0  0           0  0  0
    3.2125    2.4708    0.0000 C   0  0  0  0  0  0           0  0  0
    1.5750    1.7333    0.0000 C   0  0  0  0  0  0           0  0  0
   -1.2833    0.0708    0.0000 N   0  0  3  0  0  0           0  0  0
   -0.5708    0.4833    0.0000 C   0  0  0  0  0  0           0  0  0
    3.9917    2.7250    0.0000 C   0  0  0  0  0  0           0  0  0
    1.7667   -0.0542    0.0000 O   0  0  0  0  0  0           0  0  0
    0.8625    1.3125    0.0000 C   0  0  0  0  0  0           0  0  0
    0.1417    0.0708    0.0000 C   0  0  0  0  0  0           0  0  0
   -0.5708    1.3125    0.0000 C   0  0  0  0  0  0           0  0  0
    4.6125    2.1750    0.0000 F   0  0  0  0  0  0           0  0  0
    0.1417    1.7250    0.0000 C   0  0  0  0  0  0           0  0  0
    0.8625    0.4833    0.0000 C   0  0  0  0  0  0           0  0  0
    2.5917    3.0208    0.0000 C   0  0  0  0  0  0           0  0  0
   -2.0375    0.4083    0.0000 C   0  0  0  0  0  0           0  0  0
   -1.3625   -0.7500    0.0000 C   0  0  0  0  0  0           0  0  0
    4.1625    3.5333    0.0000 C   0  0  0  0  0  0           0  0  0
    2.7625    3.8208    0.0000 C   0  0  0  0  0  0           0  0  0
   -2.1708   -0.9250    0.0000 C   0  0  0  0  0  0           0  0  0
   -2.5833   -0.2125    0.0000 C   0  0  0  0  0  0           0  0  0
    3.5500    4.0750    0.0000 C   0  0  0  0  0  0           0  0  0
  2  1  1  0     0  0
  3  2  2  0     0  0
  4  1  1  0     0  0
  5  4  1  0     0  0
  6  2  1  0     0  0
  7  1  2  0     0  0
  8  9  1  0     0  0
  9 13  1  0     0  0
 10  6  2  0     0  0
 11  4  2  0     0  0
 12  7  1  0     0  0
 13 17  2  0     0  0
 14 16  1  0     0  0
 15 10  1  0     0  0
 16 12  2  0     0  0
 17 12  1  0     0  0
 18  6  1  0     0  0
 19  8  1  0     0  0
 20  8  1  0     0  0
 21 10  1  0     0  0
 22 18  2  0     0  0
 23 20  1  0     0  0
 24 19  1  0     0  0
 25 22  1  0     0  0
  3  5  1  0     0  0
  9 14  2  0     0  0
 25 21  2  0     0  0
 23 24  1  0     0  0
M  END