
  SciTegic02101214292D

 35 39  0  0  0  0            999 V2000
    2.6580   -1.6499    0.0000 C   0  0
    2.6580   -2.4749    0.0000 O   0  0
    1.9435   -1.2374    0.0000 N   0  0
    1.9435   -0.4125    0.0000 C   0  0
    1.2290    0.0000    0.0000 C   0  0
    0.5146   -0.4125    0.0000 N   0  0
    0.5146   -1.2375    0.0000 C   0  0
    1.2290   -1.6499    0.0000 C   0  0
   -0.1999    0.0000    0.0000 C   0  0
   -0.9143   -0.4125    0.0000 C   0  0
   -1.6288    0.0000    0.0000 N   0  0
   -1.6288    0.8250    0.0000 C   0  0
   -0.9144    1.2375    0.0000 C   0  0
   -0.9144    2.0624    0.0000 C   0  0
   -1.6288    2.4749    0.0000 C   0  0
   -2.3433    2.0625    0.0000 C   0  0
   -2.3433    1.2375    0.0000 N   0  0
   -2.3433   -0.4125    0.0000 C   0  0
   -3.0578    0.0000    0.0000 C   0  0
   -3.0578    0.8250    0.0000 C   0  0
   -3.7722    1.2375    0.0000 C   0  0
   -4.4866    0.8249    0.0000 C   0  0
   -4.4866    0.0000    0.0000 C   0  0
   -3.7722   -0.4125    0.0000 C   0  0
   -5.2011    1.2374    0.0000 O   0  0
   -5.9156    0.8249    0.0000 C   0  0
    4.1261   -1.5730    0.0000 N   0  0
    3.3724   -1.2374    0.0000 C   0  0
    4.2656   -0.2454    0.0000 C   0  0
    4.6781    0.4690    0.0000 C   0  0
    5.5031    0.4690    0.0000 C   0  0
    5.9156   -0.2455    0.0000 C   0  0
    5.5031   -0.9599    0.0000 C   0  0
    4.6781   -0.9599    0.0000 C   0  0
    3.4586   -0.4170    0.0000 N   0  0
  1  2  2  0
  3  4  1  0
  4  5  1  0
  5  6  1  0
  6  7  1  0
  7  8  1  0
  3  8  1  0
  9 10  1  0
 12 13  1  0
 13 14  2  0
 14 15  1  0
 15 16  2  0
 16 17  1  0
 12 17  2  0
 11 12  1  0
 18 19  1  0
 19 20  1  0
 20 21  2  0
 21 22  1  0
 22 23  2  0
 23 24  1  0
 19 24  2  0
 25 26  1  0
 22 25  1  0
 11 18  1  0
 10 11  1  0
  6  9  1  0
  1  3  1  0
 27 28  1  0
 28 35  2  0
 35 29  1  0
 29 30  1  0
 30 31  2  0
 31 32  1  0
 32 33  2  0
 33 34  1  0
 27 34  1  0
 29 34  2  0
  1 28  1  0
M  END