
  CDK    9/16/09,10:6

 43 45  0  0  0  0  0  0  0  0999 V2000
    6.2876   -4.0939    0.0000 C   0  0  0  0  0  0  0  0  0  0  0  0
    6.2876   -4.9230    0.0000 C   0  0  0  0  0  0  0  0  0  0  0  0
    7.0043   -5.3375    0.0000 C   0  0  0  0  0  0  0  0  0  0  0  0
    7.7211   -4.9230    0.0000 C   0  0  0  0  0  0  0  0  0  0  0  0
    7.7211   -4.0939    0.0000 C   0  0  0  0  0  0  0  0  0  0  0  0
    7.0043   -3.6795    0.0000 C   0  0  0  0  0  0  0  0  0  0  0  0
    7.0031   -2.8551    0.0000 O   0  0  0  0  0  0  0  0  0  0  0  0
    7.0031   -6.1619    0.0000 O   0  0  0  0  0  0  0  0  0  0  0  0
    5.5746   -3.6858    0.0000 C   0  0  0  0  0  0  0  0  0  0  0  0
    5.5726   -2.8615    0.0000 C   0  0  0  0  0  0  0  0  0  0  0  0
    4.8548   -2.4486    0.0000 C   0  0  0  0  0  0  0  0  0  0  0  0
    6.2836   -2.4452    0.0000 C   0  0  0  0  0  0  0  0  0  0  0  0
    6.2816   -1.6208    0.0000 C   0  0  0  0  0  0  0  0  0  0  0  0
    6.9973   -1.2092    0.0000 C   0  0  0  0  0  0  0  0  0  0  0  0
    5.5685   -1.2127    0.0000 O   0  0  0  0  0  0  0  0  0  0  0  0
    5.5665   -0.3883    0.0000 C   0  0  0  0  0  0  0  0  0  0  0  0
    6.9953   -0.3849    0.0000 C   0  0  0  0  0  0  0  0  0  0  0  0
    7.7104   -1.6173    0.0000 O   0  0  0  0  0  0  0  0  0  0  0  0
    7.7063    0.0314    0.0000 C   0  0  0  0  0  0  0  0  0  0  0  0
    6.2776    0.0279    0.0000 C   0  0  0  0  0  0  0  0  0  0  0  0
    8.4241   -0.3814    0.0000 C   0  0  0  0  0  0  0  0  0  0  0  0
    9.1351    0.0349    0.0000 C   0  0  0  0  0  0  0  0  0  0  0  0
    8.4261   -1.2058    0.0000 C   0  0  0  0  0  0  0  0  0  0  0  0
    9.9577    0.0372    0.0000 C   0  0  0  0  0  0  0  0  0  0  0  0
   10.6703   -0.3773    0.0000 C   0  0  0  0  0  0  0  0  0  0  0  0
   10.1700    0.8331    0.0000 O   0  0  0  0  0  0  0  0  0  0  0  0
    8.9989    0.8471    0.0000 O   0  0  0  0  0  0  0  0  0  0  0  0
    8.2269    1.1339    0.0000 C   0  0  0  0  0  0  0  0  0  0  0  0
    8.0867    1.9513    0.0000 O   0  0  0  0  0  0  0  0  0  0  0  0
    7.5906    0.6084    0.0000 N   0  0  0  0  0  0  0  0  0  0  0  0
   10.9703    1.0456    0.0000 C   0  0  0  0  0  0  0  0  0  0  0  0
   10.6683   -1.2016    0.0000 C   0  0  0  0  0  0  0  0  0  0  0  0
    9.9505   -1.6097    0.0000 C   0  0  0  0  0  0  0  0  0  0  0  0
    9.9484   -2.4341    0.0000 C   0  0  0  0  0  0  0  0  0  0  0  0
   10.6641   -2.8504    0.0000 C   0  0  0  0  0  0  0  0  0  0  0  0
    8.4381   -3.6848    0.0000 N   0  0  0  0  0  0  0  0  0  0  0  0
    8.4390   -2.8604    0.0000 C   0  0  0  0  0  0  0  0  0  0  0  0
    7.7228   -2.4452    0.0000 O   0  0  0  0  0  0  0  0  0  0  0  0
    5.5756   -5.3375    0.0000 N   0  0  0  0  0  0  0  0  0  0  0  0
    4.7787   -5.1291    0.0000 C   0  0  0  0  0  0  0  0  0  0  0  0
    4.5617   -5.9249    0.0000 C   0  0  0  0  0  0  0  0  0  0  0  0
    5.3622   -6.1373    0.0000 C   0  0  0  0  0  0  0  0  0  0  0  0
    8.5465   -1.6161    0.0000 C   0  0  0  0  0  0  0  0  0  0  0  0
  3  4  1  0  0  0  0 
 21 22  1  0  0  0  0 
 10 11  1  1  0  0  0 
 21 23  1  0  0  0  0 
  4  5  2  0  0  0  0 
 22 24  1  0  0  0  0 
 10 12  1  0  0  0  0 
 24 25  1  0  0  0  0 
  5  6  1  0  0  0  0 
 24 26  1  1  0  0  0 
 12 13  1  0  0  0  0 
 22 27  1  6  0  0  0 
 27 28  1  0  0  0  0 
 13 14  1  0  0  0  0 
 28 29  2  0  0  0  0 
  6  7  2  0  0  0  0 
 28 30  1  0  0  0  0 
 13 15  1  6  0  0  0 
 26 31  1  0  0  0  0 
  1  2  2  0  0  0  0 
 25 32  2  0  0  0  0 
 15 16  1  0  0  0  0 
 32 33  1  0  0  0  0 
  3  8  2  0  0  0  0 
 33 34  2  0  0  0  0 
 14 17  1  0  0  0  0 
 34 35  1  0  0  0  0 
  1  6  1  0  0  0  0 
  5 36  1  0  0  0  0 
 14 18  1  1  0  0  0 
 36 37  1  0  0  0  0 
  1  9  1  0  0  0  0 
 37 38  2  0  0  0  0 
 37 34  1  0  0  0  0 
 17 19  1  0  0  0  0 
  2 39  1  0  0  0  0 
 39 40  1  0  0  0  0 
  2  3  1  0  0  0  0 
 17 20  1  1  0  0  0 
  9 10  1  0  0  0  0 
 40 41  1  0  0  0  0 
 41 42  1  0  0  0  0 
 42 39  1  0  0  0  0 
 19 21  2  0  0  0  0 
 18 43  1  0  0  0  0 
M  END