
  CDK    9/16/09,10:2

 81 86  0  0  0  0  0  0  0  0999 V2000
    3.8439   -9.4704    0.0000 C   0  0  0  0  0  0  0  0  0  0  0  0
    4.5637   -9.8683    0.0000 C   0  0  0  0  0  0  0  0  0  0  0  0
    5.2662   -9.4420    0.0000 C   0  0  0  0  0  0  0  0  0  0  0  0
    5.2505   -8.6165    0.0000 C   0  0  0  0  0  0  0  0  0  0  0  0
    4.5261   -8.2190    0.0000 C   0  0  0  0  0  0  0  0  0  0  0  0
    3.8173   -8.6471    0.0000 C   0  0  0  0  0  0  0  0  0  0  0  0
    8.1070   -6.1288    0.0000 C   0  0  0  0  0  0  0  0  0  0  0  0
    9.5373   -6.1235    0.0000 O   0  0  0  0  0  0  0  0  0  0  0  0
    8.8221   -5.7140    0.0000 C   0  0  0  0  0  0  0  0  0  0  0  0
    7.3904   -5.7187    0.0000 C   0  0  0  0  0  0  0  0  0  0  0  0
    7.3860   -4.8911    0.0000 C   0  0  0  0  0  0  0  0  0  0  0  0
    6.6717   -4.4823    0.0000 C   0  0  0  0  0  0  0  0  0  0  0  0
    6.6672   -3.6593    0.0000 O   0  0  0  0  0  0  0  0  0  0  0  0
    9.5288   -4.4750    0.0000 C   0  0  0  0  0  0  0  0  0  0  0  0
    8.8098   -3.2477    0.0000 O   0  0  0  0  0  0  0  0  0  0  0  0
    9.5242   -3.6556    0.0000 C   0  0  0  0  0  0  0  0  0  0  0  0
   10.2324   -2.4130    0.0000 C   0  0  0  0  0  0  0  0  0  0  0  0
   11.6654   -2.4095    0.0000 O   0  0  0  0  0  0  0  0  0  0  0  0
   10.9485   -1.9946    0.0000 C   0  0  0  0  0  0  0  0  0  0  0  0
    9.5181   -2.0048    0.0000 C   0  0  0  0  0  0  0  0  0  0  0  0
    9.5136   -1.1737    0.0000 C   0  0  0  0  0  0  0  0  0  0  0  0
    8.7995   -0.7655    0.0000 C   0  0  0  0  0  0  0  0  0  0  0  0
   10.2297   -0.7637    0.0000 C   0  0  0  0  0  0  0  0  0  0  0  0
   11.6579   -0.7581    0.0000 C   0  0  0  0  0  0  0  0  0  0  0  0
   10.9355    0.4658    0.0000 O   0  0  0  0  0  0  0  0  0  0  0  0
   11.6534    0.0588    0.0000 C   0  0  0  0  0  0  0  0  0  0  0  0
   12.3749   -1.1646    0.0000 C   0  0  0  0  0  0  0  0  0  0  0  0
    7.3988   -8.1926    0.0000 C   0  0  0  0  0  0  0  0  0  0  0  0
    7.3943   -7.3678    0.0000 C   0  0  0  0  0  0  0  0  0  0  0  0
    6.6774   -6.9574    0.0000 O   0  0  0  0  0  0  0  0  0  0  0  0
    8.1167   -8.6036    0.0000 C   0  0  0  0  0  0  0  0  0  0  0  0
    8.8264   -8.1876    0.0000 C   0  0  0  0  0  0  0  0  0  0  0  0
    9.5411   -8.6054    0.0000 C   0  0  0  0  0  0  0  0  0  0  0  0
   10.2585   -8.1829    0.0000 C   0  0  0  0  0  0  0  0  0  0  0  0
   10.2536   -7.3582    0.0000 C   0  0  0  0  0  0  0  0  0  0  0  0
    9.5305   -6.9498    0.0000 C   0  0  0  0  0  0  0  0  0  0  0  0
    8.8204   -7.3687    0.0000 C   0  0  0  0  0  0  0  0  0  0  0  0
   10.9649   -6.9414    0.0000 O   0  0  0  0  0  0  0  0  0  0  0  0
   11.6821   -7.3520    0.0000 P   0  0  0  0  0  0  0  0  0  0  0  0
   11.2736   -8.0656    0.0000 O   0  0  0  0  0  0  0  0  0  0  0  0
    8.1084   -6.9541    0.0000 N   0  0  0  0  0  0  0  0  0  0  0  0
    5.9581   -4.8955    0.0000 N   0  0  0  0  0  0  0  0  0  0  0  0
    8.8147   -4.8887    0.0000 N   0  0  0  0  0  0  0  0  0  0  0  0
   10.2368   -3.2383    0.0000 N   0  0  0  0  0  0  0  0  0  0  0  0
   10.9439   -1.1693    0.0000 N   0  0  0  0  0  0  0  0  0  0  0  0
   13.0939   -0.7476    0.0000 O   0  0  0  0  0  0  0  0  0  0  0  0
   12.3703    0.4802    0.0000 N   0  0  0  0  0  0  0  0  0  0  0  0
    6.6846   -8.6064    0.0000 N   0  0  0  0  0  0  0  0  0  0  0  0
   12.3977   -7.7612    0.0000 O   0  0  0  0  0  0  0  0  0  0  0  0
   12.0950   -6.6303    0.0000 O   0  0  0  0  0  0  0  0  0  0  0  0
    5.9696   -8.1991    0.0000 C   0  0  0  0  0  0  0  0  0  0  0  0
    5.9684   -7.3738    0.0000 O   0  0  0  0  0  0  0  0  0  0  0  0
    2.8637   -4.3210    0.0000 C   0  0  0  0  0  0  0  0  0  0  0  0
    2.0893   -4.0392    0.0000 C   0  0  0  0  0  0  0  0  0  0  0  0
    1.4580   -4.5697    0.0000 C   0  0  0  0  0  0  0  0  0  0  0  0
    1.5942   -5.3814    0.0000 C   0  0  0  0  0  0  0  0  0  0  0  0
    0.9632   -5.9116    0.0000 C   0  0  0  0  0  0  0  0  0  0  0  0
    0.6809   -4.2729    0.0000 O   0  0  0  0  0  0  0  0  0  0  0  0
    0.0441   -4.8076    0.0000 C   0  0  0  0  0  0  0  0  0  0  0  0
    0.1834   -5.6197    0.0000 C   0  0  0  0  0  0  0  0  0  0  0  0
   -0.4476   -6.1475    0.0000 C   0  0  0  0  0  0  0  0  0  0  0  0
   -1.2234   -5.8609    0.0000 C   0  0  0  0  0  0  0  0  0  0  0  0
   -1.3599   -5.0473    0.0000 C   0  0  0  0  0  0  0  0  0  0  0  0
   -0.7238   -4.5225    0.0000 C   0  0  0  0  0  0  0  0  0  0  0  0
    3.4964   -3.7952    0.0000 O   0  0  0  0  0  0  0  0  0  0  0  0
    0.9594   -6.9865    0.0000 C   0  0  0  0  0  0  0  0  0  0  0  0
    1.6776   -7.4046    0.0000 C   0  0  0  0  0  0  0  0  0  0  0  0
    0.9507   -8.6340    0.0000 C   0  0  0  0  0  0  0  0  0  0  0  0
    0.2384   -8.2156    0.0000 C   0  0  0  0  0  0  0  0  0  0  0  0
    0.2418   -7.3925    0.0000 C   0  0  0  0  0  0  0  0  0  0  0  0
    0.9460   -9.4602    0.0000 N   0  0  0  0  0  0  0  0  0  0  0  0
    0.9450  -10.2844    0.0000 C   0  0  0  0  0  0  0  0  0  0  0  0
    0.9404  -11.1107    0.0000 S   0  0  0  0  0  0  0  0  0  0  0  0
    2.3955   -6.9940    0.0000 C   0  0  0  0  0  0  0  0  0  0  0  0
    2.3736   -5.6667    0.0000 C   0  0  0  0  0  0  0  0  0  0  0  0
    2.3965   -6.1680    0.0000 O   0  0  0  0  0  0  0  0  0  0  0  0
    3.0036   -5.1427    0.0000 C   0  0  0  0  0  0  0  0  0  0  0  0
    1.6709   -8.2220    0.0000 C   0  0  0  0  0  0  0  0  0  0  0  0
   -2.1353   -4.7572    0.0000 O   0  0  0  0  0  0  0  0  0  0  0  0
    3.1062   -7.4070    0.0000 N   0  0  0  0  0  0  0  0  0  0  0  0
    3.1038   -8.2323    0.0000 C   0  0  0  0  0  0  0  0  0  0  0  0
 26 25  2  0  0  0  0 
 24 27  1  6  0  0  0 
 28 29  1  0  0  0  0 
 29 30  2  0  0  0  0 
 28 31  1  6  0  0  0 
 31 32  1  0  0  0  0 
 32 33  2  0  0  0  0 
 33 34  1  0  0  0  0 
 34 35  2  0  0  0  0 
 35 36  1  0  0  0  0 
 36 37  2  0  0  0  0 
 37 32  1  0  0  0  0 
 35 38  1  0  0  0  0 
 38 39  1  0  0  0  0 
 39 40  2  0  0  0  0 
  7  9  1  0  0  0  0 
  9  8  2  0  0  0  0 
  7 10  1  1  0  0  0 
 10 11  1  0  0  0  0 
 11 12  1  0  0  0  0 
 29 41  1  0  0  0  0 
 51 48  1  0  0  0  0 
 41  7  1  0  0  0  0 
 51 52  2  0  0  0  0 
  4 51  1  0  0  0  0 
  3  4  1  0  0  0  0 
  4  5  2  0  0  0  0 
  5  6  1  0  0  0  0 
  1  2  1  0  0  0  0 
  1  6  2  0  0  0  0 
  2  3  2  0  0  0  0 
 27 46  1  0  0  0  0 
 43 14  1  0  0  0  0 
  9 43  1  0  0  0  0 
 26 47  1  0  0  0  0 
 48 28  1  0  0  0  0 
 44 17  1  0  0  0  0 
 16 44  1  0  0  0  0 
 39 49  1  0  0  0  0 
 12 42  1  0  0  0  0 
 39 50  1  0  0  0  0 
 45 24  1  0  0  0  0 
 19 45  1  0  0  0  0 
 12 13  2  0  0  0  0 
 14 16  1  0  0  0  0 
 16 15  2  0  0  0  0 
 17 19  1  0  0  0  0 
 19 18  2  0  0  0  0 
 17 20  1  1  0  0  0 
 20 21  1  0  0  0  0 
 21 22  1  0  0  0  0 
 21 23  1  0  0  0  0 
 53 77  1  0  0  0  0 
 77 75  2  0  0  0  0 
 75 56  1  0  0  0  0 
 55 54  2  0  0  0  0 
 54 53  1  0  0  0  0 
 55 56  1  0  0  0  0 
 55 58  1  0  0  0  0 
 56 57  2  0  0  0  0 
 57 60  1  0  0  0  0 
 59 58  1  0  0  0  0 
 59 60  2  0  0  0  0 
 60 61  1  0  0  0  0 
 61 62  2  0  0  0  0 
 62 63  1  0  0  0  0 
 63 64  2  0  0  0  0 
 64 59  1  0  0  0  0 
 53 65  2  0  0  0  0 
 66 67  2  0  0  0  0 
 67 78  1  0  0  0  0 
 78 68  2  0  0  0  0 
 68 69  1  0  0  0  0 
 69 70  2  0  0  0  0 
 70 66  1  0  0  0  0 
 57 66  1  0  0  0  0 
 68 71  1  0  0  0  0 
 71 72  2  0  0  0  0 
 72 73  2  0  0  0  0 
 67 74  1  0  0  0  0 
 74 76  2  0  0  0  0 
 63 79  1  0  0  0  0 
 74 80  1  0  0  0  0 
 24 26  1  0  0  0  0 
 80 81  1  0  0  0  0 
 81  6  1  0  0  0  0 
M  END