
          11280714462D 1   1.00000     0.00000     0

 40 42  0     1  0            999 V2000
    4.1417  -13.9792    0.0000 N   0  0  0  0  0  0           0  0  0
    3.4292  -13.5667    0.0000 C   0  0  0  0  0  0           0  0  0
    9.8667  -12.3292    0.0000 C   0  0  0  0  0  0           0  0  0
    9.1542  -12.7417    0.0000 C   0  0  1  0  0  0           0  0  0
    9.8792  -17.2875    0.0000 C   0  0  0  0  0  0           0  0  0
    2.7167  -13.9792    0.0000 C   0  0  0  0  0  0           0  0  0
    9.1667  -17.7000    0.0000 C   0  0  3  0  0  0           0  0  0
    8.4417  -13.9792    0.0000 S   0  0  0  0  0  0           0  0  0
    7.7250  -15.2292    0.0000 C   0  0  0  0  0  0           0  0  0
    9.1542  -13.5667    0.0000 C   0  0  0  0  0  0           0  0  0
   10.5792  -12.7417    0.0000 O   0  5  0  0  0  0           0  0  0
    3.4292  -12.7417    0.0000 C   0  0  0  0  0  0           0  0  0
    9.8792  -16.4542    0.0000 C   0  0  0  0  0  0           0  0  0
    8.4417  -14.8042    0.0000 C   0  0  2  0  0  0           0  0  0
    9.8667  -11.5000    0.0000 O   0  0  0  0  0  0           0  0  0
    7.0042  -14.8167    0.0000 C   0  0  0  0  0  0           0  0  0
    4.8625  -13.5667    0.0000 C   0  0  0  0  0  0           0  0  0
    9.1667  -16.0417    0.0000 C   0  0  0  0  0  0           0  0  0
    9.1667  -15.2167    0.0000 C   0  0  0  0  0  0           0  0  0
    2.0042  -13.5667    0.0000 C   0  0  0  0  0  0           0  0  0
    4.1417  -12.3292    0.0000 C   0  0  0  0  0  0           0  0  0
    2.7167  -12.3292    0.0000 C   0  0  0  0  0  0           0  0  0
    5.5792  -14.8167    0.0000 O   0  0  0  0  0  0           0  0  0
    6.2917  -15.2292    0.0000 C   0  0  0  0  0  0           0  0  0
    9.1667  -18.5250    0.0000 O   0  0  0  0  0  0           0  0  0
    5.5792  -13.9875    0.0000 C   0  0  0  0  0  0           0  0  0
    4.8625  -12.7417    0.0000 C   0  0  0  0  0  0           0  0  0
    2.0042  -12.7417    0.0000 C   0  0  0  0  0  0           0  0  0
    1.2792  -13.9875    0.0000 Cl  0  0  0  0  0  0           0  0  0
   11.5042  -12.8542    0.0000 Na  0  3  0  0  0  0           0  0  0
    7.7250  -16.0542    0.0000 C   0  0  0  0  0  0           0  0  0
    8.4375  -12.3292    0.0000 C   0  0  0  0  0  0           0  0  0
    7.0042  -16.4667    0.0000 C   0  0  0  0  0  0           0  0  0
   10.5917  -17.7000    0.0000 C   0  0  0  0  0  0           0  0  0
    8.4542  -17.2792    0.0000 C   0  0  0  0  0  0           0  0  0
    8.3375  -17.6917    0.0000 C   0  0  0  0  0  0           0  0  0
   10.6000  -16.0417    0.0000 C   0  0  0  0  0  0           0  0  0
    6.2917  -16.0542    0.0000 C   0  0  0  0  0  0           0  0  0
   11.3167  -17.2875    0.0000 C   0  0  0  0  0  0           0  0  0
   11.3167  -16.4542    0.0000 C   0  0  0  0  0  0           0  0  0
  2  1  1  0     0  0
  3  4  1  0     0  0
  4 10  1  0     0  0
  5 13  2  0     0  0
  6  2  2  0     0  0
  7  5  1  0     0  0
 14  8  1  1     0  0
  9 16  2  0     0  0
 10  8  1  0     0  0
 11  3  1  0     0  0
 12  2  1  0     0  0
 13 18  1  0     0  0
 14  9  1  0     0  0
 15  3  2  0     0  0
 16 24  1  0     0  0
 17  1  2  0     0  0
 18 19  1  0     0  0
 19 14  1  0     0  0
 20  6  1  0     0  0
 21 27  2  0     0  0
 22 12  2  0     0  0
 23 26  1  0     0  0
 24 23  1  0     0  0
 25  7  1  0     0  0
 26 17  1  0     0  0
 27 17  1  0     0  0
 28 22  1  0     0  0
 29 20  1  0     0  0
 31 33  2  0     0  0
  4 32  1  1     0  0
 33 38  1  0     0  0
 34  5  1  0     0  0
 35  7  1  0     0  0
 36  7  1  0     0  0
 37 13  1  0     0  0
 38 24  2  0     0  0
 39 40  1  0     0  0
 40 37  2  0     0  0
 21 12  1  0     0  0
 20 28  2  0     0  0
 31  9  1  0     0  0
 34 39  2  0     0  0
M  CHG  2  11  -1  30   1
M  END