
          11280715012D 1   1.00000     0.00000     0

 40 43  0     0  0            999 V2000
    3.8542   -5.2500    0.0000 C   0  0  0  0  0  0           0  0  0
    3.8917   -4.6500    0.0000 N   0  0  0  0  0  0           0  0  0
    3.3375   -4.4292    0.0000 C   0  0  0  0  0  0           0  0  0
    2.9500   -4.9000    0.0000 O   0  0  0  0  0  0           0  0  0
    3.2792   -5.4000    0.0000 C   0  0  0  0  0  0           0  0  0
    4.3750   -5.5500    0.0000 C   0  0  0  0  0  0           0  0  0
    3.3375   -2.0292    0.0000 C   0  0  0  0  0  0           0  0  0
    3.3417   -3.8292    0.0000 C   0  0  0  0  0  0           0  0  0
    3.3375   -2.6292    0.0000 C   0  0  0  0  0  0           0  0  0
    6.9667   -1.7250    0.0000 C   0  0  0  0  0  0           0  0  0
    4.3667   -6.1500    0.0000 O   0  0  0  0  0  0           0  0  0
    2.8167   -1.7292    0.0000 C   0  0  0  0  0  0           0  0  0
    3.8542   -1.7292    0.0000 C   0  0  0  0  0  0           0  0  0
    2.2917   -0.8292    0.0000 N   0  0  0  0  0  0           0  0  0
    6.9667   -1.1250    0.0000 O   0  0  0  0  0  0           0  0  0
    3.8625   -3.5250    0.0000 C   0  0  0  0  0  0           0  0  0
    2.8167   -3.5292    0.0000 C   0  0  0  0  0  0           0  0  0
    3.8542   -2.9250    0.0000 C   0  0  0  0  0  0           0  0  0
    2.8167   -2.9292    0.0000 C   0  0  0  0  0  0           0  0  0
    4.8917   -5.2500    0.0000 N   0  0  0  0  0  0           0  0  0
    7.4917   -2.0250    0.0000 O   0  0  0  0  0  0           0  0  0
    2.8167   -1.1292    0.0000 C   0  0  0  0  0  0           0  0  0
    6.4500   -2.0250    0.0000 C   0  0  0  0  0  0           0  0  0
    1.7750   -1.1292    0.0000 C   0  0  0  0  0  0           0  0  0
    7.4792   -5.5500    0.0000 C   0  0  3  0  0  0           0  0  0
    4.3750   -2.0292    0.0000 C   0  0  0  0  0  0           0  0  0
    2.2917   -2.0292    0.0000 C   0  0  0  0  0  0           0  0  0
    5.4125   -5.5500    0.0000 C   0  0  0  0  0  0           0  0  0
    6.9625   -5.2500    0.0000 C   0  0  0  0  0  0           0  0  0
    7.9917   -5.2500    0.0000 C   0  0  0  0  0  0           0  0  0
    7.4750   -6.1417    0.0000 C   0  0  0  0  0  0           0  0  0
    5.9292   -1.7250    0.0000 C   0  0  0  0  0  0           0  0  0
    4.8917   -1.7292    0.0000 C   0  0  0  0  0  0           0  0  0
    5.9292   -5.2500    0.0000 C   0  0  0  0  0  0           0  0  0
    6.4417   -5.5500    0.0000 C   0  0  0  0  0  0           0  0  0
    5.4125   -2.0292    0.0000 C   0  0  0  0  0  0           0  0  0
    1.7750   -1.7292    0.0000 C   0  0  0  0  0  0           0  0  0
    7.9875   -6.4417    0.0000 C   0  0  0  0  0  0           0  0  0
    8.5125   -5.5542    0.0000 C   0  0  0  0  0  0           0  0  0
    8.5042   -6.1500    0.0000 C   0  0  0  0  0  0           0  0  0
  2  1  1  0     0  0
  3  2  2  0     0  0
  4  5  1  0     0  0
  5  1  2  0     0  0
  6  1  1  0     0  0
  7  9  1  0     0  0
  8  3  1  0     0  0
  9 19  2  0     0  0
 10 23  1  0     0  0
 11  6  2  0     0  0
 12  7  1  0     0  0
 13  7  2  0     0  0
 14 22  2  0     0  0
 15 10  2  0     0  0
 16  8  1  0     0  0
 17  8  2  0     0  0
 18 16  2  0     0  0
 19 17  1  0     0  0
 20  6  1  0     0  0
 21 10  1  0     0  0
 22 12  1  0     0  0
 23 32  1  0     0  0
 24 37  2  0     0  0
 25 29  1  0     0  0
 26 13  1  0     0  0
 27 12  2  0     0  0
 28 20  1  0     0  0
 29 35  1  0     0  0
 30 25  1  0     0  0
 31 25  1  0     0  0
 32 36  1  0     0  0
 33 26  1  0     0  0
 34 28  1  0     0  0
 35 34  1  0     0  0
 36 33  1  0     0  0
 37 27  1  0     0  0
 38 31  1  0     0  0
 39 30  1  0     0  0
 40 38  1  0     0  0
  4  3  1  0     0  0
  9 18  1  0     0  0
 40 39  1  0     0  0
 24 14  1  0     0  0
M  END