
  SciTegic10041313202D

 27 29  0  0  0  0            999 V2000
    4.3167   -6.5542    0.0000 C   0  0
    3.8000   -6.2542    0.0000 C   0  0
    4.3167   -7.1542    0.0000 C   0  0
    3.8000   -7.4542    0.0000 O   0  0
    3.2750   -7.1625    0.0000 C   0  0
    3.2750   -6.5542    0.0000 C   0  0
    4.8375   -6.2542    0.0000 C   0  0
    2.7500   -6.2542    0.0000 C   0  0
    6.4000   -7.1500    0.0000 C   0  0
    3.8000   -5.6500    0.0000 C   0  0
    2.7500   -5.6500    0.0000 C   0  0
    3.2875   -5.3500    0.0000 C   0  0
    4.8375   -7.4542    0.0000 C   0  0
    5.3625   -6.5542    0.0000 C   0  0
    5.3625   -7.1542    0.0000 C   0  0
    7.9686   -5.0716    0.0000 C   0  0
    5.8792   -7.4500    0.0000 C   0  0
    6.9142   -6.8538    0.0000 C   0  0
    8.4850   -5.3771    0.0000 O   0  0
    4.8250   -5.6542    0.0000 O   0  0
    7.9699   -4.4720    0.0000 O   0  0
    3.0750   -7.7292    0.0000 C   0  0
    2.7125   -6.9625    0.0000 C   0  0
    7.4494   -5.3599    0.0000 C   0  0
    3.3000   -4.7500    0.0000 C   0  0
    6.9211   -6.2528    0.0000 C   0  0
    7.4424   -5.9609    0.0000 C   0  0
  2  1  1  0
  3  1  1  0
  4  3  1  0
  5  4  1  0
  6  2  1  0
  7  1  2  0
  8  6  1  0
  9 17  2  0
 10  2  1  0
 11 12  2  0
 12 10  1  0
 13  3  2  0
 14  7  1  0
 15 14  2  0
 16 24  1  0
 17 15  1  0
 18  9  2  0
 19 16  2  0
 20  7  1  0
 21 16  1  0
 22  5  1  0
 23  5  1  0
 24 27  1  0
 25 12  1  0
 26 18  1  0
 27 26  1  0
  5  6  1  0
 15 13  1  0
 11  8  1  0
M  END