
  SciTegic12171313052D

 39 43  0  0  0  0            999 V2000
   18.4405   -3.4197    0.0000 C   0  0
   19.1530   -3.8322    0.0000 C   0  0
   19.8625   -3.4237    0.0000 C   0  0
   19.8658   -2.6010    0.0000 N   0  0
   19.1533   -2.1885    0.0000 C   0  0
   18.4375   -2.5987    0.0000 C   0  0
   20.5813   -2.1904    0.0000 C   0  0
   21.2947   -2.6047    0.0000 C   0  0
   21.2906   -3.4289    0.0000 C   0  0
   21.9999   -3.8431    0.0000 C   0  0
   22.7178   -3.4360    0.0000 N   0  0
   22.7219   -2.6100    0.0000 C   0  0
   22.0081   -2.1912    0.0000 C   0  0
   17.7594   -3.8853    0.0000 N   0  0
   16.9466   -4.9441    0.0000 N   0  0
   17.7381   -4.7118    0.0000 C   0  0
   16.4810   -4.2630    0.0000 C   0  0
   16.9858   -3.6106    0.0000 C   0  0
   16.6730   -2.8494    0.0000 C   0  0
   15.8558   -2.7394    0.0000 C   0  0
   15.3523   -3.3967    0.0000 C   0  0
   15.6678   -4.1553    0.0000 C   0  0
   23.4296   -3.8530    0.0000 C   0  0
   24.1467   -3.4451    0.0000 C   0  0
   24.8568   -3.8666    0.0000 C   0  0
   25.5734   -3.4594    0.0000 C   0  0
   25.5791   -2.6335    0.0000 N   0  0
   24.8622   -2.2166    0.0000 C   0  0
   24.1485   -2.6263    0.0000 C   0  0
   18.3922   -5.2146    0.0000 O   0  0
   20.5835   -1.3654    0.0000 O   0  0
   26.2850   -3.8768    0.0000 N   0  0
   16.6692   -5.7211    0.0000 C   0  0
   15.8577   -5.8694    0.0000 C   0  0
   15.3234   -5.2407    0.0000 C   0  0
   14.5119   -5.3891    0.0000 C   0  0
   13.9777   -4.7604    0.0000 F   0  0
   14.2345   -6.1660    0.0000 F   0  0
   13.6863   -5.3822    0.0000 F   0  0
  1  2  1  0
  1  6  1  0
  2  3  1  0
  3  4  1  0
  4  5  1  0
  5  6  1  0
  4  7  1  0
  7  8  1  0
  8  9  1  0
  8 13  1  0
  9 10  1  0
 10 11  1  0
 11 12  1  0
 12 13  1  0
  1 14  1  0
 14 18  1  0
 17 15  1  0
 15 16  1  0
 16 14  1  0
 17 18  2  0
 18 19  1  0
 19 20  2  0
 20 21  1  0
 21 22  2  0
 22 17  1  0
 11 23  1  0
 23 24  1  0
 24 25  2  0
 25 26  1  0
 26 27  2  0
 27 28  1  0
 28 29  2  0
 29 24  1  0
 16 30  2  0
  7 31  2  0
 26 32  1  0
 15 33  1  0
 33 34  1  0
 34 35  1  0
 35 36  1  0
 36 37  1  0
 36 38  1  0
 36 39  1  0
M  END