
  SciTegic04151115542D

 25 26  0  0  0  0            999 V2000
   -1.0598   -5.1708    0.0000 C   0  0
   -1.0610   -5.9982    0.0000 C   0  0
   -0.3461   -6.4111    0.0000 C   0  0
    0.3703   -5.9977    0.0000 C   0  0
    0.3674   -5.1672    0.0000 C   0  0
   -0.3479   -4.7581    0.0000 C   0  0
   -0.3463   -7.2361    0.0000 F   0  0
   -1.7758   -6.4101    0.0000 Cl  0  0
    1.0804   -4.7520    0.0000 N   0  0
    1.7964   -5.1618    0.0000 C   0  0
    2.5093   -4.7466    0.0000 C   0  0
    1.7995   -5.9868    0.0000 O   0  0
    3.2253   -5.1564    0.0000 N   0  0
    2.5062   -3.9216    0.0000 O   0  0
    4.6549   -5.9745    0.0000 C   0  0
    4.6518   -5.1495    0.0000 C   0  0
    5.3647   -4.7344    0.0000 C   0  0
    6.0807   -5.1442    0.0000 C   0  0
    6.0839   -5.9692    0.0000 N   0  0
    5.3709   -6.3843    0.0000 C   0  0
    6.4875   -4.4250    0.0000 C   0  0
    6.8750   -5.3542    0.0000 C   0  0
    4.9542   -7.0958    0.0000 C   0  0
    5.7792   -7.0958    0.0000 C   0  0
    3.9358   -4.7397    0.0000 C   0  0
  9 10  1  0
  2  3  1  0
 10 11  1  0
  5  6  2  0
 10 12  2  0
  6  1  1  0
 11 13  1  0
  1  2  2  0
 11 14  2  0
  3  7  1  0
  3  4  2  0
  2  8  1  0
  5  9  1  0
 15 20  1  0
 15 16  1  0
 16 17  1  0
 17 18  1  0
 18 19  1  0
 19 20  1  0
 18 21  1  0
 18 22  1  0
 20 23  1  0
 20 24  1  0
  4  5  1  0
 16 25  1  0
 25 13  1  0
M  END