
  SciTegic03151118422D

 44 41  0  0  0  0            999 V2000
   22.1506    0.5000    0.0000 C   0  0
    0.5000    3.0000    0.0000 C   0  0
   13.4904    4.5000    0.0000 C   0  0
   12.6244    5.0000    0.0000 C   0  0
   18.6865    4.5000    0.0000 C   0  0
    7.4282    5.0000    0.0000 C   0  0
   19.5526    5.0000    0.0000 C   0  0
    6.5622    4.5000    0.0000 C   0  0
   19.5526    3.0000    0.0000 C   0  0
    1.3660    6.5000    0.0000 C   0  0
   19.5526    2.0000    0.0000 C   0  0
    0.5000    6.0000    0.0000 C   0  0
   14.3564    5.0000    0.0000 C   0  0
   11.7583    4.5000    0.0000 C   0  0
   17.8205    5.0000    0.0000 C   0  0
    8.2942    4.5000    0.0000 C   0  0
   20.4186    4.5000    0.0000 C   0  0
    5.6962    5.0000    0.0000 C   0  0
   20.4186    3.5000    0.0000 C   0  0
    2.2321    6.0000    0.0000 C   0  0
   20.4186    1.5000    0.0000 C   0  0
    0.5000    5.0000    0.0000 C   0  0
   15.2224    4.5000    0.0000 C   0  0
   10.8923    5.0000    0.0000 C   0  0
   16.9545    4.5000    0.0000 C   0  0
    9.1603    5.0000    0.0000 C   0  0
   21.2846    5.0000    0.0000 C   0  0
    4.8301    4.5000    0.0000 C   0  0
   22.1506    3.5000    0.0000 C   0  0
    3.0981    4.5000    0.0000 C   0  0
   21.2846    3.0000    0.0000 C   0  0
    2.2321    5.0000    0.0000 C   0  0
   21.2846    2.0000    0.0000 C   0  0
    1.3660    4.5000    0.0000 C   0  0
   16.0885    5.0000    0.0000 N   0  0
   10.0263    4.5000    0.0000 N   0  0
   22.1506    4.5000    0.0000 N   0  0
    3.9641    5.0000    0.0000 N   0  0
   22.1506    1.5000    0.0000 O   0  0
    1.3660    3.5000    0.0000 O   0  0
    0.0000    0.0000    0.0000 Cl  0  0
    0.5000    7.5000    0.0000 Cl  0  0
    0.5000    9.5000    0.0000 Cl  0  0
    2.5000    9.5000    0.0000 Cl  0  0
  1 39  1  0
  2 40  1  0
  3  4  1  0
  3 13  1  0
  4 14  1  0
  5  7  1  0
  5 15  1  0
  6  8  1  0
  6 16  1  0
  7 17  1  0
  8 18  1  0
  9 11  2  0
  9 19  1  0
 10 12  2  0
 10 20  1  0
 11 21  1  0
 12 22  1  0
 13 23  1  0
 14 24  1  0
 15 25  1  0
 16 26  1  0
 17 27  1  0
 18 28  1  0
 19 31  2  0
 20 32  2  0
 21 33  2  0
 22 34  2  0
 23 35  1  0
 24 36  1  0
 25 35  1  0
 26 36  1  0
 27 37  1  0
 28 38  1  0
 29 31  1  0
 29 37  1  0
 30 32  1  0
 30 38  1  0
 31 33  1  0
 32 34  1  0
 33 39  1  0
 34 40  1  0
M  END