
  SciTegic10041313282D

 58 64  0  0  0  0            999 V2000
    6.0752   -5.4794    0.0000 C   0  0
    6.1172   -6.3057    0.0000 C   0  0
    6.8525   -6.6807    0.0000 C   0  0
    6.7646   -5.0301    0.0000 C   0  0
    8.3458   -6.4451    0.0000 N   0  0
    8.7979   -5.7488    0.0000 C   0  0
    8.2741   -5.1042    0.0000 C   0  0
    7.5003   -5.4013    0.0000 C   0  0
    7.5439   -6.2304    0.0000 C   0  0
    8.7057   -4.4011    0.0000 C   0  0
    9.5308   -4.4252    0.0000 C   0  0
    9.9624   -3.7230    0.0000 C   0  0
    9.5693   -2.9967    0.0000 C   0  0
    8.7402   -2.9769    0.0000 C   0  0
    8.3124   -3.6799    0.0000 C   0  0
    9.9230   -5.1511    0.0000 O   0  0
   10.7871   -3.7456    0.0000 O   0  0
    8.3446   -2.2530    0.0000 O   0  0
    7.4877   -3.6603    0.0000 O   0  0
   10.0000   -2.2930    0.0000 C   0  0
   10.3109   -0.9973    0.0000 N   0  0
    9.6839   -1.5335    0.0000 C   0  0
   11.0146   -1.4280    0.0000 C   0  0
   10.8234   -2.2265    0.0000 C   0  0
   11.4185   -2.7893    0.0000 C   0  0
   12.2051   -2.5549    0.0000 C   0  0
   12.3932   -1.7525    0.0000 C   0  0
   11.7966   -1.1932    0.0000 C   0  0
   11.9853   -0.3900    0.0000 C   0  0
   12.7751   -0.1518    0.0000 C   0  0
   13.3763   -0.7168    0.0000 C   0  0
   14.1662   -0.4786    0.0000 C   0  0
   13.1877   -1.5199    0.0000 C   0  0
    5.3401   -5.1048    0.0000 N   0  0
    4.6212   -5.5096    0.0000 C   0  0
    3.9112   -5.0893    0.0000 C   0  0
    4.6122   -6.3345    0.0000 O   0  0
    3.9202   -4.2644    0.0000 C   0  0
    4.6392   -3.8597    0.0000 C   0  0
    4.6482   -3.0347    0.0000 C   0  0
    5.3671   -2.6300    0.0000 C   0  0
    5.3761   -1.8051    0.0000 N   0  0
    6.0950   -1.4004    0.0000 C   0  0
    6.1040   -0.5754    0.0000 C   0  0
    6.8049   -1.8207    0.0000 O   0  0
    6.8229   -0.1708    0.0000 C   0  0
    6.8319    0.6542    0.0000 C   0  0
    7.5509    1.0589    0.0000 C   0  0
    8.2608    0.6386    0.0000 C   0  0
    8.3372   -0.1795    0.0000 S   0  0
    9.1422   -0.3598    0.0000 C   0  0
    9.0171    0.9691    0.0000 C   0  0
    9.5584    0.3520    0.0000 C   0  0
   10.3127    0.6761    0.0000 N   0  0
   10.2375    1.4937    0.0000 C   0  0
    9.4368    1.6746    0.0000 N   0  0
   10.8577    2.0377    0.0000 O   0  0
    9.6217   -5.7049    0.0000 C   0  0
 12 13  2  0
 27 28  2  0
 28 23  1  0
  6  7  2  0
 28 29  1  0
 13 14  1  0
 29 30  1  0
  3  9  2  0
 30 31  2  0
 14 15  1  0
 31 32  1  0
 15 10  2  0
 31 33  1  0
  1  2  2  0
  1 34  1  0
 11 16  2  0
 34 35  1  0
  8  4  2  0
 35 36  1  0
 12 17  1  0
 35 37  2  0
  5  6  1  0
 36 38  1  0
 14 18  2  0
 38 39  1  0
  7  8  1  0
 39 40  1  0
 15 19  1  0
 40 41  1  0
  9  5  1  0
 41 42  1  0
 13 20  1  0
 42 43  1  0
 20 24  1  0
 43 44  1  0
  4  1  1  0
 43 45  2  0
  7 10  1  0
 44 46  1  0
 23 21  1  0
 46 47  1  0
 21 22  1  0
 47 48  1  0
 22 20  2  0
 49 48  1  0
 49 50  1  0
  8  9  1  0
 10 11  1  0
 50 51  1  0
 53 51  1  0
 52 49  1  0
 52 53  1  0
 23 24  2  0
 24 25  1  0
 11 12  1  0
 25 26  2  0
 53 54  1  0
 54 55  1  0
 55 56  1  0
 52 56  1  0
  2  3  1  0
 55 57  2  0
 26 27  1  0
  6 58  1  0
M  END