
  CDK    9/16/09,9:52

 38 42  0  0  0  0  0  0  0  0999 V2000
   -1.0794  -26.9527    0.0000 C   0  0  0  0  0  0  0  0  0  0  0  0
   -0.3630  -26.5394    0.0000 C   0  0  0  0  0  0  0  0  0  0  0  0
   -0.3659  -25.7088    0.0000 C   0  0  0  0  0  0  0  0  0  0  0  0
   -1.0812  -25.2997    0.0000 C   0  0  0  0  0  0  0  0  0  0  0  0
   -1.7943  -26.5398    0.0000 C   0  0  0  0  0  0  0  0  0  0  0  0
   -1.7976  -25.7109    0.0000 C   0  0  0  0  0  0  0  0  0  0  0  0
    0.3471  -25.2936    0.0000 C   0  0  0  0  0  0  0  0  0  0  0  0
    1.0631  -25.7034    0.0000 N   0  0  0  0  0  0  0  0  0  0  0  0
    0.3439  -24.4686    0.0000 O   0  0  0  0  0  0  0  0  0  0  0  0
    1.7760  -25.2883    0.0000 C   0  0  0  0  0  0  0  0  0  0  0  0
    2.4920  -25.6981    0.0000 C   0  0  0  0  0  0  0  0  0  0  0  0
    2.4920  -26.5219    0.0000 C   0  0  0  0  0  0  0  0  0  0  0  0
    3.2072  -26.9316    0.0000 C   0  0  0  0  0  0  0  0  0  0  0  0
    3.9211  -26.5164    0.0000 C   0  0  0  0  0  0  0  0  0  0  0  0
    3.9153  -25.6871    0.0000 C   0  0  0  0  0  0  0  0  0  0  0  0
    3.1995  -25.2812    0.0000 C   0  0  0  0  0  0  0  0  0  0  0  0
    4.6227  -25.2708    0.0000 C   0  0  0  0  0  0  0  0  0  0  0  0
    5.3405  -25.6798    0.0000 C   0  0  0  0  0  0  0  0  0  0  0  0
    6.0514  -25.2628    0.0000 C   0  0  0  0  0  0  0  0  0  0  0  0
    6.0459  -24.4369    0.0000 C   0  0  0  0  0  0  0  0  0  0  0  0
    5.3234  -24.0299    0.0000 C   0  0  0  0  0  0  0  0  0  0  0  0
    4.6154  -24.4492    0.0000 C   0  0  0  0  0  0  0  0  0  0  0  0
    6.7687  -25.6704    0.0000 C   0  0  0  0  0  0  0  0  0  0  0  0
    7.4804  -25.2531    0.0000 N   0  0  0  0  0  0  0  0  0  0  0  0
    8.1939  -25.6623    0.0000 C   0  0  0  0  0  0  0  0  0  0  0  0
    8.9035  -25.2485    0.0000 C   0  0  0  0  0  0  0  0  0  0  0  0
    8.9021  -24.4232    0.0000 N   0  0  0  0  0  0  0  0  0  0  0  0
    8.1850  -24.0133    0.0000 C   0  0  0  0  0  0  0  0  0  0  0  0
    7.4692  -24.4289    0.0000 C   0  0  0  0  0  0  0  0  0  0  0  0
    4.6376  -26.9253    0.0000 F   0  0  0  0  0  0  0  0  0  0  0  0
    9.6192  -25.6588    0.0000 C   0  0  0  0  0  0  0  0  0  0  0  0
   -2.5124  -25.2990    0.0000 C   0  0  0  0  0  0  0  0  0  0  0  0
   -3.2266  -25.7121    0.0000 C   0  0  0  0  0  0  0  0  0  0  0  0
   -3.9385  -25.3015    0.0000 C   0  0  0  0  0  0  0  0  0  0  0  0
   -4.6505  -25.7111    0.0000 C   0  0  0  0  0  0  0  0  0  0  0  0
   -4.6541  -26.5364    0.0000 N   0  0  0  0  0  0  0  0  0  0  0  0
   -3.9395  -26.9505    0.0000 C   0  0  0  0  0  0  0  0  0  0  0  0
   -3.2213  -26.5393    0.0000 C   0  0  0  0  0  0  0  0  0  0  0  0
 18 19  1  0  0  0  0 
  4  6  1  0  0  0  0 
 19 20  2  0  0  0  0 
  8 10  1  0  0  0  0 
 20 21  1  0  0  0  0 
  5  6  2  0  0  0  0 
 21 22  2  0  0  0  0 
 22 17  1  0  0  0  0 
 15 17  1  0  0  0  0 
 10 11  1  0  0  0  0 
 19 23  1  0  0  0  0 
  1  2  2  0  0  0  0 
 23 24  1  0  0  0  0 
 24 25  1  0  0  0  0 
 11 12  2  0  0  0  0 
  5  1  1  0  0  0  0 
 12 13  1  0  0  0  0 
  2  3  1  0  0  0  0 
 13 14  2  0  0  0  0 
 24 29  1  0  0  0  0 
 25 26  1  0  0  0  0 
 26 27  1  0  0  0  0 
 27 28  1  0  0  0  0 
 28 29  1  0  0  0  0 
  3  7  1  0  0  0  0 
 14 30  1  0  0  0  0 
 14 15  1  0  0  0  0 
 26 31  1  1  0  0  0 
  6 32  1  0  0  0  0 
 15 16  2  0  0  0  0 
 32 33  1  0  0  0  0 
 33 34  1  0  0  0  0 
 16 11  1  0  0  0  0 
  7  8  1  0  0  0  0 
  3  4  2  0  0  0  0 
 17 18  2  0  0  0  0 
  7  9  2  0  0  0  0 
 33 38  1  0  0  0  0 
 34 35  1  0  0  0  0 
 35 36  1  0  0  0  0 
 36 37  1  0  0  0  0 
 37 38  1  0  0  0  0 
M  END