
  SciTegic09261414462D

 23 26  0  0  0  0            999 V2000
   24.0813  -23.8159    0.0000 N   0  0
   24.0813  -24.6331    0.0000 C   0  0
   24.7904  -25.0417    0.0000 N   0  0
   24.7904  -25.8589    0.0000 C   0  0
   24.0813  -26.2675    0.0000 C   0  0
   23.3722  -25.8589    0.0000 C   0  0
   23.3722  -25.0417    0.0000 N   0  0
   22.6672  -26.2675    0.0000 N   0  0
   21.9199  -25.9372    0.0000 C   0  0
   21.3721  -26.5437    0.0000 C   0  0  1  0  0  0
   21.7807  -27.2487    0.0000 C   0  0  1  0  0  0
   22.5791  -27.0820    0.0000 C   0  0
   20.4855  -27.5249    0.0000 N   0  0
   20.5737  -26.7145    0.0000 C   0  0
   21.2328  -27.8593    0.0000 C   0  0
   19.7806  -27.9335    0.0000 C   0  0
   20.9635  -25.8346    0.0000 H   0  0
   22.1893  -27.9578    0.0000 H   0  0
   25.4953  -26.2675    0.0000 C   0  0
   26.2426  -25.9372    0.0000 C   0  0
   26.7905  -26.5437    0.0000 C   0  0
   26.3819  -27.2487    0.0000 C   0  0
   25.5835  -27.0820    0.0000 C   0  0
  2  3  1  0
  3  4  2  0
  4  5  1  0
  5  6  2  0
  6  7  1  0
  2  7  2  0
  1  2  1  0
  8  9  1  0
  9 10  1  0
 10 11  1  0
 11 12  1  0
  8 12  1  0
 13 14  1  0
 13 15  1  0
 10 14  1  0
 11 15  1  0
 13 16  1  0
 10 17  1  6
 11 18  1  6
  6  8  1  0
 19 20  1  0
 20 21  1  0
 21 22  1  0
 22 23  1  0
 19 23  1  0
  4 19  1  0
M  END