
          11280715372D 1   1.00000     0.00000     0

 32 36  0     0  0            999 V2000
    2.7917    0.3750    0.0000 C   0  0  0  0  0  0           0  0  0
    2.0792    0.7958    0.0000 C   0  0  0  0  0  0           0  0  0
    2.7917   -0.4417    0.0000 C   0  0  0  0  0  0           0  0  0
    1.3667    0.3750    0.0000 C   0  0  0  0  0  0           0  0  0
    3.5000    0.7875    0.0000 C   0  0  0  0  0  0           0  0  0
    3.5042   -0.8542    0.0000 C   0  0  0  0  0  0           0  0  0
    4.2125    0.3833    0.0000 C   0  0  0  0  0  0           0  0  0
    2.0792   -0.8542    0.0000 C   0  0  3  0  0  0           0  0  0
    8.4792    2.0458    0.0000 C   0  0  0  0  0  0           0  0  0
    4.2125   -0.4417    0.0000 C   0  0  0  0  0  0           0  0  0
    5.6375    0.3833    0.0000 C   0  0  0  0  0  0           0  0  0
    4.9250    0.7958    0.0000 C   0  0  0  0  0  0           0  0  0
    2.0792    1.6208    0.0000 C   0  0  0  0  0  0           0  0  0
    1.3667   -0.4500    0.0000 C   0  0  0  0  0  0           0  0  0
    7.7667    1.6250    0.0000 C   0  0  0  0  0  0           0  0  0
    6.3417    0.7958    0.0000 C   0  0  0  0  0  0           0  0  0
    8.4792    2.8708    0.0000 O   0  0  0  0  0  0           0  0  0
    5.6417   -0.4417    0.0000 C   0  0  0  0  0  0           0  0  0
    4.9250   -0.8542    0.0000 C   0  0  0  0  0  0           0  0  0
    7.0500    2.0375    0.0000 C   0  0  0  0  0  0           0  0  0
    7.7750    0.8000    0.0000 C   0  0  0  0  0  0           0  0  0
    6.3417    1.6208    0.0000 C   0  0  0  0  0  0           0  0  0
    7.0625    0.3875    0.0000 C   0  0  0  0  0  0           0  0  0
    2.7917    2.0333    0.0000 C   0  0  0  0  0  0           0  0  0
    1.3667    2.0333    0.0000 C   0  0  0  0  0  0           0  0  0
    9.2000    1.6333    0.0000 O   0  0  0  0  0  0           0  0  0
    1.3667    2.8500    0.0000 C   0  0  0  0  0  0           0  0  0
    2.7917    2.8583    0.0000 C   0  0  0  0  0  0           0  0  0
    2.0792    3.2708    0.0000 C   0  0  0  0  0  0           0  0  0
    2.7917   -1.2667    0.0000 C   0  0  0  0  0  0           0  0  0
    1.3625   -1.2667    0.0000 C   0  0  0  0  0  0           0  0  0
    2.0792    4.0875    0.0000 C   0  0  0  0  0  0           0  0  0
  2  1  1  0     0  0
  3  1  2  0     0  0
  4  2  2  0     0  0
  5  1  1  0     0  0
  6  3  1  0     0  0
  7  5  2  0     0  0
  8  3  1  0     0  0
  9 15  1  0     0  0
 10  7  1  0     0  0
 11 12  2  0     0  0
 12  7  1  0     0  0
 13  2  1  0     0  0
 14  8  1  0     0  0
 15 21  2  0     0  0
 16 11  1  0     0  0
 17  9  2  0     0  0
 18 11  1  0     0  0
 19 10  1  0     0  0
 20 22  2  0     0  0
 21 23  1  0     0  0
 22 16  1  0     0  0
 23 16  2  0     0  0
 24 13  2  0     0  0
 25 13  1  0     0  0
 26  9  1  0     0  0
 27 25  2  0     0  0
 28 24  1  0     0  0
 29 27  1  0     0  0
 30  8  1  0     0  0
 31  8  1  0     0  0
 32 29  1  0     0  0
 10  6  2  0     0  0
 14  4  1  0     0  0
 19 18  2  0     0  0
 29 28  2  0     0  0
 15 20  1  0     0  0
M  END