
          11280715492D 1   1.00000     0.00000     0

 30 33  0     1  0            999 V2000
    2.9527  -13.1833    0.0000 N   0  0  0  0  0  0           0  0  0
    2.9516  -14.0107    0.0000 C   0  0  0  0  0  0           0  0  0
    3.6664  -14.4235    0.0000 C   0  0  0  0  0  0           0  0  0
    4.3828  -14.0102    0.0000 C   0  0  0  0  0  0           0  0  0
    4.3800  -13.1797    0.0000 N   0  0  0  0  0  0           0  0  0
    3.6646  -12.7705    0.0000 C   0  0  0  0  0  0           0  0  0
    5.0980  -14.4216    0.0000 N   0  0  0  0  0  0           0  0  0
    5.8118  -14.0079    0.0000 C   0  0  0  0  0  0           0  0  0
    6.5269  -14.4193    0.0000 C   0  0  0  0  0  0           0  0  0
    6.5235  -15.2428    0.0000 C   0  0  0  0  0  0           0  0  0
    7.2378  -15.6541    0.0000 C   0  0  0  0  0  0           0  0  0
    7.9526  -15.2404    0.0000 C   0  0  0  0  0  0           0  0  0
    7.9486  -14.4111    0.0000 C   0  0  0  0  0  0           0  0  0
    7.2338  -14.0035    0.0000 C   0  0  0  0  0  0           0  0  0
    7.2282  -13.1786    0.0000 Cl  0  0  0  0  0  0           0  0  0
    8.6683  -15.6508    0.0000 Cl  0  0  0  0  0  0           0  0  0
    3.6621  -11.9455    0.0000 N   0  0  3  0  0  0           0  0  0
    4.3756  -11.5378    0.0000 C   0  0  0  0  0  0           0  0  0
    4.3751  -10.7164    0.0000 C   0  0  0  0  0  0           0  0  0
    3.6612  -10.3022    0.0000 N   0  0  3  0  0  0           0  0  0
    2.9462  -10.7156    0.0000 C   0  0  0  0  0  0           0  0  0
    2.9450  -11.5432    0.0000 C   0  0  0  0  0  0           0  0  0
    3.6619   -9.4772    0.0000 C   0  0  0  0  0  0           0  0  0
    4.3767   -9.0653    0.0000 C   0  0  2  0  0  0           0  0  0
    2.9478   -9.0641    0.0000 O   0  0  0  0  0  0           0  0  0
    5.0911   -9.4829    0.0000 N   0  0  0  0  0  0           0  0  0
    5.8037   -9.0745    0.0000 C   0  0  0  0  0  0           0  0  0
    5.8086   -8.2491    0.0000 C   0  0  0  0  0  0           0  0  0
    5.0947   -7.8339    0.0000 C   0  0  0  0  0  0           0  0  0
    4.3758   -8.2440    0.0000 C   0  0  0  0  0  0           0  0  0
 14 15  1  0     0  0
  3  4  1  0     0  0
 12 16  1  0     0  0
  7  8  1  0     0  0
  6 17  1  0     0  0
 17 18  1  0     0  0
  8  9  1  0     0  0
  4  5  2  0     0  0
  9 10  2  0     0  0
  2  3  2  0     0  0
 17 22  1  0     0  0
 18 19  1  0     0  0
 19 20  1  0     0  0
 20 21  1  0     0  0
 21 22  1  0     0  0
 10 11  1  0     0  0
 20 23  1  0     0  0
  5  6  1  0     0  0
 24 23  1  1     0  0
 11 12  2  0     0  0
 23 25  2  0     0  0
 24 26  1  0     0  0
  6  1  2  0     0  0
 12 13  1  0     0  0
  1  2  1  0     0  0
 13 14  2  0     0  0
 14  9  1  0     0  0
 24 30  1  0     0  0
 26 27  1  0     0  0
 27 28  1  0     0  0
 28 29  1  0     0  0
 29 30  1  0     0  0
  4  7  1  0     0  0
M  END