
  SciTegic11201309402D

 50 52  0  0  1  0            999 V2000
    7.4167   -2.6792    0.0000 N   0  0
    4.5542   -4.3375    0.0000 N   0  0
    7.4167   -3.5042    0.0000 C   0  0
    4.5625   -5.1625    0.0000 C   0  0
    5.9750   -2.6750    0.0000 C   0  0
    5.2667   -2.2667    0.0000 O   0  0
    5.2667   -3.0917    0.0000 C   0  0  1  0  0  0
    8.1292   -2.2625    0.0000 C   0  0
    5.2667   -3.9167    0.0000 C   0  0
    4.5625   -5.9875    0.0000 C   0  0
    8.1292   -1.4375    0.0000 C   0  0
    5.2667   -1.4417    0.0000 C   0  0  1  0  0  0
    6.7042   -3.9167    0.0000 C   0  0
    8.1292   -3.9125    0.0000 O   0  0
    5.2750   -4.7375    0.0000 O   0  0
    6.5792   -2.6792    0.0000 O   0  0
    4.5667   -7.6375    0.0000 S   0  0
    2.4042    0.2000    0.0000 N   0  0
    7.4125   -1.0292    0.0000 C   0  0
    3.7625   -5.7625    0.0000 O   0  0
    8.8417   -1.0250    0.0000 O   0  0
    5.9792   -1.0292    0.0000 C   0  0  1  0  0  0
    4.5542   -1.0375    0.0000 C   0  0
    6.7000   -1.4417    0.0000 C   0  0
    6.7042   -4.7375    0.0000 C   0  0  1  0  0  0
    8.8417   -2.6750    0.0000 C   0  0
    3.8375   -3.9250    0.0000 C   0  0
    6.7000   -2.2667    0.0000 C   0  0
    3.8500   -6.4000    0.0000 C   0  0
    5.9917   -5.1542    0.0000 C   0  0
    4.5542   -0.2125    0.0000 C   0  0
    4.5500   -2.6792    0.0000 C   0  0
    5.9917   -5.9792    0.0000 C   0  0  1  0  0  0
    3.8375    0.2000    0.0000 C   0  0
    5.2792   -6.3917    0.0000 C   0  0
    3.8500   -7.2250    0.0000 C   0  0
    5.2792   -7.2167    0.0000 C   0  0
    6.7042   -6.3917    0.0000 O   0  0
    3.1167   -0.2125    0.0000 C   0  0
    3.8375   -3.1000    0.0000 C   0  0
    2.4042    1.0250    0.0000 C   0  0
    5.9792   -0.2042    0.0000 C   0  0
    7.4167   -5.1542    0.0000 C   0  0
    8.8417   -3.5000    0.0000 C   0  0
    9.5542   -2.2625    0.0000 C   0  0
    3.8375    1.0333    0.0000 C   0  0
    7.4167   -5.9792    0.0000 C   0  0
    3.1167    1.4458    0.0000 C   0  0
    9.5542   -3.9125    0.0000 C   0  0
    5.2619   -2.0917    0.0000 H   0  0
  2  9  1  0
  3  1  1  0
  4  2  1  0
  5  6  1  0
 12  6  1  0
  7  5  1  0
  8  1  1  0
  9  7  1  0
 10 29  1  0
 11  8  1  0
 12 22  1  0
 13  3  1  0
 14  3  2  0
 15  4  2  0
 16  5  2  0
 17 37  1  0
 18 39  1  0
 19 11  1  0
 20 10  2  0
 21 11  2  0
 22 24  1  0
 12 23  1  6
 24 19  1  0
 25 13  1  0
 26  8  1  0
 27 40  1  0
 28  1  1  0
 29 36  1  0
 30 25  1  0
 31 23  1  0
 32  7  1  0
 33 30  1  0
 34 31  1  0
 35 33  1  0
 36 17  1  0
 37 35  1  0
 33 38  1  6
 39 34  2  0
 40 32  1  0
 41 48  1  0
 22 42  1  6
 25 43  1  6
 44 26  1  0
 45 26  1  0
 46 34  1  0
 47 38  1  0
 48 46  2  0
 49 44  1  0
  4 10  1  0
 18 41  2  0
 27  2  1  0
  7 50  1  6
M  END