
  SciTegic01181116592D

 20 21  0  0  0  0            999 V2000
   11.0236   -2.1625    0.0000 C   0  0
   11.0224   -2.9898    0.0000 C   0  0
   11.7372   -3.4027    0.0000 C   0  0
   12.4537   -2.9894    0.0000 C   0  0
   12.4508   -2.1588    0.0000 C   0  0
   11.7354   -1.7497    0.0000 C   0  0
   11.7330   -0.9247    0.0000 C   0  0
   11.7250   -0.0958    0.0000 C   0  0
   12.5579   -0.9195    0.0000 O   0  0
   10.9080   -0.9338    0.0000 C   0  0
   10.4894   -0.2222    0.0000 C   0  0
    9.6653   -0.2309    0.0000 C   0  0
    9.2599   -0.9505    0.0000 C   0  0
    9.6847   -1.6627    0.0000 C   0  0
   10.5075   -1.6504    0.0000 C   0  0
   12.4355    0.3235    0.0000 C   0  0
   12.4276    1.1485    0.0000 C   0  0
   13.1380    1.5678    0.0000 N   0  0
   13.1301    2.3906    0.0000 C   0  0
   13.8564    1.1622    0.0000 C   0  0
  7 10  1  0
  2  3  1  0
 10 11  2  0
  5  6  2  0
 11 12  1  0
  6  1  1  0
 12 13  2  0
  1  2  2  0
 13 14  1  0
  6  7  1  0
 14 15  2  0
 15 10  1  0
  3  4  2  0
  8 16  1  0
  7  8  1  0
 16 17  1  0
 17 18  1  0
  7  9  1  0
 18 19  1  0
  4  5  1  0
 18 20  1  0
M  END