
  Mrv0541 04051115152D          

 33 37  0  0  0  0            999 V2000
    2.9427   -1.4188    0.0000 C   0  0  0  0  0  0  0  0  0  0  0  0
    3.6572   -1.0063    0.0000 O   0  0  0  0  0  0  0  0  0  0  0  0
    2.2283   -1.0063    0.0000 N   0  0  0  0  0  0  0  0  0  0  0  0
    2.2283   -0.1813    0.0000 C   0  0  0  0  0  0  0  0  0  0  0  0
    2.9427    0.2312    0.0000 C   0  0  0  0  0  0  0  0  0  0  0  0
    2.9427    1.0562    0.0000 C   0  0  0  0  0  0  0  0  0  0  0  0
    3.6572   -0.1813    0.0000 C   0  0  0  0  0  0  0  0  0  0  0  0
    1.5138   -1.4188    0.0000 C   0  0  0  0  0  0  0  0  0  0  0  0
    0.7292   -1.1639    0.0000 N   0  0  0  0  0  0  0  0  0  0  0  0
    0.2442   -1.8313    0.0000 N   0  0  0  0  0  0  0  0  0  0  0  0
   -0.5808   -1.8313    0.0000 C   0  0  0  0  0  0  0  0  0  0  0  0
   -0.9933   -1.1169    0.0000 C   0  0  0  0  0  0  0  0  0  0  0  0
   -1.8183   -1.1169    0.0000 C   0  0  0  0  0  0  0  0  0  0  0  0
   -2.2308   -1.8313    0.0000 C   0  0  0  0  0  0  0  0  0  0  0  0
   -3.0558   -1.8313    0.0000 C   0  0  0  0  0  0  0  0  0  0  0  0
   -3.4683   -1.1169    0.0000 C   0  0  0  0  0  0  0  0  0  0  0  0
   -3.0558   -0.4024    0.0000 C   0  0  0  0  0  0  0  0  0  0  0  0
   -2.2308   -0.4024    0.0000 C   0  0  0  0  0  0  0  0  0  0  0  0
   -1.8183    0.3121    0.0000 C   0  0  0  0  0  0  0  0  0  0  0  0
   -0.9933    0.3121    0.0000 C   0  0  0  0  0  0  0  0  0  0  0  0
   -0.5808   -0.4024    0.0000 C   0  0  0  0  0  0  0  0  0  0  0  0
    0.7292   -2.4988    0.0000 C   0  0  0  0  0  0  0  0  0  0  0  0
    0.4742   -3.2834    0.0000 C   0  0  0  0  0  0  0  0  0  0  0  0
    1.0263   -3.8965    0.0000 C   0  0  0  0  0  0  0  0  0  0  0  0
    0.7713   -4.6811    0.0000 C   0  0  0  0  0  0  0  0  0  0  0  0
   -0.0357   -4.8526    0.0000 N   0  0  0  0  0  0  0  0  0  0  0  0
   -0.5877   -4.2395    0.0000 C   0  0  0  0  0  0  0  0  0  0  0  0
   -0.3327   -3.4549    0.0000 C   0  0  0  0  0  0  0  0  0  0  0  0
    1.5138   -2.2438    0.0000 C   0  0  0  0  0  0  0  0  0  0  0  0
    2.2283   -2.6563    0.0000 C   0  0  0  0  0  0  0  0  0  0  0  0
    2.2283   -3.4813    0.0000 O   0  0  0  0  0  0  0  0  0  0  0  0
    2.9427   -2.2438    0.0000 N   0  0  0  0  0  0  0  0  0  0  0  0
    3.6572   -2.6563    0.0000 C   0  0  0  0  0  0  0  0  0  0  0  0
  1  2  2  0  0  0  0
  1  3  1  0  0  0  0
  1 32  1  0  0  0  0
  4  3  1  0  0  0  0
  8  3  1  0  0  0  0
  4  5  1  0  0  0  0
  6  5  1  0  0  0  0
  5  7  1  0  0  0  0
  8  9  2  0  0  0  0
  8 29  1  0  0  0  0
 10  9  1  0  0  0  0
 11 10  1  0  0  0  0
 22 10  1  0  0  0  0
 11 12  1  0  0  0  0
 12 13  1  0  0  0  0
 12 21  2  0  0  0  0
 13 14  1  0  0  0  0
 18 13  2  0  0  0  0
 14 15  2  0  0  0  0
 15 16  1  0  0  0  0
 16 17  2  0  0  0  0
 18 17  1  0  0  0  0
 19 18  1  0  0  0  0
 20 19  2  0  0  0  0
 21 20  1  0  0  0  0
 22 23  1  0  0  0  0
 22 29  2  0  0  0  0
 23 24  1  0  0  0  0
 23 28  2  0  0  0  0
 25 24  2  0  0  0  0
 25 26  1  0  0  0  0
 27 26  2  0  0  0  0
 28 27  1  0  0  0  0
 29 30  1  0  0  0  0
 30 31  2  0  0  0  0
 30 32  1  0  0  0  0
 33 32  1  0  0  0  0
M  END