
  SciTegic11201309402D

 96100  0  0  1  0            999 V2000
    8.2917   -2.0167    0.0000 N   0  0
    7.5667   -2.4000    0.0000 C   0  0
   -0.5958   -2.4000    0.0000 C   0  0
    9.6167   -2.0292    0.0000 C   0  0
   -5.6333   -5.7542    0.0000 N   0  3
   -1.2833   -1.9417    0.0000 C   0  0  1  0  0  0
    8.9292   -2.4875    0.0000 C   0  0  2  0  0  0
    5.5292   -2.0292    0.0000 C   0  0
    1.4417   -2.0292    0.0000 C   0  0
   -1.9208   -2.4167    0.0000 N   0  0
    3.4875   -2.4000    0.0000 C   0  0
   11.6542   -2.4000    0.0000 C   0  0
    0.1250   -2.0167    0.0000 N   0  0
    4.2042   -2.0167    0.0000 N   0  0
    6.2500   -2.4167    0.0000 N   0  0
   10.3292   -2.4167    0.0000 N   0  0
   12.3750   -2.0167    0.0000 N   0  0
    4.8500   -2.4875    0.0000 C   0  0  1  0  0  0
    2.1667   -2.4167    0.0000 N   0  0
    4.8500   -3.3042    0.0000 C   0  0
   -2.7208   -2.0042    0.0000 C   0  0
    0.7667   -2.4875    0.0000 C   0  0  1  0  0  0
   -5.5958   -6.6542    0.0000 N   0  5
    6.8917   -1.9417    0.0000 C   0  0  1  0  0  0
    9.0125    0.9208    0.0000 C   0  0
   13.1000    0.9208    0.0000 C   0  0
   13.0167   -2.4875    0.0000 C   0  0  2  0  0  0
   13.7000   -2.0292    0.0000 C   0  0
    2.8125   -1.9417    0.0000 C   0  0  1  0  0  0
    5.5542   -3.7167    0.0000 C   0  0
   10.9792   -1.9417    0.0000 C   0  0  1  0  0  0
   -5.6875   -4.8542    0.0000 N   0  0
    3.5167    0.1000    0.0000 C   0  0
   13.8042    0.5083    0.0000 N   0  0
    9.7167    0.5083    0.0000 N   0  0
    7.5750   -3.2167    0.0000 O   0  0
   -1.2833   -1.1250    0.0000 C   0  0
   -0.5958   -3.2167    0.0000 O   0  0
    9.6167   -1.2042    0.0000 O   0  0
    5.5292   -1.2042    0.0000 O   0  0
    1.4417   -1.2042    0.0000 O   0  0
   11.6542   -3.2167    0.0000 O   0  0
    3.4917   -3.2167    0.0000 O   0  0
   13.0167   -3.3042    0.0000 C   0  0
    0.7667   -3.3042    0.0000 C   0  0
   -2.7708   -1.1042    0.0000 O   0  0
   13.7042   -1.2042    0.0000 O   0  0
   -3.4750   -2.4917    0.0000 C   0  0
    5.5542   -4.5292    0.0000 O   0  0
    4.2250    0.5083    0.0000 O   0  0
    2.8125   -1.1250    0.0000 C   0  0
    8.3000    0.4833    0.0000 N   0  0
   12.3875    0.4833    0.0000 N   0  0
   13.1000    1.7333    0.0000 N   0  0
    9.0125    1.7333    0.0000 N   0  0
   14.4167   -2.4167    0.0000 N   0  0
    7.6542   -2.6417    0.0000 C   0  0
    6.2667   -3.3042    0.0000 N   0  0
   -5.7333   -3.9542    0.0000 C   0  0
    3.5167   -0.7167    0.0000 C   0  0
   -0.5708   -0.7125    0.0000 C   0  0
    2.8125    0.5083    0.0000 N   0  0
   13.7250   -3.7167    0.0000 C   0  0
   -4.9833   -3.4667    0.0000 C   0  0
   15.1417   -4.5375    0.0000 C   0  0
    0.8417    0.1083    0.0000 C   0  0
   -4.2833   -2.0792    0.0000 C   0  0
   -5.0333   -2.5667    0.0000 C   0  0
    1.4750   -3.7167    0.0000 C   0  0
    0.1375   -1.1167    0.0000 C   0  0
   13.7250   -4.5375    0.0000 C   0  0
   -0.5708    0.1083    0.0000 C   0  0
   14.4292   -3.3125    0.0000 C   0  0
   14.4292   -4.9417    0.0000 C   0  0
    0.1375    0.5125    0.0000 C   0  0
   15.1417   -3.7167    0.0000 C   0  0
    0.8417   -0.7125    0.0000 C   0  0
    8.9292   -3.3125    0.0000 C   0  0
   -1.9250   -3.3125    0.0000 C   0  0
    1.5500    0.5125    0.0000 O   0  0
   15.8417   -4.9417    0.0000 O   0  0
    8.0542   -3.4417    0.0000 C   0  0
    6.8917   -1.1250    0.0000 C   0  0
   -6.5792   -2.6417    0.0000 C   0  0
   10.9792   -1.1250    0.0000 C   0  0
   11.6875    0.1000    0.0000 C   0  0
    7.5917    0.1000    0.0000 C   0  0
   -6.5417   -3.5417    0.0000 C   0  0
   -5.8333   -2.1542    0.0000 C   0  0
    2.1792   -3.3125    0.0000 C   0  0
    1.4750   -4.5375    0.0000 C   0  0
    7.5917   -0.7167    0.0000 C   0  0
   11.6875   -0.7167    0.0000 C   0  0
    2.8875   -3.7167    0.0000 C   0  0
    2.1792   -4.9417    0.0000 C   0  0
    2.8875   -4.5375    0.0000 C   0  0
  2  1  1  0
  3 13  1  0
  7  4  1  6
  5 32  2  0
  6  3  1  0
  7  1  1  0
  8 15  1  0
  9 19  1  0
 10  6  1  0
 11 14  1  0
 12 31  1  0
 22 13  1  6
 18 14  1  6
 24 15  1  1
 16  4  1  0
 17 12  1  0
 18  8  1  0
 29 19  1  1
 18 20  1  0
 21 10  1  0
 22  9  1  0
 23  5  2  0
 24  2  1  0
 25 52  2  0
 26 53  2  0
 27 17  1  6
 28 27  1  0
 29 11  1  0
 30 20  1  0
 31 16  1  1
 32 59  1  0
 33 60  1  0
 34 26  1  0
 35 25  1  0
 36  2  2  0
  6 37  1  1
 38  3  2  0
 39  4  2  0
 40  8  2  0
 41  9  2  0
 42 12  2  0
 43 11  2  0
 27 44  1  0
 22 45  1  0
 46 21  2  0
 47 28  2  0
 48 21  1  0
 49 30  2  0
 50 33  2  0
 29 51  1  0
 52 87  1  0
 53 86  1  0
 54 26  1  0
 55 25  1  0
 56 28  1  0
 57  1  1  0
 58 30  1  0
 59 64  2  0
 60 51  1  0
 61 37  1  0
 62 33  1  0
 63 44  1  0
 64 68  1  0
 65 76  1  0
 66 75  2  0
 67 48  1  0
 68 67  1  0
 69 45  1  0
 70 61  1  0
 71 63  2  0
 72 61  2  0
 73 63  1  0
 74 71  1  0
 75 72  1  0
 76 73  2  0
 77 70  2  0
  7 78  1  0
 79 10  1  0
 80 66  1  0
 81 65  1  0
 82 57  1  0
 24 83  1  0
 84 89  1  0
 31 85  1  0
 86 93  1  0
 87 92  1  0
 88 84  2  0
 89 68  2  0
 90 69  1  0
 91 69  2  0
 92 83  1  0
 93 85  1  0
 94 90  2  0
 95 91  1  0
 96 95  2  0
 82 78  1  0
 65 74  2  0
 94 96  1  0
 77 66  1  0
 59 88  1  0
M  CHG  2   5   1  23  -1
M  END