
          11280715352D 1   1.00000     0.00000     0

 21 19  0     0  0            999 V2000
   -0.7000   -6.0167    0.0000 C   0  0  0  0  0  0           0  0  0
   -1.1125   -6.7375    0.0000 C   0  0  0  0  0  0           0  0  0
    2.8667   -2.9875    0.0000 N   0  0  0  0  0  0           0  0  0
   -0.7000   -7.4542    0.0000 O   0  0  0  0  0  0           0  0  0
   -1.1125   -5.3000    0.0000 O   0  0  0  0  0  0           0  0  0
    2.8542   -6.6667    0.0000 N   0  0  0  0  0  0           0  0  0
    2.8667   -3.8125    0.0000 O   0  0  0  0  0  0           0  0  0
    2.1542   -2.5792    0.0000 C   0  0  0  0  0  0           0  0  0
    2.8667   -5.2417    0.0000 C   0  0  3  0  0  0           0  0  0
   -1.9458   -6.7375    0.0000 O   0  0  0  0  0  0           0  0  0
    0.1292   -6.0167    0.0000 O   0  0  0  0  0  0           0  0  0
    3.2792   -4.5292    0.0000 C   0  0  0  0  0  0           0  0  0
    3.2667   -5.9542    0.0000 C   0  0  0  0  0  0           0  0  0
    2.0417   -5.2292    0.0000 O   0  0  0  0  0  0           0  0  0
    3.2542   -7.3875    0.0000 C   0  0  3  0  0  0           0  0  0
    1.4417   -2.9917    0.0000 C   0  0  0  0  0  0           0  0  0
    2.1542   -1.7542    0.0000 C   0  0  0  0  0  0           0  0  0
    0.7167   -2.5792    0.0000 C   0  0  0  0  0  0           0  0  0
    2.8417   -8.1000    0.0000 C   0  0  0  0  0  0           0  0  0
    4.0792   -7.3917    0.0000 C   0  0  0  0  0  0           0  0  0
    0.0167   -3.0000    0.0000 C   0  0  0  0  0  0           0  0  0
  2  1  1  0     0  0
  4  2  2  0     0  0
  5  1  2  0     0  0
  6 13  1  0     0  0
  7  3  1  0     0  0
  8  3  2  0     0  0
  9 12  1  0     0  0
 10  2  1  0     0  0
 11  1  1  0     0  0
 12  7  1  0     0  0
 13  9  1  0     0  0
 14  9  1  0     0  0
 15  6  1  0     0  0
 16  8  1  0     0  0
 17  8  1  0     0  0
 18 16  1  0     0  0
 19 15  1  0     0  0
 20 15  1  0     0  0
 21 18  1  0     0  0
M  END