
  SciTegic12231509382D

 17 18  0  0  0  0            999 V2000
    5.6938    1.3831    0.0000 O   0  0
    7.1227    0.5581    0.0000 N   0  0
    3.5504    0.1456    0.0000 C   0  0
    4.9793    0.1456    0.0000 C   0  0
    3.5504   -0.6794    0.0000 C   0  0
    4.2648    0.5581    0.0000 C   0  0
    5.6938    0.5581    0.0000 C   0  0
    4.9793   -0.6794    0.0000 C   0  0
    4.2648   -1.0919    0.0000 C   0  0
    2.8359    0.5581    0.0000 C   0  0
    2.8359   -1.0919    0.0000 C   0  0
    6.4083    0.1456    0.0000 C   0  0
    2.1214    0.1456    0.0000 C   0  0
    2.1214   -0.6794    0.0000 C   0  0
    7.8372    0.1456    0.0000 C   0  0
    8.5517    0.5581    0.0000 C   0  0
    7.8372   -0.6794    0.0000 C   0  0
  1  7  1  0
  2 12  1  0
  2 15  1  0
  3  5  1  0
  3  6  2  0
  3 10  1  0
  4  6  1  0
  4  7  1  0
  4  8  2  0
  5  9  2  0
  5 11  1  0
  7 12  1  0
  8  9  1  0
 10 13  2  0
 11 14  2  0
 13 14  1  0
 15 16  1  0
 15 17  1  0
M  END