
  SciTegic05221516342D

 39 43  0  0  0  0            999 V2000
   13.3947   -7.5376    0.0000 C   0  0
   13.3936   -8.3651    0.0000 C   0  0
   14.1084   -8.7779    0.0000 C   0  0
   14.1065   -7.1249    0.0000 C   0  0
   14.8220   -7.5340    0.0000 C   0  0
   14.8227   -8.3608    0.0000 C   0  0
   15.5380   -8.7718    0.0000 N   0  0
   16.2531   -8.3571    0.0000 C   0  0
   16.2484   -7.5270    0.0000 C   0  0
   15.5325   -7.1198    0.0000 C   0  0
   12.6801   -7.1253    0.0000 C   0  0
   12.6799   -6.3003    0.0000 C   0  0
   11.9657   -7.5380    0.0000 C   0  0
   11.9628   -6.7127    0.0000 O   0  0
   13.3531   -5.8164    0.0000 N   0  0
   13.0980   -5.0318    0.0000 N   0  0
   12.2729   -5.0320    0.0000 N   0  0
   12.0183   -5.8168    0.0000 C   0  0
   15.5280   -6.2948    0.0000 Cl  0  0
   16.9603   -7.1103    0.0000 C   0  0
   17.6773   -7.5183    0.0000 C   0  0
   17.6776   -8.3430    0.0000 C   0  0
   18.3938   -8.7510    0.0000 C   0  0
   19.1068   -8.3341    0.0000 C   0  0
   19.0990   -7.5049    0.0000 C   0  0
   18.3823   -7.1006    0.0000 C   0  0
   14.1371   -6.0732    0.0000 C   0  0
   11.2148   -7.2043    0.0000 C   0  0
   10.6630   -7.8175    0.0000 N   0  0
   11.0757   -8.5319    0.0000 C   0  0
   11.8825   -8.3601    0.0000 S   0  0
   16.9692   -8.7668    0.0000 O   0  0
   16.9724   -9.5918    0.0000 C   0  0
   11.0430   -6.3973    0.0000 C   0  0
   10.7403   -9.2857    0.0000 C   0  0
   19.8243   -8.7412    0.0000 C   0  0
   20.5357   -8.3234    0.0000 F   0  0
   19.8305   -9.5662    0.0000 F   0  0
   20.5388   -9.1537    0.0000 F   0  0
  1  2  2  0
  2  3  1  0
  3  6  2  0
  5  4  2  0
  4  1  1  0
  5  6  1  0
  6  7  1  0
  7  8  2  0
  8  9  1  0
  9 10  2  0
 10  5  1  0
  1 11  1  0
 11 12  1  0
 11 13  1  0
 11 14  1  0
 12 15  1  0
 15 16  1  0
 16 17  2  0
 17 18  1  0
 18 12  2  0
 10 19  1  0
  9 20  1  0
 20 21  1  0
 21 22  2  0
 22 23  1  0
 23 24  2  0
 24 25  1  0
 25 26  2  0
 26 21  1  0
 15 27  1  0
 13 28  2  0
 28 29  1  0
 29 30  2  0
 30 31  1  0
 31 13  1  0
  8 32  1  0
 32 33  1  0
 28 34  1  0
 30 35  1  0
 24 36  1  0
 36 37  1  0
 36 38  1  0
 36 39  1  0
M  END