
  SciTegic06051313552D

 56 62  0  0  0  0            999 V2000
   19.0472  -27.1241    0.0000 O   0  0
   18.3414  -26.7156    0.0000 S   0  0
   18.3404  -27.5311    0.0000 O   0  0
   12.9801  -20.1120    0.0000 O   0  0
   12.5757  -19.4062    0.0000 S   0  0
   12.1667  -20.1094    0.0000 O   0  0
    8.3324  -21.8454    0.0000 C   0  0
    9.0377  -21.4410    0.0000 N   0  0
    9.0377  -20.6238    0.0000 C   0  0
    8.3324  -20.2110    0.0000 N   0  0
    7.6271  -21.4410    0.0000 C   0  0
    7.6271  -20.6238    0.0000 C   0  0
    6.9233  -20.2174    0.0000 C   0  0
    6.2150  -20.6238    0.0000 C   0  0
    6.2150  -21.4410    0.0000 C   0  0
    6.9233  -21.8518    0.0000 C   0  0
    9.7466  -20.2172    0.0000 C   0  0
    8.3324  -22.6626    0.0000 O   0  0
    9.7448  -21.8506    0.0000 C   0  0
    9.7436  -22.6678    0.0000 C   0  0
   10.4497  -20.6317    0.0000 C   0  0
   11.1581  -20.2258    0.0000 C   0  0
   11.1610  -19.4078    0.0000 C   0  0
   10.4495  -18.9973    0.0000 C   0  0
    9.7440  -19.4055    0.0000 C   0  0
   10.4507  -23.0774    0.0000 C   0  0
   10.4495  -23.8946    0.0000 C   0  0
   11.8694  -19.0003    0.0000 O   0  0
   13.2848  -19.0026    0.0000 O   0  0
   11.1566  -24.3042    0.0000 C   0  0
   11.8649  -23.8966    0.0000 C   0  0
   12.5721  -24.3063    0.0000 N   0  0
   12.6573  -25.1184    0.0000 N   0  0
   13.4564  -25.2894    0.0000 N   0  0
   13.8661  -24.5823    0.0000 C   0  0
   13.3201  -23.9743    0.0000 C   0  0
   14.6806  -24.5818    0.0000 C   0  0
   15.0887  -23.8738    0.0000 N   0  0
   15.9047  -23.8794    0.0000 C   0  0
   16.3128  -23.1755    0.0000 N   0  0
   14.6765  -23.1725    0.0000 C   0  0
   15.0892  -22.4641    0.0000 C   0  0
   15.9061  -22.4667    0.0000 C   0  0
   16.3145  -21.7644    0.0000 C   0  0
   15.9105  -21.0550    0.0000 C   0  0
   15.0935  -21.0525    0.0000 C   0  0
   14.6806  -21.7593    0.0000 C   0  0
   13.8594  -23.1741    0.0000 O   0  0
   16.3110  -24.5858    0.0000 C   0  0
   15.8977  -25.2920    0.0000 C   0  0
   16.3025  -26.0010    0.0000 C   0  0
   17.1206  -26.0050    0.0000 C   0  0
   17.5321  -25.2941    0.0000 C   0  0
   17.1248  -24.5880    0.0000 C   0  0
   17.5271  -26.7139    0.0000 O   0  0
   18.7550  -26.0098    0.0000 O   0  0
  2  1  2  0
  3  2  2  0
  5  4  2  0
  6  5  2  0
 12 10  1  0
 11  7  1  0
  7  8  1  0
  8  9  1  0
  9 10  2  0
 11 12  1  0
 11 16  2  0
 12 13  2  0
 13 14  1  0
 14 15  2  0
 15 16  1  0
  9 17  1  0
  7 18  2  0
  8 19  1  0
 19 20  1  0
 17 21  2  0
 21 22  1  0
 22 23  2  0
 23 24  1  0
 24 25  2  0
 25 17  1  0
 20 26  1  0
 26 27  1  0
 23 28  1  0
 28  5  1  0
  5 29  1  0
 27 30  1  0
 30 31  1  0
 31 32  1  0
 32 33  1  0
 33 34  2  0
 34 35  1  0
 35 36  2  0
 36 32  1  0
 35 37  1  0
 37 38  1  0
 38 39  1  0
 38 41  1  0
 39 40  2  0
 40 43  1  0
 42 41  1  0
 42 43  2  0
 42 47  1  0
 43 44  1  0
 44 45  2  0
 45 46  1  0
 46 47  2  0
 41 48  2  0
 49 50  2  0
 50 51  1  0
 51 52  2  0
 52 53  1  0
 53 54  2  0
 54 49  1  0
 39 49  1  0
 52 55  1  0
 55  2  1  0
  2 56  1  0
M  END