
  SciTegic09261414482D

 69 71  0  0  0  0            999 V2000
    8.2466  -17.4952    0.0000 C   0  0
   14.0354  -19.9894    0.0000 C   0  0
   10.4784  -17.0871    0.0000 C   0  0
    7.3991  -19.4523    0.0000 C   0  0
   10.4644  -19.5629    0.0000 C   0  0
   14.0413  -18.3420    0.0000 C   0  0
   11.1991  -15.8515    0.0000 C   0  0
   10.4786  -16.2641    0.0000 C   0  0
   14.7397  -22.0562    0.0000 N   0  0
   15.4865  -15.0498    0.0000 C   0  0
    4.4596  -21.8715    0.0000 C   0  0
   14.0554  -15.0432    0.0000 C   0  0
    3.7367  -22.2679    0.0000 N   0  0
   13.3228  -19.5738    0.0000 C   0  0  2  0  0  0
    4.4798  -21.0457    0.0000 C   0  0
    4.5368  -18.5977    0.0000 C   0  0
   12.6302  -15.0351    0.0000 O   0  0
    9.7577  -18.3227    0.0000 C   0  0  2  0  0  0
    9.7601  -17.4960    0.0000 C   0  0
    5.2243  -19.8178    0.0000 C   0  0
    5.9634  -18.5944    0.0000 C   0  0
    5.1631  -22.2979    0.0000 O   0  0
   10.4910  -18.7264    0.0000 N   0  0
   15.1795  -19.2576    0.0000 C   0  0
   15.4805  -15.8744    0.0000 O   0  0
    9.7460  -20.7948    0.0000 O   0  0
   14.7738  -14.6343    0.0000 C   0  0
   11.1747  -20.8050    0.0000 C   0  0
   15.4945  -13.3986    0.0000 C   0  0
    5.9509  -19.4236    0.0000 C   0  0  2  0  0  0
   15.9049  -17.7730    0.0000 C   0  0
   16.6174  -18.1886    0.0000 C   0  0
   14.7679  -16.2819    0.0000 C   0  0
   11.8945  -19.5475    0.0000 N   0  0
    9.0371  -19.5583    0.0000 O   0  0
    4.5208  -19.3915    0.0000 O   0  0
   11.1769  -19.9785    0.0000 C   0  0  2  0  0  0
   10.4584  -21.2103    0.0000 C   0  0
   14.0493  -17.5139    0.0000 C   0  0  1  0  0  0
    5.2502  -18.1845    0.0000 C   0  0
   16.2071  -13.8142    0.0000 C   0  0
    7.4383  -17.3180    0.0000 C   0  0
   14.0331  -20.8161    0.0000 C   0  0
    7.5727  -18.6504    0.0000 C   0  0  2  0  0  0
   14.7619  -17.1064    0.0000 N   0  0
   13.3378  -16.2973    0.0000 N   0  0
   14.7782  -13.8039    0.0000 C   0  0
    7.0227  -18.0305    0.0000 C   0  0
    5.2199  -20.6548    0.0000 N   0  0
   14.7538  -18.7576    0.0000 O   0  0
   16.2033  -14.6351    0.0000 C   0  0
   15.4604  -20.8206    0.0000 O   0  0
    9.0393  -18.7317    0.0000 C   0  0
   13.3201  -18.7628    0.0000 N   0  0
   12.6020  -20.8097    0.0000 O   0  0
    8.1004  -19.8823    0.0000 O   0  0
    5.2492  -17.3621    0.0000 C   0  0
   12.6080  -19.9851    0.0000 C   0  0
   14.0552  -15.8662    0.0000 C   0  0  1  0  0  0
    6.6666  -19.8573    0.0000 N   0  0
   14.7456  -21.2316    0.0000 C   0  0
   10.4478  -22.0417    0.0000 N   0  0
   12.6244  -15.8597    0.0000 C   0  0
   11.9116  -16.2671    0.0000 N   0  0
   16.9133  -13.4166    0.0000 O   0  0
    8.3268  -18.3161    0.0000 N   0  0
   15.1850  -18.1763    0.0000 C   0  0  1  0  0  0
    9.7497  -19.9739    0.0000 O   0  0
   15.0493  -17.5182    0.0000 H   0  0
 23  5  1  0
 44  4  1  6
 40 57  1  0
 46 63  1  0
 68  5  2  0
 55 58  2  0
 40 16  1  0
 10 51  2  0
  8  7  1  0
 46 59  1  0
 52 61  2  0
 54 14  1  0
 30 20  1  0
 65 41  1  0
  2 43  1  0
  3  8  1  0
 64 63  1  0
 18 53  1  6
 39 45  1  0
 39  6  1  0
 27 10  1  0
 28 38  1  0
 62 38  1  0
 18 19  1  0
  3 19  1  0
 21 40  1  0
 60  4  1  0
 66  1  1  0
 66 53  1  0
 25 33  2  0
 27 47  2  0
  5 37  1  0
 44 48  1  0
 43 61  1  0
 22 11  2  0
 59 33  1  0
 14 58  1  0
 50  6  2  0
 47 29  1  0
 42  1  1  0
 59 12  1  1
 56  4  2  0
  9 61  1  0
 66 44  1  0
 31 32  1  0
 13 11  1  0
 54  6  1  0
 34 58  1  0
 49 15  1  0
 26 38  2  0
 45 33  1  0
  7 64  1  0
 12 27  1  0
 29 41  2  0
 49 20  1  0
 48 42  1  0
 17 63  2  0
 37 28  1  1
 67 39  1  0
 67 24  1  6
 23 18  1  0
 35 53  2  0
 67 31  1  0
 14  2  1  1
 51 41  1  0
 30 21  1  6
 15 11  1  0
 30 60  1  0
 34 37  1  0
 36 20  2  0
 39 69  1  6
M  END