
  SciTegic05281310212D

 77 79  0  0  0  0            999 V2000
    5.0610   -8.7388    0.0000 C   0  0  2  0  0  0
    1.0163   -2.3995    0.0000 C   0  0  2  0  0  0
    6.0093   -8.5292    0.0000 C   0  0  2  0  0  0
    2.5986   -5.5272    0.0000 S   0  0
    4.3956   -5.5378    0.0000 C   0  0  1  0  0  0
    6.6066   -8.8331    0.0000 C   0  0  1  0  0  0
    4.0498   -4.7833    0.0000 C   0  0  1  0  0  0
    1.9647   -2.1900    0.0000 C   0  0  2  0  0  0
    5.3335   -5.2915    0.0000 C   0  0  2  0  0  0
    4.7519   -7.9740    0.0000 C   0  0  1  0  0  0
    0.7073   -1.6399    0.0000 C   0  0  1  0  0  0
    7.9634   -9.2628    0.0000 S   0  0
    5.9307   -5.5849    0.0000 C   0  0
    2.5619   -2.4991    0.0000 C   0  0  1  0  0  0
    1.8075   -3.7826    0.0000 S   0  0
    5.8521  -10.1167    0.0000 S   0  0
    3.8979   -9.3780    0.0000 S   0  0
    2.6615   -0.9535    0.0000 S   0  0
   -0.1572   -3.0492    0.0000 S   0  0
    5.9830   -4.0341    0.0000 S   0  0
    4.4899   -2.7244    0.0000 S   0  0
   -0.1676   -0.3511    0.0000 S   0  0
    3.7932   -6.8842    0.0000 S   0  0
    4.6995   -5.0663    0.0000 C   0  0  1  0  0  0
    7.1618   -9.4408    0.0000 O   0  0
    5.5954   -4.8095    0.0000 O   0  0
    6.2974   -8.0525    0.0000 O   0  0
    5.9779   -7.1357    0.0000 O   0  0
    5.3963   -8.2726    0.0000 C   0  0  1  0  0  0
    1.3413   -1.9437    0.0000 C   0  0  1  0  0  0
    3.6831   -5.9464    0.0000 O   0  0
    2.2476   -1.7236    0.0000 O   0  0
    5.2810   -9.5351    0.0000 O   0  0
    1.2312   -3.2011    0.0000 O   0  0
    1.8336   -1.0741    0.0000 O   0  0
    5.2967   -4.4742    0.0000 O   0  0
    0.2882   -2.3576    0.0000 O   0  0
    4.3380   -8.6864    0.0000 O   0  0
    4.2855   -4.3433    0.0000 C   0  0
    1.8861   -5.9359    0.0000 O   0  0
    1.3413   -1.0898    0.0000 C   0  0
    5.3858   -7.4186    0.0000 C   0  0
    4.2855   -3.5207    0.0000 O   0  0
    4.7099   -1.9279    0.0000 O   0  0
    0.5868   -0.6601    0.0000 O   0  0
    4.5580   -7.1828    0.0000 O   0  0
    8.7493   -9.0270    0.0000 O   0  0
    3.4421   -0.6863    0.0000 O   0  0
    2.3890   -4.3641    0.0000 O   0  0
    3.4525  -10.0801    0.0000 O   0  0
    6.7637   -3.7354    0.0000 O   0  0
    6.4388  -10.6982    0.0000 O   0  0
   -0.6025   -3.7460    0.0000 O   0  0
    2.1951   -4.8095    0.0000 O   0  0
    2.9863   -6.2502    0.0000 O   0  0
   -0.9535   -0.0890    0.0000 O   0  0
    2.9339   -6.8842    0.0000 O   0  0
    5.3177   -2.7244    0.0000 O   0  0
    8.3930   -9.9595    0.0000 O   0  0
    7.5286   -8.5607    0.0000 O   0  0
    1.0163   -3.9922    0.0000 O   0  0
    2.2109   -0.2672    0.0000 O   0  0
    5.0610  -10.3263    0.0000 O   0  0
    4.4480   -9.9858    0.0000 O   0  0
    3.3321   -8.7755    0.0000 O   0  0
    6.4651   -4.7048    0.0000 O   0  0
    5.5115   -3.3582    0.0000 O   0  0
    0.4034   -3.6517    0.0000 O   0  0
   -0.7230   -2.4362    0.0000 O   0  0
    6.6537   -9.8966    0.0000 O   0  0
    3.1173   -1.6346    0.0000 O   0  0
    2.5986   -3.5678    0.0000 O   0  0
    0.0890    0.4296    0.0000 O   0  0
    4.2175   -6.1350    0.0000 O   0  0
    3.3582   -7.6229    0.0000 O   0  0
   -0.4296   -1.1421    0.0000 O   0  0
    3.6779   -2.7191    0.0000 O   0  0
  2  8  1  0
  3  1  1  0
  5  9  1  0
  6  3  1  0
  7 24  1  0
  8 14  1  0
  9 13  1  0
 10  1  1  0
 11 30  1  0
 12 25  1  0
 13 28  1  0
 14 31  1  6
 15 34  1  0
 16 33  1  0
 17 38  1  0
 18 35  1  0
 19 37  1  0
 20 36  1  0
 21 43  1  0
 22 45  1  0
 23 46  1  0
 24 26  1  0
  6 25  1  6
 26 13  1  0
 27 29  1  0
  3 28  1  1
 29 10  1  0
 30 32  1  0
  5 31  1  1
 32 14  1  0
  1 33  1  1
  2 34  1  1
  8 35  1  1
  9 36  1  1
 11 37  1  6
 10 38  1  6
 24 39  1  1
 40  4  1  0
 30 41  1  1
 29 42  1  1
 43 39  1  0
 44 21  1  0
 45 41  1  0
 46 42  1  0
 47 12  1  0
 48 18  1  0
 49 15  1  0
 50 17  1  0
 51 20  1  0
 52 16  1  0
 53 19  1  0
 54  4  2  0
 55  4  2  0
 56 22  1  0
 57 23  1  0
 58 21  2  0
 59 12  2  0
 60 12  2  0
 61 15  2  0
 62 18  2  0
 63 16  2  0
 64 17  2  0
 65 17  2  0
 66 20  2  0
 67 20  2  0
 68 19  2  0
 69 19  2  0
 70 16  2  0
 71 18  2  0
 72 15  2  0
 73 22  2  0
 74 23  2  0
 75 23  2  0
 76 22  2  0
 77 21  2  0
 27  6  1  0
  5  7  1  0
  2 11  1  0
  7  4  1  6
M  END