
  SciTegic11111309142D

 50 54  0  0  1  0            999 V2000
    7.7458  -10.7426    0.0000 C   0  0
    8.6546  -17.7571    0.0000 C   0  0
    9.4415  -18.0083    0.0000 C   0  0
    9.9233  -17.3398    0.0000 C   0  0
    9.4378  -16.6777    0.0000 C   0  0
    8.6546  -16.9321    0.0000 C   0  0
    6.6234  -13.4977    0.0000 O   0  0
    6.1383  -14.1656    0.0000 C   0  0
    6.4410  -14.9336    0.0000 C   0  0
    5.9393  -15.5456    0.0000 C   0  0
    6.2200  -16.2799    0.0000 C   0  0
    6.9970  -16.3836    0.0000 C   0  0
    7.4589  -15.7491    0.0000 C   0  0
    7.1363  -15.0266    0.0000 C   0  0
    5.1244  -15.4135    0.0000 Cl  0  0
    7.6306  -14.3654    0.0000 Cl  0  0
    8.2799  -15.8354    0.0000 S   0  0
    8.3662  -15.0144    0.0000 O   0  0
    8.1936  -16.6564    0.0000 O   0  0
   10.1527  -16.2649    0.0000 C   0  0
   10.8669  -16.6773    0.0000 N   0  0
   10.1527  -15.4386    0.0000 O   0  0
   10.8669  -17.5044    0.0000 C   0  0
   11.5770  -17.9144    0.0000 C   0  0
   12.2878  -17.5040    0.0000 N   0  0
   12.2878  -16.6818    0.0000 C   0  0
   11.5772  -16.2671    0.0000 C   0  0
   12.9992  -17.9148    0.0000 C   0  0
   12.9992  -18.7359    0.0000 O   0  0
   13.7178  -17.4998    0.0000 C   0  0
   14.4288  -17.9103    0.0000 C   0  0  2  0  0  0
   15.1477  -17.4953    0.0000 C   0  0
   15.8586  -17.9057    0.0000 C   0  0
   16.5775  -17.4906    0.0000 C   0  0
    6.2867  -12.7413    0.0000 C   0  0
    5.6153  -11.2329    0.0000 C   0  0
    5.1282  -11.9079    0.0000 C   0  0
    5.4670  -12.6610    0.0000 C   0  0
    6.4396  -11.3200    0.0000 C   0  0
    6.7718  -12.0771    0.0000 C   0  0
    7.5917  -12.1667    0.0000 N   0  0
    8.0803  -11.5002    0.0000 C   0  0
    6.9242  -10.6559    0.0000 C   0  0
    8.9036  -11.5887    0.0000 C   0  0
    6.5882   -9.8991    0.0000 C   0  0
   17.2946  -17.9046    0.0000 N   0  0
   18.0117  -17.4906    0.0000 C   0  0
   17.2946  -18.7326    0.0000 C   0  0
   14.4244  -18.7374    0.0000 N   0  0
    9.1000  -15.9250    0.0000 N   0  0
 13 17  1  0
 17 18  2  0
 17 19  2  0
  5 20  1  0
 20 21  1  0
 20 22  2  0
 21 23  1  0
 21 27  1  0
 23 24  1  0
 24 25  1  0
 25 26  1  0
 26 27  1  0
 25 28  1  0
 28 29  2  0
 28 30  1  0
 30 31  1  0
 31 32  1  0
 32 33  1  0
 33 34  1  0
  7 35  1  0
 35 40  2  0
  2  3  1  0
 39 36  2  0
  3  4  1  0
 36 37  1  0
  4  5  1  0
 37 38  2  0
 38 35  1  0
  5  6  1  0
  6  2  1  0
 39 40  1  0
  7  8  1  0
 40 41  1  0
  8  9  1  0
 41 42  2  0
 42  1  1  0
  9 10  2  0
  1 43  2  0
 43 39  1  0
 10 11  1  0
 42 44  1  0
 11 12  2  0
 43 45  1  0
 12 13  1  0
 34 46  1  0
 13 14  2  0
 46 47  1  0
 14  9  1  0
 46 48  1  0
 10 15  1  0
 31 49  1  6
 14 16  1  0
 17 50  1  0
 50  5  1  0
M  END