
          03140815512D 1   1.00000     0.00000     0

 18 19  0     0  0            999 V2000
    0.1042   -4.5417    0.0000 N   0  0  3  0  0  0           0  0  0
    0.1042   -5.3667    0.0000 C   0  0  0  0  0  0           0  0  0
    0.8162   -5.7750    0.0000 C   0  0  0  0  0  0           0  0  0
    1.5282   -5.3667    0.0000 O   0  0  0  0  0  0           0  0  0
    1.5282   -4.5417    0.0000 C   0  0  0  0  0  0           0  0  0
    0.8162   -4.1250    0.0000 C   0  0  0  0  0  0           0  0  0
   -0.6115   -4.1313    0.0000 C   0  0  0  0  0  0           0  0  0
   -0.6139   -3.3063    0.0000 O   0  0  0  0  0  0           0  0  0
   -1.3248   -4.5459    0.0000 C   0  0  0  0  0  0           0  0  0
   -2.0404   -4.1354    0.0000 O   0  0  0  0  0  0           0  0  0
   -2.7537   -4.5500    0.0000 C   0  0  0  0  0  0           0  0  0
   -3.4687   -4.1363    0.0000 C   0  0  0  0  0  0           0  0  0
   -4.1814   -4.5502    0.0000 C   0  0  0  0  0  0           0  0  0
   -4.1795   -5.3761    0.0000 C   0  0  0  0  0  0           0  0  0
   -3.4588   -5.7863    0.0000 C   0  0  0  0  0  0           0  0  0
   -2.7489   -5.3701    0.0000 C   0  0  0  0  0  0           0  0  0
   -3.4534   -6.6113    0.0000 C   0  0  0  0  0  0           0  0  0
   -4.8922   -5.7916    0.0000 C   0  0  0  0  0  0           0  0  0
  7  9  1  0     0  0
  2  3  1  0     0  0
  9 10  1  0     0  0
  3  4  1  0     0  0
 10 11  1  0     0  0
  4  5  1  0     0  0
 11 12  2  0     0  0
  5  6  1  0     0  0
 12 13  1  0     0  0
 13 14  2  0     0  0
  1  7  1  0     0  0
 14 15  1  0     0  0
  1  2  1  0     0  0
 15 16  2  0     0  0
 16 11  1  0     0  0
  7  8  2  0     0  0
 15 17  1  0     0  0
  1  6  1  0     0  0
 14 18  1  0     0  0
M  END