
  SciTegic12011114592D

 27 30  0  0  0  0            999 V2000
    1.7270    0.1541    0.0000 C   0  0
    1.7259   -0.6729    0.0000 C   0  0
    2.4404   -1.0855    0.0000 C   0  0
    2.4386    0.5668    0.0000 C   0  0
    3.1537    0.1577    0.0000 C   0  0
    3.1525   -0.6749    0.0000 C   0  0
    3.8691   -1.0900    0.0000 C   0  0
    4.5914   -0.6770    0.0000 C   0  0
    4.5926    0.1557    0.0000 C   0  0
    3.8715    0.5754    0.0000 O   0  0
    3.8667   -1.9147    0.0000 O   0  0
    2.4401   -1.9102    0.0000 O   0  0
    1.0128    0.5663    0.0000 O   0  0
    5.3044   -1.0913    0.0000 O   0  0
    5.3078    0.5663    0.0000 C   0  0
    6.0210    0.1522    0.0000 C   0  0
    6.0141   -0.6759    0.0000 C   0  0
    7.4407   -0.6828    0.0000 C   0  0
    7.4447    0.1428    0.0000 C   0  0
    6.7231   -1.0898    0.0000 C   0  0
    6.7311    0.5614    0.0000 C   0  0
    5.3098    1.3909    0.0000 C   0  0
    6.0327    1.7990    0.0000 C   0  0
    5.3253    3.0379    0.0000 C   0  0
    4.6083    2.6286    0.0000 C   0  0
    6.0366    2.6200    0.0000 C   0  0
    4.6026    1.8013    0.0000 C   0  0
  1 13  1  0
  3  6  2  0
  8 14  1  0
  1  2  2  0
  9 15  1  0
  5  4  2  0
 15 16  1  0
 16 17  2  0
  4  1  1  0
 18 19  1  0
  5 10  1  0
  6  7  1  0
  7  8  1  0
  8  9  2  0
 16 21  1  0
 17 20  1  0
 20 18  2  0
 19 21  2  0
  9 10  1  0
 15 22  1  0
 22 23  2  0
  5  6  1  0
 24 25  1  0
  7 11  2  0
  3 12  1  0
  2  3  1  0
 22 27  1  0
 23 26  1  0
 26 24  2  0
 25 27  2  0
M  END