
  SciTegic01161211262D

 32 35  0  0  0  0            999 V2000
    4.6875   -3.9250    0.0000 N   0  0
    5.4750   -3.6875    0.0000 C   0  0
    4.7125   -2.5875    0.0000 N   0  3
    5.4917   -2.8583    0.0000 C   0  0
    4.4125   -4.7000    0.0000 C   0  0  1  0  0  0
    6.1792   -4.1167    0.0000 N   0  0
    4.2167   -3.2458    0.0000 C   0  0
    6.2167   -2.4583    0.0000 C   0  0
    6.9250   -2.8917    0.0000 N   0  0
    4.8792   -5.3833    0.0000 C   0  0  1  0  0  0
    6.9083   -3.7208    0.0000 C   0  0
    3.6208   -4.9417    0.0000 O   0  0
    1.5000   -6.3542    0.0000 P   0  0
    3.6000   -5.7667    0.0000 C   0  0  1  0  0  0
    4.3792   -6.0417    0.0000 C   0  0  1  0  0  0
    4.4708   -1.8000    0.0000 C   0  0
    2.9208   -6.2375    0.0000 C   0  0
    2.1792   -5.8833    0.0000 O   0  0
    6.2333   -1.6333    0.0000 O   0  0
    2.0292   -6.9875    0.0000 O   0  5
    0.9125   -6.9333    0.0000 O   0  0
    0.9708   -5.7167    0.0000 O   0  0
    7.6125   -4.1458    0.0000 N   0  0
    5.0333   -1.1958    0.0000 C   0  0
    5.7042   -5.4042    0.0000 O   0  0
    4.6167   -6.8292    0.0000 O   0  0
    4.7917   -0.4125    0.0000 C   0  0
    5.3500    0.1875    0.0000 C   0  0
    6.4000   -0.7833    0.0000 C   0  0
    5.8375   -1.3833    0.0000 C   0  0
    6.1583    0.0083    0.0000 C   0  0
    5.1083    0.9792    0.0000 C   0  0
  2  1  1  0
  3  7  2  0
  4  2  2  0
  5  1  1  1
  6  2  1  0
  7  1  1  0
  8  4  1  0
  9  8  1  0
 10  5  1  0
 11  6  2  0
 12  5  1  0
 13 18  1  0
 14 12  1  0
 15 10  1  0
 16  3  1  0
 14 17  1  1
 18 17  1  0
 19  8  2  0
 20 13  1  0
 21 13  1  0
 22 13  2  0
 23 11  1  0
 24 16  1  0
 10 25  1  6
 15 26  1  6
 27 24  1  0
 28 27  2  0
 29 30  1  0
 30 24  2  0
 31 28  1  0
 32 28  1  0
  3  4  1  0
 15 14  1  0
  9 11  1  0
 31 29  2  0
M  CHG  2   3   1  20  -1
M  END