
          11280715092D 1   1.00000     0.00000     0

 18 19  0     0  0            999 V2000
   -0.2833    0.7833    0.0000 C   0  0  0  0  0  0           0  0  0
   -0.6958    1.5000    0.0000 C   0  0  0  0  0  0           0  0  0
    0.5417    0.7875    0.0000 C   0  0  0  0  0  0           0  0  0
    0.9500    1.5083    0.0000 C   0  0  0  0  0  0           0  0  0
   -1.5208    1.5000    0.0000 C   0  0  0  0  0  0           0  0  0
   -0.2833    2.2125    0.0000 O   0  0  0  0  0  0           0  0  0
    0.5292    2.2208    0.0000 O   0  0  0  0  0  0           0  0  0
   -1.9333    0.7875    0.0000 C   0  0  0  0  0  0           0  0  0
   -1.9333    2.2125    0.0000 C   0  0  0  0  0  0           0  0  0
    1.7750    1.5083    0.0000 O   0  0  0  0  0  0           0  0  0
   -3.1625    1.4958    0.0000 C   0  0  0  0  0  0           0  0  0
   -2.7583    0.7875    0.0000 C   0  0  0  0  0  0           0  0  0
   -2.7583    2.2083    0.0000 C   0  0  0  0  0  0           0  0  0
   -3.9875    1.4958    0.0000 F   0  0  0  0  0  0           0  0  0
   -0.6958    0.0708    0.0000 C   0  0  0  0  0  0           0  0  0
    0.9542    0.0750    0.0000 C   0  0  0  0  0  0           0  0  0
   -0.2833   -0.6417    0.0000 C   0  0  0  0  0  0           0  0  0
    0.5417   -0.6417    0.0000 C   0  0  0  0  0  0           0  0  0
  2  1  1  0     0  0
  3  1  1  0     0  0
  4  3  1  0     0  0
  5  2  1  0     0  0
  6  2  2  0     0  0
  7  4  2  0     0  0
  8  5  1  0     0  0
  9  5  2  0     0  0
 10  4  1  0     0  0
 11 13  2  0     0  0
 12  8  2  0     0  0
 13  9  1  0     0  0
 14 11  1  0     0  0
 15  1  2  0     0  0
 16  3  2  0     0  0
 17 15  1  0     0  0
 18 17  2  0     0  0
 18 16  1  0     0  0
 12 11  1  0     0  0
M  END