
  SciTegic02011310442D

 43 48  0  0  0  0            999 V2000
    3.1117  -26.8462    0.0000 N   0  0
    3.8213  -26.4367    0.0000 C   0  0
    3.8185  -25.6141    0.0000 N   0  0
    3.1099  -25.2088    0.0000 C   0  0
    2.4036  -26.4372    0.0000 N   0  0
    2.4048  -25.6161    0.0000 C   0  0
    1.6243  -25.3612    0.0000 C   0  0
    1.1407  -26.0248    0.0000 C   0  0
    1.6223  -26.6897    0.0000 C   0  0
    4.5297  -26.8442    0.0000 S   0  0
    5.2367  -26.4345    0.0000 C   0  0
    3.1081  -24.3916    0.0000 N   0  0
    3.8149  -23.9815    0.0000 C   0  0
    5.9418  -26.8424    0.0000 C   0  0
    6.6483  -26.4334    0.0000 C   0  0
    6.6475  -25.6153    0.0000 C   0  0
    5.9342  -25.2080    0.0000 C   0  0
    5.2305  -25.6194    0.0000 C   0  0
    4.5599  -24.3135    0.0000 C   0  0
    5.1054  -23.7050    0.0000 C   0  0
    4.6952  -22.9981    0.0000 N   0  0
    3.8963  -23.1699    0.0000 N   0  0
    5.9183  -23.7886    0.0000 C   0  0
    7.3540  -25.2047    0.0000 N   0  0
    8.0629  -25.6112    0.0000 C   0  0
    8.7694  -25.2006    0.0000 C   0  0
    9.4783  -25.6071    0.0000 N   0  0
    8.0653  -26.4284    0.0000 O   0  0
    9.5633  -26.4174    0.0000 C   0  0
   10.3631  -26.5850    0.0000 C   0  0  1  0  0  0
   10.7697  -25.8761    0.0000 C   0  0
   10.2210  -25.2705    0.0000 C   0  0
   10.6977  -27.3306    0.0000 C   0  0
   10.2193  -27.9931    0.0000 O   0  0
   11.5106  -27.4136    0.0000 N   0  0
   11.8452  -28.1592    0.0000 C   0  0
   12.6581  -28.2423    0.0000 C   0  0
   12.9927  -28.9879    0.0000 N   0  0
   12.5135  -29.6478    0.0000 C   0  0
   12.8448  -30.3909    0.0000 C   0  0
   13.6576  -30.4782    0.0000 O   0  0
   14.1382  -29.8161    0.0000 C   0  0
   13.8059  -29.0667    0.0000 C   0  0
  5  1  1  0
  1  2  2  0
  2  3  1  0
  3  4  2  0
  4  6  1  0
  5  6  1  0
  6  7  2  0
  7  8  1  0
  8  9  2  0
  9  5  1  0
  2 10  1  0
 10 11  1  0
  4 12  1  0
 12 13  1  0
 11 14  2  0
 14 15  1  0
 15 16  2  0
 16 17  1  0
 17 18  2  0
 18 11  1  0
 13 19  1  0
 19 20  2  0
 20 21  1  0
 21 22  1  0
 22 13  2  0
 20 23  1  0
 16 24  1  0
 24 25  1  0
 25 26  1  0
 26 27  1  0
 25 28  2  0
 27 29  1  0
 29 30  1  0
 30 31  1  0
 31 32  1  0
 32 27  1  0
 30 33  1  1
 33 34  2  0
 33 35  1  0
 35 36  1  0
 36 37  1  0
 37 38  1  0
 38 39  1  0
 38 43  1  0
 39 40  1  0
 40 41  1  0
 41 42  1  0
 42 43  1  0
M  END