
  SciTegic10011413212D

 23 24  0  0  0  0            999 V2000
   13.8293  -12.6000    0.0000 C   0  0
   14.5437  -12.1875    0.0000 C   0  0
   15.2582  -12.6000    0.0000 C   0  0
   15.9727  -12.1875    0.0000 C   0  0
   16.6871  -12.6000    0.0000 N   0  0
   17.4016  -12.1875    0.0000 C   0  0
   18.1161  -12.6000    0.0000 N   0  0
   17.4016  -11.3626    0.0000 N   0  0
   18.8305  -12.1875    0.0000 C   0  0
   19.5450  -12.6000    0.0000 C   0  0
   20.2595  -12.1875    0.0000 C   0  0
   20.9741  -12.6000    0.0000 C   0  0
   20.2595  -11.3626    0.0000 C   0  0
   18.8305  -11.3626    0.0000 O   0  0
   13.0416  -12.3397    0.0000 C   0  0
   12.5497  -13.0019    0.0000 N   0  0
   13.0275  -13.6746    0.0000 N   0  0
   13.8146  -13.4279    0.0000 C   0  0
   20.9723  -13.4262    0.0000 C   0  0
   21.6860  -13.8386    0.0000 C   0  0
   22.4015  -13.4261    0.0000 C   0  0
   22.3987  -12.5967    0.0000 C   0  0
   21.6846  -12.1880    0.0000 C   0  0
  1  2  1  0
  2  3  1  0
  3  4  1  0
  4  5  1  0
  5  6  1  0
  6  7  2  0
  6  8  1  0
  7  9  1  0
  9 10  1  0
 10 11  1  0
 11 12  1  0
 11 13  1  0
  9 14  2  0
  1 15  2  0
 15 16  1  0
 16 17  1  0
 17 18  2  0
 18  1  1  0
 12 19  2  0
 19 20  1  0
 20 21  2  0
 21 22  1  0
 22 23  2  0
 23 12  1  0
M  END