
  Mrv0541 06031419352D          

 18 20  0  0  0  0            999 V2000
   12.0102   -9.8930    0.0000 N   0  0  0  0  0  0  0  0  0  0  0  0
   12.0061  -10.6936    0.0000 C   0  0  0  0  0  0  0  0  0  0  0  0
   11.2880   -9.5422    0.0000 C   0  0  0  0  0  0  0  0  0  0  0  0
   12.7408   -9.5422    0.0000 C   0  0  0  0  0  0  0  0  0  0  0  0
   11.6140   -8.1100    0.0000 C   0  0  0  0  0  0  0  0  0  0  0  0
   12.4312   -8.1183    0.0000 C   0  0  0  0  0  0  0  0  0  0  0  0
   11.1064   -8.7415    0.0000 C   0  0  0  0  0  0  0  0  0  0  0  0
   12.9347   -8.7539    0.0000 C   0  0  0  0  0  0  0  0  0  0  0  0
   11.3045  -11.1022    0.0000 O   0  0  0  0  0  0  0  0  0  0  0  0
   12.7036  -11.1064    0.0000 N   0  0  0  0  0  0  0  0  0  0  0  0
   10.6854  -10.0993    0.0000 C   0  0  0  0  0  0  0  0  0  0  0  0
   13.3309  -10.1035    0.0000 C   0  0  0  0  0  0  0  0  0  0  0  0
   13.7065   -8.5186    0.0000 C   0  0  0  0  0  0  0  0  0  0  0  0
   10.3263   -8.4938    0.0000 C   0  0  0  0  0  0  0  0  0  0  0  0
   14.1151   -9.8765    0.0000 C   0  0  0  0  0  0  0  0  0  0  0  0
    9.9053   -9.8558    0.0000 C   0  0  0  0  0  0  0  0  0  0  0  0
    9.7196   -9.0510    0.0000 C   0  0  0  0  0  0  0  0  0  0  0  0
   14.3008   -9.0758    0.0000 C   0  0  0  0  0  0  0  0  0  0  0  0
  2  1  1  0  0  0  0
  3  1  1  0  0  0  0
  4  1  1  0  0  0  0
  5  7  1  0  0  0  0
  6  8  1  0  0  0  0
  7  3  2  0  0  0  0
  8  4  2  0  0  0  0
  9  2  2  0  0  0  0
 10  2  1  0  0  0  0
 11  3  1  0  0  0  0
 12  4  1  0  0  0  0
 13  8  1  0  0  0  0
 14  7  1  0  0  0  0
 15 12  2  0  0  0  0
 16 11  2  0  0  0  0
 17 16  1  0  0  0  0
 18 15  1  0  0  0  0
  6  5  2  0  0  0  0
 18 13  2  0  0  0  0
 14 17  2  0  0  0  0
M  END