
  SciTegic01181116592D

 18 19  0  0  0  0            999 V2000
    8.4231   -0.3846    0.0000 C   0  0
    8.0059   -1.0990    0.0000 C   0  0
    8.4159   -1.8155    0.0000 C   0  0
    9.2430   -1.8187    0.0000 C   0  0
    9.6584   -1.0995    0.0000 C   0  0
    9.2460   -0.3860    0.0000 C   0  0
   10.4832   -1.0892    0.0000 C   0  0
   10.9764   -1.7545    0.0000 N   0  0
   11.7580   -1.4894    0.0000 C   0  0
   11.7470   -0.6646    0.0000 C   0  0
   10.9597   -0.4198    0.0000 N   0  0
   12.4596   -0.2488    0.0000 C   0  0
   13.1760   -0.6581    0.0000 O   0  0
   12.4559    0.5762    0.0000 O   0  0
   12.4716   -1.9034    0.0000 C   0  0
    8.0131    0.3313    0.0000 F   0  0
   12.4698   -2.7284    0.0000 O   0  0
   13.1869   -1.4925    0.0000 O   0  0
  4  5  1  0
  2  3  1  0
  8  9  1  0
  9 10  2  0
 10 11  1  0
 11  7  1  0
  5  6  2  0
 10 12  1  0
  6  1  1  0
 12 13  1  0
  1  2  2  0
 12 14  2  0
  5  7  1  0
  9 15  1  0
  7  8  2  0
  1 16  1  0
  3  4  2  0
 15 17  1  0
 15 18  2  0
M  END