
  SciTegic01161211242D

 12 10  0  0  0  0            999 V2000
    2.6000    0.0000    0.0000 N   0  0
    1.3000    0.7500    0.0000 C   0  0
    3.9000    0.7500    0.0000 C   0  0
    5.2000    0.0000    0.0000 C   0  0
   11.5999    0.3750    0.0000 Cl  0  0
    5.2000   -1.2000    0.0000 O   0  0
    7.7999    0.0000    0.0000 O   0  0
    6.5000    0.7500    0.0000 C   0  0
    0.2606    0.1503    0.0000 C   0  0
    0.2609    1.3502    0.0000 C   0  0
    1.3000    1.9500    0.0000 C   0  0
    8.8394    0.5997    0.0000 C   0  0
  1  2  1  0
  1  3  1  0
  3  4  1  0
  4  6  1  0
  4  8  1  0
  7  8  1  0
  2  9  1  0
  2 10  1  0
  2 11  1  0
  7 12  1  0
M  END