
  SciTegic04021211102D

 30 33  0  0  0  0            999 V2000
   -4.3676  -11.1033    0.0000 C   0  0
   -4.3688  -11.9283    0.0000 C   0  0
   -3.6532  -12.3399    0.0000 C   0  0
   -2.9360  -11.9278    0.0000 C   0  0
   -2.9390  -11.0994    0.0000 C   0  0
   -3.6551  -10.6874    0.0000 C   0  0
   -2.2331  -10.6824    0.0000 C   0  0
   -1.5160  -11.0970    0.0000 C   0  0
   -0.8030  -10.6793    0.0000 C   0  0
   -0.8057   -9.8559    0.0000 N   0  0
   -1.5278   -9.4477    0.0000 C   0  0
   -2.2378   -9.8635    0.0000 N   0  0
   -3.6534  -13.1667    0.0000 C   0  0
   -2.9384  -13.5781    0.0000 N   0  0
   -2.2275  -13.1671    0.0000 C   0  0
   -1.5125  -13.5785    0.0000 C   0  0
   -3.6577   -9.8649    0.0000 C   0  0
   -1.5342   -8.6209    0.0000 N   0  0
   -0.7972  -13.1675    0.0000 C   0  0
   -0.0821  -13.5788    0.0000 O   0  0
    0.6287  -13.1678    0.0000 C   0  0
    1.3406  -13.5794    0.0000 C   0  0
    2.0553  -13.1690    0.0000 C   0  0
    2.0560  -12.3412    0.0000 C   0  0
    1.3357  -11.9300    0.0000 C   0  0
    0.6240  -12.3428    0.0000 C   0  0
    1.3328  -11.1075    0.0000 S   0  0
   -5.1190  -12.3614    0.0000 O   0  0
   -4.4034  -13.6002    0.0000 O   0  0
   -5.8692  -11.9283    0.0000 C   0  0
  3  4  2  0
 14 15  1  0
  7  8  2  0
 15 16  1  0
  6 17  1  0
  8  9  1  0
 11 18  1  0
  4  5  1  0
 16 19  1  0
  9 10  2  0
 19 20  1  0
  2  3  1  0
 20 21  1  0
 10 11  1  0
 21 22  2  0
  5  6  2  0
 22 23  1  0
 11 12  2  0
 23 24  2  0
 12  7  1  0
 24 25  1  0
  5  7  1  0
 25 26  2  0
 26 21  1  0
  6  1  1  0
 25 27  1  0
  9 27  1  0
  3 13  1  0
  2 28  1  0
  1  2  2  0
 13 29  2  0
 13 14  1  0
 28 30  1  0
M  END