
          08180812492D 1   1.00000     0.00000     0

 30 32  0     0  0            999 V2000
   12.4486   -1.2208    0.0000 C   0  0  0  0  0  0           0  0  0
   12.4474   -2.0482    0.0000 C   0  0  0  0  0  0           0  0  0
   13.1622   -2.4610    0.0000 C   0  0  0  0  0  0           0  0  0
   13.8787   -2.0477    0.0000 C   0  0  0  0  0  0           0  0  0
   13.8758   -1.2172    0.0000 C   0  0  0  0  0  0           0  0  0
   13.1604   -0.8080    0.0000 C   0  0  0  0  0  0           0  0  0
   11.7327   -2.4598    0.0000 C   0  0  0  0  0  0           0  0  0
   10.9902   -2.1002    0.0000 N   0  0  3  0  0  0           0  0  0
   11.7320   -3.2851    0.0000 O   0  0  0  0  0  0           0  0  0
   14.5887   -0.8020    0.0000 O   0  0  0  0  0  0           0  0  0
   14.5856    0.0230    0.0000 C   0  0  0  0  0  0           0  0  0
   15.3003    0.4334    0.0000 C   0  0  0  0  0  0           0  0  0
   15.2975    1.2576    0.0000 C   0  0  0  0  0  0           0  0  0
   14.5810    1.6682    0.0000 C   0  0  0  0  0  0           0  0  0
   13.8657    1.2486    0.0000 C   0  0  0  0  0  0           0  0  0
   13.8720    0.4258    0.0000 C   0  0  0  0  0  0           0  0  0
   14.5938   -2.4591    0.0000 C   0  0  0  0  0  0           0  0  0
   15.3076   -2.0454    0.0000 N   0  0  0  0  0  0           0  0  0
   16.0227   -2.4568    0.0000 C   0  0  0  0  0  0           0  0  0
   10.3464   -2.6129    0.0000 C   0  0  0  0  0  0           0  0  0
    9.5402   -2.4288    0.0000 C   0  0  0  0  0  0           0  0  0
   10.9910   -1.2761    0.0000 C   0  0  0  0  0  0           0  0  0
    9.1800   -1.6880    0.0000 C   0  0  0  0  0  0           0  0  0
   10.3449   -0.7610    0.0000 C   0  0  0  0  0  0           0  0  0
    9.5401   -0.9470    0.0000 N   0  0  3  0  0  0           0  0  0
    9.0260   -0.3018    0.0000 C   0  0  3  0  0  0           0  0  0
    9.3276    0.4661    0.0000 C   0  0  0  0  0  0           0  0  0
    8.2101   -0.4245    0.0000 C   0  0  0  0  0  0           0  0  0
   14.5768    2.4932    0.0000 Cl  0  0  0  0  0  0           0  0  0
   16.0107    1.6725    0.0000 Cl  0  0  0  0  0  0           0  0  0
 14 15  1  0     0  0
  3  4  2  0     0  0
 15 16  2  0     0  0
 16 11  1  0     0  0
  7  8  1  0     0  0
  4 17  1  0     0  0
 17 18  1  0     0  0
  7  9  2  0     0  0
 18 19  1  0     0  0
  4  5  1  0     0  0
  8 20  1  0     0  0
  5 10  1  0     0  0
 20 21  1  0     0  0
  2  3  1  0     0  0
  8 22  1  0     0  0
 10 11  1  0     0  0
 21 23  1  0     0  0
  5  6  2  0     0  0
 22 24  1  0     0  0
 11 12  2  0     0  0
 23 25  1  0     0  0
 24 25  1  0     0  0
  6  1  1  0     0  0
 25 26  1  0     0  0
 12 13  1  0     0  0
 26 27  1  0     0  0
  1  2  2  0     0  0
 26 28  1  0     0  0
 13 14  2  0     0  0
 14 29  1  0     0  0
  2  7  1  0     0  0
 13 30  1  0     0  0
M  END