
  SciTegic12231509382D

 51 57  0  0  0  0            999 V2000
   -7.0495   -5.6835    0.0000 C   0  0
   -7.3466   -4.2858    0.0000 C   0  0
   -5.2575   -3.0877    0.0000 O   0  0
   -6.2847   -3.3296    0.0000 O   0  0
    5.6518    3.1791    0.0000 F   0  0
    5.9505    6.0213    0.0000 F   0  0
    5.8011    4.6002    0.0000 C   0  0
    1.1987    0.8448    0.0000 C   0  0
    0.1368    1.8010    0.0000 C   0  0
    0.6467    0.2317    0.0000 C   0  0
   -0.4153    1.1879    0.0000 C   0  0
   -2.1135   -2.8337    0.0000 C   0  0
   -3.1754   -1.8776    0.0000 C   0  0
   -2.6655   -3.4468    0.0000 C   0  0
   -3.7275   -2.4907    0.0000 C   0  0
    5.4656    5.3539    0.0000 C   0  0
    5.1378    0.8445    0.0000 C   0  0
    4.4957    4.0190    0.0000 C   0  0
    4.0579    1.6291    0.0000 C   0  0
   -3.8530   -4.6954    0.0000 C   0  0
   -6.2425   -5.5120    0.0000 C   0  0
    3.6753    2.5979    0.0000 C   0  0
   -0.4574   -0.9944    0.0000 C   0  0
   -1.5193   -0.0383    0.0000 C   0  0
   -1.0094   -1.6075    0.0000 C   0  0
   -2.0714   -0.6514    0.0000 C   0  0
    2.3027    2.0710    0.0000 C   0  0
    4.7253    2.9391    0.0000 C   0  0
    4.3128    0.8445    0.0000 N   0  0
    5.3927    1.6291    0.0000 N   0  0
   -4.5675   -5.1079    0.0000 N   0  0
    1.4958    2.2426    0.0000 O   0  0
    3.3977    3.9036    0.0000 O   0  0
    5.3162    3.9328    0.0000 C   0  0
    4.1602    4.7727    0.0000 C   0  0
    0.9437    1.6295    0.0000 C   0  0
   -0.1603    0.4033    0.0000 C   0  0
   -2.3685   -2.0491    0.0000 C   0  0
   -3.4725   -3.2753    0.0000 C   0  0
    4.6451    5.4401    0.0000 C   0  0
   -4.8450   -3.8022    0.0000 C   0  0
   -6.5396   -4.1143    0.0000 C   0  0  2  0  0  0
   -5.9876   -4.7274    0.0000 C   0  0  1  0  0  0
   -0.7124   -0.2098    0.0000 N   0  0
   -1.8164   -1.4360    0.0000 N   0  0
    4.7253    2.1141    0.0000 N   0  0
   -4.0246   -3.8884    0.0000 N   0  0
   -5.1806   -4.5558    0.0000 N   0  0
    4.0108    3.3516    0.0000 C   0  0  2  0  0  0
    2.6833    3.4911    0.0000 C   0  0
    2.8548    2.6841    0.0000 C   0  0  2  0  0  0
  1 21  1  0
  2 42  1  0
 41  3  2  0
 42  4  1  6
 34  5  1  0
 16  6  1  0
  7 16  2  0
  7 34  1  0
  8 10  1  0
  8 36  2  0
  9 11  2  0
  9 36  1  0
 10 37  2  0
 11 37  1  0
 12 14  1  0
 12 38  2  0
 13 15  2  0
 13 38  1  0
 14 39  2  0
 15 39  1  0
 16 40  1  0
 17 29  1  0
 17 30  2  0
 18 34  2  0
 18 35  1  0
 49 18  1  1
 19 29  2  0
 19 46  1  0
 20 31  2  0
 20 47  1  0
 21 43  1  0
 49 22  1  0
 51 22  1  0
 23 25  1  0
 23 44  1  0
 24 26  1  0
 24 44  1  0
 25 45  1  0
 26 45  1  0
 27 32  1  0
 51 27  1  6
 28 46  1  0
 49 28  1  6
 30 46  1  0
 31 48  1  0
 36 32  1  0
 49 33  1  0
 50 33  1  0
 35 40  2  0
 37 44  1  0
 38 45  1  0
 39 47  1  0
 41 47  1  0
 41 48  1  0
 42 43  1  0
 43 48  1  1
 50 51  1  0
M  END