
  SciTegic12011114592D

 28 28  0  0  0  0            999 V2000
   -1.6689  -21.4834    0.0000 N   0  3
   -0.9550  -21.8913    0.0000 C   0  0
   -0.9545  -22.7155    0.0000 C   0  0
   -1.6695  -23.1289    0.0000 C   0  0
   -2.3864  -22.7120    0.0000 C   0  0
   -2.3833  -21.8892    0.0000 C   0  0
   -1.6705  -23.9539    0.0000 C   0  0
   -2.3855  -24.3655    0.0000 N   0  0
   -0.9565  -24.3673    0.0000 O   0  0
   -0.9540  -20.2507    0.0000 C   0  0
   -2.3764  -16.9458    0.0000 C   0  0
   -2.3776  -17.7732    0.0000 C   0  0
   -1.6628  -18.1860    0.0000 N   0  3
   -0.9463  -17.7727    0.0000 C   0  0
   -0.9492  -16.9422    0.0000 C   0  0
   -1.6646  -16.5330    0.0000 C   0  0
   -1.6630  -19.0110    0.0000 C   0  0
   -0.9486  -19.4237    0.0000 C   0  0
   -0.2394  -20.6595    0.0000 C   0  0
    0.4761  -20.2471    0.0000 C   0  0
    0.4737  -19.4179    0.0000 C   0  0
   -0.2405  -19.0090    0.0000 C   0  0
   -1.6667  -15.7076    0.0000 C   0  0
   -0.9533  -15.2933    0.0000 N   0  0
   -0.9554  -14.4683    0.0000 O   0  0
   -1.6691  -20.6623    0.0000 C   0  0
   -2.6875  -18.5625    0.0000 Br  0  5
   -2.4063  -21.2188    0.0000 Br  0  5
 13 14  2  0
  4  7  1  0
 14 15  1  0
  3  4  2  0
 15 16  2  0
 16 11  1  0
  7  8  1  0
 13 17  1  0
 17 18  1  0
 18 10  2  0
  7  9  2  0
 10 19  1  0
  4  5  1  0
 19 20  2  0
  2  3  1  0
 20 21  1  0
  5  6  2  0
 21 22  2  0
 22 18  1  0
 11 12  2  0
 16 23  1  0
  6  1  1  0
 23 24  2  0
 12 13  1  0
 24 25  1  0
  1  2  2  0
 10 26  1  0
 26  1  1  0
M  CHG  4   1   1  13   1  27  -1  28  -1
M  END