
  CDK    9/16/09,9:48

 12 13  0  0  0  0  0  0  0  0999 V2000
    3.1595  -19.3077    0.0000 C   0  0  0  0  0  0  0  0  0  0  0  0
    4.5888  -20.1330    0.0000 C   0  0  0  0  0  0  0  0  0  0  0  0
    4.5856  -19.3037    0.0000 C   0  0  0  0  0  0  0  0  0  0  0  0
    3.8684  -18.8935    0.0000 C   0  0  0  0  0  0  0  0  0  0  0  0
    5.2971  -18.8863    0.0000 C   0  0  0  0  0  0  0  0  0  0  0  0
    6.0128  -19.2967    0.0000 C   0  0  0  0  0  0  0  0  0  0  0  0
    6.7243  -18.8793    0.0000 N   0  0  0  0  0  0  0  0  0  0  0  0
    3.8704  -20.5433    0.0000 C   0  0  0  0  0  0  0  0  0  0  0  0
    3.1586  -20.1366    0.0000 C   0  0  0  0  0  0  0  0  0  0  0  0
    2.5486  -20.6881    0.0000 O   0  0  0  0  0  0  0  0  0  0  0  0
    2.8863  -21.4374    0.0000 C   0  0  0  0  0  0  0  0  0  0  0  0
    3.7021  -21.3461    0.0000 O   0  0  0  0  0  0  0  0  0  0  0  0
  1  9  2  0  0  0  0 
  5  6  1  0  0  0  0 
  2  3  1  0  0  0  0 
  6  7  1  0  0  0  0 
  8  9  1  0  0  0  0 
  3  4  2  0  0  0  0 
  4  1  1  0  0  0  0 
  8  2  2  0  0  0  0 
  3  5  1  0  0  0  0 
  9 10  1  0  0  0  0 
 10 11  1  0  0  0  0 
 11 12  1  0  0  0  0 
 12  8  1  0  0  0  0 
M  END