
  SciTegic09261414482D

 75 77  0  0  0  0            999 V2000
   24.2480  -20.8969    0.0000 S   0  0
   24.9572  -20.4826    0.0000 S   0  0
   20.6392  -20.2532    0.0000 O   0  0
   21.3896  -20.8969    0.0000 O   0  0
   19.2673  -16.9355    0.0000 O   0  0
   21.3896  -21.7253    0.0000 O   0  0
   24.9572  -25.4323    0.0000 O   0  0
   22.1031  -24.6080    0.0000 O   0  0
   27.8156  -24.6080    0.0000 O   0  0
   20.6803  -22.1353    0.0000 O   0  0
   27.1022  -21.7253    0.0000 O   0  0
   17.0872  -18.9549    0.0000 O   0  0
   23.5345  -27.0808    0.0000 O   0  0
   22.1031  -19.6583    0.0000 N   0  0
   26.3886  -24.6080    0.0000 N   0  0
   21.4366  -19.1792    0.0000 C   0  0  1  0  0  0
   21.6931  -18.3886    0.0000 C   0  0
   22.5173  -18.3886    0.0000 C   0  0
   22.7740  -19.1792    0.0000 C   0  0
   20.6574  -19.4314    0.0000 C   0  0
   22.1031  -20.4826    0.0000 C   0  0
   22.8208  -20.8969    0.0000 C   0  0  2  0  0  0
   19.9581  -18.1861    0.0000 C   0  0  1  0  0  0
   20.6833  -17.7796    0.0000 C   0  0
   23.5344  -20.4826    0.0000 C   0  0
   20.6781  -16.9578    0.0000 C   0  0
   19.2533  -17.7573    0.0000 C   0  0
   22.1031  -22.1353    0.0000 C   0  0
   22.1031  -22.9596    0.0000 C   0  0  2  0  0  0
   25.6792  -25.5083    0.0000 C   0  0  2  0  0  0
   25.6792  -24.1980    0.0000 C   0  0  1  0  0  0
   21.3862  -16.5428    0.0000 C   0  0
   19.9591  -16.5499    0.0000 C   0  0
   23.5345  -24.6080    0.0000 C   0  0  2  0  0  0
   26.3886  -25.9269    0.0000 C   0  0
   21.3896  -23.3737    0.0000 C   0  0
   24.9572  -24.6080    0.0000 C   0  0
   22.8208  -24.1980    0.0000 C   0  0
   24.7420  -26.0494    0.0000 C   0  0
   23.5345  -25.4323    0.0000 C   0  0
   27.1022  -23.3737    0.0000 C   0  0  2  0  0  0
   27.1022  -24.1980    0.0000 C   0  0
   17.8231  -17.7350    0.0000 C   0  0
   26.3886  -26.7553    0.0000 C   0  0
   22.8210  -25.8466    0.0000 C   0  0
   27.8156  -22.9596    0.0000 C   0  0
   25.6792  -20.8969    0.0000 C   0  0
   25.6792  -21.7253    0.0000 C   0  0
   20.6803  -22.9596    0.0000 C   0  0
   26.3886  -22.1353    0.0000 C   0  0
   28.5291  -23.3737    0.0000 C   0  0
   17.1012  -18.1331    0.0000 C   0  0
   22.8210  -26.6707    0.0000 C   0  0
   29.2470  -22.9596    0.0000 C   0  0
   28.5292  -24.1980    0.0000 C   0  0
   29.9563  -23.3737    0.0000 C   0  0
   29.2470  -24.6080    0.0000 C   0  0
   29.9563  -24.1980    0.0000 C   0  0
   30.6740  -24.6080    0.0000 O   0  0
   24.2480  -24.1980    0.0000 N   0  0
   22.8208  -21.7253    0.0000 N   0  0
   26.3886  -22.9596    0.0000 N   0  0
   18.5312  -18.1598    0.0000 N   0  0
   19.9626  -23.3737    0.0000 N   0  0
   19.9442  -19.0079    0.0000 N   0  0
   16.3963  -17.7086    0.0000 N   0  0
   22.8208  -23.3737    0.0000 N   0  0
   22.1033  -27.0808    0.0000 N   0  0
   24.9509  -23.7759    0.0000 H   0  0
   29.2492  -25.4449    0.0000 Br  0  0
   30.6821  -22.9571    0.0000 Br  0  0
   25.8935  -20.0817    0.0000 C   0  0
   25.4708  -19.3546    0.0000 C   0  0
   26.5148  -20.8932    0.0000 C   0  0
   26.9301  -20.1666    0.0000 C   0  0
 10 49  2  0
 11 50  2  0
 12 52  2  0
 13 53  2  0
 59 58  1  0
 14 16  1  0
 14 19  1  0
 14 21  1  0
 65 20  1  0
 23 65  1  6
 61 22  1  0
 61 28  1  0
 63 27  1  0
 63 43  1  0
 67 29  1  0
 67 38  1  0
 31 15  1  0
 15 42  1  0
 60 34  1  0
 60 37  1  0
 62 41  1  0
 62 50  1  0
 64 49  1  0
 66 52  1  0
 68 53  1  0
 16 17  1  0
 16 20  1  6
 17 18  1  0
 18 19  1  0
 22 21  1  6
 22 25  1  0
 23 24  1  0
 23 27  1  0
 24 26  1  0
 26 32  1  0
 26 33  1  0
 28 29  1  0
 29 36  1  1
 30 31  1  0
 30 35  1  0
 30 39  1  6
 31 37  1  0
 34 38  1  0
 34 40  1  1
 35 44  1  0
 36 49  1  0
 40 45  1  0
 41 42  1  0
 41 46  1  1
 43 52  1  0
 45 53  1  0
 46 51  1  0
 47 48  1  0
 48 50  1  0
 51 54  2  0
 51 55  1  0
 54 56  1  0
 55 57  2  0
 56 58  2  0
 57 58  1  0
  1  2  1  0
  1 25  1  0
  2 47  1  0
  3 20  2  0
  4 21  2  0
  5 27  2  0
  6 28  2  0
  7 37  2  0
  8 38  2  0
  9 42  2  0
 31 69  1  6
 57 70  1  0
 56 71  1  0
 47 72  1  0
 72 73  1  0
 47 74  1  0
 74 75  1  0
M  END