
          11280715092D 1   1.00000     0.00000     0

 19 20  0     0  0            999 V2000
   -0.4083   -1.2750    0.0000 C   0  0  0  0  0  0           0  0  0
   -1.1208   -0.8667    0.0000 C   0  0  0  0  0  0           0  0  0
    0.3042   -0.8625    0.0000 C   0  0  0  0  0  0           0  0  0
    0.3042   -0.0292    0.0000 C   0  0  0  0  0  0           0  0  0
   -1.8333   -1.2792    0.0000 C   0  0  0  0  0  0           0  0  0
   -1.1208   -0.0417    0.0000 O   0  0  0  0  0  0           0  0  0
   -0.4083    0.3708    0.0000 O   0  0  0  0  0  0           0  0  0
   -2.5458   -0.8625    0.0000 C   0  0  0  0  0  0           0  0  0
   -1.8333   -2.1000    0.0000 C   0  0  0  0  0  0           0  0  0
    1.0167    0.3750    0.0000 O   0  0  0  0  0  0           0  0  0
   -3.2625   -2.1000    0.0000 C   0  0  0  0  0  0           0  0  0
   -2.5458   -2.5125    0.0000 C   0  0  0  0  0  0           0  0  0
   -3.2625   -1.2750    0.0000 C   0  0  0  0  0  0           0  0  0
   -0.4083   -2.1042    0.0000 C   0  0  0  0  0  0           0  0  0
    1.0250   -1.2750    0.0000 C   0  0  0  0  0  0           0  0  0
   -3.9750   -2.5167    0.0000 O   0  0  0  0  0  0           0  0  0
   -4.6958   -2.1042    0.0000 C   0  0  0  0  0  0           0  0  0
    0.3042   -2.5167    0.0000 C   0  0  0  0  0  0           0  0  0
    1.0250   -2.1042    0.0000 C   0  0  0  0  0  0           0  0  0
  2  1  1  0     0  0
  3  1  1  0     0  0
  4  3  1  0     0  0
  5  2  1  0     0  0
  6  2  2  0     0  0
  7  4  2  0     0  0
  8  5  2  0     0  0
  9  5  1  0     0  0
 10  4  1  0     0  0
 11 12  1  0     0  0
 12  9  2  0     0  0
 13  8  1  0     0  0
 14  1  2  0     0  0
 15  3  2  0     0  0
 16 11  1  0     0  0
 17 16  1  0     0  0
 18 14  1  0     0  0
 19 18  2  0     0  0
 15 19  1  0     0  0
 11 13  2  0     0  0
M  END