
          11280715002D 1   1.00000     0.00000     0

 39 43  0     1  0            999 V2000
    7.1792   -4.0167    0.0000 C   0  0  0  0  0  0           0  0  0
    5.7542   -3.2000    0.0000 C   0  0  0  0  0  0           0  0  0
    7.1792   -3.1917    0.0000 N   0  0  0  0  0  0           0  0  0
    6.4667   -4.4375    0.0000 N   0  0  0  0  0  0           0  0  0
    6.4667   -2.7875    0.0000 C   0  0  1  0  0  0           0  0  0
    5.0417   -2.7917    0.0000 N   0  0  0  0  0  0           0  0  0
    7.9042   -4.4292    0.0000 N   0  0  0  0  0  0           0  0  0
    6.4667   -1.9625    0.0000 C   0  0  0  0  0  0           0  0  0
    5.7542   -4.0250    0.0000 O   0  0  0  0  0  0           0  0  0
    8.6042   -1.5417    0.0000 C   0  0  0  0  0  0           0  0  0
    7.1792   -1.5417    0.0000 C   0  0  0  0  0  0           0  0  0
    7.8917   -1.9542    0.0000 C   0  0  0  0  0  0           0  0  0
    8.5917   -0.7167    0.0000 C   0  0  0  0  0  0           0  0  0
    4.3292   -3.2042    0.0000 C   0  0  0  0  0  0           0  0  0
    7.8792   -0.3042    0.0000 C   0  0  0  0  0  0           0  0  0
    7.1667   -0.7167    0.0000 C   0  0  0  0  0  0           0  0  0
    6.4792   -5.2625    0.0000 C   0  0  3  0  0  0           0  0  0
    2.8917   -4.0375    0.0000 C   0  0  0  0  0  0           0  0  0
    8.6167   -4.0167    0.0000 C   0  0  3  0  0  0           0  0  0
    3.6042   -2.7917    0.0000 C   0  0  0  0  0  0           0  0  0
    4.3292   -4.0375    0.0000 C   0  0  0  0  0  0           0  0  0
    2.1792   -5.2750    0.0000 N   0  0  0  0  0  0           0  0  0
    3.6042   -4.4417    0.0000 C   0  0  0  0  0  0           0  0  0
    2.8917   -3.2125    0.0000 C   0  0  0  0  0  0           0  0  0
    2.1792   -4.4417    0.0000 C   0  0  0  0  0  0           0  0  0
    9.3167   -1.9500    0.0000 C   0  0  0  0  0  0           0  0  0
    9.3042   -0.3042    0.0000 C   0  0  0  0  0  0           0  0  0
    5.7542   -5.6667    0.0000 C   0  0  0  0  0  0           0  0  0
    7.1917   -5.6667    0.0000 C   0  0  0  0  0  0           0  0  0
    9.3292   -4.4292    0.0000 C   0  0  0  0  0  0           0  0  0
    8.6042   -3.1917    0.0000 C   0  0  0  0  0  0           0  0  0
   10.0167   -1.5375    0.0000 C   0  0  0  0  0  0           0  0  0
   10.0167   -0.7125    0.0000 C   0  0  0  0  0  0           0  0  0
    7.1917   -6.4917    0.0000 C   0  0  0  0  0  0           0  0  0
   10.0417   -4.0167    0.0000 C   0  0  0  0  0  0           0  0  0
    9.3292   -2.7792    0.0000 C   0  0  0  0  0  0           0  0  0
    5.7667   -6.4917    0.0000 C   0  0  0  0  0  0           0  0  0
    6.4792   -6.9042    0.0000 C   0  0  0  0  0  0           0  0  0
   10.0417   -3.1917    0.0000 C   0  0  0  0  0  0           0  0  0
  2  5  1  0     0  0
  3  1  2  0     0  0
  4  1  1  0     0  0
  5  3  1  0     0  0
  6  2  1  0     0  0
  7  1  1  0     0  0
  5  8  1  6     0  0
  9  2  2  0     0  0
 10 12  1  0     0  0
 11  8  1  0     0  0
 12 11  2  0     0  0
 13 15  1  0     0  0
 14  6  1  0     0  0
 15 16  2  0     0  0
 16 11  1  0     0  0
 17  4  1  0     0  0
 18 23  1  0     0  0
 19  7  1  0     0  0
 20 14  2  0     0  0
 21 14  1  0     0  0
 22 25  1  0     0  0
 23 21  2  0     0  0
 24 20  1  0     0  0
 25 18  1  0     0  0
 26 10  2  0     0  0
 27 13  2  0     0  0
 28 17  1  0     0  0
 29 17  1  0     0  0
 30 19  1  0     0  0
 31 19  1  0     0  0
 32 26  1  0     0  0
 33 27  1  0     0  0
 34 29  1  0     0  0
 35 30  1  0     0  0
 36 31  1  0     0  0
 37 28  1  0     0  0
 38 34  1  0     0  0
 39 36  1  0     0  0
 39 35  1  0     0  0
 38 37  1  0     0  0
 10 13  1  0     0  0
 18 24  2  0     0  0
 33 32  2  0     0  0
M  END