
  SciTegic01091216402D

 25 27  0  0  0  0            999 V2000
    6.3571   -5.9692    0.0000 N   0  0
    7.1117   -5.6459    0.0000 N   0  0
    7.6564   -6.2655    0.0000 C   0  0
    7.2344   -6.9756    0.0000 C   0  0
    6.4309   -6.7925    0.0000 C   0  0
    5.6470   -5.5471    0.0000 C   0  0
    4.9257   -5.9500    0.0000 N   0  0
    5.6581   -4.7224    0.0000 N   0  0
    5.0078   -7.1540    0.0000 O   0  0
    5.8113   -7.3372    0.0000 C   0  0
    5.8851   -8.1562    0.0000 C   0  0
    5.1263   -8.4836    0.0000 C   0  0
    4.5858   -7.8641    0.0000 C   0  0
    4.9479   -4.3003    0.0000 C   0  0
    4.9590   -3.4756    0.0000 C   0  0
    4.2211   -5.5225    0.0000 S   0  0
    4.6418   -4.8220    0.0000 O   0  0
    3.5180   -5.9562    0.0000 C   0  0
    2.7924   -5.5639    0.0000 C   0  0
    2.0892   -5.9975    0.0000 C   0  0
    2.1117   -6.8232    0.0000 C   0  0
    2.8373   -7.2155    0.0000 C   0  0
    3.5405   -6.7820    0.0000 C   0  0
    1.3635   -5.6052    0.0000 Cl  0  0
    3.6327   -4.9325    0.0000 O   0  0
  1  2  1  0
  2  3  2  0
  3  4  1  0
  4  5  1  0
  1  5  1  0
  6  7  2  0
  6  8  1  0
  1  6  1  0
  9 10  1  0
 10 11  2  0
 11 12  1  0
 12 13  2  0
  9 13  1  0
  5 10  1  0
 14 15  1  0
  8 14  1  0
 16 17  2  0
 18 19  1  0
 19 20  2  0
 20 21  1  0
 21 22  2  0
 22 23  1  0
 18 23  2  0
 16 18  1  0
 20 24  1  0
  7 16  1  0
 16 25  2  0
M  END