
          11280715162D 1   1.00000     0.00000     0

 16 16  0     0  0            999 V2000
    4.6750   -6.7375    0.0000 C   0  0  0  0  0  0           0  0  0
    5.0917   -7.4500    0.0000 C   0  0  0  0  0  0           0  0  0
    5.0875   -6.0167    0.0000 C   0  0  0  0  0  0           0  0  0
    5.9167   -7.4500    0.0000 C   0  0  0  0  0  0           0  0  0
    5.9167   -6.0167    0.0000 C   0  0  0  0  0  0           0  0  0
    6.3250   -6.7375    0.0000 C   0  0  0  0  0  0           0  0  0
    3.8500   -6.7417    0.0000 O   0  0  0  0  0  0           0  0  0
    4.5292   -5.4042    0.0000 O   0  0  0  0  0  0           0  0  0
    4.6792   -8.1625    0.0000 O   0  0  0  0  0  0           0  0  0
    8.3875   -7.4542    0.0000 N   0  0  0  0  0  0           0  0  0
    7.1500   -6.7375    0.0000 C   0  0  0  0  0  0           0  0  0
    7.5625   -7.4542    0.0000 C   0  0  0  0  0  0           0  0  0
    8.7917   -8.1667    0.0000 C   0  0  0  0  0  0           0  0  0
    3.4292   -6.0292    0.0000 C   0  0  0  0  0  0           0  0  0
    4.7792   -4.6167    0.0000 C   0  0  0  0  0  0           0  0  0
    3.8542   -8.1667    0.0000 C   0  0  0  0  0  0           0  0  0
  2  1  1  0     0  0
  3  1  2  0     0  0
  4  2  2  0     0  0
  5  3  1  0     0  0
  6  5  2  0     0  0
  7  1  1  0     0  0
  8  3  1  0     0  0
  9  2  1  0     0  0
 10 12  1  0     0  0
 11  6  1  0     0  0
 12 11  1  0     0  0
 13 10  1  0     0  0
 14  7  1  0     0  0
 15  8  1  0     0  0
 16  9  1  0     0  0
  4  6  1  0     0  0
M  END