
  SciTegic02271515152D

 96 97  0  0  0  0            999 V2000
   10.8542   -0.8009    0.0000 O   0  0
   10.9506   -3.2072    0.0000 C   0  0
   10.2385   -1.1560    0.0000 O   0  0
   10.2385   -3.6243    0.0000 C   0  0
    8.8086   -3.6243    0.0000 C   0  0
    9.5245   -3.2072    0.0000 C   0  0
    8.8086   -1.1560    0.0000 C   0  0
    8.1009   -3.2072    0.0000 O   0  0
    5.9583   -1.1560    0.0000 C   0  0
    6.6631    0.0885    0.0000 C   0  0
    6.6631   -0.7465    0.0000 C   0  0
    7.3794   -1.1560    0.0000 C   0  0
    5.9583   -1.9742    0.0000 C   0  0
    7.3782   -4.8042    0.0000 O   0  0
    5.9993   -3.9358    0.0000 C   0  0
    4.5808   -3.9001    0.0000 C   0  0
    5.2762   -4.3281    0.0000 C   0  0
    5.2556   -5.1500    0.0000 C   0  0
    5.2495   -6.8155    0.0000 C   0  0
    6.6631   -7.6342    0.0000 O   0  0
    7.3794   -5.5785    0.0000 C   0  0
    8.8086   -5.5785    0.0000 O   0  0
    9.5245   -7.6342    0.0000 C   0  0
   10.9506   -7.6342    0.0000 O   0  0
   10.2385   -5.5785    0.0000 C   0  0
   10.9506   -4.3426    0.0000 C   0  0
   10.9506   -5.1692    0.0000 C   0  0
   11.6670   -5.5785    0.0000 C   0  0
   12.3758   -7.6342    0.0000 C   0  0
   13.0881   -5.5785    0.0000 O   0  0
   14.5164   -8.0559    0.0000 C   0  0
   13.0881   -8.0559    0.0000 C   0  0
   13.8047   -7.6342    0.0000 C   0  0
   15.2335   -7.6342    0.0000 O   0  0
   16.7725   -4.9153    0.0000 C   0  0
   16.6587   -3.2072    0.0000 O   0  0
   15.9737   -2.7706    0.0000 C   0  0
   15.9418   -1.9742    0.0000 C   0  0
   14.5164   -1.1560    0.0000 O   0  0
   12.3758   -3.2072    0.0000 O   0  0
   12.3758   -2.3880    0.0000 C   0  0
   14.5164   -3.6243    0.0000 C   0  0
   13.8047   -3.2072    0.0000 C   0  0
   13.8047   -2.3880    0.0000 C   0  0  1  0  0  0
   14.5164   -1.9742    0.0000 C   0  0
   15.2335   -2.3880    0.0000 N   0  0
   15.2335   -3.2072    0.0000 C   0  0  1  0  0  0
   15.9418   -3.6243    0.0000 C   0  0
   15.9418   -4.9153    0.0000 N   0  0
   16.6576   -7.6717    0.0000 C   0  0
   16.6587   -6.8155    0.0000 C   0  0  1  0  0  0
   15.9418   -6.4062    0.0000 C   0  0  1  0  0  0
   15.2335   -6.8155    0.0000 C   0  0
   14.5164   -6.4062    0.0000 N   0  0
   13.8047   -6.8155    0.0000 C   0  0  2  0  0  0
   13.0881   -6.4062    0.0000 C   0  0
   12.3758   -6.8155    0.0000 N   0  0
   11.6670   -6.4062    0.0000 C   0  0  2  0  0  0
   10.9506   -6.8155    0.0000 C   0  0
   10.2385   -6.4062    0.0000 N   0  0
    9.5245   -6.8155    0.0000 C   0  0  2  0  0  0
    8.8086   -6.4062    0.0000 C   0  0
    8.1009   -6.8155    0.0000 N   0  0
    7.3794   -6.4062    0.0000 C   0  0  1  0  0  0
    6.6631   -6.8155    0.0000 C   0  0
    5.9583   -6.4062    0.0000 N   0  0
    5.9583   -5.5785    0.0000 C   0  0  2  0  0  0
    6.6631   -5.2181    0.0000 C   0  0
    6.6631   -2.3880    0.0000 N   0  0
    7.3794   -1.9742    0.0000 C   0  0  2  0  0  0
    8.1009   -2.3880    0.0000 C   0  0
    8.8086   -1.9742    0.0000 N   0  0
    9.5245   -2.3880    0.0000 C   0  0  2  0  0  0
   10.2385   -1.9742    0.0000 C   0  0
   10.9506   -2.3880    0.0000 N   0  0
   11.6670   -1.9742    0.0000 C   0  0  1  0  0  0
   13.0881   -1.1560    0.0000 C   0  0
   10.9506    1.7397    0.0000 C   0  0
   11.6670    1.3259    0.0000 C   0  0
   11.6670    0.5105    0.0000 C   0  0
   12.3758    0.0884    0.0000 C   0  0
   12.3758   -0.7465    0.0000 C   0  0  2  0  0  0
   11.6670   -1.1560    0.0000 C   0  0  1  0  0  0
   13.0881   -1.9746    0.0000 N   0  0
   17.3703   -6.4142    0.0000 C   0  0
   18.1087   -6.8506    0.0000 O   0  0
   18.8558   -6.4293    0.0000 C   0  0
   19.5943   -6.8656    0.0000 C   0  0
   20.3414   -6.4443    0.0000 N   0  0
   21.0763   -6.8836    0.0000 C   0  0
   21.8211   -6.4659    0.0000 C   0  0
   21.8342   -5.6079    0.0000 O   0  0
   21.0959   -5.1693    0.0000 C   0  0
   20.3446   -5.5886    0.0000 C   0  0
   10.8009   -1.4743    0.0000 H   0  0
   15.9444   -7.4062    0.0000 H   0  0
 83 82  1  0
 76 83  1  0
 83  1  1  6
 82 81  1  0
 82 77  1  1
 81 80  1  0
 80 79  2  0
 79 78  1  0
 76 75  1  0
 76 41  1  0
 74 75  1  0
 75  2  1  0
 73 74  1  0
 74  3  2  0
 72 73  1  0
 73  6  1  6
 71 72  1  0
 72  7  1  0
 70 71  1  0
 71  8  2  0
 69 70  1  0
 70 12  1  1
 69 68  1  0
 69 13  1  0
 67 68  1  0
 68 14  2  0
 66 67  1  0
 67 18  1  1
 65 66  1  0
 66 19  1  0
 64 65  1  0
 65 20  2  0
 63 64  1  0
 64 21  1  1
 62 63  1  0
 61 62  1  0
 62 22  2  0
 60 61  1  0
 61 23  1  1
 59 60  1  0
 58 59  1  0
 59 24  2  0
 57 58  1  0
 58 28  1  6
 56 57  1  0
 57 29  1  0
 55 56  1  0
 56 30  2  0
 54 55  1  0
 55 33  1  1
 53 54  1  0
 53 52  1  0
 53 34  2  0
 52 51  1  0
 52 49  1  0
 51 85  1  0
 51 50  1  1
 48 49  1  0
 49 35  1  0
 47 48  1  0
 48 36  2  0
 46 47  1  0
 47 37  1  1
 45 46  1  0
 46 38  1  0
 44 45  1  0
 45 39  2  0
 44 43  1  6
 84 44  1  0
 43 42  1  0
 41 40  2  0
 41 84  1  0
 33 32  1  0
 33 31  1  0
 28 27  1  0
 27 26  1  0
 27 25  1  0
 18 17  1  0
 17 16  1  0
 17 15  1  0
 12 11  1  0
 11 10  1  0
 11  9  1  0
  6  5  1  0
  6  4  1  0
 85 86  1  0
 86 87  1  0
 87 88  1  0
 88 89  1  0
 89 90  1  0
 89 94  1  0
 90 91  1  0
 91 92  1  0
 92 93  1  0
 93 94  1  0
 76 95  1  6
 52 96  1  6
M  STY  1   1 SUP
M  SLB  1   1   1
M  SAL   1  1  84
M  SBL   1  2  69  72
M  SMT   1 N
M  END