
  CDK    9/16/09,9:51

 24 26  0  0  0  0  0  0  0  0999 V2000
    5.7415  -12.9390    0.0000 C   0  0  0  0  0  0  0  0  0  0  0  0
    5.7415  -13.7677    0.0000 N   0  0  0  0  0  0  0  0  0  0  0  0
    6.4552  -14.1798    0.0000 N   0  0  0  0  0  0  0  0  0  0  0  0
    7.1735  -13.7677    0.0000 C   0  0  0  0  0  0  0  0  0  0  0  0
    6.4552  -12.5223    0.0000 C   0  0  0  0  0  0  0  0  0  0  0  0
    7.1726  -12.9332    0.0000 C   0  0  0  0  0  0  0  0  0  0  0  0
    7.7852  -12.3779    0.0000 C   0  0  0  0  0  0  0  0  0  0  0  0
    7.4464  -11.6236    0.0000 S   0  0  0  0  0  0  0  0  0  0  0  0
    6.6244  -11.7130    0.0000 C   0  0  0  0  0  0  0  0  0  0  0  0
    7.8869  -14.1803    0.0000 O   0  0  0  0  0  0  0  0  0  0  0  0
    8.5919  -12.5465    0.0000 N   0  0  0  0  0  0  0  0  0  0  0  0
    5.0268  -12.5287    0.0000 C   0  0  0  0  0  0  0  0  0  0  0  0
    5.0248  -11.7045    0.0000 O   0  0  0  0  0  0  0  0  0  0  0  0
    4.3141  -12.9424    0.0000 O   0  0  0  0  0  0  0  0  0  0  0  0
    3.5993  -12.5321    0.0000 C   0  0  0  0  0  0  0  0  0  0  0  0
    2.8866  -12.9458    0.0000 C   0  0  0  0  0  0  0  0  0  0  0  0
    6.4521  -15.0003    0.0000 C   0  0  0  0  0  0  0  0  0  0  0  0
    5.7361  -15.4108    0.0000 C   0  0  0  0  0  0  0  0  0  0  0  0
    5.7347  -16.2342    0.0000 C   0  0  0  0  0  0  0  0  0  0  0  0
    6.4484  -16.6480    0.0000 C   0  0  0  0  0  0  0  0  0  0  0  0
    7.1651  -16.2325    0.0000 C   0  0  0  0  0  0  0  0  0  0  0  0
    7.1630  -15.4105    0.0000 C   0  0  0  0  0  0  0  0  0  0  0  0
    6.4483  -17.4722    0.0000 O   0  0  0  0  0  0  0  0  0  0  0  0
    5.7346  -17.8842    0.0000 C   0  0  0  0  0  0  0  0  0  0  0  0
  1 12  1  0  0  0  0 
  1  2  2  0  0  0  0 
 12 13  2  0  0  0  0 
  1  5  1  0  0  0  0 
 12 14  1  0  0  0  0 
  2  3  1  0  0  0  0 
 14 15  1  0  0  0  0 
  3  4  1  0  0  0  0 
 15 16  1  0  0  0  0 
  6  7  2  0  0  0  0 
  7  8  1  0  0  0  0 
 17 18  2  0  0  0  0 
  8  9  1  0  0  0  0 
 18 19  1  0  0  0  0 
  9  5  2  0  0  0  0 
 19 20  2  0  0  0  0 
  4  6  1  0  0  0  0 
 20 21  1  0  0  0  0 
  4 10  2  0  0  0  0 
 21 22  2  0  0  0  0 
 22 17  1  0  0  0  0 
  3 17  1  0  0  0  0 
  5  6  1  0  0  0  0 
 20 23  1  0  0  0  0 
  7 11  1  0  0  0  0 
 23 24  1  0  0  0  0 
M  END