
  SciTegic01161211232D

 44 46  0  0  0  0            999 V2000
   -0.8040  -21.9497    0.0000 C   0  0  2  0  0  0
   -0.0833  -23.2035    0.0000 C   0  0  1  0  0  0
   -1.5289  -23.1994    0.0000 C   0  0
   -0.8081  -23.6202    0.0000 C   0  0
   -1.5247  -22.3662    0.0000 C   0  0
   -0.0833  -22.3704    0.0000 C   0  0
    0.2874  -21.3039    0.0000 C   0  0  2  0  0  0
   -2.2495  -23.6119    0.0000 C   0  0
    1.0165  -22.5371    0.0000 C   0  0
    1.0081  -21.7123    0.0000 C   0  0  1  0  0  0
   -1.5247  -21.5331    0.0000 C   0  0
    0.3207  -23.9159    0.0000 C   0  0
   -2.9661  -23.1952    0.0000 C   0  0
   -2.9619  -22.3621    0.0000 C   0  0
   -3.6784  -21.9538    0.0000 C   0  0
    1.1456  -23.9201    0.0000 C   0  0
   -1.5247  -20.7083    0.0000 C   0  0
   -2.2453  -21.9455    0.0000 O   0  0
    0.6332  -21.9622    0.0000 O   0  0
    2.4328  -21.7330    0.0000 C   0  0
    1.7288  -21.3081    0.0000 C   0  0
   -2.2495  -24.4367    0.0000 O   0  0
   -4.3908  -22.3662    0.0000 C   0  0
   -0.8123  -24.4408    0.0000 O   0  0
   -3.6784  -23.6077    0.0000 C   0  0
   -2.2370  -20.2958    0.0000 C   0  0
    1.5580  -24.6367    0.0000 C   0  0
    3.1577  -21.3373    0.0000 C   0  0
   -4.3908  -23.1952    0.0000 C   0  0
   -3.6825  -21.1290    0.0000 O   0  0
    0.6957  -20.5875    0.0000 C   0  0
   -0.1292  -20.5875    0.0000 C   0  0
   -5.1032  -21.9538    0.0000 O   0  0
    3.8617  -21.7622    0.0000 C   0  0
   -2.2412  -19.4710    0.0000 C   0  0
   -2.9536  -20.7125    0.0000 C   0  0
    1.1415  -25.3490    0.0000 C   0  0
    2.3828  -24.6367    0.0000 C   0  0
    3.1743  -20.5125    0.0000 C   0  0
    1.5205  -20.5828    0.0000 C   0  0
    1.9288  -19.8660    0.0000 C   0  0
    1.5124  -19.1541    0.0000 C   0  0
    1.9207  -18.4374    0.0000 C   0  0
    0.6876  -19.1588    0.0000 C   0  0
  6  1  1  0
  7  1  1  0
  8  3  1  0
  9 10  1  0
 10  7  1  0
  1 11  1  6
  2 12  1  6
 13  8  1  0
 14 13  1  0
 15 14  2  0
 16 12  1  0
 17 11  1  0
 18  5  2  0
 19  6  2  0
 20 21  1  0
 10 21  1  6
 22  8  2  0
 23 15  1  0
 24  4  1  0
 25 13  2  0
 26 17  2  0
 27 16  2  0
 28 20  2  0
 29 25  1  0
 30 15  1  0
  7 31  1  1
 32  7  1  0
 33 23  1  0
 34 28  1  0
 35 26  1  0
 36 26  1  0
 37 27  1  0
 38 27  1  0
 39 28  1  0
  9  2  1  0
  4  3  2  0
 29 23  2  0
 31 40  1  0
  2  6  1  0
 40 41  1  0
  3  5  1  0
 41 42  2  0
  4  2  1  0
 42 43  1  0
  5  1  1  0
 42 44  1  0
M  END