
  SciTegic06141115222D

 36 40  0  0  0  0            999 V2000
    5.1342   -3.3983    0.0000 C   0  0
    5.2300   -4.2226    0.0000 N   0  0
    6.4588   -3.6682    0.0000 C   0  0
    5.8980   -3.0549    0.0000 N   0  0
    6.0423   -4.3909    0.0000 C   0  0
    7.2868   -3.6666    0.0000 C   0  0
   10.1902   -0.0722    0.0000 C   0  0
   11.0184   -0.1626    0.0000 N   0  0
   11.1901   -0.9726    0.0000 N   0  0
    9.8521   -0.8351    0.0000 N   0  0
   10.4728   -1.3863    0.0000 N   0  0
    4.4152   -2.9840    0.0000 S   0  3
    9.7706    0.6435    0.0000 C   0  0
    6.4582   -5.1045    0.0000 N   0  0
    7.7012   -2.9476    0.0000 N   0  0
    7.7006   -4.3839    0.0000 N   0  0
    8.9426    0.6419    0.0000 C   0  0
    7.2863   -5.1028    0.0000 C   0  0
    8.5303   -0.0734    0.0000 C   0  0
    7.2874   -2.2303    0.0000 C   0  0
    4.4136   -2.1559    0.0000 O   0  5
    4.6166   -4.7833    0.0000 C   0  0
    7.6929   -0.0746    0.0000 C   0  0
    8.9441   -0.7907    0.0000 C   0  0
    7.7017   -1.5114    0.0000 C   0  0
    7.2879   -0.7940    0.0000 C   0  0
    8.5298   -1.5097    0.0000 C   0  0
    8.5292   -2.9460    0.0000 C   0  0
    3.6995   -3.4035    0.0000 C   0  0
   10.1850    1.3625    0.0000 C   0  0
    8.5246    1.3519    0.0000 C   0  0
    8.9467   -3.6654    0.0000 C   0  0
    9.7747   -3.6637    0.0000 C   0  0
    9.7712    2.0798    0.0000 C   0  0
    8.9317    2.0751    0.0000 C   0  0
   10.1885   -4.3810    0.0000 C   0  0
  2  1  1  0
  3  4  1  0
  4  1  2  0
  5  2  1  0
  6  3  2  0
  7 13  1  0
  8  7  1  0
  9  8  2  0
 10  7  2  0
 11 10  1  0
 12  1  1  0
 13 17  2  0
 14  5  2  0
 15  6  1  0
 16  6  1  0
 17 19  1  0
 18 14  1  0
 19 24  2  0
 20 15  1  0
 21 12  1  0
 22  2  1  0
 23 26  2  0
 24 27  1  0
 25 20  1  0
 26 25  1  0
 27 25  2  0
 28 15  1  0
 29 12  1  0
 30 13  1  0
 31 17  1  0
 32 28  1  0
 33 32  1  0
 34 35  1  0
 35 31  2  0
 36 33  1  0
  3  5  1  0
 16 18  2  0
 23 19  1  0
 34 30  2  0
  9 11  1  0
M  CHG  2  12   1  21  -1
M  END