
  CDK    9/16/09,9:47

 42 45  0  0  0  0  0  0  0  0999 V2000
    0.4566   -9.0416    0.0000 N   0  0  0  0  0  0  0  0  0  0  0  0
    1.2684   -9.2051    0.0000 C   0  0  0  0  0  0  0  0  0  0  0  0
    1.6757   -8.4852    0.0000 N   0  0  0  0  0  0  0  0  0  0  0  0
    1.1157   -7.8751    0.0000 C   0  0  0  0  0  0  0  0  0  0  0  0
    0.3667   -8.2263    0.0000 C   0  0  0  0  0  0  0  0  0  0  0  0
    1.6619   -9.9330    0.0000 C   0  0  0  0  0  0  0  0  0  0  0  0
    1.2253  -10.6360    0.0000 C   0  0  0  0  0  0  0  0  0  0  0  0
    1.6179  -11.3631    0.0000 C   0  0  0  0  0  0  0  0  0  0  0  0
    2.4449  -11.3855    0.0000 C   0  0  0  0  0  0  0  0  0  0  0  0
    2.8773  -10.6758    0.0000 C   0  0  0  0  0  0  0  0  0  0  0  0
    2.4852   -9.9529    0.0000 C   0  0  0  0  0  0  0  0  0  0  0  0
    2.8356  -12.1129    0.0000 F   0  0  0  0  0  0  0  0  0  0  0  0
    1.1180   -7.0459    0.0000 C   0  0  0  0  0  0  0  0  0  0  0  0
    1.8337   -6.6339    0.0000 C   0  0  0  0  0  0  0  0  0  0  0  0
    0.4012   -6.6340    0.0000 C   0  0  0  0  0  0  0  0  0  0  0  0
    2.3986   -8.0753    0.0000 C   0  0  0  0  0  0  0  0  0  0  0  0
    3.1099   -8.4958    0.0000 C   0  0  0  0  0  0  0  0  0  0  0  0
    3.8316   -8.0877    0.0000 C   0  0  0  0  0  0  0  0  0  0  0  0
    4.5414   -8.5043    0.0000 C   0  0  0  0  0  0  0  0  0  0  0  0
    5.2632   -8.0963    0.0000 C   0  0  0  0  0  0  0  0  0  0  0  0
    5.9745   -8.5168    0.0000 C   0  0  0  0  0  0  0  0  0  0  0  0
    6.6924   -8.1104    0.0000 C   0  0  0  0  0  0  0  0  0  0  0  0
    7.4060   -8.5255    0.0000 O   0  0  0  0  0  0  0  0  0  0  0  0
    6.6974   -7.2796    0.0000 O   0  0  0  0  0  0  0  0  0  0  0  0
    3.8345   -7.2623    0.0000 O   0  0  0  0  0  0  0  0  0  0  0  0
    5.2660   -7.2710    0.0000 O   0  0  0  0  0  0  0  0  0  0  0  0
   -0.3518   -7.8232    0.0000 C   0  0  0  0  0  0  0  0  0  0  0  0
   -1.0876   -8.1938    0.0000 N   0  0  0  0  0  0  0  0  0  0  0  0
   -0.3620   -6.9995    0.0000 O   0  0  0  0  0  0  0  0  0  0  0  0
   -1.7763   -7.7418    0.0000 C   0  0  0  0  0  0  0  0  0  0  0  0
   -2.4886   -8.1554    0.0000 C   0  0  0  0  0  0  0  0  0  0  0  0
   -3.2021   -7.7418    0.0000 C   0  0  0  0  0  0  0  0  0  0  0  0
   -3.9140   -8.1547    0.0000 C   0  0  0  0  0  0  0  0  0  0  0  0
   -3.9124   -8.9795    0.0000 C   0  0  0  0  0  0  0  0  0  0  0  0
   -3.1929   -9.3895    0.0000 C   0  0  0  0  0  0  0  0  0  0  0  0
   -2.4839   -8.9741    0.0000 C   0  0  0  0  0  0  0  0  0  0  0  0
   -4.6209   -9.4022    0.0000 C   0  0  0  0  0  0  0  0  0  0  0  0
   -5.3384   -8.9949    0.0000 C   0  0  0  0  0  0  0  0  0  0  0  0
   -6.0434   -9.4120    0.0000 C   0  0  0  0  0  0  0  0  0  0  0  0
   -6.0332  -10.2359    0.0000 C   0  0  0  0  0  0  0  0  0  0  0  0
   -5.3185  -10.6425    0.0000 C   0  0  0  0  0  0  0  0  0  0  0  0
   -4.6122  -10.2226    0.0000 C   0  0  0  0  0  0  0  0  0  0  0  0
 13 15  1  0  0  0  0 
  3 16  1  0  0  0  0 
 16 17  1  0  0  0  0 
 17 18  1  0  0  0  0 
 18 19  1  0  0  0  0 
 19 20  1  0  0  0  0 
 20 21  1  0  0  0  0 
 21 22  1  0  0  0  0 
 22 23  1  0  0  0  0 
 22 24  2  0  0  0  0 
 18 25  1  1  0  0  0 
 20 26  1  1  0  0  0 
  5 27  1  0  0  0  0 
  1  2  2  0  0  0  0 
 27 28  1  0  0  0  0 
  2  3  1  0  0  0  0 
 27 29  2  0  0  0  0 
  3  4  1  0  0  0  0 
 28 30  1  0  0  0  0 
  4  5  2  0  0  0  0 
 30 31  1  0  0  0  0 
  5  1  1  0  0  0  0 
 31 32  2  0  0  0  0 
  2  6  1  0  0  0  0 
 32 33  1  0  0  0  0 
  6  7  2  0  0  0  0 
 33 34  2  0  0  0  0 
  7  8  1  0  0  0  0 
 34 35  1  0  0  0  0 
  8  9  2  0  0  0  0 
 35 36  2  0  0  0  0 
 36 31  1  0  0  0  0 
  9 10  1  0  0  0  0 
 10 11  2  0  0  0  0 
 37 38  2  0  0  0  0 
 11  6  1  0  0  0  0 
 38 39  1  0  0  0  0 
  9 12  1  0  0  0  0 
 39 40  2  0  0  0  0 
  4 13  1  0  0  0  0 
 40 41  1  0  0  0  0 
 13 14  1  0  0  0  0 
 41 42  2  0  0  0  0 
 42 37  1  0  0  0  0 
 34 37  1  0  0  0  0 
M  END