
  SciTegic12201615412D

 33 35  0  0  0  0            999 V2000
   13.8888   -9.0222    0.0000 C   0  0
   14.3630  -10.4453    0.0000 C   0  0
   13.3677  -11.5675    0.0000 N   0  0
   11.8982  -11.2666    0.0000 C   0  0
   11.4239   -9.8435    0.0000 C   0  0
   12.4193   -8.7213    0.0000 C   0  0
    9.9542   -9.5395    0.0000 C   0  0
    9.4817   -8.1150    0.0000 N   0  0
    8.0120   -7.8110    0.0000 C   0  0
    7.5396   -6.3865    0.0000 C   0  0
    7.2142   -8.7074    0.0000 O   0  0
    6.0699   -6.0824    0.0000 C   0  0
    5.5974   -4.6579    0.0000 S   0  0
    4.1277   -4.3539    0.0000 C   0  0
    3.6552   -2.9294    0.0000 C   0  0  1  0  0  0
    4.6507   -1.8062    0.0000 N   0  0
    4.1767   -0.3822    0.0000 C   0  0
    5.1721    0.7409    0.0000 O   0  0
    3.1970   -0.1817    0.0000 O   0  0
    4.6981    2.1649    0.0000 C   0  0
    5.4940    3.0630    0.0000 C   0  0
    3.5225    2.4056    0.0000 C   0  0
    4.3185    3.3033    0.0000 C   0  0
    2.1855   -2.6254    0.0000 C   0  0
    1.7138   -1.2033    0.0000 C   0  0
    2.5889    0.0182    0.0000 C   0  0
    1.7138    1.2033    0.0000 N   0  0
    0.2917   -0.7475    0.0000 C   0  0
    0.2917    0.7475    0.0000 C   0  0
   -1.0028    1.5132    0.0000 C   0  0
   -2.3155    0.7475    0.0000 C   0  0
   -2.3155   -0.7475    0.0000 C   0  0
   -1.0028   -1.5132    0.0000 C   0  0
  1  2  2  0
  2  3  1  0
  3  4  2  0
  4  5  1  0
  5  6  2  0
  6  1  1  0
  5  7  1  0
  7  8  1  0
  8  9  1  0
  9 10  1  0
  9 11  2  0
 10 12  1  0
 12 13  1  0
 13 14  1  0
 14 15  1  0
 15 16  1  0
 16 17  1  0
 17 18  1  0
 17 19  2  0
 18 20  1  0
 20 21  1  0
 20 22  1  0
 20 23  1  0
 15 24  1  6
 24 25  1  0
 25 26  2  0
 26 27  1  0
 27 29  1  0
 28 25  1  0
 28 29  2  0
 29 30  1  0
 30 31  2  0
 31 32  1  0
 32 33  2  0
 33 28  1  0
M  END