
  SciTegic01111613442D

 19 20  0  0  0  0            999 V2000
    2.5973   -1.5031    0.0000 N   0  0
    2.5951   -3.0039    0.0000 C   0  0
    1.2990   -0.7500    0.0000 C   0  0
    2.5951    3.0039    0.0000 C   0  0
    1.2990    0.7500    0.0000 C   0  0
    3.8915   -3.7585    0.0000 C   0  0
    1.2935   -3.7495    0.0000 C   0  0
    2.5972    1.5031    0.0000 C   0  0
    1.5548    3.6021    0.0000 O   0  0
    3.6331    3.6061    0.0000 O   0  0
    4.9329   -3.1621    0.0000 Cl  0  0
    0.2563   -3.1459    0.0000 Cl  0  0
    2.5847   -6.0040    0.0000 C   0  0
    0.0000   -1.5000    0.0000 C   0  0
    1.2883   -5.2495    0.0000 C   0  0
    3.8864   -5.2585    0.0000 C   0  0
    0.0000    1.5000    0.0000 C   0  0
   -1.2990    0.7500    0.0000 C   0  0
   -1.2990   -0.7500    0.0000 C   0  0
  2  1  1  0
  3  1  1  0
  4  8  1  0
  5  3  1  0
  6  2  1  0
  7  2  2  0
  8  5  1  0
  9  4  1  0
 10  4  2  0
 11  6  1  0
 12  7  1  0
 13 15  2  0
 14  3  2  0
 15  7  1  0
 16  6  2  0
 17  5  2  0
 18 19  2  0
 19 14  1  0
 13 16  1  0
 17 18  1  0
M  END