
  SciTegic01161211252D

 17 17  0  0  0  0            999 V2000
    6.2667   -4.1167    0.0000 N   0  0
    5.9667   -4.6375    0.0000 C   0  0
    6.5667   -7.7667    0.0000 N   0  0
    5.6667   -5.1625    0.0000 C   0  0
    5.9667   -5.6792    0.0000 C   0  0
    6.5750   -5.6792    0.0000 O   0  0
    6.8792   -7.2500    0.0000 C   0  0
    6.5750   -6.7250    0.0000 C   0  0
    6.8792   -6.2042    0.0000 C   0  0
    6.8750   -8.2917    0.0000 C   0  0
    5.9667   -6.7250    0.0000 O   0  0
    5.0667   -5.1625    0.0000 C   0  0
    5.6667   -6.2000    0.0000 C   0  0
    6.5667   -8.8125    0.0000 C   0  0
    7.4792   -8.2917    0.0000 C   0  0
    4.7667   -5.6792    0.0000 C   0  0
    5.0667   -6.2000    0.0000 C   0  0
  2  1  3  0
  3  7  1  0
  4  2  1  0
  5  4  2  0
  6  5  1  0
  7  8  1  0
  8  9  1  0
  9  6  1  0
 10  3  1  0
 11  8  1  0
 12  4  1  0
 13  5  1  0
 14 10  1  0
 15 10  1  0
 16 12  2  0
 17 16  1  0
 13 17  2  0
M  END