
  SciTegic01091215432D

 60 66  0  0  0  0            999 V2000
    4.3723    2.6519    0.0000 N   0  0
    5.0890    2.2432    0.0000 C   0  0
    5.8013    2.6595    0.0000 C   0  0
    5.0934    1.4182    0.0000 O   0  0
    6.5179    2.2508    0.0000 C   0  0
    6.5223    1.4258    0.0000 C   0  0
    7.2389    1.0171    0.0000 C   0  0
    7.2433    0.1921    0.0000 C   0  0
    6.5310   -0.2242    0.0000 N   0  0
    6.5354   -1.0492    0.0000 C   0  0
    5.8231   -1.4655    0.0000 O   0  0
    7.2521   -1.4579    0.0000 C   0  0
    7.2564   -2.2829    0.0000 O   0  0
    7.9731   -2.6916    0.0000 C   0  0
    7.9722   -3.5144    0.0000 C   0  0
    8.6880   -3.9230    0.0000 C   0  0
    9.4012   -3.5066    0.0000 C   0  0
    9.3942   -2.6774    0.0000 C   0  0
    8.6778   -2.2725    0.0000 C   0  0
   10.1184   -3.9144    0.0000 C   0  0
   10.8302   -3.4972    0.0000 C   0  0
   11.5125   -3.9610    0.0000 C   0  0
   11.5429   -4.7834    0.0000 C   0  0
   12.3351   -5.0136    0.0000 C   0  0
   12.2931   -3.6794    0.0000 N   0  0
   12.7952   -4.3323    0.0000 C   0  0
   13.6071   -4.2245    0.0000 C   0  0
   12.6030   -2.9188    0.0000 B   0  5
   12.5956   -2.0924    0.0000 F   0  0
   13.4213   -2.8119    0.0000 N   0  3
   13.9227   -3.4614    0.0000 C   0  0
   14.6954   -3.1852    0.0000 C   0  0
   14.6715   -2.3649    0.0000 C   0  0
   13.8840   -2.1343    0.0000 C   0  0
   13.6063   -1.3575    0.0000 C   0  0
   14.0677   -0.6768    0.0000 C   0  0
   13.5635   -0.0238    0.0000 C   0  0
   12.7866   -0.3015    0.0000 C   0  0
   12.8108   -1.1262    0.0000 S   0  0
   11.8831   -2.5049    0.0000 F   0  0
   -4.1889    0.9625    0.0000 C   0  0
   -4.1901    0.1352    0.0000 C   0  0
   -3.4753   -0.2777    0.0000 C   0  0
   -3.4771    1.3753    0.0000 C   0  0
   -2.7617    0.9662    0.0000 C   0  0
   -2.7609    0.1393    0.0000 C   0  0
   -2.0456   -0.2716    0.0000 C   0  0
   -1.3306    0.1431    0.0000 C   0  0
   -1.3354    0.9731    0.0000 C   0  0
   -2.0513    1.3803    0.0000 C   0  0
   -2.0556    2.2053    0.0000 O   0  0
   -1.3434    2.6216    0.0000 C   0  0
   -0.6267    2.2129    0.0000 C   0  0
    0.0856    2.6292    0.0000 C   0  0
   -0.6223    1.3879    0.0000 O   0  0
    0.8022    2.2205    0.0000 N   0  0
    1.5145    2.6368    0.0000 C   0  0
    2.2311    2.2280    0.0000 C   0  0
    2.9434    2.6443    0.0000 C   0  0
    3.6601    2.2356    0.0000 C   0  0
  2  4  2  0
 28 29  1  0
 30 31  1  0
 14 15  2  0
  7  8  1  0
 15 16  1  0
 16 17  2  0
 31 32  1  0
 32 33  2  0
 33 34  1  0
 34 30  2  0
  8  9  1  0
 34 35  1  0
 35 36  2  0
 17 18  1  0
  3  5  1  0
 18 19  2  0
 19 14  1  0
 36 37  1  0
 37 38  2  0
 38 39  1  0
 39 35  1  0
  9 10  1  0
 28 40  1  0
 17 20  1  0
  2  3  1  0
 41 42  1  0
 20 21  2  0
 42 43  2  0
 43 46  1  0
 10 11  2  0
 45 44  1  0
 44 41  2  0
 21 22  1  0
 22 23  2  0
 45 46  2  0
  5  6  1  0
 46 47  1  0
 10 12  1  0
 47 48  2  0
 23 24  1  0
 48 49  1  0
 24 26  2  0
 49 50  2  0
 50 45  1  0
 25 22  1  0
 50 51  1  0
 25 26  1  0
 51 52  1  0
  1  2  1  0
 52 53  1  0
 12 13  1  0
 53 54  1  0
  6  7  1  0
 53 55  1  0
 13 14  1  0
 54 56  1  0
 25 28  1  0
 56 57  1  0
 26 27  1  0
 57 58  1  0
 27 31  2  0
 58 59  1  0
 30 28  1  0
 59 60  1  0
 60  1  1  0
M  CHG  2  28  -1  30   1
M  END