
  SciTegic03291108482D

 14 14  0  0  0  0            999 V2000
   -1.9705   -2.3048    0.0000 F   0  0
   -0.8435   -2.6068    0.0000 F   0  0
   -1.6685   -1.1779    0.0000 F   0  0
    0.8874    1.8202    0.0000 O   0  0
    0.1729    0.5827    0.0000 N   0  0
    1.6019    0.5827    0.0000 N   0  0
   -0.5415   -1.4798    0.0000 C   0  0
   -1.2560   -1.8923    0.0000 C   0  0
   -0.5415   -0.6548    0.0000 C   0  0
    0.1729   -0.2423    0.0000 C   0  0
    0.1729   -1.8923    0.0000 C   0  0
    0.8874   -0.6548    0.0000 C   0  0
    0.8874   -1.4798    0.0000 C   0  0
    0.8874    0.9952    0.0000 C   0  0
  1  8  1  0
  2  8  1  0
  3  8  1  0
  4 14  2  0
  5 10  1  0
  5 14  1  0
  6 14  1  0
  7  8  1  0
  7  9  2  0
  7 11  1  0
  9 10  1  0
 10 12  2  0
 11 13  2  0
 12 13  1  0
M  END