
  CDK    9/16/09,10:0

 25 27  0  0  0  0  0  0  0  0999 V2000
    8.1931   -3.3274    0.0000 C   0  0  0  0  0  0  0  0  0  0  0  0
    8.1918   -4.1548    0.0000 C   0  0  0  0  0  0  0  0  0  0  0  0
    8.9048   -4.5678    0.0000 C   0  0  0  0  0  0  0  0  0  0  0  0
    9.6240   -4.1544    0.0000 C   0  0  0  0  0  0  0  0  0  0  0  0
    9.6208   -3.3233    0.0000 C   0  0  0  0  0  0  0  0  0  0  0  0
    8.9028   -2.9145    0.0000 C   0  0  0  0  0  0  0  0  0  0  0  0
   10.3333   -2.9073    0.0000 C   0  0  0  0  0  0  0  0  0  0  0  0
   11.0498   -3.3162    0.0000 C   0  0  0  0  0  0  0  0  0  0  0  0
   11.1426   -4.1360    0.0000 C   0  0  0  0  0  0  0  0  0  0  0  0
   11.9504   -4.3036    0.0000 N   0  0  0  0  0  0  0  0  0  0  0  0
   12.3590   -3.5875    0.0000 C   0  0  0  0  0  0  0  0  0  0  0  0
   11.8043   -2.9769    0.0000 N   0  0  0  0  0  0  0  0  0  0  0  0
    7.4768   -4.5663    0.0000 Cl  0  0  0  0  0  0  0  0  0  0  0  0
   11.9722   -2.1692    0.0000 C   0  0  0  0  0  0  0  0  0  0  0  0
   13.1839   -3.5950    0.0000 C   0  0  0  0  0  0  0  0  0  0  0  0
   13.5899   -4.3131    0.0000 C   0  0  0  0  0  0  0  0  0  0  0  0
   14.4149   -4.3206    0.0000 C   0  0  0  0  0  0  0  0  0  0  0  0
   14.8208   -5.0388    0.0000 C   0  0  0  0  0  0  0  0  0  0  0  0
   15.6457   -5.0462    0.0000 N   0  0  0  0  0  0  0  0  0  0  0  0
   16.0467   -5.7646    0.0000 C   0  0  0  0  0  0  0  0  0  0  0  0
   16.8681   -5.7741    0.0000 C   0  0  0  0  0  0  0  0  0  0  0  0
   17.2909   -5.0653    0.0000 C   0  0  0  0  0  0  0  0  0  0  0  0
   16.8861   -4.3454    0.0000 C   0  0  0  0  0  0  0  0  0  0  0  0
   16.0586   -4.3341    0.0000 C   0  0  0  0  0  0  0  0  0  0  0  0
   10.3292   -2.0823    0.0000 O   0  0  0  0  0  0  0  0  0  0  0  0
 12  8  1  0  0  0  0 
  6  1  1  0  0  0  0 
  2 13  1  0  0  0  0 
  1  2  2  0  0  0  0 
 12 14  1  0  0  0  0 
  5  7  1  0  0  0  0 
 11 15  1  0  0  0  0 
  3  4  2  0  0  0  0 
 15 16  1  0  0  0  0 
  7  8  1  0  0  0  0 
 16 17  1  0  0  0  0 
  8  9  2  0  0  0  0 
 17 18  1  0  0  0  0 
 18 19  1  0  0  0  0 
 19 20  1  0  0  0  0 
  4  5  1  0  0  0  0 
  2  3  1  0  0  0  0 
  5  6  2  0  0  0  0 
  9 10  1  0  0  0  0 
 10 11  2  0  0  0  0 
 19 24  1  0  0  0  0 
 20 21  1  0  0  0  0 
 21 22  1  0  0  0  0 
 22 23  1  0  0  0  0 
 23 24  1  0  0  0  0 
 11 12  1  0  0  0  0 
  7 25  2  0  0  0  0 
M  END