
  SciTegic04091414352D

 51 55  0  0  0  0            999 V2000
   17.0069  -22.6007    0.0000 C   0  0
   17.0057  -23.4202    0.0000 C   0  0
   17.7138  -23.8292    0.0000 C   0  0
   17.7120  -22.1918    0.0000 C   0  0
   18.4206  -22.5971    0.0000 C   0  0
   18.4209  -23.4202    0.0000 C   0  0
   19.2038  -23.6744    0.0000 S   0  0
   19.6876  -23.0083    0.0000 C   0  0
   19.2034  -22.3425    0.0000 N   0  0
   20.5031  -23.0082    0.0000 C   0  0
   20.9837  -23.6691    0.0000 C   0  0
   21.7608  -23.4163    0.0000 N   0  0
   21.7605  -22.5991    0.0000 C   0  0
   20.9832  -22.3470    0.0000 S   0  0
   22.4214  -22.1185    0.0000 C   0  0
   22.3357  -21.3058    0.0000 C   0  0
   20.7314  -24.4464    0.0000 O   0  0
   19.4557  -21.5652    0.0000 C   0  0
   22.4221  -23.8965    0.0000 C   0  0
   22.3369  -24.7092    0.0000 C   0  0
   22.9977  -20.8267    0.0000 N   0  3
   22.9123  -20.0147    0.0000 C   0  0
   22.1650  -19.6819    0.0000 C   0  0
   21.5022  -20.1671    0.0000 C   0  0
   21.5909  -20.9774    0.0000 C   0  0
   23.7439  -21.1597    0.0000 C   0  0
   24.4055  -20.6800    0.0000 C   0  0
   25.1517  -21.0131    0.0000 C   0  0
   25.8133  -20.5333    0.0000 C   0  0
   26.5595  -20.8664    0.0000 C   0  0
   27.2211  -20.3867    0.0000 C   0  0
   27.9673  -20.7197    0.0000 N   0  0
   28.6289  -20.2400    0.0000 C   0  0
   29.3751  -20.5731    0.0000 C   0  0
   28.5442  -19.4272    0.0000 O   0  0
   30.0366  -20.0933    0.0000 C   0  0
   30.7829  -20.4264    0.0000 C   0  0
   31.4444  -19.9467    0.0000 C   0  0
   32.1907  -20.2797    0.0000 C   0  0  2  0  0  0
   32.3577  -21.0769    0.0000 S   0  0
   33.1704  -21.1631    0.0000 C   0  0
   32.8966  -19.8695    0.0000 C   0  0  2  0  0  0
   33.5007  -20.4153    0.0000 C   0  0  1  0  0  0
   34.2065  -20.0094    0.0000 N   0  0
   34.0385  -19.2127    0.0000 C   0  0
   33.2290  -19.1264    0.0000 N   0  0
   34.5863  -18.6063    0.0000 O   0  0
   32.3121  -19.2865    0.0000 H   0  0
   34.0744  -20.9911    0.0000 H   0  0
   16.2977  -23.8282    0.0000 Cl  0  0
   25.7828  -22.6874    0.0000 Cl  0  5
  1  2  2  0
  2  3  1  0
  3  6  2  0
  5  4  2  0
  4  1  1  0
  5  6  1  0
  6  7  1  0
  7  8  1  0
  8  9  1  0
  9  5  1  0
 10 11  1  0
 11 12  1  0
 12 13  1  0
 13 14  1  0
 14 10  1  0
  8 10  2  0
 13 15  2  0
 15 16  1  0
 11 17  2  0
  9 18  1  0
 12 19  1  0
 19 20  1  0
 16 21  2  0
 21 22  1  0
 22 23  2  0
 23 24  1  0
 24 25  2  0
 25 16  1  0
 21 26  1  0
 26 27  1  0
 27 28  1  0
 28 29  1  0
 29 30  1  0
 30 31  1  0
 31 32  1  0
 32 33  1  0
 33 34  1  0
 33 35  2  0
 34 36  1  0
 36 37  1  0
 37 38  1  0
 39 38  1  1
 39 40  1  0
 40 41  1  0
 41 43  1  0
 42 39  1  0
 42 43  1  0
 43 44  1  0
 44 45  1  0
 45 46  1  0
 46 42  1  0
 45 47  2  0
 42 48  1  6
 43 49  1  6
  2 50  1  0
M  CHG  2  21   1  51  -1
M  END