
  SciTegic11201309402D

173178  0  0  1  0            999 V2000
   10.2417   -7.2792    0.0000 C   0  0  1  0  0  0
    9.3792   -3.8542    0.0000 N   0  0
    9.0917   -6.1667    0.0000 N   0  0
   10.0000   -3.3250    0.0000 C   0  0  1  0  0  0
   10.7667   -3.0542    0.0000 C   0  0
    8.9917   -4.5667    0.0000 C   0  0
    9.5625   -6.8292    0.0000 C   0  0
   11.0375   -7.4542    0.0000 N   0  0
    9.5917   -7.7750    0.0000 N   0  0
   11.5792   -3.0792    0.0000 N   0  0
   13.2542   -4.7000    0.0000 N   0  0
    7.2917  -10.3667    0.0000 C   0  0
   12.9125   -3.9625    0.0000 C   0  0
    5.8750  -10.4750    0.0000 N   0  0
    8.8917   -5.3792    0.0000 C   0  0  2  0  0  0
    8.5875   -8.6250    0.0000 C   0  0
   -2.3958   -4.9125    0.0000 C   0  0
    5.1292  -10.1167    0.0000 C   0  0
   -3.9458   -3.3750    0.0000 C   0  0
    3.0292  -10.6917    0.0000 C   0  0
   -4.8083   -1.3792    0.0000 C   0  0
    0.0125   -8.4417    0.0000 C   0  0
   14.1125   -5.6125    0.0000 C   0  0
    0.8750  -10.4375    0.0000 C   0  0
   -1.5333   -6.9042    0.0000 C   0  0
   -3.5083    0.3708    0.0000 C   0  0
   15.5542   -7.2125    0.0000 C   0  0
   -3.1958   -3.7375    0.0000 N   0  0
    7.9750   -9.9042    0.0000 N   0  0
   -3.1375   -4.5542    0.0000 C   0  0  1  0  0  0
   -2.9583    2.4708    0.0000 C   0  0
    1.6167  -10.7917    0.0000 N   0  0
   -4.7458   -2.2000    0.0000 N   0  0
    3.7125  -10.2250    0.0000 N   0  0
   -4.1875   -0.0917    0.0000 N   0  0
   -0.7958   -7.2625    0.0000 N   0  0
    6.5542  -10.0042    0.0000 C   0  0  1  0  0  0
    7.9125   -9.0792    0.0000 C   0  0  1  0  0  0
   16.3625   -7.3125    0.0000 N   0  0
   -2.3333   -5.7292    0.0000 N   0  0
    0.0750   -9.2542    0.0000 N   0  0
   14.4292   -6.3625    0.0000 N   0  0
   -2.8875    1.6458    0.0000 N   0  0
    2.2917  -10.3292    0.0000 C   0  0  1  0  0  0
    7.1667   -8.7292    0.0000 C   0  0
    4.4542  -10.5792    0.0000 C   0  0  1  0  0  0
   -4.1208   -0.9167    0.0000 C   0  0  1  0  0  0
   -4.0000   -2.5542    0.0000 C   0  0  1  0  0  0
   -0.7333   -8.0792    0.0000 C   0  0  1  0  0  0
   13.3042   -5.5125    0.0000 C   0  0  2  0  0  0
   11.8417   -7.3292    0.0000 C   0  0
    4.1875   -8.6750    0.0000 N   0  0
    2.2125   -7.5000    0.0000 C   0  0
   -7.1500    1.3250    0.0000 C   0  0
   15.3000   -1.4542    0.0000 C   0  0
   18.3250   -4.7125    0.0000 C   0  0
   16.6792   -8.0625    0.0000 C   0  0  2  0  0  0
   12.3292   -3.3917    0.0000 C   0  0  2  0  0  0
   17.4875   -8.1625    0.0000 C   0  0
    2.9125   -9.0500    0.0000 C   0  0
    2.2292   -9.5042    0.0000 C   0  0
    7.1042   -7.9042    0.0000 C   0  0
    0.8125   -9.6167    0.0000 C   0  0  1  0  0  0
    2.9375   -8.2250    0.0000 N   0  0
   -1.5958   -6.0792    0.0000 C   0  0  1  0  0  0
   15.2375   -6.4667    0.0000 C   0  0  1  0  0  0
   -3.5708    1.1875    0.0000 C   0  0  1  0  0  0
    3.7292   -7.9917    0.0000 C   0  0
    2.9292   -7.0917    0.0000 N   0  0
   -7.8250    0.8708    0.0000 N   0  0
   19.1292   -4.8167    0.0000 N   0  0
   16.1125   -1.5125    0.0000 N   0  0
    3.6875   -9.3250    0.0000 C   0  0
   10.6417   -2.2500    0.0000 O   0  0
    8.2167   -4.3167    0.0000 O   0  0
    9.0292   -7.4042    0.0000 O   0  0
    7.3542  -11.1917    0.0000 O   0  0
   13.5750   -3.4917    0.0000 O   0  0
   -1.7208   -4.4417    0.0000 O   0  0
    5.0750   -9.2917    0.0000 O   0  0
    9.3292   -8.9750    0.0000 O   0  0
   -4.6208   -3.8417    0.0000 O   0  0
    0.6875   -7.9792    0.0000 O   0  0
   -5.5458   -1.0167    0.0000 O   0  0
    3.0917  -11.5042    0.0000 O   0  0
   14.6000   -4.9667    0.0000 O   0  0
   -2.2125   -7.3750    0.0000 O   0  0
    0.1917  -10.9000    0.0000 O   0  0
   -2.7708    0.0083    0.0000 O   0  0
   15.0625   -7.8625    0.0000 O   0  0
   -3.6875    2.8333    0.0000 O   0  0
   -3.2875   -0.9167    0.0000 C   0  0
    4.5167  -11.4000    0.0000 C   0  0
   -3.3208   -2.0917    0.0000 C   0  0
   16.1875   -8.7125    0.0000 C   0  0
    9.5917   -2.6167    0.0000 C   0  0  2  0  0  0
   17.9750   -7.5125    0.0000 O   0  0
   -1.4125   -8.5417    0.0000 C   0  0
   12.1125   -8.1000    0.0000 O   0  0
    6.3667   -7.5542    0.0000 O   0  0
    2.2125   -7.9125    0.0000 N   0  0
   -2.2708    2.9333    0.0000 C   0  0  1  0  0  0
   13.0542   -6.2875    0.0000 C   0  0
   14.8500   -2.1375    0.0000 N   0  0
   -6.4042    0.9750    0.0000 N   0  0
   17.8292   -5.3625    0.0000 N   0  0
    1.5000   -7.0875    0.0000 N   0  0
   18.0042   -3.9625    0.0000 N   0  0
   -7.2125    2.1458    0.0000 N   0  0
   14.9375   -0.7292    0.0000 N   0  0
    8.0792   -5.4292    0.0000 C   0  0  2  0  0  0
   12.5417   -6.9250    0.0000 C   0  0
    6.4917   -9.1917    0.0000 C   0  0  2  0  0  0
    7.7917   -7.4417    0.0000 N   0  0
    5.2542  -11.7542    0.0000 C   0  0
   16.5042   -9.4625    0.0000 C   0  0
   -1.9083   -0.9042    0.0000 C   0  0
   -2.5833   -2.4500    0.0000 C   0  0
    1.5000   -9.1417    0.0000 C   0  0
   17.8042   -8.9125    0.0000 O   0  0
   10.3417   -8.0875    0.0000 C   0  0
   17.1417  -10.9625    0.0000 C   0  0
   -0.2625   -0.8542    0.0000 C   0  0
    6.7417  -12.4667    0.0000 C   0  0
   -1.1000   -3.1625    0.0000 C   0  0
   -2.3333    3.7500    0.0000 N   0  0
    1.4917   -8.3250    0.0000 C   0  0
   -3.8208   -5.0167    0.0000 C   0  0
   -1.9083   -1.9917    0.0000 C   0  0
   -1.5125   -0.1792    0.0000 C   0  0
    5.9375  -11.2917    0.0000 C   0  0
   17.3125   -9.5625    0.0000 C   0  0
   -1.4750   -1.6042    0.0000 C   0  0
   16.0167  -10.1125    0.0000 C   0  0
   -2.5208   -3.2667    0.0000 C   0  0
    5.3167  -12.5750    0.0000 C   0  0
    6.0542  -12.9292    0.0000 C   0  0
   -1.7833   -3.6292    0.0000 C   0  0
   17.6292  -10.3042    0.0000 C   0  0
   -0.6500   -1.5792    0.0000 C   0  0
   16.3292  -10.8625    0.0000 C   0  0
    6.6792  -11.6500    0.0000 C   0  0
   -0.6958   -0.1542    0.0000 C   0  0
   -1.1625   -2.3417    0.0000 C   0  0
    8.7750   -2.6167    0.0000 O   0  0
    0.5625   -0.8375    0.0000 O   0  0
   -0.3583   -3.5167    0.0000 O   0  0
    7.4792  -12.8292    0.0000 O   0  0
   17.4542  -11.7125    0.0000 O   0  0
   -3.7583   -5.8375    0.0000 O   0  0
   12.7792   -2.7167    0.0000 C   0  0
   -1.3500   -9.3667    0.0000 C   0  0
   15.7250   -5.8125    0.0000 C   0  0
   -4.3083    1.5458    0.0000 C   0  0
   -0.9208   -5.6250    0.0000 C   0  0
   17.0250   -5.2667    0.0000 C   0  0
   -5.7333    1.4375    0.0000 C   0  0
   14.0375   -2.0875    0.0000 C   0  0
    7.7167   -6.1542    0.0000 C   0  0
    5.7542   -8.8292    0.0000 C   0  0
   10.0000   -1.9125    0.0000 C   0  0
   -1.5333    2.5833    0.0000 C   0  0
    7.6292   -4.7500    0.0000 C   0  0
    6.7042   -8.3792    0.0000 C   0  0
   13.5875   -2.7667    0.0000 C   0  0
   16.5292   -5.9125    0.0000 C   0  0
   -4.9833    1.0833    0.0000 C   0  0
   -0.6083   -9.7167    0.0000 C   0  0
   -2.0333   -9.8292    0.0000 C   0  0
    6.9042   -6.2042    0.0000 C   0  0
    5.6875   -8.0125    0.0000 C   0  0
    8.3023   -6.1870    0.0000 H   0  0
    9.0146   -3.1549    0.0000 H   0  0
  2  6  1  0
  3  7  1  0
  4  2  1  0
  5  4  1  0
  6 15  1  0
  7  1  1  0
  8  1  1  0
  9  1  1  0
 10  5  1  0
 11 50  1  0
 12 29  1  0
 13 11  1  0
 37 14  1  1
 15  3  1  0
 16  9  1  0
 17 40  1  0
 18 14  1  0
 19 28  1  0
 20 34  1  0
 21 33  1  0
 22 41  1  0
 50 23  1  6
 24 32  1  0
 25 36  1  0
 26 35  1  0
 27 66  1  0
 30 28  1  6
 38 29  1  1
 30 17  1  0
 31 43  1  0
 44 32  1  1
 48 33  1  1
 46 34  1  6
 47 35  1  1
 49 36  1  6
 37 12  1  0
 38 16  1  0
 39 27  1  0
 40 65  1  0
 63 41  1  1
 42 23  1  0
 67 43  1  6
 44 20  1  0
 38 45  1  0
 46 18  1  0
 47 21  1  0
 48 19  1  0
 49 22  1  0
 50103  1  0
 51  8  1  0
 52 73  1  0
 53101  2  0
 54105  2  0
 55104  2  0
 56106  2  0
 57 39  1  6
 58 13  1  0
 59 57  1  0
 60 61  1  0
 44 61  1  0
 62 45  1  0
 63 24  1  0
 64 60  1  0
 65 25  1  0
 66 42  1  1
 67 26  1  0
 68 64  2  0
 69 53  1  0
 70 54  1  0
 71 56  1  0
 72 55  1  0
 73 60  2  0
 74  5  2  0
 75  6  2  0
 76  7  2  0
 77 12  2  0
 78 13  2  0
 79 17  2  0
 80 18  2  0
 81 16  2  0
 82 19  2  0
 83 22  2  0
 84 21  2  0
 85 20  2  0
 86 23  2  0
 87 25  2  0
 88 24  2  0
 89 26  2  0
 90 27  2  0
 91 31  2  0
 47 92  1  0
 46 93  1  0
 48 94  1  0
 57 95  1  0
  4 96  1  0
 97 59  2  0
 49 98  1  0
 99 51  2  0
100 62  2  0
101127  1  0
102 31  1  0
103112  1  0
104158  1  0
105157  1  0
106156  1  0
107 53  1  0
108 56  1  0
109 54  1  0
110 55  1  0
 15111  1  0
112 51  1  0
 37113  1  0
114 62  1  0
115 93  1  0
116 95  1  0
117 92  1  0
118 94  1  0
 63119  1  0
120 59  1  0
  1121  1  6
122141  2  0
123140  2  0
124137  2  0
125138  2  0
102126  1  1
127119  1  0
 30128  1  0
129118  1  0
130117  1  0
131115  1  0
132116  1  0
133117  2  0
134116  2  0
135118  2  0
136115  2  0
137136  1  0
138135  1  0
139132  2  0
140133  1  0
141134  1  0
142131  2  0
143130  2  0
144129  2  0
 96145  1  6
146123  1  0
147125  1  0
148124  1  0
149122  1  0
150128  1  0
 58151  1  1
152 98  1  0
 66153  1  0
 67154  1  0
 65155  1  1
156166  1  0
157167  1  0
158165  1  0
159111  1  0
160113  1  0
161 96  1  0
102162  1  0
111163  1  6
113164  1  6
165151  1  0
166153  1  0
167154  1  0
168152  1  0
169152  1  0
170159  1  0
171160  1  0
 10 58  1  0
142124  1  0
139122  1  0
 68 52  1  0
144125  1  0
143123  1  0
 15172  1  6
  4173  1  1
M  END