
  SciTegic04021211102D

 27 29  0  0  0  0            999 V2000
    3.1506  -24.9066    0.0000 C   0  0
    3.1494  -25.7309    0.0000 C   0  0
    3.8645  -26.1423    0.0000 C   0  0
    4.5812  -25.7304    0.0000 C   0  0
    4.5782  -24.9027    0.0000 C   0  0
    3.8626  -24.4910    0.0000 C   0  0
    5.2837  -24.4860    0.0000 C   0  0
    6.0002  -24.9003    0.0000 C   0  0
    6.7128  -24.4828    0.0000 C   0  0
    6.7100  -23.6599    0.0000 N   0  0
    5.9885  -23.2520    0.0000 C   0  0
    5.2790  -23.6676    0.0000 N   0  0
    3.8643  -26.9686    0.0000 C   0  0
    4.5788  -27.3797    0.0000 N   0  0
    5.2893  -26.9690    0.0000 C   0  0
    6.0038  -27.3801    0.0000 C   0  0
    3.8600  -23.6689    0.0000 C   0  0
    5.9821  -22.4259    0.0000 N   0  0
    6.7185  -26.9693    0.0000 O   0  0
    7.4332  -27.3804    0.0000 C   0  0
    8.1436  -26.9696    0.0000 N   0  0
    3.1148  -27.4018    0.0000 O   0  0
    8.1430  -26.1490    0.0000 C   0  0
    7.4322  -25.7391    0.0000 C   0  0
    7.4317  -24.9185    0.0000 S   0  0
    7.4342  -28.2460    0.0000 O   0  0
    2.3998  -26.1638    0.0000 C   0  0
  3 13  1  0
  1  2  2  0
 13 14  1  0
  3  4  2  0
 14 15  1  0
  7  8  2  0
 15 16  1  0
  6 17  1  0
  8  9  1  0
 11 18  1  0
  4  5  1  0
 16 19  1  0
  9 10  2  0
 19 20  1  0
  2  3  1  0
 20 21  1  0
 10 11  1  0
 13 22  2  0
  5  6  2  0
 21 23  1  0
 11 12  2  0
 23 24  1  0
 12  7  1  0
 24 25  1  0
  9 25  1  0
  5  7  1  0
 20 26  2  0
  6  1  1  0
  2 27  1  0
M  END