
  SciTegic05171617262D

 41 47  0  0  1  0            999 V2000
  -11.1527    1.3220    0.0000 C   0  0
  -10.1112    0.7260    0.0000 C   0  0  1  0  0  0
   -8.8150    1.4810    0.0000 C   0  0
   -7.5130    0.7360    0.0000 N   0  0
   -7.5074   -0.7640    0.0000 C   0  0
   -8.8035   -1.5190    0.0000 C   0  0  1  0  0  0
   -8.7989   -2.7190    0.0000 C   0  0
  -10.1054   -0.7740    0.0000 O   0  0
   -6.2150    1.4893    0.0000 C   0  0
   -6.2184    2.9893    0.0000 C   0  0
   -4.9210    3.7422    0.0000 C   0  0
   -3.6203    2.9951    0.0000 C   0  0
   -3.6168    1.4950    0.0000 C   0  0
   -4.9143    0.7422    0.0000 C   0  0
   -2.3155    0.7475    0.0000 C   0  0
   -2.3155   -0.7475    0.0000 C   0  0
   -1.0028   -1.5132    0.0000 C   0  0
    0.2917   -0.7475    0.0000 C   0  0
    1.7138   -1.2033    0.0000 N   0  0
    2.5889    0.0182    0.0000 C   0  0
    4.0896    0.0290    0.0000 C   0  0
    4.7453   -1.3220    0.0000 C   0  0
    6.2418   -1.4248    0.0000 C   0  0
    7.0791   -0.1803    0.0000 C   0  0
    6.4199    1.1671    0.0000 N   0  0
    4.9234    1.2700    0.0000 C   0  0
    4.3957    2.3477    0.0000 N   0  0
    1.7138    1.2033    0.0000 N   0  0
    2.1749    2.6315    0.0000 C   0  0
    1.2517    3.8078    0.0000 C   0  0
    1.8114    5.1995    0.0000 C   0  0
    3.2965    5.4106    0.0000 C   0  0
    4.2218    4.2301    0.0000 C   0  0
    3.6621    2.8384    0.0000 C   0  0
    3.8566    6.8030    0.0000 C   0  0
    5.0450    6.9694    0.0000 N   0  0
    2.4252    6.9116    0.0000 C   0  0
    2.6073    8.4005    0.0000 C   0  0
    4.0962    8.2184    0.0000 C   0  0
    0.2917    0.7475    0.0000 C   0  0
   -1.0028    1.5132    0.0000 N   0  0
  2  1  1  1
  2  3  1  0
  3  4  1  0
  4  5  1  0
  5  6  1  0
  6  7  1  1
  6  8  1  0
  2  8  1  0
  4  9  1  0
  9 10  2  0
 10 11  1  0
 11 12  2  0
 12 13  1  0
 13 14  2  0
  9 14  1  0
 13 15  1  0
 15 16  2  0
 16 17  1  0
 17 18  2  0
 18 19  1  0
 19 20  2  0
 20 21  1  0
 21 22  2  0
 22 23  1  0
 23 24  2  0
 24 25  1  0
 25 26  2  0
 21 26  1  0
 26 27  1  0
 20 28  1  0
 28 29  1  0
 29 30  2  0
 30 31  1  0
 31 32  2  0
 32 33  1  0
 33 34  2  0
 29 34  1  0
 32 35  1  0
 35 36  1  0
 35 37  1  0
 37 38  1  0
 38 39  1  0
 35 39  1  0
 28 40  1  0
 18 40  1  0
 40 41  2  0
 15 41  1  0
M  END