
          11290713132D 1   1.00000     0.00000     0

 50 54  0     1  0            999 V2000
    4.3754   -6.6023    0.0000 C   0  0  0  0  0  0           0  0  0
    5.1632   -6.8538    0.0000 C   0  0  0  0  0  0           0  0  0
    5.6456   -6.1846    0.0000 C   0  0  0  0  0  0           0  0  0
    5.1594   -5.5217    0.0000 C   0  0  3  0  0  0           0  0  0
    4.3754   -5.7765    0.0000 C   0  0  0  0  0  0           0  0  0
    2.0180   -2.6597    0.0000 O   0  0  0  0  0  0           0  0  0
    1.6068   -3.3765    0.0000 C   0  0  0  0  0  0           0  0  0
    1.9907   -4.1083    0.0000 C   0  0  0  0  0  0           0  0  0
    1.5570   -4.7713    0.0000 C   0  0  0  0  0  0           0  0  0
    1.9153   -5.4720    0.0000 C   0  0  0  0  0  0           0  0  0
    2.6998   -5.4918    0.0000 C   0  0  0  0  0  0           0  0  0
    3.0913   -4.8108    0.0000 C   0  0  0  0  0  0           0  0  0
    2.6927   -4.1262    0.0000 C   0  0  0  0  0  0           0  0  0
    0.7307   -4.7764    0.0000 Cl  0  0  0  0  0  0           0  0  0
    3.1135   -3.4151    0.0000 Cl  0  0  0  0  0  0           0  0  0
    3.9178   -4.8084    0.0000 S   0  0  3  0  0  0           0  0  0
    3.9154   -3.9821    0.0000 O   0  0  0  0  0  0           0  0  0
    3.9203   -5.6348    0.0000 O   0  0  0  0  0  0           0  0  0
    5.8851   -5.1266    0.0000 C   0  0  0  0  0  0           0  0  0
    6.5895   -5.5570    0.0000 N   0  0  3  0  0  0           0  0  0
    5.9058   -4.2995    0.0000 O   0  0  0  0  0  0           0  0  0
    6.5689   -6.3846    0.0000 C   0  0  0  0  0  0           0  0  0
    7.2694   -6.8129    0.0000 C   0  0  0  0  0  0           0  0  0
    7.9910   -6.4198    0.0000 N   0  0  3  0  0  0           0  0  0
    8.0116   -5.5970    0.0000 C   0  0  0  0  0  0           0  0  0
    7.3107   -5.1643    0.0000 C   0  0  0  0  0  0           0  0  0
    8.6927   -6.8487    0.0000 C   0  0  0  0  0  0           0  0  0
    8.6722   -7.6705    0.0000 O   0  0  0  0  0  0           0  0  0
    9.4223   -6.4513    0.0000 C   0  0  2  0  0  0           0  0  0
   10.1234   -6.8800    0.0000 C   0  0  0  0  0  0           0  0  0
   10.8535   -6.4824    0.0000 C   0  0  0  0  0  0           0  0  0
   11.5544   -6.9110    0.0000 C   0  0  0  0  0  0           0  0  0
   12.2843   -6.5135    0.0000 C   0  0  0  0  0  0           0  0  0
    1.6015   -1.9430    0.0000 C   0  0  0  0  0  0           0  0  0
    0.7711   -0.5139    0.0000 C   0  0  0  0  0  0           0  0  0
    0.3590   -1.2380    0.0000 C   0  0  0  0  0  0           0  0  0
    0.7771   -1.9512    0.0000 C   0  0  0  0  0  0           0  0  0
    1.6009   -0.5120    0.0000 C   0  0  0  0  0  0           0  0  0
    2.0130   -1.2298    0.0000 C   0  0  0  0  0  0           0  0  0
    2.8384   -1.2310    0.0000 N   0  0  0  0  0  0           0  0  0
    3.2534   -0.5150    0.0000 C   0  0  0  0  0  0           0  0  0
    2.8362    0.2035    0.0000 C   0  0  0  0  0  0           0  0  0
    2.0119    0.2011    0.0000 C   0  0  0  0  0  0           0  0  0
    4.0822   -0.5147    0.0000 C   0  0  0  0  0  0           0  0  0
    1.5961    0.9182    0.0000 C   0  0  0  0  0  0           0  0  0
   12.9916   -6.9457    0.0000 N   0  0  3  0  0  0           0  0  0
   13.7197   -6.5493    0.0000 C   0  0  0  0  0  0           0  0  0
   12.9653   -7.7706    0.0000 C   0  0  0  0  0  0           0  0  0
    4.7428   -4.8095    0.0000 N   0  0  0  0  0  0           0  0  0
    9.4429   -5.6214    0.0000 N   0  0  0  0  0  0           0  0  0
 16 17  2  0     0  0
 16 18  2  0     0  0
  4 19  1  0     0  0
 19 20  1  0     0  0
 19 21  2  0     0  0
 20 22  1  0     0  0
 20 26  1  0     0  0
 22 23  1  0     0  0
 23 24  1  0     0  0
 24 25  1  0     0  0
 25 26  1  0     0  0
 24 27  1  0     0  0
 27 28  2  0     0  0
 27 29  1  0     0  0
 29 30  1  0     0  0
 30 31  1  0     0  0
 31 32  1  0     0  0
 32 33  1  0     0  0
  6 34  1  0     0  0
 34 39  2  0     0  0
  1  2  1  0     0  0
 38 35  2  0     0  0
  2  3  1  0     0  0
 35 36  1  0     0  0
  3  4  1  0     0  0
 36 37  2  0     0  0
 37 34  1  0     0  0
  4  5  1  0     0  0
  5  1  1  0     0  0
 38 39  1  0     0  0
  6  7  1  0     0  0
 39 40  1  0     0  0
  7  8  1  0     0  0
 40 41  2  0     0  0
  8  9  2  0     0  0
 41 42  1  0     0  0
  9 10  1  0     0  0
 42 43  2  0     0  0
 43 38  1  0     0  0
 10 11  2  0     0  0
 41 44  1  0     0  0
 11 12  1  0     0  0
 43 45  1  0     0  0
 12 13  2  0     0  0
 33 46  1  0     0  0
 13  8  1  0     0  0
 46 47  1  0     0  0
  9 14  1  0     0  0
 46 48  1  0     0  0
 13 15  1  0     0  0
 12 16  1  0     0  0
 16 49  1  0     0  0
 49  4  1  0     0  0
 29 50  1  1     0  0
M  END