
          11280715472D 1   1.00000     0.00000     0

 30 32  0     0  0            999 V2000
    3.4500    3.3833    0.0000 C   0  0  0  0  0  0           0  0  0
    4.1667    2.9708    0.0000 N   0  0  0  0  0  0           0  0  0
    6.3042    4.2125    0.0000 C   0  0  0  0  0  0           0  0  0
    2.7375    2.9625    0.0000 C   0  0  0  0  0  0           0  0  0
    7.0167    4.6292    0.0000 C   0  0  0  0  0  0           0  0  0
    5.5917    2.9708    0.0000 N   0  0  0  0  0  0           0  0  0
    4.8792    3.3833    0.0000 C   0  0  0  0  0  0           0  0  0
    1.3042    2.9625    0.0000 C   0  0  0  0  0  0           0  0  0
   -0.7083   -1.0292    0.0000 S   0  0  0  0  0  0           0  0  0
    2.0167    3.3750    0.0000 C   0  0  0  0  0  0           0  0  0
    6.3042    3.3958    0.0000 C   0  0  0  0  0  0           0  0  0
    0.5917   -0.7542    0.0000 C   0  0  0  0  0  0           0  0  0
    2.7375    2.1333    0.0000 C   0  0  0  0  0  0           0  0  0
    1.3042    2.1333    0.0000 C   0  0  0  0  0  0           0  0  0
   -0.1583   -0.4167    0.0000 C   0  0  0  0  0  0           0  0  0
    3.4417    4.2042    0.0000 O   0  0  0  0  0  0           0  0  0
    2.0167    1.7208    0.0000 C   0  0  0  0  0  0           0  0  0
   -0.2958   -1.7417    0.0000 C   0  0  0  0  0  0           0  0  0
    7.0125    5.4542    0.0000 O   0  0  0  0  0  0           0  0  0
    0.5125   -1.5750    0.0000 C   0  0  0  0  0  0           0  0  0
    5.5792    4.6167    0.0000 C   0  0  0  0  0  0           0  0  0
    0.5917    3.3708    0.0000 O   0  0  0  0  0  0           0  0  0
    4.8667    4.2042    0.0000 C   0  0  0  0  0  0           0  0  0
    7.7292    4.2167    0.0000 O   0  0  0  0  0  0           0  0  0
    2.0167    0.8958    0.0000 O   0  0  0  0  0  0           0  0  0
    1.3042    0.4833    0.0000 C   0  0  0  0  0  0           0  0  0
    1.3042   -0.3417    0.0000 C   0  0  0  0  0  0           0  0  0
    0.5917    4.1917    0.0000 C   0  0  3  0  0  0           0  0  0
   -0.1208    4.6042    0.0000 C   0  0  0  0  0  0           0  0  0
    1.3042    4.6042    0.0000 C   0  0  0  0  0  0           0  0  0
  2  1  1  0     0  0
  3 21  1  0     0  0
  4  1  1  0     0  0
  5  3  1  0     0  0
  6  7  2  0     0  0
  7  2  1  0     0  0
  8 10  1  0     0  0
  9 15  1  0     0  0
 10  4  2  0     0  0
 11  6  1  0     0  0
 12 27  1  0     0  0
 13  4  1  0     0  0
 14 17  1  0     0  0
 15 12  2  0     0  0
 16  1  2  0     0  0
 17 13  2  0     0  0
 18 20  2  0     0  0
 19  5  2  0     0  0
 20 12  1  0     0  0
 21 23  2  0     0  0
 22  8  1  0     0  0
 23  7  1  0     0  0
 24  5  1  0     0  0
 25 17  1  0     0  0
 26 25  1  0     0  0
 27 26  1  0     0  0
 28 22  1  0     0  0
 29 28  1  0     0  0
 30 28  1  0     0  0
 14  8  2  0     0  0
  3 11  2  0     0  0
 18  9  1  0     0  0
M  END