
          11280714582D 1   1.00000     0.00000     0

 20 22  0     0  0            999 V2000
    6.0042   -3.2500    0.0000 N   0  0  3  0  0  0           0  0  0
    7.4375   -3.2417    0.0000 C   0  0  0  0  0  0           0  0  0
    7.5292   -4.0667    0.0000 N   0  0  0  0  0  0           0  0  0
    6.7292   -2.8375    0.0000 C   0  0  0  0  0  0           0  0  0
    8.1917   -2.9042    0.0000 N   0  0  0  0  0  0           0  0  0
    5.2917   -2.8417    0.0000 C   0  0  0  0  0  0           0  0  0
    6.0125   -4.0667    0.0000 C   0  0  0  0  0  0           0  0  0
    5.2917   -2.0167    0.0000 C   0  0  0  0  0  0           0  0  0
    4.5875   -3.2542    0.0000 C   0  0  0  0  0  0           0  0  0
    3.8792   -2.8417    0.0000 C   0  0  0  0  0  0           0  0  0
    4.5875   -1.6042    0.0000 C   0  0  0  0  0  0           0  0  0
    3.8750   -2.0167    0.0000 C   0  0  0  0  0  0           0  0  0
    8.3375   -4.2417    0.0000 C   0  0  0  0  0  0           0  0  0
    8.7417   -3.5250    0.0000 C   0  0  0  0  0  0           0  0  0
    5.3000   -4.4792    0.0000 C   0  0  0  0  0  0           0  0  0
    6.7292   -4.4792    0.0000 C   0  0  0  0  0  0           0  0  0
    3.1542   -1.6000    0.0000 C   0  0  0  0  0  0           0  0  0
    5.3042   -5.3042    0.0000 C   0  0  0  0  0  0           0  0  0
    6.7375   -5.3042    0.0000 C   0  0  0  0  0  0           0  0  0
    6.0167   -5.7167    0.0000 C   0  0  0  0  0  0           0  0  0
  2  4  1  0     0  0
  3  2  2  0     0  0
  4  1  1  0     0  0
  5  2  1  0     0  0
  6  1  1  0     0  0
  7  1  1  0     0  0
  8  6  2  0     0  0
  9  6  1  0     0  0
 10  9  2  0     0  0
 11  8  1  0     0  0
 12 10  1  0     0  0
 13  3  1  0     0  0
 14  5  1  0     0  0
 15  7  2  0     0  0
 16  7  1  0     0  0
 17 12  1  0     0  0
 18 15  1  0     0  0
 19 16  2  0     0  0
 20 19  1  0     0  0
 18 20  2  0     0  0
 11 12  2  0     0  0
 13 14  1  0     0  0
M  END