
  SciTegic09261414532D

 49 55  0  0  0  0            999 V2000
    8.9541  -10.8248    0.0000 C   0  0
    8.9415  -11.6541    0.0000 C   0  0  2  0  0  0
    8.2332  -12.0623    0.0000 C   0  0  1  0  0  0
    9.6666  -10.4123    0.0000 C   0  0  1  0  0  0
    6.8041  -12.0666    0.0000 C   0  0  2  0  0  0
   10.3790  -10.8374    0.0000 C   0  0  1  0  0  0
    7.5166  -11.6498    0.0000 C   0  0  1  0  0  0
    6.8083  -12.8915    0.0000 C   0  0  2  0  0  0
    8.2332  -10.4041    0.0000 C   0  0
    6.0916  -13.2998    0.0000 C   0  0
   11.0916  -11.2499    0.0000 C   0  0
    9.6791   -9.5791    0.0000 C   0  0  2  0  0  0
    9.6541  -12.0666    0.0000 C   0  0
    8.2332  -12.8873    0.0000 C   0  0
    7.5166  -10.8166    0.0000 C   0  0
   10.3790  -11.6624    0.0000 C   0  0
    6.0916  -11.6498    0.0000 C   0  0
    7.5166  -13.2998    0.0000 C   0  0
   11.1041  -10.4291    0.0000 C   0  0
   11.8040  -10.8374    0.0000 N   0  0
   10.4041   -9.1749    0.0000 C   0  0  1  0  0  0
   11.1165   -9.6041    0.0000 C   0  0
    8.9415  -12.4790    0.0000 C   0  0
   11.0916  -12.0749    0.0000 O   0  0
    8.2291  -11.2373    0.0000 C   0  0
    6.8041  -11.2416    0.0000 C   0  0
    5.6708  -14.0124    0.0000 C   0  0
    6.4957  -14.0124    0.0000 C   0  0
    8.9582   -9.1540    0.0000 C   0  0
   10.4166   -8.3499    0.0000 C   0  0
    9.6666  -11.2373    0.0000 H   0  0
    7.5166  -12.4748    0.0000 H   0  0
    6.8041  -13.7123    0.0000 H   0  0
   12.5190  -11.2491    0.0000 C   0  0
   13.2330  -10.8356    0.0000 C   0  0
   13.9480  -11.2473    0.0000 O   0  0
   13.2320  -10.0106    0.0000 O   0  0
   14.6619  -10.8339    0.0000 C   0  0
    5.3829  -12.8870    0.0000 C   0  0
    5.3833  -12.0666    0.0000 C   0  0
    4.6768  -11.6582    0.0000 N   0  0
    4.6760  -13.2991    0.0000 N   0  0
    3.9651  -12.8863    0.0000 C   0  0
    3.9669  -12.0669    0.0000 C   0  0
    3.2593  -11.6574    0.0000 C   0  0
    2.5494  -12.0662    0.0000 C   0  0
    2.5515  -12.8887    0.0000 C   0  0
    3.2597  -13.2945    0.0000 C   0  0
   15.3769  -11.2455    0.0000 C   0  0
  2  1  1  0
  3  2  1  0
  4  1  1  0
  5  7  1  0
  6  4  1  0
  7 15  1  0
  8  5  1  0
  9  1  2  0
 10  8  1  0
  6 11  1  1
 12  4  1  0
 13  2  1  0
 14  3  1  0
 15  9  1  0
 16  6  1  0
 17  5  1  0
 18 14  1  0
 19  6  1  0
 20 11  1  0
 21 12  1  0
 40 17  1  0
 22 21  1  0
  2 23  1  6
 24 11  2  0
  3 25  1  1
  5 26  1  1
 27 10  1  0
 28 10  1  0
 12 29  1  1
 21 30  1  6
  4 31  1  1
  7 32  1  6
  8 33  1  6
  3  7  1  0
 13 16  1  0
 19 22  1  0
  8 18  1  0
 10 39  1  0
 20 34  1  0
 34 35  1  0
 35 36  1  0
 35 37  2  0
 36 38  1  0
 39 40  1  0
 39 42  2  0
 40 41  2  0
 41 44  1  0
 43 42  1  0
 43 44  2  0
 44 45  1  0
 45 46  2  0
 46 47  1  0
 47 48  2  0
 48 43  1  0
 38 49  1  0
M  END