
  SciTegic01161211252D

103111  0  0  0  0            999 V2000
    9.3890   -8.1533    0.0000 N   0  0
    9.9745   -8.7355    0.0000 C   0  0
   10.7967   -8.6495    0.0000 C   0  0  2  0  0  0
   11.2374   -7.9442    0.0000 C   0  0
   10.9634   -7.1661    0.0000 C   0  0
   10.1850   -6.8906    0.0000 C   0  0
    9.4873   -7.3293    0.0000 C   0  0
   10.0321   -6.0756    0.0000 C   0  0
   10.6581   -5.5423    0.0000 C   0  0
   11.4391   -5.8141    0.0000 C   0  0
   11.5952   -6.6255    0.0000 C   0  0
    9.7000   -9.5203    0.0000 O   0  0
   11.2355   -9.3507    0.0000 N   0  0
   13.2706  -10.1261    0.0000 N   0  0
   12.4498  -10.1010    0.0000 C   0  0  2  0  0  0
   12.4937   -8.6772    0.0000 O   0  0
   12.0627   -9.3747    0.0000 C   0  0
   12.0193  -10.8103    0.0000 C   0  0
   13.2218  -11.5732    0.0000 C   0  0
   12.4023  -11.5388    0.0000 C   0  0
   11.9593  -12.2337    0.0000 C   0  0
   12.3422  -12.9622    0.0000 C   0  0
   13.1656  -12.9994    0.0000 C   0  0
   13.6049  -12.3017    0.0000 C   0  0
   13.5485  -13.7279    0.0000 O   0  0
   13.6648  -10.8776    0.0000 C   0  0
   11.1396  -12.1993    0.0000 C   0  0
    8.6559   -8.5280    0.0000 C   0  0
    7.9625   -8.0810    0.0000 C   0  0
    7.2329   -8.4585    0.0000 N   0  0
    8.0025   -7.2592    0.0000 O   0  0
   11.5267   -8.5190    0.0000 H   0  0
    4.3730   -6.0113    0.0000 N   0  0
    2.9235   -4.3848    0.0000 N   0  0
    3.0903   -3.5728    0.0000 C   0  0
    2.5620   -2.9321    0.0000 C   0  0  2  0  0  0
    1.7347   -2.9537    0.0000 C   0  0
    1.2296   -3.6149    0.0000 C   0  0
    1.4347   -4.4193    0.0000 C   0  0
    2.1860   -4.7564    0.0000 C   0  0
    0.8400   -4.9916    0.0000 C   0  0
    0.0494   -4.7651    0.0000 C   0  0
   -0.1557   -3.9606    0.0000 C   0  0
    0.4344   -3.3828    0.0000 C   0  0
    3.8947   -3.3676    0.0000 O   0  0
    2.9066   -2.1788    0.0000 N   0  0
    2.4260   -0.0537    0.0000 N   0  0
    2.8628   -0.7551    0.0000 C   0  0  2  0  0  0
    1.6493   -1.5028    0.0000 O   0  0
    2.4698   -1.4775    0.0000 C   0  0
    3.6884   -0.7231    0.0000 C   0  0
    3.6616    0.7065    0.0000 C   0  0
    4.0897    0.0012    0.0000 C   0  0
    4.9099    0.0152    0.0000 C   0  0
    5.3066    0.7347    0.0000 C   0  0
    4.8831    1.4402    0.0000 C   0  0
    4.0584    1.4261    0.0000 C   0  0
    5.2799    2.1597    0.0000 O   0  0
    2.8365    0.6873    0.0000 C   0  0
    5.3378   -0.6902    0.0000 C   0  0
    3.6433   -4.7854    0.0000 C   0  0
    3.6532   -5.6107    0.0000 C   0  0
    2.9477   -6.0307    0.0000 O   0  0
    1.9954   -2.4036    0.0000 H   0  0
    3.6827   -9.7064    0.0000 N   0  0
    2.9890  -11.7716    0.0000 N   0  0
    2.2010  -12.0294    0.0000 C   0  0
    1.9064  -12.8058    0.0000 C   0  0  2  0  0  0
    2.3356  -13.5136    0.0000 C   0  0
    3.1601  -13.6245    0.0000 C   0  0
    3.7571  -13.0476    0.0000 C   0  0
    3.6774  -12.2279    0.0000 C   0  0
    4.5489  -13.2803    0.0000 C   0  0
    4.7441  -14.0792    0.0000 C   0  0
    4.1472  -14.6561    0.0000 C   0  0
    3.3528  -14.4302    0.0000 C   0  0
    1.6241  -11.4326    0.0000 O   0  0
    1.0817  -12.8800    0.0000 N   0  0
   -0.5257  -14.3511    0.0000 N   0  0
   -0.1331  -13.6240    0.0000 C   0  0  2  0  0  0
    1.1178  -14.3071    0.0000 O   0  0
    0.6891  -13.6072    0.0000 C   0  0
   -0.5703  -12.9228    0.0000 C   0  0
   -1.7985  -13.6549    0.0000 C   0  0
   -1.3982  -12.9335    0.0000 C   0  0
   -1.8170  -12.2282    0.0000 C   0  0
   -2.6386  -12.2403    0.0000 C   0  0
   -3.0413  -12.9578    0.0000 C   0  0
   -2.6201  -13.6671    0.0000 C   0  0
   -3.8629  -12.9700    0.0000 O   0  0
   -1.3728  -14.3619    0.0000 C   0  0
   -1.4167  -11.5068    0.0000 C   0  0
    2.9800  -10.9479    0.0000 C   0  0
    3.6917  -10.5301    0.0000 C   0  0
    4.4063  -10.9346    0.0000 O   0  0
    1.7286  -13.5599    0.0000 H   0  0
    5.0938   -8.0580    0.0000 N   0  0
    5.0892   -7.2371    0.0000 C   0  0
    5.8070   -8.4644    0.0000 C   0  0
    4.3852   -8.4723    0.0000 C   0  0
    4.3761   -6.8306    0.0000 C   0  0
    4.3898   -9.2932    0.0000 C   0  0
    6.5155   -8.0501    0.0000 C   0  0
 38 39  1  0
 39 40  1  0
 34 40  1  0
 41 42  1  0
 42 43  2  0
 43 44  1  0
 38 44  2  0
 39 41  2  0
 35 45  2  0
 36 46  1  0
 50 46  1  0
 47 48  1  0
 48 50  1  0
 50 49  2  0
 48 51  1  1
 51 53  1  0
 52 53  2  0
 53 54  1  0
 54 55  2  0
 55 56  1  0
 56 57  2  0
 57 52  1  0
 56 58  1  0
 52 59  1  0
 54 60  1  0
 34 61  1  0
 61 62  1  0
 62 63  2  0
 62 33  1  0
 36 64  1  1
 29 30  1  0
 29 31  2  0
  3 32  1  1
  1  2  1  0
  2  3  1  0
  3  4  1  0
  4  5  1  0
  5  6  1  0
  6  7  1  0
  1  7  1  0
  8  9  1  0
  9 10  2  0
 10 11  1  0
  5 11  2  0
  6  8  2  0
  2 12  2  0
  3 13  1  0
 17 13  1  0
 14 15  1  0
 15 17  1  0
 17 16  2  0
 15 18  1  1
 18 20  1  0
 19 20  2  0
 20 21  1  0
 21 22  2  0
 22 23  1  0
 23 24  2  0
 24 19  1  0
 23 25  1  0
 19 26  1  0
 66 67  1  0
 67 68  1  0
 68 69  1  0
 69 70  1  0
 70 71  1  0
 71 72  1  0
 66 72  1  0
 73 74  1  0
 74 75  2  0
 75 76  1  0
 70 76  2  0
 71 73  2  0
 67 77  2  0
 68 78  1  0
 82 78  1  0
 79 80  1  0
 80 82  1  0
 82 81  2  0
 80 83  1  1
 83 85  1  0
 84 85  2  0
 85 86  1  0
 86 87  2  0
 87 88  1  0
 88 89  2  0
 89 84  1  0
 88 90  1  0
 84 91  1  0
 86 92  1  0
 66 93  1  0
 93 94  1  0
 94 95  2  0
 94 65  1  0
 68 96  1  1
 21 27  1  0
  1 28  1  0
 97 98  1  0
 28 29  1  0
 97 99  1  0
 34 35  1  0
 97100  1  0
 35 36  1  0
 98101  1  0
101 33  1  0
 36 37  1  0
100102  1  0
102 65  1  0
 37 38  1  0
 99103  1  0
103 30  1  0
M  END