
  SciTegic09081514192D

 32 35  0  0  0  0            999 V2000
   13.2546   15.5830    0.0000 C   0  0
   12.2504   16.6972    0.0000 C   0  0
   10.7833   16.3846    0.0000 C   0  0
   10.3205   14.9578    0.0000 C   0  0
   11.3247   13.8435    0.0000 C   0  0
   12.7918   14.1562    0.0000 C   0  0
   10.8594   12.4167    0.0000 N   0  0
   11.8619   11.3009    0.0000 C   0  0
   11.3969    9.8748    0.0000 C   0  0
    9.9293    9.5644    0.0000 N   0  0
    8.9268   10.6803    0.0000 C   0  0
    9.3919   12.1064    0.0000 C   0  0
   13.7990   13.0435    0.0000 O   0  0
   14.9723   13.2953    0.0000 C   0  0
    9.4611    8.1385    0.0000 C   0  0
    7.9923    7.8301    0.0000 C   0  0
    7.5241    6.4042    0.0000 C   0  0
    6.0553    6.0958    0.0000 N   0  0
    5.5870    4.6698    0.0000 C   0  0
    4.1182    4.3614    0.0000 C   0  0
    6.3875    3.7758    0.0000 O   0  0
    3.6500    2.9355    0.0000 C   0  0
    2.1812    2.6271    0.0000 C   0  0
    1.7138    1.2033    0.0000 C   0  0
    1.7138   -1.2033    0.0000 N   0  0
    2.5889    0.0182    0.0000 C   0  0
    0.2917   -0.7475    0.0000 C   0  0
    0.2917    0.7475    0.0000 C   0  0
   -1.0028    1.5132    0.0000 C   0  0
   -2.3155    0.7475    0.0000 C   0  0
   -2.3155   -0.7475    0.0000 C   0  0
   -1.0028   -1.5132    0.0000 C   0  0
  1  2  2  0
  2  3  1  0
  3  4  2  0
  4  5  1  0
  5  6  2  0
  6  1  1  0
  7  8  1  0
  7 12  1  0
  8  9  1  0
  9 10  1  0
 10 11  1  0
 11 12  1  0
  5  7  1  0
  6 13  1  0
 13 14  1  0
 10 15  1  0
 15 16  1  0
 16 17  1  0
 17 18  1  0
 18 19  1  0
 19 20  1  0
 19 21  2  0
 20 22  1  0
 22 23  1  0
 23 24  1  0
 24 28  1  0
 27 25  1  0
 25 26  1  0
 26 24  2  0
 27 28  2  0
 28 29  1  0
 29 30  2  0
 30 31  1  0
 31 32  2  0
 32 27  1  0
M  END