
  CDK    9/16/09,9:49

 36 41  0  0  0  0  0  0  0  0999 V2000
    8.2411    0.5913    0.0000 N   0  0  0  0  0  0  0  0  0  0  0  0
    8.2411   -0.2384    0.0000 C   0  0  0  0  0  0  0  0  0  0  0  0
    8.9555   -0.6509    0.0000 N   0  0  0  0  0  0  0  0  0  0  0  0
    8.9555    1.0084    0.0000 C   0  0  0  0  0  0  0  0  0  0  0  0
    9.6746    0.5913    0.0000 C   0  0  0  0  0  0  0  0  0  0  0  0
    9.6745   -0.2394    0.0000 C   0  0  0  0  0  0  0  0  0  0  0  0
   10.4645   -0.4961    0.0000 N   0  0  0  0  0  0  0  0  0  0  0  0
   10.9528    0.1759    0.0000 N   0  0  0  0  0  0  0  0  0  0  0  0
   10.4645    0.8478    0.0000 C   0  0  0  0  0  0  0  0  0  0  0  0
    8.9543    1.8334    0.0000 O   0  0  0  0  0  0  0  0  0  0  0  0
    7.5265   -0.6509    0.0000 O   0  0  0  0  0  0  0  0  0  0  0  0
    7.5255    1.0020    0.0000 C   0  0  0  0  0  0  0  0  0  0  0  0
    8.9540   -1.4759    0.0000 C   0  0  0  0  0  0  0  0  0  0  0  0
    8.2386   -1.8870    0.0000 C   0  0  0  0  0  0  0  0  0  0  0  0
   11.7778    0.1759    0.0000 C   0  0  0  0  0  0  0  0  0  0  0  0
   12.1904   -0.5386    0.0000 C   0  0  0  0  0  0  0  0  0  0  0  0
   11.7772   -1.2515    0.0000 C   0  0  0  0  0  0  0  0  0  0  0  0
   12.1890   -1.9655    0.0000 C   0  0  0  0  0  0  0  0  0  0  0  0
   13.0149   -1.9660    0.0000 N   0  0  0  0  0  0  0  0  0  0  0  0
   13.0131   -0.5354    0.0000 C   0  0  0  0  0  0  0  0  0  0  0  0
   13.4259   -1.2453    0.0000 C   0  0  0  0  0  0  0  0  0  0  0  0
   14.2453   -1.2418    0.0000 C   0  0  0  0  0  0  0  0  0  0  0  0
   14.6529   -0.5290    0.0000 C   0  0  0  0  0  0  0  0  0  0  0  0
   14.2350    0.1816    0.0000 C   0  0  0  0  0  0  0  0  0  0  0  0
   13.4170    0.1746    0.0000 C   0  0  0  0  0  0  0  0  0  0  0  0
    7.4158   -1.8886    0.0000 C   0  0  0  0  0  0  0  0  0  0  0  0
    7.8270   -2.6040    0.0000 C   0  0  0  0  0  0  0  0  0  0  0  0
   14.6415    0.8995    0.0000 Cl  0  0  0  0  0  0  0  0  0  0  0  0
   10.7164    1.6307    0.0000 C   0  0  0  0  0  0  0  0  0  0  0  0
   11.5011    1.8856    0.0000 C   0  0  0  0  0  0  0  0  0  0  0  0
   11.5011    2.7106    0.0000 C   0  0  0  0  0  0  0  0  0  0  0  0
   10.7164    2.9656    0.0000 C   0  0  0  0  0  0  0  0  0  0  0  0
   10.2315    2.2981    0.0000 N   0  0  0  0  0  0  0  0  0  0  0  0
    9.4065    2.2981    0.0000 C   0  0  0  0  0  0  0  0  0  0  0  0
   12.1657    3.1924    0.0000 C   0  0  0  0  0  0  0  0  0  0  0  0
   12.8332    3.6773    0.0000 N   0  0  0  0  0  0  0  0  0  0  0  0
  7  8  1  0  0  0  0 
 17 18  1  0  0  0  0 
  8  9  1  0  0  0  0 
 18 19  2  0  0  0  0 
 19 21  1  0  0  0  0 
 20 16  1  0  0  0  0 
  9  5  2  0  0  0  0 
  5  4  1  0  0  0  0 
 20 21  1  0  0  0  0 
  4 10  2  0  0  0  0 
 21 22  2  0  0  0  0 
  5  6  1  0  0  0  0 
 22 23  1  0  0  0  0 
  2 11  2  0  0  0  0 
 23 24  2  0  0  0  0 
 24 25  1  0  0  0  0 
 25 20  2  0  0  0  0 
 26 14  1  0  0  0  0 
 27 26  1  0  0  0  0 
 14 27  1  0  0  0  0 
  1 12  1  0  0  0  0 
  1  2  1  0  0  0  0 
  3 13  1  0  0  0  0 
 24 28  1  0  0  0  0 
 29 30  2  0  0  0  0 
  1  4  1  0  0  0  0 
 13 14  1  0  0  0  0 
  2  3  1  0  0  0  0 
  8 15  1  0  0  0  0 
  3  6  1  0  0  0  0 
 30 31  1  0  0  0  0 
 31 32  2  0  0  0  0 
 32 33  1  0  0  0  0 
 33 29  1  0  0  0  0 
  9 29  1  0  0  0  0 
 15 16  1  0  0  0  0 
 33 34  1  0  0  0  0 
  6  7  2  0  0  0  0 
 16 17  2  0  0  0  0 
 35 36  3  0  0  0  0 
 31 35  1  0  0  0  0 
M  END