
  SciTegic04091414152D

 33 37  0  0  0  0            999 V2000
   16.3702   -2.0325    0.0000 C   0  0
   15.7457   -2.5695    0.0000 C   0  0  2  0  0  0
   15.9010   -3.3760    0.0000 C   0  0
   16.6939   -3.6227    0.0000 N   0  3
   17.3044   -3.1076    0.0000 C   0  0
   17.1497   -2.2946    0.0000 C   0  0
   15.9746   -2.7541    0.0000 C   0  0
   16.7781   -2.9400    0.0000 C   0  0
   14.9667   -2.2981    0.0000 O   0  0
   13.5457   -2.1257    0.0000 C   0  0
   13.0003   -2.7495    0.0000 C   0  0
   14.2110   -2.6235    0.0000 C   0  0
   12.7850   -1.8013    0.0000 C   0  0
   12.5562   -1.0074    0.0000 C   0  0
   13.0380   -0.3344    0.0000 C   0  0
   13.8598   -0.3000    0.0000 C   0  0
   14.4073   -0.9170    0.0000 C   0  0
   14.2669   -1.7324    0.0000 C   0  0
   12.1790   -2.6789    0.0000 C   0  0
   11.8533   -3.4404    0.0000 C   0  0
   12.4770   -3.9857    0.0000 C   0  0
   13.1881   -3.5608    0.0000 C   0  0
   14.1132   -3.4427    0.0000 O   0  0
   16.7498   -4.4457    0.0000 C   0  0
   17.4906   -4.8089    0.0000 C   0  0
   17.5464   -5.6319    0.0000 O   0  0
   18.1753   -4.3489    0.0000 N   0  0
   18.9161   -4.7120    0.0000 C   0  0
   18.9690   -5.5326    0.0000 C   0  0
   19.7089   -5.8956    0.0000 C   0  0
   20.3948   -5.4356    0.0000 C   0  0
   20.3359   -4.6084    0.0000 N   0  0
   19.5956   -4.2491    0.0000 N   0  0
  1  2  1  0
  1  6  1  0
  2  3  1  0
  3  4  1  0
  4  5  1  0
  5  6  1  0
  1  7  1  0
  4  8  1  0
  7  8  1  0
  2  9  1  6
 11 10  1  0
 10 12  1  0
 13 14  1  0
 14 15  1  0
 15 16  1  0
 13 10  1  0
 16 17  1  0
 10 18  1  0
 17 18  1  0
 11 19  2  0
 19 20  1  0
 20 21  2  0
 21 22  1  0
 22 11  1  0
 12 23  2  0
 12  9  1  0
  4 24  1  0
 24 25  1  0
 25 26  2  0
 25 27  1  0
 27 28  1  0
 28 29  1  0
 29 30  2  0
 30 31  1  0
 31 32  2  0
 32 33  1  0
 33 28  2  0
M  CHG  1   4   1
M  END