
  CDK    9/16/09,10:9

 36 37  0  0  0  0  0  0  0  0999 V2000
   11.4292  -17.1000    0.0000 C   0  0  0  0  0  0  0  0  0  0  0  0
   12.1412  -16.6833    0.0000 C   0  0  0  0  0  0  0  0  0  0  0  0
   12.8532  -17.1000    0.0000 N   0  0  0  0  0  0  0  0  0  0  0  0
   14.2788  -17.1061    0.0000 C   0  0  0  0  0  0  0  0  0  0  0  0
   13.5655  -16.6882    0.0000 C   0  0  0  0  0  0  0  0  0  0  0  0
   14.2638  -17.9315    0.0000 N   0  0  0  0  0  0  0  0  0  0  0  0
   14.9982  -16.7023    0.0000 O   0  0  0  0  0  0  0  0  0  0  0  0
   13.5678  -15.8633    0.0000 C   0  0  0  0  0  0  0  0  0  0  0  0
   14.2835  -15.4528    0.0000 C   0  0  0  0  0  0  0  0  0  0  0  0
   14.9938  -15.8690    0.0000 C   0  0  0  0  0  0  0  0  0  0  0  0
   15.7090  -15.4592    0.0000 C   0  0  0  0  0  0  0  0  0  0  0  0
   15.7118  -14.6334    0.0000 C   0  0  0  0  0  0  0  0  0  0  0  0
   14.9935  -14.2190    0.0000 C   0  0  0  0  0  0  0  0  0  0  0  0
   14.2812  -14.6311    0.0000 C   0  0  0  0  0  0  0  0  0  0  0  0
   16.4221  -15.8741    0.0000 C   0  0  0  0  0  0  0  0  0  0  0  0
   17.1333  -16.2833    0.0000 C   0  0  0  0  0  0  0  0  0  0  0  0
   16.0089  -16.5882    0.0000 C   0  0  0  0  0  0  0  0  0  0  0  0
   16.8390  -15.1623    0.0000 C   0  0  0  0  0  0  0  0  0  0  0  0
   16.4269  -14.2220    0.0000 O   0  0  0  0  0  0  0  0  0  0  0  0
   12.1412  -15.8583    0.0000 O   0  0  0  0  0  0  0  0  0  0  0  0
   10.7135  -16.6896    0.0000 N   0  0  0  0  0  0  0  0  0  0  0  0
   10.0002  -17.1042    0.0000 C   0  0  0  0  0  0  0  0  0  0  0  0
    9.2846  -16.6938    0.0000 C   0  0  0  0  0  0  0  0  0  0  0  0
   10.0026  -17.9292    0.0000 O   0  0  0  0  0  0  0  0  0  0  0  0
    8.5713  -17.1084    0.0000 N   0  0  0  0  0  0  0  0  0  0  0  0
    9.2821  -15.8688    0.0000 C   0  0  0  0  0  0  0  0  0  0  0  0
    8.5665  -15.4584    0.0000 C   0  0  0  0  0  0  0  0  0  0  0  0
    8.5666  -14.6323    0.0000 C   0  0  0  0  0  0  0  0  0  0  0  0
    7.8518  -14.2220    0.0000 C   0  0  0  0  0  0  0  0  0  0  0  0
    7.1375  -14.6367    0.0000 C   0  0  0  0  0  0  0  0  0  0  0  0
    7.1426  -15.4659    0.0000 C   0  0  0  0  0  0  0  0  0  0  0  0
    7.8580  -15.8725    0.0000 C   0  0  0  0  0  0  0  0  0  0  0  0
   11.4328  -17.9250    0.0000 C   0  0  0  0  0  0  0  0  0  0  0  0
   10.7201  -18.3406    0.0000 C   0  0  0  0  0  0  0  0  0  0  0  0
   12.1491  -18.3343    0.0000 C   0  0  0  0  0  0  0  0  0  0  0  0
   12.8510  -17.9250    0.0000 C   0  0  0  0  0  0  0  0  0  0  0  0
 15 18  1  0  0  0  0 
  6  4  1  0  0  0  0 
 12 19  1  0  0  0  0 
  9 10  2  0  0  0  0 
  2 20  2  0  0  0  0 
  4  5  1  0  0  0  0 
  1 21  1  0  0  0  0 
 10 11  1  0  0  0  0 
 21 22  1  0  0  0  0 
 22 23  1  0  0  0  0 
 11 12  2  0  0  0  0 
 22 24  2  0  0  0  0 
  1  2  1  0  0  0  0 
 23 25  1  0  0  0  0 
 12 13  1  0  0  0  0 
 23 26  1  1  0  0  0 
  4  7  2  0  0  0  0 
 26 27  1  0  0  0  0 
 13 14  2  0  0  0  0 
 27 28  2  0  0  0  0 
 14  9  1  0  0  0  0 
 28 29  1  0  0  0  0 
  3  2  1  0  0  0  0 
 29 30  2  0  0  0  0 
 11 15  1  0  0  0  0 
 30 31  1  0  0  0  0 
  5  8  1  1  0  0  0 
 31 32  2  0  0  0  0 
 32 27  1  0  0  0  0 
 15 16  1  0  0  0  0 
  1 33  1  6  0  0  0 
  3  5  1  0  0  0  0 
 33 34  1  0  0  0  0 
 15 17  1  0  0  0  0 
 33 35  1  0  0  0  0 
  8  9  1  0  0  0  0 
  3 36  1  0  0  0  0 
M  END