
  SciTegic03291108482D

 16 18  0  0  0  0            999 V2000
    1.0969   -0.9641    0.0000 S   0  0
   -0.3063   -1.2341    0.0000 N   0  0
    0.6292   -2.3143    0.0000 N   0  0
    0.9410   -0.1539    0.0000 C   0  0
    0.1614    0.1161    0.0000 C   0  0
   -0.4622   -0.4240    0.0000 C   0  0
    0.4733   -1.5042    0.0000 C   0  0
    0.7851    0.6562    0.0000 C   0  0
    1.7205   -0.4240    0.0000 C   0  0
    0.0055    0.9262    0.0000 C   0  0
   -1.2418   -0.1539    0.0000 C   0  0
    1.4087    1.1963    0.0000 C   0  0
    2.3442    0.1161    0.0000 C   0  0
   -0.7740    1.1963    0.0000 C   0  0
   -1.3977    0.6562    0.0000 C   0  0
    2.1883    0.9262    0.0000 C   0  0
  1  4  1  0
  1  7  1  0
  2  6  1  0
  2  7  2  0
  3  7  1  0
  4  5  1  0
  4  8  1  0
  4  9  1  0
  5  6  2  0
  5 10  1  0
  6 11  1  0
  8 12  1  0
  9 13  1  0
 10 14  1  0
 11 15  1  0
 12 16  1  0
 13 16  1  0
 14 15  1  0
M  END