
  SciTegic12121611302D

 32 36  0  0  0  0            999 V2000
   -5.1698    0.9127    0.0000 O   0  0
   -4.1307    1.5128    0.0000 S   0  0
   -5.1701    2.1125    0.0000 O   0  0
   -2.8315    0.7623    0.0000 C   0  0
   -1.4884    1.5247    0.0000 C   0  0
   -1.4884   -1.5247    0.0000 C   0  0
   -2.8315   -0.7623    0.0000 C   0  0
    0.0000    0.7623    0.0000 C   0  0
    0.0000   -0.7623    0.0000 C   0  0
    0.7442   -1.6517    0.0000 O   0  0
    0.7805    1.6880    0.0000 O   0  0
    2.2325   -1.4158    0.0000 C   0  0
    2.2507    1.3976    0.0000 C   0  0
    2.9404    0.0000    0.0000 C   0  0
   -4.1314    3.0137    0.0000 N   0  0
   -5.4310    3.7643    0.0000 C   0  0  2  0  0  0
   -5.4317    5.2651    0.0000 C   0  0
   -4.1341    6.0176    0.0000 C   0  0
   -4.1368    7.5176    0.0000 C   0  0
   -5.4372    8.2652    0.0000 C   0  0
   -6.7349    7.5128    0.0000 C   0  0
   -6.7321    6.0129    0.0000 C   0  0
   -3.0937    5.4196    0.0000 Cl  0  0
   -6.7306    3.0137    0.0000 C   0  0
   -6.8768    1.5317    0.0000 C   0  0
   -8.3397    1.2313    0.0000 C   0  0
   -9.0730    2.5341    0.0000 C   0  0
   -8.0574    3.6289    0.0000 S   0  0
  -10.5767    2.5664    0.0000 C   0  0
  -11.3450    1.2552    0.0000 C   0  0
  -10.6116   -0.0476    0.0000 C   0  0
   -9.0921   -0.0709    0.0000 C   0  0
  2  1  2  0
  3  2  2  0
  2  4  1  0
  4  5  2  0
  5  8  1  0
  9  6  1  0
  6  7  2  0
  7  4  1  0
  8  9  2  0
  9 10  1  0
  8 11  1  0
 10 12  1  0
 11 13  1  0
 12 14  1  0
 13 14  1  0
 17 18  1  0
 18 19  2  0
 19 20  1  0
 20 21  2  0
 21 22  1  0
 17 22  2  0
 18 23  1  0
 16 17  1  0
 24 25  2  0
 25 26  1  0
 26 27  1  0
 27 28  1  0
 24 28  1  0
 29 30  1  0
 30 31  2  0
 31 32  1  0
 26 32  2  0
 27 29  2  0
 16 24  1  0
 16 15  1  1
 15  2  1  0
M  END