
  CDK    9/16/09,10:4

 19 20  0  0  0  0  0  0  0  0999 V2000
    9.3069  -16.5833    0.0000 C   0  0  0  0  0  0  0  0  0  0  0  0
    9.3057  -17.4107    0.0000 C   0  0  0  0  0  0  0  0  0  0  0  0
   10.0206  -17.8235    0.0000 C   0  0  0  0  0  0  0  0  0  0  0  0
   10.7370  -17.4102    0.0000 C   0  0  0  0  0  0  0  0  0  0  0  0
   10.7341  -16.5797    0.0000 C   0  0  0  0  0  0  0  0  0  0  0  0
   10.0188  -16.1705    0.0000 C   0  0  0  0  0  0  0  0  0  0  0  0
   11.4467  -16.1620    0.0000 C   0  0  0  0  0  0  0  0  0  0  0  0
   12.2016  -16.4946    0.0000 S   0  0  0  0  0  0  0  0  0  0  0  0
   12.7513  -15.8795    0.0000 C   0  0  0  0  0  0  0  0  0  0  0  0
   12.3361  -15.1665    0.0000 C   0  0  0  0  0  0  0  0  0  0  0  0
   11.5298  -15.3412    0.0000 C   0  0  0  0  0  0  0  0  0  0  0  0
   12.6687  -14.4115    0.0000 C   0  0  0  0  0  0  0  0  0  0  0  0
   13.4889  -14.3222    0.0000 O   0  0  0  0  0  0  0  0  0  0  0  0
   12.1813  -13.7460    0.0000 N   0  0  0  0  0  0  0  0  0  0  0  0
   13.5721  -15.9626    0.0000 N   0  0  0  0  0  0  0  0  0  0  0  0
   13.9105  -16.7150    0.0000 C   0  0  0  0  0  0  0  0  0  0  0  0
   14.7313  -16.7982    0.0000 O   0  0  0  0  0  0  0  0  0  0  0  0
   13.4281  -17.3843    0.0000 N   0  0  0  0  0  0  0  0  0  0  0  0
    8.5909  -17.8226    0.0000 F   0  0  0  0  0  0  0  0  0  0  0  0
  8  9  1  0  0  0  0 
  9 10  2  0  0  0  0 
 10 11  1  0  0  0  0 
 11  7  2  0  0  0  0 
  5  7  1  0  0  0  0 
  5  6  2  0  0  0  0 
 10 12  1  0  0  0  0 
  6  1  1  0  0  0  0 
 12 13  2  0  0  0  0 
  7  8  1  0  0  0  0 
 12 14  1  0  0  0  0 
  1  2  2  0  0  0  0 
  9 15  1  0  0  0  0 
  3  4  2  0  0  0  0 
 15 16  1  0  0  0  0 
 16 17  2  0  0  0  0 
  4  5  1  0  0  0  0 
 16 18  1  0  0  0  0 
  2  3  1  0  0  0  0 
  2 19  1  0  0  0  0 
M  END