
          11280715122D 1   1.00000     0.00000     0

 27 29  0     0  0            999 V2000
    6.2417   -0.2542    0.0000 C   0  0  0  0  0  0           0  0  0
    1.5792    0.3458    0.0000 N   0  0  3  0  0  0           0  0  0
    5.5292    0.1583    0.0000 C   0  0  0  0  0  0           0  0  0
    6.2417   -1.0792    0.0000 C   0  0  0  0  0  0           0  0  0
    0.8667    0.7583    0.0000 C   0  0  0  0  0  0           0  0  0
    3.1542   -0.1417    0.0000 N   0  0  3  0  0  0           0  0  0
    6.9542   -1.4917    0.0000 N   0  0  0  0  0  0           0  0  0
    1.7542   -0.4667    0.0000 C   0  0  0  0  0  0           0  0  0
    2.1917    0.9083    0.0000 C   0  0  0  0  0  0           0  0  0
    4.8167   -0.2542    0.0000 O   0  0  0  0  0  0           0  0  0
    0.8667    1.5833    0.0000 C   0  0  0  0  0  0           0  0  0
    5.5292   -1.4917    0.0000 N   0  0  0  0  0  0           0  0  0
    5.5292    0.9833    0.0000 N   0  0  0  0  0  0           0  0  0
    2.9667    0.6583    0.0000 C   0  0  0  0  0  0           0  0  0
    2.5417   -0.7042    0.0000 C   0  0  0  0  0  0           0  0  0
    6.9542    0.1583    0.0000 C   0  0  0  0  0  0           0  0  0
    1.5792    2.0083    0.0000 O   0  0  0  0  0  0           0  0  0
    3.9667   -0.5667    0.0000 C   0  0  0  0  0  0           0  0  0
    3.9542   -1.4792    0.0000 C   0  0  0  0  0  0           0  0  0
    0.1542    0.3458    0.0000 C   0  0  0  0  0  0           0  0  0
    7.6667   -1.0792    0.0000 C   0  0  0  0  0  0           0  0  0
    4.7417   -1.9417    0.0000 C   0  0  0  0  0  0           0  0  0
    0.1542    1.9958    0.0000 C   0  0  0  0  0  0           0  0  0
    2.2917    1.5958    0.0000 C   0  0  0  0  0  0           0  0  0
    7.6667   -0.2542    0.0000 C   0  0  0  0  0  0           0  0  0
   -0.5583    0.7583    0.0000 C   0  0  0  0  0  0           0  0  0
   -0.5583    1.5833    0.0000 C   0  0  0  0  0  0           0  0  0
  2  8  1  0     0  0
  3  1  1  0     0  0
  4  1  2  0     0  0
  5  2  1  0     0  0
  6 18  1  0     0  0
  7  4  1  0     0  0
  8 15  1  0     0  0
  9 14  1  0     0  0
 10  3  2  0     0  0
 11  5  1  0     0  0
 12  4  1  0     0  0
 13  3  1  0     0  0
 14  6  1  0     0  0
 15  6  1  0     0  0
 16  1  1  0     0  0
 17 11  1  0     0  0
 18 19  1  0     0  0
 19 22  1  0     0  0
 20  5  2  0     0  0
 21 25  1  0     0  0
 22 12  1  0     0  0
 23 11  2  0     0  0
 24 17  1  0     0  0
 25 16  2  0     0  0
 26 20  1  0     0  0
 27 26  2  0     0  0
 21  7  2  0     0  0
  2  9  1  0     0  0
 27 23  1  0     0  0
M  END