
  SciTegic04191616232D

 81 86  0  0  0  0            999 V2000
    2.8618    4.7061    0.0000 N   0  0
    1.4860    5.3037    0.0000 C   0  0
    0.0000    5.5080    0.0000 C   0  0  1  0  0  0
   -1.4861    5.3037    0.0000 N   0  0
   -2.8619    4.7061    0.0000 C   0  0
   -4.0254    3.7595    0.0000 C   0  0  1  0  0  0
    1.8098    6.4592    0.0000 O   0  0
    0.0029    7.0195    0.0000 C   0  0
    1.3036    7.7682    0.0000 C   0  0
    1.3066    9.2690    0.0000 C   0  0
    2.6073   10.0177    0.0000 N   0  0
    2.6103   11.5185    0.0000 C   0  0
    3.6503   12.1171    0.0000 N   0  0
    1.5720   12.1202    0.0000 N   0  0
   -3.4854    5.7314    0.0000 O   0  0
   -5.1281    4.7933    0.0000 C   0  0
   -4.8904    2.5340    0.0000 N   0  0
   -5.3928    1.1206    0.0000 C   0  0
   -5.4951   -0.3759    0.0000 C   0  0  1  0  0  0
   -6.5677    1.3647    0.0000 O   0  0
   -5.1899   -1.8445    0.0000 N   0  0
   -7.0033   -0.4761    0.0000 C   0  0
   -7.8390    0.7705    0.0000 C   0  0
   -9.3257    0.8120    0.0000 C   0  0
   -9.7321    2.2559    0.0000 N   0  0
   -8.4845    3.0886    0.0000 C   0  0
   -7.3070    2.1594    0.0000 N   0  0
   -4.4998   -3.1763    0.0000 C   0  0
   -3.4760   -4.2726    0.0000 C   0  0  2  0  0  0
   -5.4802   -3.8684    0.0000 O   0  0
   -2.1944   -5.0520    0.0000 C   0  0
   -4.4322   -5.4433    0.0000 N   0  0
   -5.9137   -5.2031    0.0000 C   0  0
   -6.8631   -6.3655    0.0000 C   0  0  2  0  0  0
   -6.3393   -4.0812    0.0000 O   0  0
   -6.3336   -7.7698    0.0000 N   0  0
   -8.3446   -6.1254    0.0000 C   0  0
   -7.2844   -8.9311    0.0000 C   0  0
   -6.8610  -10.0540    0.0000 O   0  0
   -8.4685   -8.7367    0.0000 C   0  0
   -9.2940   -7.2877    0.0000 C   0  0
  -10.7755   -7.0476    0.0000 C   0  0
  -11.5347   -7.9770    0.0000 C   0  0
    4.0254    3.7595    0.0000 C   0  0  1  0  0  0
    5.1281    4.7933    0.0000 C   0  0
    4.8904    2.5340    0.0000 C   0  0
    5.9559    3.0861    0.0000 O   0  0
    5.3928    1.1206    0.0000 N   0  0
    5.4951   -0.3759    0.0000 C   0  0  2  0  0  0
    7.0029   -0.4820    0.0000 C   0  0
    5.1899   -1.8445    0.0000 C   0  0
    7.5292   -1.5604    0.0000 O   0  0
    7.6741    0.5128    0.0000 N   0  0
    4.7874    6.2550    0.0000 C   0  0
    3.5356    8.2858    0.0000 N   0  0
    5.7674    7.3654    0.0000 C   0  0
    4.9863    8.6401    0.0000 C   0  0
    5.6900    9.9693    0.0000 C   0  0
    7.2093   10.0023    0.0000 C   0  0
    7.9904    8.7275    0.0000 C   0  0
    7.2712    7.3888    0.0000 C   0  0
   -0.7500   -5.4567    0.0000 C   0  0
   -0.9134   -6.6455    0.0000 O   0  0
    0.7500   -5.4567    0.0000 N   0  0
    4.4998   -3.1763    0.0000 C   0  0
    3.4760   -4.2726    0.0000 C   0  0
    2.1944   -5.0520    0.0000 C   0  0
   -4.7875    6.2550    0.0000 C   0  0
   -5.8782    7.2810    0.0000 C   0  0
   -5.5215    8.7513    0.0000 C   0  0
   -3.3421    6.6976    0.0000 C   0  0
   -2.9978    8.1546    0.0000 C   0  0
   -4.0876    9.1814    0.0000 C   0  0
   -3.7433   10.6383    0.0000 C   0  0
   -2.3094   11.0685    0.0000 C   0  0
   -1.2197   10.0416    0.0000 C   0  0
   -1.5639    8.5847    0.0000 C   0  0
    3.4085    6.8181    0.0000 C   0  0
    3.4853    5.7314    0.0000 C   0  0
    6.5677    1.3648    0.0000 C   0  0
   -6.3206   -2.2464    0.0000 C   0  0
  1  2  1  0
  2  3  1  0
  3  4  1  0
  4  5  1  0
  5  6  1  0
  2  7  2  0
  3  8  1  1
  8  9  1  0
  9 10  1  0
 10 11  1  0
 11 12  1  0
 12 13  2  0
 12 14  1  0
  5 15  2  0
  6 16  1  6
  6 17  1  0
 17 18  1  0
 18 19  1  0
 18 20  2  0
 19 21  1  0
 19 22  1  1
 22 23  1  0
 23 24  2  0
 24 25  1  0
 25 26  2  0
 26 27  1  0
 27 23  1  0
 21 28  1  0
 28 29  1  0
 28 30  2  0
 29 31  1  0
 29 32  1  6
 32 33  1  0
 33 34  1  0
 33 35  2  0
 34 36  1  6
 34 37  1  0
 36 38  1  0
 38 39  2  0
 38 40  1  0
 37 41  1  0
 41 42  1  0
 42 43  1  0
  1 44  1  0
 44 45  1  1
 44 46  1  0
 46 47  2  0
 46 48  1  0
 48 49  1  0
 49 50  1  6
 49 51  1  0
 50 52  2  0
 50 53  1  0
 45 54  1  0
 54 78  2  0
 78 55  1  0
 55 57  1  0
 56 54  1  0
 56 57  2  0
 57 58  1  0
 58 59  2  0
 59 60  1  0
 60 61  2  0
 61 56  1  0
 31 62  1  0
 62 63  2  0
 62 64  1  0
 51 65  1  0
 65 66  1  0
 66 67  1  0
 67 64  1  0
 16 68  1  0
 68 69  2  0
 69 70  1  0
 70 73  2  0
 72 71  2  0
 71 68  1  0
 72 73  1  0
 73 74  1  0
 74 75  2  0
 75 76  1  0
 76 77  2  0
 77 72  1  0
  1 79  1  0
 48 80  1  0
 21 81  1  0
M  END