
          11280714552D 1   1.00000     0.00000     0

 31 34  0     1  0            999 V2000
    5.3125   -5.1875    0.0000 S   0  0  0  0  0  0           0  0  0
    5.3125   -3.5292    0.0000 C   0  0  2  0  0  0           0  0  0
    4.6000   -3.9417    0.0000 C   0  0  0  0  0  0           0  0  0
    4.6000   -4.7667    0.0000 C   0  0  0  0  0  0           0  0  0
   10.3167   -4.7875    0.0000 C   0  0  0  0  0  0           0  0  0
    6.0292   -3.9417    0.0000 C   0  0  0  0  0  0           0  0  0
    6.0292   -4.7750    0.0000 C   0  0  2  0  0  0           0  0  0
   11.0167   -5.2042    0.0000 C   0  0  0  0  0  0           0  0  0
   10.3125   -3.9667    0.0000 C   0  0  0  0  0  0           0  0  0
    5.3125   -2.7042    0.0000 C   0  0  0  0  0  0           0  0  0
    9.6000   -5.1917    0.0000 O   0  0  0  0  0  0           0  0  0
    7.4625   -4.7792    0.0000 N   0  0  0  0  0  0           0  0  0
   11.0167   -6.0292    0.0000 O   0  0  0  0  0  0           0  0  0
    9.6000   -3.5542    0.0000 O   0  0  0  0  0  0           0  0  0
    3.8875   -3.5292    0.0000 C   0  0  0  0  0  0           0  0  0
    3.8875   -5.1875    0.0000 C   0  0  0  0  0  0           0  0  0
    6.7417   -5.1875    0.0000 C   0  0  0  0  0  0           0  0  0
   11.7500   -3.9667    0.0000 C   0  0  0  0  0  0           0  0  0
   11.7417   -4.7917    0.0000 C   0  0  0  0  0  0           0  0  0
   11.0167   -3.5542    0.0000 C   0  0  0  0  0  0           0  0  0
    6.0292   -2.2917    0.0000 C   0  0  0  0  0  0           0  0  0
    4.6000   -2.2917    0.0000 C   0  0  0  0  0  0           0  0  0
    8.1750   -5.1917    0.0000 C   0  0  0  0  0  0           0  0  0
    8.8875   -4.7792    0.0000 C   0  0  0  0  0  0           0  0  0
   10.3042   -6.4375    0.0000 C   0  0  0  0  0  0           0  0  0
    9.6000   -2.7292    0.0000 C   0  0  0  0  0  0           0  0  0
    3.1750   -3.9500    0.0000 C   0  0  0  0  0  0           0  0  0
    3.1750   -4.7750    0.0000 C   0  0  0  0  0  0           0  0  0
    4.6000   -1.4750    0.0000 C   0  0  0  0  0  0           0  0  0
    6.0292   -1.4667    0.0000 C   0  0  0  0  0  0           0  0  0
    5.3167   -1.0542    0.0000 C   0  0  0  0  0  0           0  0  0
  2  6  1  0     0  0
  3  4  1  0     0  0
  4  1  1  0     0  0
  5 11  1  0     0  0
  6  7  1  0     0  0
  7  1  1  0     0  0
  8  5  2  0     0  0
  9  5  1  0     0  0
  2 10  1  1     0  0
 11 24  1  0     0  0
 12 17  1  0     0  0
 13  8  1  0     0  0
 14  9  1  0     0  0
 15  3  2  0     0  0
 16  4  2  0     0  0
  7 17  1  6     0  0
 18 20  1  0     0  0
 19  8  1  0     0  0
 20  9  2  0     0  0
 21 10  2  0     0  0
 22 10  1  0     0  0
 23 12  1  0     0  0
 24 23  1  0     0  0
 25 13  1  0     0  0
 26 14  1  0     0  0
 27 28  2  0     0  0
 28 16  1  0     0  0
 29 22  2  0     0  0
 30 21  1  0     0  0
 31 29  1  0     0  0
  2  3  1  0     0  0
 27 15  1  0     0  0
 31 30  2  0     0  0
 18 19  2  0     0  0
M  END