
  SciTegic12161611442D

 33 37  0  0  0  0            999 V2000
   -1.0028    1.5132    0.0000 C   0  0
   -2.3155    0.7475    0.0000 C   0  0
   -2.3155   -0.7475    0.0000 C   0  0
   -1.0028   -1.5132    0.0000 C   0  0
    0.2917    0.7475    0.0000 C   0  0
    0.2917   -0.7475    0.0000 C   0  0
    1.7138   -1.2033    0.0000 N   0  0
    2.5889    0.0182    0.0000 C   0  0
    1.7138    1.2033    0.0000 N   0  0
   -3.6168    1.4950    0.0000 C   0  0
   -4.9669    0.8708    0.0000 C   0  0
   -5.9732    1.9832    0.0000 N   0  0
   -5.2262    3.2840    0.0000 O   0  0
   -3.7582    2.9755    0.0000 C   0  0
    4.0872    0.0382    0.0000 C   0  0
    4.8208    1.3475    0.0000 C   0  0
    6.3215    1.3677    0.0000 C   0  0
    7.0567    2.6752    0.0000 C   0  0
    8.5566    2.6924    0.0000 C   0  0
    9.3214    1.4020    0.0000 C   0  0
    8.5863    0.0945    0.0000 C   0  0
    7.0864    0.0773    0.0000 C   0  0
    2.1855   -2.6254    0.0000 C   0  0
    3.6552   -2.9294    0.0000 C   0  0  1  0  0  0
    4.1277   -4.3539    0.0000 N   0  0
    5.5962   -4.6599    0.0000 C   0  0
    6.0655   -6.0846    0.0000 C   0  0
    5.0663   -7.2034    0.0000 O   0  0
    3.5978   -6.8975    0.0000 C   0  0
    3.1285   -5.4728    0.0000 C   0  0
    4.4530   -2.0330    0.0000 C   0  0
   -2.8636    3.7752    0.0000 C   0  0
   -5.2067   -0.3050    0.0000 C   0  0
  5  1  1  0
  1  2  2  0
  2  3  1  0
  3  4  2  0
  4  6  1  0
  5  6  2  0
  6  7  1  0
  7  8  1  0
  8  9  2  0
  9  5  1  0
 10 11  1  0
 11 12  2  0
 12 13  1  0
 13 14  1  0
 14 10  2  0
  2 10  1  0
  8 15  1  0
 15 16  1  0
 16 17  1  0
 17 18  2  0
 18 19  1  0
 19 20  2  0
 20 21  1  0
 21 22  2  0
 22 17  1  0
  7 23  1  0
 23 24  1  0
 24 25  1  0
 25 26  1  0
 25 30  1  0
 26 27  1  0
 27 28  1  0
 28 29  1  0
 29 30  1  0
 24 31  1  6
 14 32  1  0
 11 33  1  0
M  END