
          03140815512D 1   1.00000     0.00000     0

 16 17  0     0  0            999 V2000
    3.1167    1.0708    0.0000 C   0  0  0  0  0  0           0  0  0
    3.1167    0.2458    0.0000 N   0  0  3  0  0  0           0  0  0
    3.8287   -0.1625    0.0000 C   0  0  0  0  0  0           0  0  0
    4.5407    0.2458    0.0000 C   0  0  0  0  0  0           0  0  0
    4.5407    1.0708    0.0000 O   0  0  0  0  0  0           0  0  0
    3.8287    1.4875    0.0000 C   0  0  0  0  0  0           0  0  0
    2.4028   -0.1677    0.0000 C   0  0  0  0  0  0           0  0  0
    1.6877    0.2438    0.0000 O   0  0  0  0  0  0           0  0  0
    2.4040   -0.9927    0.0000 C   0  0  0  0  0  0           0  0  0
    1.6901   -1.4062    0.0000 C   0  0  0  0  0  0           0  0  0
    1.6913   -2.2312    0.0000 C   0  0  0  0  0  0           0  0  0
    0.9771   -2.6422    0.0000 C   0  0  0  0  0  0           0  0  0
    0.9779   -3.4664    0.0000 C   0  0  0  0  0  0           0  0  0
    1.6935   -3.8787    0.0000 C   0  0  0  0  0  0           0  0  0
    2.4098   -3.4607    0.0000 C   0  0  0  0  0  0           0  0  0
    2.4054   -2.6379    0.0000 C   0  0  0  0  0  0           0  0  0
  7  8  2  0     0  0
  1  6  1  0     0  0
  7  9  1  0     0  0
  2  3  1  0     0  0
  9 10  1  0     0  0
  3  4  1  0     0  0
 10 11  1  0     0  0
  4  5  1  0     0  0
 11 12  2  0     0  0
  5  6  1  0     0  0
 12 13  1  0     0  0
 13 14  2  0     0  0
  2  7  1  0     0  0
 14 15  1  0     0  0
  1  2  1  0     0  0
 15 16  2  0     0  0
 16 11  1  0     0  0
M  END