
  SciTegic06051313552D

 38 42  0  0  0  0            999 V2000
    3.1023   -4.0612    0.0000 C   0  0
    3.1011   -4.8807    0.0000 C   0  0
    3.8092   -5.2897    0.0000 C   0  0
    3.8074   -3.6523    0.0000 C   0  0
    5.2998   -3.8015    0.0000 C   0  0
    4.5160   -4.0576    0.0000 C   0  0
    4.5185   -4.8828    0.0000 C   0  0
    5.3049   -5.1341    0.0000 N   0  0
    5.7856   -4.4633    0.0000 N   0  0
    5.5618   -5.9098    0.0000 C   0  0
    5.1435   -6.6109    0.0000 C   0  0
    4.3287   -6.5964    0.0000 C   0  0
    3.9097   -7.2971    0.0000 C   0  0
    4.3079   -8.0118    0.0000 C   0  0
    5.1292   -8.0213    0.0000 C   0  0
    5.5445   -7.3199    0.0000 C   0  0
    5.5298   -8.7335    0.0000 C   0  0
    5.1133   -9.4366    0.0000 N   0  0
    5.5139  -10.1489    0.0000 C   0  0
    5.7214   -3.1015    0.0000 N   0  0
    6.5385   -3.1167    0.0000 S   0  0
    7.0251   -3.7731    0.0000 C   0  0
    6.5110   -2.2929    0.0000 O   0  0
    7.3199   -2.8735    0.0000 O   0  0
    6.7801   -4.5547    0.0000 C   0  0
    7.4463   -5.0294    0.0000 C   0  0
    8.1030   -4.5411    0.0000 C   0  0
    7.8404   -3.7663    0.0000 S   0  0
    8.8832   -4.7844    0.0000 Cl  0  0
    3.8007   -2.8392    0.0000 O   0  0
    3.0897   -2.4364    0.0000 C   0  0
    6.3311  -10.1581    0.0000 O   0  0
    5.0974  -10.8519    0.0000 C   0  0  2  0  0  0
    4.2809  -10.8405    0.0000 C   0  0
    3.8645  -11.5395    0.0000 C   0  0
    4.2616  -12.2541    0.0000 C   0  0
    5.0797  -12.2653    0.0000 C   0  0
    5.5007  -11.5619    0.0000 N   0  0
  1  2  2  0
  2  3  1  0
  3  7  2  0
  6  4  2  0
  4  1  1  0
  6  7  1  0
  5  6  1  0
  7  8  1  0
  8  9  1  0
  9  5  2  0
  8 10  1  0
 10 11  1  0
 11 12  2  0
 12 13  1  0
 13 14  2  0
 14 15  1  0
 15 16  2  0
 16 11  1  0
 15 17  1  0
 17 18  1  0
 18 19  1  0
  5 20  1  0
 20 21  1  0
 21 22  1  0
 21 23  2  0
 21 24  2  0
 25 26  1  0
 22 25  2  0
 26 27  2  0
 27 28  1  0
 28 22  1  0
 27 29  1  0
  4 30  1  0
 30 31  1  0
 19 32  2  0
 33 19  1  1
 33 34  1  0
 33 38  1  0
 34 35  1  0
 35 36  1  0
 36 37  1  0
 37 38  1  0
M  END