
          11280715252D 1   1.00000     0.00000     0

 19 21  0     0  0            999 V2000
    1.5917   -3.0042    0.0000 C   0  0  0  0  0  0           0  0  0
    1.1042   -3.6667    0.0000 N   0  0  0  0  0  0           0  0  0
    2.4167   -3.0125    0.0000 C   0  0  0  0  0  0           0  0  0
    1.1042   -2.3375    0.0000 C   0  0  0  0  0  0           0  0  0
    2.8292   -2.2917    0.0000 N   0  0  3  0  0  0           0  0  0
    0.3250   -2.5917    0.0000 C   0  0  0  0  0  0           0  0  0
    0.3250   -3.4167    0.0000 C   0  0  0  0  0  0           0  0  0
    3.6542   -0.8625    0.0000 N   0  0  3  0  0  0           0  0  0
    2.8292   -3.7250    0.0000 O   0  0  0  0  0  0           0  0  0
   -0.3875   -2.1792    0.0000 C   0  0  0  0  0  0           0  0  0
    3.6542   -2.2917    0.0000 C   0  0  0  0  0  0           0  0  0
    2.4167   -1.5792    0.0000 C   0  0  0  0  0  0           0  0  0
   -0.3875   -3.8292    0.0000 C   0  0  0  0  0  0           0  0  0
    2.8292   -0.8625    0.0000 C   0  0  0  0  0  0           0  0  0
    4.0667   -1.5792    0.0000 C   0  0  0  0  0  0           0  0  0
   -1.1083   -2.5917    0.0000 C   0  0  0  0  0  0           0  0  0
   -1.1083   -3.4167    0.0000 C   0  0  0  0  0  0           0  0  0
   -1.8208   -2.1792    0.0000 O   0  0  0  0  0  0           0  0  0
    4.0750   -0.1375    0.0000 C   0  0  0  0  0  0           0  0  0
  2  1  1  0     0  0
  3  1  1  0     0  0
  4  1  2  0     0  0
  5  3  1  0     0  0
  6  4  1  0     0  0
  7  2  1  0     0  0
  8 14  1  0     0  0
  9  3  2  0     0  0
 10  6  2  0     0  0
 11  5  1  0     0  0
 12  5  1  0     0  0
 13  7  2  0     0  0
 14 12  1  0     0  0
 15 11  1  0     0  0
 16 10  1  0     0  0
 17 13  1  0     0  0
 18 16  1  0     0  0
 19  8  1  0     0  0
  7  6  1  0     0  0
  8 15  1  0     0  0
 17 16  2  0     0  0
M  END