
  Mrv0541 04051115152D          

 13 14  0  0  0  0            999 V2000
    0.9723   -2.0598    0.0000 Br  0  0  0  0  0  0  0  0  0  0  0  0
    0.9723   -1.2348    0.0000 C   0  0  0  0  0  0  0  0  0  0  0  0
    1.6867   -0.8223    0.0000 C   0  0  0  0  0  0  0  0  0  0  0  0
    2.4012   -1.2348    0.0000 Br  0  0  0  0  0  0  0  0  0  0  0  0
    0.2578   -0.8223    0.0000 C   0  0  0  0  0  0  0  0  0  0  0  0
   -0.5268   -1.0773    0.0000 N   0  0  0  0  0  0  0  0  0  0  0  0
   -1.0118   -0.4098    0.0000 C   0  0  0  0  0  0  0  0  0  0  0  0
   -0.5268    0.2576    0.0000 N   0  0  0  0  0  0  0  0  0  0  0  0
    0.2578    0.0027    0.0000 C   0  0  0  0  0  0  0  0  0  0  0  0
    0.9723    0.4152    0.0000 C   0  0  0  0  0  0  0  0  0  0  0  0
    0.9723    1.2402    0.0000 Br  0  0  0  0  0  0  0  0  0  0  0  0
    1.6867    0.0027    0.0000 C   0  0  0  0  0  0  0  0  0  0  0  0
    2.4012    0.4152    0.0000 Br  0  0  0  0  0  0  0  0  0  0  0  0
  1  2  1  0  0  0  0
  3  2  2  0  0  0  0
  2  5  1  0  0  0  0
 12  3  1  0  0  0  0
  4  3  1  0  0  0  0
  9  5  2  0  0  0  0
  5  6  1  0  0  0  0
  7  6  1  0  0  0  0
  7  8  2  0  0  0  0
  9  8  1  0  0  0  0
 10  9  1  0  0  0  0
 11 10  1  0  0  0  0
 12 10  2  0  0  0  0
 13 12  1  0  0  0  0
M  END