
  SciTegic10311316212D

 46 51  0  0  0  0            999 V2000
   15.3938   -2.6341    0.0000 C   0  0
   15.3942   -3.4560    0.0000 C   0  0
   16.1044   -3.8640    0.0000 C   0  0
   16.8119   -3.4554    0.0000 C   0  0
   16.8119   -2.6341    0.0000 C   0  0
   16.1018   -2.2255    0.0000 C   0  0
   17.5320   -3.8640    0.0000 C   0  0  1  0  0  0
   18.2340   -3.4554    0.0000 C   0  0  2  0  0  0
   18.2340   -2.6341    0.0000 C   0  0
   17.5320   -2.2255    0.0000 C   0  0
   18.8783   -3.9588    0.0000 C   0  0
   19.6727   -3.7830    0.0000 C   0  0
   20.0294   -3.0468    0.0000 C   0  0
   19.6727   -2.3066    0.0000 C   0  0  1  0  0  0
   18.8783   -2.1214    0.0000 C   0  0
   20.1368   -4.4616    0.0000 C   0  0
   20.9502   -4.3990    0.0000 C   0  0
   21.3111   -3.6629    0.0000 C   0  0
   20.8429   -2.9811    0.0000 C   0  0
   17.5320   -4.6853    0.0000 O   0  0
   17.5320   -1.4042    0.0000 O   0  0
   16.1018   -1.4042    0.0000 O   0  0
   14.6810   -3.8646    0.0000 C   0  0
   18.6963   -1.3222    0.0000 O   0  0
   16.8252   -5.0967    0.0000 C   0  0
   16.8252   -5.9152    0.0000 O   0  0
   16.1132   -4.6847    0.0000 C   0  0
   19.0732   -3.5172    0.0000 C   0  0
   19.6561   -3.0483    0.0000 C   0  0
   20.1796   -1.6639    0.0000 H   0  0
   22.1290   -3.5995    0.0000 C   0  0
   21.1996   -2.2438    0.0000 O   0  0
   22.5910   -4.2759    0.0000 C   0  0
   22.4848   -2.8637    0.0000 O   0  0
   22.2352   -5.0158    0.0000 C   0  0
   22.6973   -5.6923    0.0000 C   0  0
   23.5152   -5.6330    0.0000 C   0  0
   23.8710   -4.8931    0.0000 C   0  0
   23.4089   -4.2166    0.0000 C   0  0
   24.6888   -4.8338    0.0000 O   0  0
   23.7647   -3.4767    0.0000 C   0  0
   23.3027   -2.8003    0.0000 O   0  0
   24.5826   -3.4174    0.0000 O   0  0
   24.9253   -2.6735    0.0000 C   0  0
   21.7381   -4.6060    0.0000 O   0  0
   21.4204   -5.0775    0.0000 O   0  0
  1  2  2  0
  2  3  1  0
  3  4  2  0
  4  5  1  0
  5  6  2  0
  6  1  1  0
  4  7  1  0
  7  8  1  0
  8  9  1  0
  9 10  2  0
 10  5  1  0
  8 11  1  0
 11 12  1  0
 12 13  2  0
 13 14  1  0
 14 15  1  0
 15  9  1  0
 12 16  1  0
 16 17  2  0
 17 18  1  0
 18 19  2  0
 19 13  1  0
  7 20  1  1
 10 21  1  0
  6 22  1  0
  2 23  1  0
 15 24  2  0
 20 25  1  0
 25 26  2  0
 25 27  1  0
  8 28  1  1
 14 29  1  0
 28 29  2  0
 14 30  1  1
 31 18  1  0
 19 32  1  0
 31 33  1  0
 31 34  2  0
 33 35  2  0
 35 36  1  0
 36 37  2  0
 37 38  1  0
 38 39  2  0
 39 33  1  0
 38 40  1  0
 39 41  1  0
 41 42  2  0
 41 43  1  0
 43 44  1  0
 17 45  1  0
 35 46  1  0
M  END