
  SciTegic09261414532D

 46 49  0  0  0  0            999 V2000
   22.8995  -23.5113    0.0000 C   0  0
   23.5404  -24.0156    0.0000 N   0  0
   24.2181  -23.5618    0.0000 C   0  0
   23.9959  -22.7771    0.0000 C   0  0
   23.1810  -22.7460    0.0000 C   0  0
   22.7279  -22.0710    0.0000 C   0  0
   23.0903  -21.3373    0.0000 C   0  0
   22.6363  -20.6587    0.0000 C   0  0
   21.8200  -20.7126    0.0000 C   0  0
   21.4598  -21.4509    0.0000 C   0  0
   21.9160  -22.1264    0.0000 C   0  0
   22.1155  -23.7349    0.0000 C   0  0
   21.5298  -23.1635    0.0000 C   0  0
   20.7441  -23.3856    0.0000 C   0  0
   20.5431  -24.1786    0.0000 C   0  0
   21.1338  -24.7493    0.0000 C   0  0
   21.9173  -24.5243    0.0000 C   0  0
   24.5012  -22.1348    0.0000 C   0  0
   25.3100  -22.2512    0.0000 N   0  0
   24.1975  -21.3761    0.0000 O   0  0
   25.8153  -21.6089    0.0000 C   0  0
   26.6220  -21.7273    0.0000 C   0  0
   27.1271  -21.0858    0.0000 C   0  0
   26.8235  -20.3261    0.0000 C   0  0
   26.0101  -20.2117    0.0000 C   0  0
   25.5086  -20.8543    0.0000 C   0  0
   24.9850  -23.8439    0.0000 C   0  0
   25.1242  -24.6492    0.0000 C   0  0
   25.6128  -23.3208    0.0000 C   0  0
   23.5091  -24.8322    0.0000 C   0  0
   24.2007  -25.2675    0.0000 C   0  0
   24.1694  -26.0841    0.0000 C   0  0  2  0  0  0
   24.8610  -26.5195    0.0000 C   0  0
   23.4466  -26.4653    0.0000 O   0  0
   25.5838  -26.1383    0.0000 C   0  0  2  0  0  0
   26.2753  -26.5737    0.0000 C   0  0
   25.6151  -25.3217    0.0000 O   0  0
   26.9982  -26.1925    0.0000 C   0  0
   27.6897  -26.6278    0.0000 N   0  0
   27.0295  -25.3759    0.0000 O   0  0
   19.7571  -24.4022    0.0000 F   0  0
   27.6585  -27.4444    0.0000 C   0  0
   26.9356  -27.8257    0.0000 C   0  0
   26.9044  -28.6422    0.0000 N   0  0
   26.1815  -29.0235    0.0000 C   0  0
   27.5959  -29.0776    0.0000 C   0  0
  1  2  1  0
  2  3  1  0
  3  4  2  0
  4  5  1  0
  5  1  2  0
  6  7  2  0
  7  8  1  0
  8  9  2  0
  9 10  1  0
 10 11  2  0
 11  6  1  0
  5  6  1  0
 12 13  2  0
 13 14  1  0
 14 15  2  0
 15 16  1  0
 16 17  2  0
 17 12  1  0
  1 12  1  0
  4 18  1  0
 18 19  1  0
 18 20  2  0
 19 21  1  0
 21 22  2  0
 22 23  1  0
 23 24  2  0
 24 25  1  0
 25 26  2  0
 26 21  1  0
  3 27  1  0
 27 28  1  0
 27 29  1  0
  2 30  1  0
 30 31  1  0
 31 32  1  0
 32 33  1  0
 32 34  1  6
 33 35  1  0
 35 36  1  0
 35 37  1  1
 36 38  1  0
 38 39  1  0
 38 40  2  0
 15 41  1  0
 39 42  1  0
 42 43  1  0
 43 44  1  0
 44 45  1  0
 44 46  1  0
M  END