
          11280715362D 1   1.00000     0.00000     0

 36 39  0     1  0            999 V2000
    0.8000   -3.5875    0.0000 C   0  0  1  0  0  0           0  0  0
    0.8417   -2.7625    0.0000 C   0  0  2  0  0  0           0  0  0
    1.4417   -4.1000    0.0000 N   0  0  3  0  0  0           0  0  0
    0.0042   -3.8000    0.0000 C   0  0  0  0  0  0           0  0  0
    3.7542   -1.0750    0.0000 C   0  0  0  0  0  0           0  0  0
    0.0750   -2.4667    0.0000 C   0  0  2  0  0  0           0  0  0
    2.9292   -1.0875    0.0000 C   0  0  0  0  0  0           0  0  0
    5.2292   -3.5375    0.0000 C   0  0  0  0  0  0           0  0  0
   -0.1333   -1.6667    0.0000 O   0  0  0  0  0  0           0  0  0
    5.4042   -1.0625    0.0000 N   0  0  0  0  0  0           0  0  0
   -0.4458   -3.1125    0.0000 C   0  0  0  0  0  0           0  0  0
    4.1542   -0.3625    0.0000 C   0  0  0  0  0  0           0  0  0
    5.0625   -4.3417    0.0000 O   0  0  0  0  0  0           0  0  0
    2.5042   -0.3667    0.0000 C   0  0  0  0  0  0           0  0  0
    2.5167   -1.8000    0.0000 C   0  0  0  0  0  0           0  0  0
    2.6792   -2.4917    0.0000 C   0  0  0  0  0  0           0  0  0
    3.4917   -2.7125    0.0000 C   0  0  0  0  0  0           0  0  0
    1.5375   -2.3167    0.0000 O   0  0  0  0  0  0           0  0  0
    0.4542   -1.0875    0.0000 C   0  0  0  0  0  0           0  0  0
    1.2792   -1.0917    0.0000 C   0  0  0  0  0  0           0  0  0
    6.0042   -3.2750    0.0000 O   0  0  0  0  0  0           0  0  0
    1.6917   -1.8125    0.0000 C   0  0  0  0  0  0           0  0  0
    1.6792   -0.3750    0.0000 C   0  0  0  0  0  0           0  0  0
    2.1792   -3.7625    0.0000 C   0  0  0  0  0  0           0  0  0
    1.2542   -4.9125    0.0000 C   0  0  0  0  0  0           0  0  0
    4.9792   -0.3500    0.0000 C   0  0  0  0  0  0           0  0  0
    4.1667   -1.7875    0.0000 C   0  0  0  0  0  0           0  0  0
    2.1500   -2.8042    0.0000 C   0  0  0  0  0  0           0  0  0
    4.6167   -2.9917    0.0000 C   0  0  0  0  0  0           0  0  0
    4.9917   -1.7875    0.0000 C   0  0  0  0  0  0           0  0  0
    3.8667   -3.2417    0.0000 C   0  0  0  0  0  0           0  0  0
    3.8292    0.3958    0.0000 C   0  0  0  0  0  0           0  0  0
    1.7625   -5.5625    0.0000 C   0  0  0  0  0  0           0  0  0
    2.9292   -4.1250    0.0000 C   0  0  0  0  0  0           0  0  0
    2.5917   -5.5667    0.0000 C   0  0  0  0  0  0           0  0  0
    3.1042   -4.9250    0.0000 C   0  0  0  0  0  0           0  0  0
  2  1  1  0     0  0
  1  3  1  1     0  0
  4  1  1  0     0  0
  5  7  1  0     0  0
  6  2  1  0     0  0
  7 14  1  0     0  0
  8 29  1  0     0  0
  6  9  1  1     0  0
 10 30  2  0     0  0
 11  4  1  0     0  0
 12  5  1  0     0  0
 13  8  2  0     0  0
 14 23  2  0     0  0
 15 22  1  0     0  0
 16 28  1  0     0  0
 17 16  2  0     0  0
  2 18  1  6     0  0
 19  9  1  0     0  0
 20 19  1  0     0  0
 21  8  1  0     0  0
 22 20  2  0     0  0
 23 20  1  0     0  0
 24  3  1  0     0  0
 25  3  1  0     0  0
 26 12  2  0     0  0
 27  5  2  0     0  0
 28 18  1  0     0  0
 29 31  1  0     0  0
 30 27  1  0     0  0
 31 17  1  0     0  0
 32 12  1  0     0  0
 33 25  1  0     0  0
 34 24  1  0     0  0
 35 33  1  0     0  0
 36 34  1  0     0  0
 11  6  1  0     0  0
 35 36  1  0     0  0
  7 15  2  0     0  0
 26 10  1  0     0  0
M  END