
  SciTegic12231509382D

 24 25  0  0  0  0            999 V2000
    2.5989   -1.5004    0.0000 C   0  0
    2.5954   -3.0013    0.0000 C   0  0
    3.6334   -3.6033    0.0000 O   0  0
    3.8990   -0.7507    0.0000 C   0  0
    1.2990   -0.7500    0.0000 C   0  0
    1.2944   -3.7495    0.0000 O   0  0
   -0.0135   -7.4994    0.0000 N   0  0
    1.2909   -5.2503    0.0000 C   0  0
    3.6372   -2.1019    0.0000 C   0  0
   -0.0101   -5.9986    0.0000 C   0  0
    1.2990    0.7500    0.0000 C   0  0
    0.0000   -1.5000    0.0000 C   0  0
    5.1977   -1.5014    0.0000 C   0  0
    3.8998    0.7493    0.0000 C   0  0
   -1.3145   -8.2476    0.0000 C   0  0
    1.2832   -8.2551    0.0000 C   0  0
   -1.3173   -9.4476    0.0000 C   0  0
    1.2791   -9.4550    0.0000 C   0  0
   -1.2990   -0.7500    0.0000 C   0  0
    6.4971   -0.7521    0.0000 C   0  0
    5.1992    1.4986    0.0000 C   0  0
    0.0000    1.5000    0.0000 C   0  0
    6.4979    0.7479    0.0000 C   0  0
   -1.2990    0.7500    0.0000 C   0  0
  1  2  1  0
  2  3  2  0
  1  4  1  0
  1  5  1  0
  2  6  1  0
  6  8  1  0
  1  9  1  0
  7 10  1  0
  8 10  1  0
  5 11  2  0
  5 12  1  0
  4 13  1  0
  4 14  2  0
  7 15  1  0
  7 16  1  0
 15 17  1  0
 16 18  1  0
 12 19  2  0
 13 20  2  0
 14 21  1  0
 11 22  1  0
 20 23  1  0
 21 23  2  0
 19 24  1  0
 22 24  2  0
M  END