
  SciTegic01161211252D

 42 43  0  0  0  0            999 V2000
   -1.2833    0.9833    0.0000 C   0  0  1  0  0  0
   -1.9958    1.3958    0.0000 C   0  0
    0.8667    1.3958    0.0000 C   0  0  1  0  0  0
    1.5917    0.9833    0.0000 C   0  0
   -0.5583    1.3958    0.0000 C   0  0  1  0  0  0
   -2.7208    0.9833    0.0000 N   0  0
    2.3042    1.3958    0.0000 N   0  0
    0.1542    0.9833    0.0000 C   0  0  1  0  0  0
    1.1667   -2.6792    0.0000 C   0  0
   -3.4333    1.3958    0.0000 C   0  0
    3.0292    0.9833    0.0000 C   0  0
    0.3417   -2.6792    0.0000 C   0  0
    1.5667   -3.3917    0.0000 C   0  0
   -1.2833    0.1583    0.0000 O   0  0
   -0.0708   -1.9667    0.0000 C   0  0
   -4.1583    0.9833    0.0000 C   0  0  2  0  0  0
    3.7417    1.3958    0.0000 C   0  0  2  0  0  0
    0.8667    2.2333    0.0000 O   0  0
   -1.9958    2.2333    0.0000 O   0  0
    1.5917    0.1583    0.0000 O   0  0
   -3.4333    2.2333    0.0000 O   0  0
    3.0292    0.1583    0.0000 O   0  0
    2.3917   -3.4042    0.0000 O   0  0
    0.3417   -1.2542    0.0000 C   0  0
   -0.8958   -1.9542    0.0000 C   0  0
    1.5792   -1.9667    0.0000 O   0  0
   -0.5583    2.2333    0.0000 O   0  0
    0.1542    0.1583    0.0000 O   0  0
   -0.8708   -0.5542    0.0000 C   0  0
   -4.1583    0.1583    0.0000 C   0  0
    3.7417    2.2333    0.0000 C   0  0
   -0.0833   -3.3917    0.0000 C   0  0
   -1.2958   -1.2542    0.0000 C   0  0
   -0.0708   -0.5542    0.0000 C   0  0
    1.1542   -4.1042    0.0000 C   0  0
    0.3292   -4.1042    0.0000 C   0  0
   -4.8708    1.3958    0.0000 C   0  0
    4.4667    0.9833    0.0000 C   0  0
   -4.8708   -0.2542    0.0000 C   0  0
   -3.4333   -0.2542    0.0000 C   0  0
    4.4667    2.6458    0.0000 C   0  0
    3.0292    2.6458    0.0000 C   0  0
  2  1  1  0
  3  8  1  0
  4  3  1  0
  5  1  1  0
  6  2  1  0
  7  4  1  0
  8  5  1  0
  9 12  2  0
 10  6  1  0
 11  7  1  0
 12 15  1  0
 13  9  1  0
  1 14  1  1
 15 24  1  0
 16 10  1  0
 17 11  1  0
  3 18  1  1
 19  2  2  0
 20  4  2  0
 21 10  2  0
 22 11  2  0
 23 13  2  0
 24 34  2  0
 25 33  1  0
 26  9  1  0
  5 27  1  6
  8 28  1  6
 29 14  1  0
 16 30  1  6
 17 31  1  6
 32 12  1  0
 33 29  2  0
 34 29  1  0
 35 36  1  0
 36 32  1  0
 37 16  1  0
 38 17  1  0
 39 30  1  0
 40 30  1  0
 41 31  1  0
 42 31  1  0
 15 25  2  0
 13 35  1  0
M  END