
          08180812492D 1   1.00000     0.00000     0

 30 33  0     0  0            999 V2000
    0.5319  -24.3166    0.0000 C   0  0  0  0  0  0           0  0  0
    0.5307  -25.1440    0.0000 C   0  0  0  0  0  0           0  0  0
    1.2456  -25.5569    0.0000 C   0  0  0  0  0  0           0  0  0
    1.9620  -25.1435    0.0000 C   0  0  0  0  0  0           0  0  0
    1.9591  -24.3130    0.0000 C   0  0  0  0  0  0           0  0  0
    1.2438  -23.9039    0.0000 C   0  0  0  0  0  0           0  0  0
   -0.1841  -25.5559    0.0000 C   0  0  0  0  0  0           0  0  0
   -0.8982  -25.1429    0.0000 N   0  0  3  0  0  0           0  0  0
   -0.1847  -26.3809    0.0000 O   0  0  0  0  0  0           0  0  0
   -0.8982  -24.3182    0.0000 C   0  0  0  0  0  0           0  0  0
   -1.6082  -23.9052    0.0000 C   0  0  0  0  0  0           0  0  0
   -2.3254  -24.3137    0.0000 N   0  0  3  0  0  0           0  0  0
   -2.3280  -25.1396    0.0000 C   0  0  0  0  0  0           0  0  0
   -1.6135  -25.5572    0.0000 C   0  0  0  0  0  0           0  0  0
    2.6721  -23.8978    0.0000 O   0  0  0  0  0  0           0  0  0
    2.6689  -23.0728    0.0000 C   0  0  0  0  0  0           0  0  0
    3.3836  -22.6624    0.0000 C   0  0  0  0  0  0           0  0  0
    3.3809  -21.8382    0.0000 C   0  0  0  0  0  0           0  0  0
    2.6643  -21.4276    0.0000 C   0  0  0  0  0  0           0  0  0
    1.9490  -21.8472    0.0000 C   0  0  0  0  0  0           0  0  0
    1.9553  -22.6701    0.0000 C   0  0  0  0  0  0           0  0  0
    2.6771  -25.5549    0.0000 C   0  0  0  0  0  0           0  0  0
    3.3909  -25.1413    0.0000 N   0  0  0  0  0  0           0  0  0
    4.1061  -25.5527    0.0000 C   0  0  0  0  0  0           0  0  0
   -3.0380  -23.8979    0.0000 C   0  0  3  0  0  0           0  0  0
    4.0940  -21.4234    0.0000 Cl  0  0  0  0  0  0           0  0  0
    2.6601  -20.6026    0.0000 Cl  0  0  0  0  0  0           0  0  0
   -3.2478  -23.1024    0.0000 C   0  0  0  0  0  0           0  0  0
   -4.0456  -23.3123    0.0000 C   0  0  0  0  0  0           0  0  0
   -3.8357  -24.1101    0.0000 C   0  0  0  0  0  0           0  0  0
  2  7  1  0     0  0
  5 15  1  0     0  0
  3  4  2  0     0  0
 15 16  1  0     0  0
  7  8  1  0     0  0
 16 17  2  0     0  0
 17 18  1  0     0  0
  7  9  2  0     0  0
 18 19  2  0     0  0
  8 10  1  0     0  0
 19 20  1  0     0  0
  4  5  1  0     0  0
 20 21  2  0     0  0
 21 16  1  0     0  0
  2  3  1  0     0  0
  4 22  1  0     0  0
  5  6  2  0     0  0
 22 23  1  0     0  0
  6  1  1  0     0  0
 23 24  1  0     0  0
  1  2  2  0     0  0
 12 25  1  0     0  0
  8 14  1  0     0  0
 18 26  1  0     0  0
 10 11  1  0     0  0
 19 27  1  0     0  0
 25 28  1  0     0  0
 11 12  1  0     0  0
 12 13  1  0     0  0
 13 14  1  0     0  0
 28 29  1  0     0  0
 29 30  1  0     0  0
 30 25  1  0     0  0
M  END