
          11280715452D 1   1.00000     0.00000     0

 28 31  0     0  0            999 V2000
   -0.7208    0.3333    0.0000 C   0  0  0  0  0  0           0  0  0
   -0.0458    0.8208    0.0000 N   0  0  3  0  0  0           0  0  0
   -0.4625   -0.4542    0.0000 N   0  0  3  0  0  0           0  0  0
    0.6167    0.3333    0.0000 C   0  0  0  0  0  0           0  0  0
    0.3625   -0.4542    0.0000 C   0  0  3  0  0  0           0  0  0
   -1.5458    0.3458    0.0000 N   0  0  0  0  0  0           0  0  0
   -0.0458    1.6458    0.0000 C   0  0  0  0  0  0           0  0  0
   -1.8000   -0.4417    0.0000 C   0  0  0  0  0  0           0  0  0
   -1.1250   -0.9375    0.0000 C   0  0  0  0  0  0           0  0  0
   -2.5833   -0.7042    0.0000 C   0  0  0  0  0  0           0  0  0
   -3.3708   -0.9542    0.0000 N   0  0  0  0  0  0           0  0  0
    0.6750    2.0583    0.0000 C   0  0  0  0  0  0           0  0  0
   -0.7625    2.0583    0.0000 C   0  0  0  0  0  0           0  0  0
    1.1542   -0.6667    0.0000 C   0  0  0  0  0  0           0  0  0
    1.4125    0.5958    0.0000 O   0  0  0  0  0  0           0  0  0
   -0.7625    2.8833    0.0000 C   0  0  0  0  0  0           0  0  0
    0.6750    2.8833    0.0000 C   0  0  0  0  0  0           0  0  0
   -0.0458    3.2958    0.0000 C   0  0  0  0  0  0           0  0  0
    0.3542   -1.2792    0.0000 C   0  0  0  0  0  0           0  0  0
    1.1542   -1.4917    0.0000 C   0  0  0  0  0  0           0  0  0
    1.1375   -3.1375    0.0000 C   0  0  0  0  0  0           0  0  0
    1.3792    3.2958    0.0000 Cl  0  0  0  0  0  0           0  0  0
   -1.4833    3.2958    0.0000 Cl  0  0  0  0  0  0           0  0  0
    1.1375   -3.9542    0.0000 Br  0  0  0  0  0  0           0  0  0
    0.4375   -1.9000    0.0000 C   0  0  0  0  0  0           0  0  0
    1.8625   -1.9000    0.0000 C   0  0  0  0  0  0           0  0  0
    1.8625   -2.7167    0.0000 C   0  0  0  0  0  0           0  0  0
    0.4292   -2.7167    0.0000 C   0  0  0  0  0  0           0  0  0
  2  1  1  0     0  0
  3  1  1  0     0  0
  4  2  1  0     0  0
  5  3  1  0     0  0
  6  1  2  0     0  0
  7  2  1  0     0  0
  8  6  1  0     0  0
  9  3  1  0     0  0
 10  8  1  0     0  0
 11 10  3  0     0  0
 12  7  2  0     0  0
 13  7  1  0     0  0
 14  5  1  0     0  0
 15  4  2  0     0  0
 16 13  2  0     0  0
 17 12  1  0     0  0
 18 16  1  0     0  0
 19  5  1  0     0  0
 20 14  1  0     0  0
 21 27  1  0     0  0
 22 17  1  0     0  0
 23 16  1  0     0  0
 24 21  1  0     0  0
 25 20  2  0     0  0
 26 20  1  0     0  0
 27 26  2  0     0  0
 28 25  1  0     0  0
  9  8  2  0     0  0
  5  4  1  0     0  0
 17 18  2  0     0  0
 28 21  2  0     0  0
M  END