
          03140815512D 1   1.00000     0.00000     0

 19 20  0     0  0            999 V2000
    8.6958   -6.0750    0.0000 N   0  0  3  0  0  0           0  0  0
    8.6958   -6.9000    0.0000 C   0  0  0  0  0  0           0  0  0
    9.4079   -7.3083    0.0000 C   0  0  0  0  0  0           0  0  0
   10.1199   -6.9000    0.0000 O   0  0  0  0  0  0           0  0  0
   10.1199   -6.0750    0.0000 C   0  0  0  0  0  0           0  0  0
    9.4079   -5.6583    0.0000 C   0  0  0  0  0  0           0  0  0
    7.9802   -5.6646    0.0000 C   0  0  0  0  0  0           0  0  0
    7.9777   -4.8396    0.0000 O   0  0  0  0  0  0           0  0  0
    7.2669   -6.0792    0.0000 C   0  0  0  0  0  0           0  0  0
    6.5512   -5.6688    0.0000 O   0  0  0  0  0  0           0  0  0
    5.8380   -6.0834    0.0000 C   0  0  0  0  0  0           0  0  0
    5.1230   -5.6696    0.0000 C   0  0  0  0  0  0           0  0  0
    4.4102   -6.0835    0.0000 C   0  0  0  0  0  0           0  0  0
    4.4122   -6.9094    0.0000 C   0  0  0  0  0  0           0  0  0
    5.1329   -7.3196    0.0000 C   0  0  0  0  0  0           0  0  0
    5.8427   -6.9034    0.0000 C   0  0  0  0  0  0           0  0  0
    3.6995   -7.3250    0.0000 C   0  0  3  0  0  0           0  0  0
    2.9833   -6.9155    0.0000 C   0  0  0  0  0  0           0  0  0
    3.7030   -8.1500    0.0000 C   0  0  0  0  0  0           0  0  0
  2  3  1  0     0  0
  9 10  1  0     0  0
  3  4  1  0     0  0
 10 11  1  0     0  0
  4  5  1  0     0  0
 11 12  2  0     0  0
  5  6  1  0     0  0
 12 13  1  0     0  0
 13 14  2  0     0  0
  1  7  1  0     0  0
 14 15  1  0     0  0
  1  2  1  0     0  0
 15 16  2  0     0  0
 16 11  1  0     0  0
  7  8  2  0     0  0
 14 17  1  0     0  0
  1  6  1  0     0  0
 17 18  1  0     0  0
  7  9  1  0     0  0
 17 19  1  0     0  0
M  END