
  SciTegic07221310232D

 43 47  0  0  0  0            999 V2000
    2.7931   -4.9502    0.0000 N   0  0
    2.8184   -6.1919    0.0000 C   0  0  1  0  0  0
    3.5003   -4.7103    0.0000 C   0  0
   -4.8092   -4.6008    0.0000 C   0  0  1  0  0  0
    3.5003   -3.8137    0.0000 C   0  0
   -4.7881   -5.5059    0.0000 C   0  0
   -5.4532   -5.9899    0.0000 N   0  0
   -5.2006   -6.7728    0.0000 C   0  0
    2.8016   -3.5652    0.0000 N   0  0
    2.5658   -6.9749    0.0000 C   0  0  1  0  0  0
    2.3091   -4.2430    0.0000 C   0  0
    2.1576   -5.7079    0.0000 O   0  0
   -4.1146   -5.0512    0.0000 O   0  0
   -0.1619   -5.3670    0.0000 P   0  0
   -1.8162   -5.3585    0.0000 P   0  0
   -4.5945   -3.8052    0.0000 C   0  0  2  0  0  0
   -0.9954   -5.3670    0.0000 O   0  0
    1.4924   -6.1919    0.0000 C   0  0  1  0  0  0
   -3.4747   -4.5376    0.0000 C   0  0  2  0  0  0
    1.7408   -6.9749    0.0000 C   0  0  1  0  0  0
   -3.7736   -3.7547    0.0000 C   0  0  2  0  0  0
   -4.1187   -5.9899    0.0000 S   0  0
   -4.3713   -6.7728    0.0000 C   0  0
    4.1908   -3.4137    0.0000 C   0  0
    4.2160   -5.1312    0.0000 N   0  0
   -5.6847   -7.4422    0.0000 C   0  0
    4.9485   -3.8515    0.0000 N   0  0
    1.4883   -5.3670    0.0000 C   0  0
   -3.4706   -5.3585    0.0000 C   0  0
    4.9400   -4.7144    0.0000 C   0  0
    0.6589   -5.3670    0.0000 O   0  0
   -2.6412   -5.3585    0.0000 O   0  0
   -1.8204   -4.5376    0.0000 O   0  0
   -0.1660   -4.5376    0.0000 O   0  0
   -6.5055   -7.3538    0.0000 O   0  0
    3.0542   -7.6442    0.0000 O   0  0
   -1.8204   -6.1793    0.0000 O   0  0
   -0.1660   -6.1919    0.0000 O   0  0
   -5.1249   -3.1570    0.0000 O   0  0
   -5.3522   -8.1999    0.0000 N   0  0
    4.1908   -2.6266    0.0000 N   0  0
    1.2398   -7.6442    0.0000 O   0  0
   -3.3232   -3.0475    0.0000 O   0  0
  2  1  1  1
  3  1  1  0
  4 13  1  0
  5  3  2  0
  4  6  1  6
  7  6  2  0
  8  7  1  0
  9 11  2  0
 10  2  1  0
 11  1  1  0
 12  2  1  0
 13 19  1  0
 14 31  1  0
 15 17  1  0
 16 21  1  0
 17 14  1  0
 18 12  1  0
 19 29  1  6
 20 10  1  0
 21 19  1  0
 22  6  1  0
 23 22  1  0
 24  5  1  0
 25  3  1  0
 26  8  1  0
 27 30  1  0
 18 28  1  1
 29 32  1  0
 30 25  2  0
 31 28  1  0
 32 15  1  0
 33 15  2  0
 34 14  2  0
 35 26  2  0
 10 36  1  6
 37 15  1  0
 38 14  1  0
 16 39  1  1
 40 26  1  0
 41 24  1  0
 20 42  1  6
 21 43  1  1
  5  9  1  0
 20 18  1  0
 24 27  2  0
 16  4  1  0
  8 23  2  0
M  END