
          11280715262D 1   1.00000     0.00000     0

 24 26  0     0  0            999 V2000
    2.3792   -2.9542    0.0000 C   0  0  0  0  0  0           0  0  0
    3.1125   -2.5417    0.0000 C   0  0  0  0  0  0           0  0  0
    1.6667   -2.5417    0.0000 C   0  0  0  0  0  0           0  0  0
    3.1125   -1.7125    0.0000 C   0  0  0  0  0  0           0  0  0
    2.3917   -1.2917    0.0000 C   0  0  0  0  0  0           0  0  0
    1.6750   -1.7125    0.0000 C   0  0  0  0  0  0           0  0  0
    7.4000   -1.7375    0.0000 C   0  0  0  0  0  0           0  0  0
    7.3917   -2.5625    0.0000 C   0  0  0  0  0  0           0  0  0
    6.6792   -1.3167    0.0000 C   0  0  0  0  0  0           0  0  0
    0.9542   -2.9542    0.0000 N   0  0  0  0  0  0           0  0  0
    2.3792   -3.7792    0.0000 O   0  0  0  0  0  0           0  0  0
    6.6792   -2.9667    0.0000 C   0  0  0  0  0  0           0  0  0
    5.9667   -1.7292    0.0000 C   0  0  0  0  0  0           0  0  0
    2.3917   -0.4667    0.0000 O   0  0  0  0  0  0           0  0  0
    3.8250   -2.9625    0.0000 N   0  0  0  0  0  0           0  0  0
    5.9667   -2.5542    0.0000 C   0  0  0  0  0  0           0  0  0
    6.6792   -0.4917    0.0000 Br  0  0  0  0  0  0           0  0  0
    8.1042   -2.9750    0.0000 Br  0  0  0  0  0  0           0  0  0
    8.1125   -1.3250    0.0000 O   0  0  0  0  0  0           0  0  0
    0.9542   -1.3000    0.0000 C   0  0  0  0  0  0           0  0  0
    4.5417   -2.5500    0.0000 C   0  0  0  0  0  0           0  0  0
    0.2417   -2.5417    0.0000 C   0  0  0  0  0  0           0  0  0
    5.2542   -2.9667    0.0000 C   0  0  0  0  0  0           0  0  0
    0.2417   -1.7125    0.0000 C   0  0  0  0  0  0           0  0  0
  2  1  1  0     0  0
  3  1  1  0     0  0
  4  2  1  0     0  0
  5  6  1  0     0  0
  6  3  1  0     0  0
  7  9  1  0     0  0
  8 12  1  0     0  0
  9 13  2  0     0  0
 10  3  2  0     0  0
 11  1  2  0     0  0
 12 16  2  0     0  0
 13 16  1  0     0  0
 14  5  1  0     0  0
 15  2  2  0     0  0
 16 23  1  0     0  0
 17  9  1  0     0  0
 18  8  1  0     0  0
 19  7  1  0     0  0
 20  6  2  0     0  0
 21 15  1  0     0  0
 22 10  1  0     0  0
 23 21  1  0     0  0
 24 22  2  0     0  0
  4  5  2  0     0  0
 20 24  1  0     0  0
  8  7  2  0     0  0
M  END