
          02060813472D 1   1.00000     0.00000     0

 20 22  0     0  0            999 V2000
    7.5737   -3.9437    0.0000 C   0  0  0  0  0  0           0  0  0
    7.5726   -4.7707    0.0000 C   0  0  0  0  0  0           0  0  0
    8.2870   -5.1833    0.0000 C   0  0  0  0  0  0           0  0  0
    8.2852   -3.5311    0.0000 C   0  0  0  0  0  0           0  0  0
    9.0003   -3.9401    0.0000 C   0  0  0  0  0  0           0  0  0
    9.0005   -4.7707    0.0000 C   0  0  0  0  0  0           0  0  0
    9.7901   -3.6833    0.0000 N   0  0  0  0  0  0           0  0  0
   10.2786   -4.3550    0.0000 C   0  0  0  0  0  0           0  0  0
    9.7872   -5.0250    0.0000 N   0  0  3  0  0  0           0  0  0
   10.2726   -5.6993    0.0000 N   0  0  0  0  0  0           0  0  0
   11.0640   -5.4461    0.0000 S   0  0  0  0  0  0           0  0  0
   11.0676   -4.6154    0.0000 C   0  0  0  0  0  0           0  0  0
    6.8582   -5.1824    0.0000 S   0  0  3  0  0  0           0  0  0
    6.1385   -5.5888    0.0000 N   0  0  0  0  0  0           0  0  0
    7.2668   -5.8986    0.0000 O   0  0  0  0  0  0           0  0  0
    6.4513   -4.4651    0.0000 O   0  0  0  0  0  0           0  0  0
   11.7368   -4.1336    0.0000 S   0  0  3  0  0  0           0  0  0
   12.2730   -4.7600    0.0000 O   0  0  0  0  0  0           0  0  0
   11.1971   -3.5101    0.0000 O   0  0  0  0  0  0           0  0  0
   12.4058   -3.6517    0.0000 C   0  0  0  0  0  0           0  0  0
  4  1  1  0     0  0
  5  6  1  0     0  0
  9 10  1  0     0  0
 10 11  2  0     0  0
 11 12  2  0     0  0
 12  8  1  0     0  0
  2  3  1  0     0  0
  2 13  1  0     0  0
  3  6  2  0     0  0
 13 14  1  0     0  0
  6  9  1  0     0  0
 13 15  2  0     0  0
  8  7  2  0     0  0
 13 16  2  0     0  0
  7  5  1  0     0  0
 12 17  1  0     0  0
  8  9  1  0     0  0
 17 18  2  0     0  0
  1  2  2  0     0  0
 17 19  2  0     0  0
  5  4  2  0     0  0
 17 20  1  0     0  0
M  END