
          11280715332D 1   1.00000     0.00000     0

 49 53  0     1  0            999 V2000
    1.9042   -2.4667    0.0000 S   0  0  3  0  0  0           0  0  0
    1.1500   -2.8625    0.0000 N   0  0  3  0  0  0           0  0  0
    2.6542   -2.8167    0.0000 N   0  0  3  0  0  0           0  0  0
    1.0042   -3.6542    0.0000 C   0  0  1  0  0  0           0  0  0
    2.8417   -3.6125    0.0000 C   0  0  1  0  0  0           0  0  0
    2.3042   -4.2875    0.0000 C   0  0  1  0  0  0           0  0  0
    1.5167   -4.2875    0.0000 C   0  0  1  0  0  0           0  0  0
    1.3125   -1.8792    0.0000 O   0  0  0  0  0  0           0  0  0
    2.4792   -1.8792    0.0000 O   0  0  0  0  0  0           0  0  0
    3.6625   -3.6125    0.0000 C   0  0  0  0  0  0           0  0  0
    0.1792   -3.6542    0.0000 C   0  0  0  0  0  0           0  0  0
    3.3667   -2.3917    0.0000 C   0  0  0  0  0  0           0  0  0
    0.4292   -2.4500    0.0000 C   0  0  0  0  0  0           0  0  0
   -0.2875   -0.3917    0.0000 C   0  0  0  0  0  0           0  0  0
    4.0625   -0.3292    0.0000 C   0  0  0  0  0  0           0  0  0
    4.7750    0.0875    0.0000 C   0  0  0  0  0  0           0  0  0
   -1.0083    0.0125    0.0000 C   0  0  0  0  0  0           0  0  0
    5.4917   -0.3167    0.0000 N   0  0  0  0  0  0           0  0  0
   -1.7208   -0.4000    0.0000 N   0  0  0  0  0  0           0  0  0
    4.0667   -1.1542    0.0000 C   0  0  0  0  0  0           0  0  0
   -0.2833   -1.2167    0.0000 C   0  0  0  0  0  0           0  0  0
    0.4292   -1.6250    0.0000 C   0  0  0  0  0  0           0  0  0
    3.3542   -1.5667    0.0000 C   0  0  0  0  0  0           0  0  0
    4.0750   -4.3167    0.0000 O   0  0  0  0  0  0           0  0  0
   -0.2458   -4.4417    0.0000 O   0  0  0  0  0  0           0  0  0
    2.6667   -5.0292    0.0000 O   0  0  0  0  0  0           0  0  0
    1.1625   -5.0292    0.0000 O   0  0  0  0  0  0           0  0  0
    6.2042    0.1083    0.0000 O   0  0  0  0  0  0           0  0  0
   -2.4333    0.0083    0.0000 O   0  0  0  0  0  0           0  0  0
   -1.0708   -4.4167    0.0000 C   0  0  0  0  0  0           0  0  0
    4.9000   -4.3292    0.0000 C   0  0  0  0  0  0           0  0  0
    0.4292    0.0208    0.0000 C   0  0  0  0  0  0           0  0  0
    3.3417    0.0750    0.0000 C   0  0  0  0  0  0           0  0  0
    1.1417   -0.3917    0.0000 C   0  0  0  0  0  0           0  0  0
    2.6292   -0.3500    0.0000 C   0  0  0  0  0  0           0  0  0
    1.1417   -1.2125    0.0000 C   0  0  0  0  0  0           0  0  0
    2.6417   -1.1667    0.0000 C   0  0  0  0  0  0           0  0  0
    4.7667    0.9125    0.0000 C   0  0  0  0  0  0           0  0  0
   -1.0083    0.8375    0.0000 C   0  0  0  0  0  0           0  0  0
   -1.4708   -3.6917    0.0000 C   0  0  0  0  0  0           0  0  0
    5.3042   -5.0417    0.0000 C   0  0  0  0  0  0           0  0  0
   -1.5000   -5.1250    0.0000 C   0  0  0  0  0  0           0  0  0
    5.3042   -3.6167    0.0000 C   0  0  0  0  0  0           0  0  0
   -2.2958   -3.6750    0.0000 C   0  0  0  0  0  0           0  0  0
    6.1292   -5.0500    0.0000 C   0  0  0  0  0  0           0  0  0
    6.1292   -3.6167    0.0000 C   0  0  0  0  0  0           0  0  0
   -2.3250   -5.1042    0.0000 C   0  0  0  0  0  0           0  0  0
    6.5500   -4.3292    0.0000 C   0  0  0  0  0  0           0  0  0
   -2.7208   -4.3750    0.0000 C   0  0  0  0  0  0           0  0  0
  2  1  1  0     0  0
  3  1  1  0     0  0
  4  2  1  0     0  0
  5  3  1  0     0  0
  6  5  1  0     0  0
  7  4  1  0     0  0
  8  1  2  0     0  0
  9  1  2  0     0  0
  5 10  1  6     0  0
  4 11  1  1     0  0
 12  3  1  0     0  0
 13  2  1  0     0  0
 14 21  2  0     0  0
 15 20  1  0     0  0
 16 15  1  0     0  0
 17 14  1  0     0  0
 18 16  2  0     0  0
 19 17  2  0     0  0
 20 23  2  0     0  0
 21 22  1  0     0  0
 22 13  1  0     0  0
 23 12  1  0     0  0
 24 10  1  0     0  0
 25 11  1  0     0  0
  6 26  1  6     0  0
  7 27  1  1     0  0
 28 18  1  0     0  0
 29 19  1  0     0  0
 30 25  1  0     0  0
 31 24  1  0     0  0
 32 34  2  0     0  0
 33 35  1  0     0  0
 34 36  1  0     0  0
 35 37  2  0     0  0
 36 22  2  0     0  0
 37 23  1  0     0  0
 38 16  1  0     0  0
 39 17  1  0     0  0
 40 30  1  0     0  0
 41 31  2  0     0  0
 42 30  2  0     0  0
 43 31  1  0     0  0
 44 40  2  0     0  0
 45 41  1  0     0  0
 46 43  2  0     0  0
 47 42  1  0     0  0
 48 46  1  0     0  0
 49 47  2  0     0  0
  7  6  1  0     0  0
 33 15  2  0     0  0
 32 14  1  0     0  0
 48 45  2  0     0  0
 49 44  1  0     0  0
M  END