
          11290715122D 1   1.00000     0.00000     0

 32 35  0     0  0            999 V2000
    1.2193  -14.2402    0.0000 C   0  0  0  0  0  0           0  0  0
    1.2181  -15.0675    0.0000 C   0  0  0  0  0  0           0  0  0
    1.9329  -15.4804    0.0000 C   0  0  0  0  0  0           0  0  0
    1.9311  -13.8276    0.0000 C   0  0  0  0  0  0           0  0  0
    2.6463  -14.2366    0.0000 C   0  0  0  0  0  0           0  0  0
    2.6497  -15.0650    0.0000 C   0  0  0  0  0  0           0  0  0
    3.3650  -15.4740    0.0000 C   0  0  0  0  0  0           0  0  0
    4.0813  -15.0591    0.0000 C   0  0  0  0  0  0           0  0  0
    4.0779  -14.2307    0.0000 C   0  0  0  0  0  0           0  0  0
    3.3582  -13.8172    0.0000 C   0  0  3  0  0  0           0  0  0
    3.3536  -12.9923    0.0000 N   0  0  0  0  0  0           0  0  0
    4.0657  -12.5759    0.0000 C   0  0  0  0  0  0           0  0  0
    4.0612  -11.7510    0.0000 O   0  0  0  0  0  0           0  0  0
    4.7824  -12.9844    0.0000 C   0  0  0  0  0  0           0  0  0
    5.4945  -12.5681    0.0000 C   0  0  0  0  0  0           0  0  0
    6.2112  -12.9766    0.0000 C   0  0  0  0  0  0           0  0  0
    6.9233  -12.5602    0.0000 C   0  0  0  0  0  0           0  0  0
    7.6400  -12.9688    0.0000 C   0  0  0  0  0  0           0  0  0
    8.3521  -12.5524    0.0000 N   0  0  3  0  0  0           0  0  0
    9.0636  -12.9640    0.0000 C   0  0  0  0  0  0           0  0  0
    9.7737  -12.5511    0.0000 C   0  0  0  0  0  0           0  0  0
    9.7734  -11.7258    0.0000 N   0  0  3  0  0  0           0  0  0
    9.0568  -11.3150    0.0000 C   0  0  0  0  0  0           0  0  0
    8.3406  -11.7296    0.0000 C   0  0  0  0  0  0           0  0  0
   10.4870  -11.3121    0.0000 C   0  0  0  0  0  0           0  0  0
   11.2008  -11.7264    0.0000 C   0  0  0  0  0  0           0  0  0
   11.9141  -11.3134    0.0000 C   0  0  0  0  0  0           0  0  0
   11.9131  -10.4876    0.0000 C   0  0  0  0  0  0           0  0  0
   11.1929  -10.0765    0.0000 C   0  0  0  0  0  0           0  0  0
   10.4827  -10.4919    0.0000 C   0  0  0  0  0  0           0  0  0
   11.2004  -12.5513    0.0000 O   0  0  0  0  0  0           0  0  0
   11.9146  -12.9642    0.0000 C   0  0  0  0  0  0           0  0  0
  5  4  2  0     0  0
 15 16  1  0     0  0
  4  1  1  0     0  0
 16 17  1  0     0  0
  5 10  1  0     0  0
 17 18  1  0     0  0
  6  7  1  0     0  0
 18 19  1  0     0  0
 19 20  1  0     0  0
  7  8  1  0     0  0
  8  9  1  0     0  0
  9 10  1  0     0  0
  5  6  1  0     0  0
 10 11  1  0     0  0
 19 24  1  0     0  0
 20 21  1  0     0  0
 21 22  1  0     0  0
 22 23  1  0     0  0
 23 24  1  0     0  0
 22 25  1  0     0  0
 11 12  1  0     0  0
 25 26  2  0     0  0
  2  3  1  0     0  0
 26 27  1  0     0  0
 12 13  2  0     0  0
 27 28  2  0     0  0
  3  6  2  0     0  0
 28 29  1  0     0  0
 12 14  1  0     0  0
 29 30  2  0     0  0
 30 25  1  0     0  0
  1  2  2  0     0  0
 26 31  1  0     0  0
 14 15  1  0     0  0
 31 32  1  0     0  0
M  END