
  SciTegic12131016242D

 19 21  0  0  0  0            999 V2000
    8.9780    1.4023    0.0000 C   0  0
    8.9769    0.5760    0.0000 C   0  0
    9.6908    0.1638    0.0000 C   0  0
    9.6890    1.8145    0.0000 C   0  0
   10.4034    1.4059    0.0000 C   0  0
   10.4041    0.5802    0.0000 C   0  0
   11.1184    0.1698    0.0000 C   0  0
   11.1128    1.8195    0.0000 C   0  0
   11.8278    1.4129    0.0000 C   0  0
   11.8296    0.5824    0.0000 C   0  0
   12.5456    0.1710    0.0000 C   0  0
   13.2646    0.5854    0.0000 C   0  0
   13.2628    1.4159    0.0000 C   0  0
   12.5421    1.8319    0.0000 C   0  0
    9.6865    2.6384    0.0000 C   0  0
    8.2631    0.1647    0.0000 O   0  0
   11.1085    2.6434    0.0000 O   0  0
   12.5392    2.6558    0.0000 O   0  0
   12.5462   -0.6529    0.0000 O   0  0
  9 10  1  0
  5  4  2  0
  4  1  1  0
  2  3  1  0
  5  6  1  0
  3  6  2  0
  9 14  1  0
 10 11  1  0
 11 12  1  0
 12 13  1  0
 13 14  1  0
  6  7  1  0
  4 15  1  0
  7 10  2  0
  2 16  1  0
  1  2  2  0
  8 17  1  0
  9  8  2  0
 14 18  2  0
  8  5  1  0
 11 19  1  0
M  END