
          11280715102D 1   1.00000     0.00000     0

 26 28  0     0  0            999 V2000
   -1.8458    0.8458    0.0000 C   0  0  0  0  0  0           0  0  0
   -2.6000    0.5083    0.0000 N   0  0  3  0  0  0           0  0  0
   -3.1500    1.1250    0.0000 N   0  0  0  0  0  0           0  0  0
   -1.9333    1.6708    0.0000 C   0  0  0  0  0  0           0  0  0
   -2.7375    1.8375    0.0000 C   0  0  0  0  0  0           0  0  0
   -1.1333    0.4333    0.0000 N   0  0  0  0  0  0           0  0  0
   -0.4208    0.8458    0.0000 C   0  0  0  0  0  0           0  0  0
   -2.7708   -0.3000    0.0000 C   0  0  0  0  0  0           0  0  0
   -3.0750    2.5958    0.0000 C   0  0  3  0  0  0           0  0  0
    0.2917    0.4333    0.0000 N   0  0  0  0  0  0           0  0  0
   -0.4208    1.6708    0.0000 O   0  0  0  0  0  0           0  0  0
   -3.5625   -0.5542    0.0000 C   0  0  0  0  0  0           0  0  0
    1.0125    0.8458    0.0000 C   0  0  0  0  0  0           0  0  0
   -2.1583   -0.8500    0.0000 C   0  0  0  0  0  0           0  0  0
   -2.3625    3.0083    0.0000 C   0  0  0  0  0  0           0  0  0
   -3.8750    2.3833    0.0000 C   0  0  0  0  0  0           0  0  0
   -3.2958    3.3958    0.0000 C   0  0  0  0  0  0           0  0  0
   -4.1708    0.0000    0.0000 C   0  0  0  0  0  0           0  0  0
   -3.7333   -1.3625    0.0000 C   0  0  0  0  0  0           0  0  0
    1.0042    1.6625    0.0000 C   0  0  0  0  0  0           0  0  0
    1.7250    0.4250    0.0000 C   0  0  0  0  0  0           0  0  0
   -2.3250   -1.6542    0.0000 C   0  0  0  0  0  0           0  0  0
   -3.1208   -1.9167    0.0000 C   0  0  0  0  0  0           0  0  0
    2.4375    0.8375    0.0000 C   0  0  0  0  0  0           0  0  0
    1.7167    2.0833    0.0000 C   0  0  0  0  0  0           0  0  0
    2.4417    1.6625    0.0000 C   0  0  0  0  0  0           0  0  0
  2  1  1  0     0  0
  3  2  1  0     0  0
  4  1  2  0     0  0
  5  4  1  0     0  0
  6  1  1  0     0  0
  7  6  1  0     0  0
  8  2  1  0     0  0
  9  5  1  0     0  0
 10  7  1  0     0  0
 11  7  2  0     0  0
 12  8  2  0     0  0
 13 10  1  0     0  0
 14  8  1  0     0  0
 15  9  1  0     0  0
 16  9  1  0     0  0
 17  9  1  0     0  0
 18 12  1  0     0  0
 19 12  1  0     0  0
 20 13  1  0     0  0
 21 13  2  0     0  0
 22 14  2  0     0  0
 23 22  1  0     0  0
 24 21  1  0     0  0
 25 20  2  0     0  0
 26 24  2  0     0  0
  3  5  2  0     0  0
 23 19  2  0     0  0
 26 25  1  0     0  0
M  END