
  SciTegic11201309402D

103111  0  0  0  0            999 V2000
   17.0067   -3.3439    0.0000 C   0  0
   -1.8867    1.3320    0.0000 C   0  0
   -2.6736   -0.1236    0.0000 O   0  0
   11.7069   -0.0921    0.0000 C   0  0
   12.5319   -0.0955    0.0000 N   0  0
   11.2915   -0.8049    0.0000 O   0  0
   12.9415   -0.8116    0.0000 C   0  0  2  0  0  0
   13.7664   -0.8150    0.0000 C   0  0
   12.5260   -1.5244    0.0000 C   0  0  1  0  0  0
   11.7011   -1.5210    0.0000 C   0  0
   12.9356   -2.2405    0.0000 O   0  0
   14.1760   -1.5311    0.0000 N   0  0
   14.1819   -0.1022    0.0000 O   0  0
   10.4774    0.6283    0.0000 N   0  0
   11.2977    0.6238    0.0000 C   0  0  1  0  0  0
   11.5553    1.4028    0.0000 C   0  0
   10.8940    1.8885    0.0000 C   0  0
   10.2278    1.4096    0.0000 C   0  0
   15.0010   -1.5345    0.0000 C   0  0  2  0  0  0
   15.4106   -2.2506    0.0000 C   0  0
   15.4164   -0.8217    0.0000 C   0  0
   14.9952   -2.9634    0.0000 O   0  0
   16.2331   -2.2539    0.0000 N   0  0
   16.2258   -3.0776    0.0000 C   0  0
   17.5012   -2.6835    0.0000 C   0  0
   17.0262   -2.0076    0.0000 C   0  0  1  0  0  0
   17.4154   -1.2802    0.0000 C   0  0
   18.2392   -1.2536    0.0000 N   0  0
   16.9800   -0.5794    0.0000 O   0  0
   18.5187   -2.0291    0.0000 C   0  0
   19.3433   -2.0051    0.0000 C   0  0
   19.5754   -1.2133    0.0000 C   0  0
   18.8944   -0.7469    0.0000 C   0  0  1  0  0  0
   18.6043    0.0254    0.0000 C   0  0
   19.1267    0.6713    0.0000 N   0  0
   17.7904    0.1604    0.0000 O   0  0
   11.9415   -0.8075    0.0000 H   0  0
   10.0677   -0.0878    0.0000 C   0  0
    9.2427   -0.0910    0.0000 C   0  0  1  0  0  0
   10.4829   -0.8006    0.0000 O   0  0
    8.8274    0.6219    0.0000 N   0  0
    8.8330   -0.8071    0.0000 C   0  0
   18.7240    1.3912    0.0000 C   0  0  2  0  0  0
   17.8991    1.4028    0.0000 C   0  0
   19.1455    2.0997    0.0000 C   0  0
   19.9704    2.1137    0.0000 C   0  0
   20.3950    1.4063    0.0000 C   0  0
   19.9963    0.6839    0.0000 O   0  0
   21.2214    1.4193    0.0000 O   0  0
   17.4963    2.1229    0.0000 N   0  0
   17.4766    0.6942    0.0000 O   0  0
   17.8162    2.8844    0.0000 C   0  0
   18.6351    2.9847    0.0000 C   0  0
   18.9576    3.7440    0.0000 N   0  0
   19.1314    2.3257    0.0000 O   0  0
    9.2482   -1.5199    0.0000 C   0  0
    8.0024    0.6187    0.0000 C   0  0
    7.5871    1.3315    0.0000 C   0  0
    7.5927   -0.0974    0.0000 O   0  0
    6.0408    1.7308    0.0000 C   0  0
    5.3333    1.3064    0.0000 C   0  0
    6.0270    2.5557    0.0000 O   0  0
    4.6120    1.7069    0.0000 C   0  0
    3.9046    1.2825    0.0000 C   0  0
    3.1833    1.6830    0.0000 C   0  0
    2.4758    1.2586    0.0000 N   0  0
    1.7545    1.6591    0.0000 C   0  0
    1.0471    1.2347    0.0000 N   0  0
    1.7407    2.4840    0.0000 S   0  0
    0.3258    1.6352    0.0000 C   0  0
    0.3172    2.4576    0.0000 C   0  0
   -0.4032    2.8580    0.0000 C   0  0
   -0.3742    1.2078    0.0000 C   0  0
   -1.0951    1.6045    0.0000 C   0  0
   -1.1109    2.4382    0.0000 C   0  0
   -1.9088    2.6808    0.0000 C   0  0
   -2.3861    1.9970    0.0000 O   0  0
   -2.1785    3.4605    0.0000 O   0  0
   -1.4495    0.6306    0.0000 C   0  0
   -1.8475   -0.0972    0.0000 C   0  0
   -1.4163   -0.8037    0.0000 C   0  0
   -0.5872   -0.7837    0.0000 C   0  0
   -0.1912   -0.0511    0.0000 C   0  0
   -0.6247    0.6524    0.0000 C   0  0
   -3.1064    0.5825    0.0000 C   0  0
   -2.7138    1.3052    0.0000 C   0  0
   -3.1431    2.0044    0.0000 C   0  0
   -3.9650    1.9822    0.0000 C   0  0
   -4.3556    1.2549    0.0000 C   0  0
   -3.9240    0.5587    0.0000 C   0  0
   -0.1562   -1.4871    0.0000 O   0  0
   -5.1802    1.2293    0.0000 O   0  0
    8.8385   -2.2360    0.0000 C   0  0
    8.0118   -2.2403    0.0000 O   0  0
    9.2520   -2.9500    0.0000 O   0  0
   16.6713    2.1275    0.0000 C   0  0
    6.7615    1.3272    0.0000 N   0  0
    8.7292    2.8542    0.0000 C   0  0
   14.7542    2.8542    0.0000 C   0  0
   16.2629    2.8443    0.0000 C   0  0
   19.6814   -0.1300    0.0000 H   0  0
   18.0244   -1.9470    0.0000 H   0  0
   12.2927    0.7236    0.0000 H   0  0
 23 24  1  0
 47 48  1  0
 47 49  2  0
  9 11  1  6
 44 50  1  0
  4  5  1  0
 44 51  2  0
  8 12  1  0
 50 52  1  0
 24  1  1  0
 52 53  1  0
  1 25  1  0
 53 54  1  0
 25 26  1  0
 53 55  2  0
 26 23  1  0
 42 56  1  0
  2 79  1  0
 41 57  1  0
 26 27  1  0
 57 58  1  0
  8 13  2  0
 57 59  2  0
 58 97  1  0
 27 28  1  0
 97 60  1  0
 14 15  1  0
 60 61  1  0
 27 29  2  0
 60 62  2  0
 28 30  1  0
 61 63  1  0
  4  6  2  0
 63 64  1  0
 85  3  1  0
 64 65  1  0
  5  7  1  0
 65 66  1  0
  3 80  1  0
 66 67  1  0
 30 31  1  0
 67 68  1  0
 31 32  1  0
 67 69  2  0
 32 33  1  0
 68 70  1  0
 33 28  1  0
 70 71  2  0
  7  8  1  0
 71 72  1  0
 72 75  2  0
 33 34  1  0
 74 73  2  0
 73 70  1  0
 74 75  1  0
 15 16  1  0
 34 35  1  0
 16 17  1  0
 34 36  2  0
 75 76  1  0
 76 77  1  0
 77  2  1  0
  2 74  1  0
 17 18  1  0
 76 78  2  0
  7 37  1  1
 18 14  1  0
 79 80  2  0
 14 38  1  0
 80 81  1  0
 81 82  2  0
 38 39  1  0
 82 83  1  0
 12 19  1  0
 83 84  2  0
 84 79  1  0
 38 40  2  0
  7  9  1  0
 85 86  2  0
 39 41  1  0
 86 87  1  0
 19 20  1  0
 87 88  2  0
 39 42  1  6
 88 89  1  0
 15  4  1  0
 89 90  2  0
 90 85  1  0
 35 43  1  0
 82 91  1  0
 19 21  1  1
 89 92  1  0
 43 44  1  0
 56 93  1  0
  9 10  1  0
 43 45  1  6
 93 94  1  0
 93 95  2  0
 20 22  2  0
 50 96  1  0
 45 46  1  0
  2 86  1  0
 97 98  1  0
 46 47  1  0
 20 23  1  0
 96100  1  0
100 99  2  0
 98 99  1  0
 33101  1  1
 26102  1  1
 15103  1  6
M  END