
  SciTegic12171312552D

 52 60  0  0  0  0            999 V2000
   18.1483  -22.7440    0.0000 C   0  0
   19.6735  -22.8115    0.0000 N   0  0
   18.9013  -23.0943    0.0000 C   0  0
   18.9316  -23.9160    0.0000 C   0  0
   19.7229  -24.1424    0.0000 N   0  0
   20.1809  -23.4585    0.0000 N   0  0
   20.2097  -24.8108    0.0000 C   0  0
   19.8742  -25.5665    0.0000 C   0  0
   19.0540  -25.6520    0.0000 C   0  0
   18.7186  -26.4070    0.0000 C   0  0
   19.2056  -27.0763    0.0000 C   0  0
   20.3635  -26.2308    0.0000 C   0  0
   20.0311  -26.9814    0.0000 C   0  0
   20.5146  -27.6424    0.0000 C   0  0
   21.3306  -27.5540    0.0000 C   0  0
   21.6606  -26.7990    0.0000 C   0  0
   21.1750  -26.1411    0.0000 C   0  0
   18.1255  -21.6917    0.0000 N   0  0
   17.0716  -21.2267    0.0000 C   0  0
   17.0681  -20.3995    0.0000 C   0  0
   17.6576  -19.8153    0.0000 N   0  0
   17.2844  -19.0742    0.0000 N   0  0
   16.4635  -19.2004    0.0000 N   0  0
   16.3305  -20.0192    0.0000 C   0  0
   16.0488  -18.4850    0.0000 C   0  0
   15.2219  -18.4865    0.0000 C   0  0
   13.5724  -18.4870    0.0000 C   0  0
   13.9915  -19.2048    0.0000 C   0  0
   14.8162  -19.2002    0.0000 C   0  0
   13.9854  -17.7697    0.0000 C   0  0
   14.8107  -17.7699    0.0000 C   0  0
   15.2217  -17.0563    0.0000 C   0  0
   14.8086  -16.3421    0.0000 C   0  0
   13.9800  -16.3460    0.0000 C   0  0
   13.5729  -17.0600    0.0000 C   0  0
   19.0691  -21.2267    0.0000 C   0  0
   18.4871  -19.8152    0.0000 N   0  0
   19.0691  -20.3961    0.0000 C   0  0
   19.8015  -20.0222    0.0000 C   0  0
   19.6731  -19.2092    0.0000 N   0  0
   18.8597  -19.0822    0.0000 N   0  0
   20.0738  -18.4860    0.0000 C   0  0
   20.9006  -18.4714    0.0000 C   0  0
   21.3240  -19.1790    0.0000 C   0  0
   22.1500  -19.1647    0.0000 C   0  0
   22.5515  -18.4409    0.0000 C   0  0
   21.2965  -17.7476    0.0000 C   0  0
   22.1172  -17.7324    0.0000 C   0  0
   22.5127  -17.0152    0.0000 C   0  0
   22.0885  -16.3127    0.0000 C   0  0
   21.2647  -16.3319    0.0000 C   0  0
   20.8730  -17.0496    0.0000 C   0  0
 18  1  1  0
  1  3  1  0
  2  3  1  0
  3  4  2  0
  4  5  1  0
  5  6  1  0
  6  2  2  0
  5  7  1  0
  7  8  1  0
  8  9  2  0
  9 10  1  0
 10 11  2  0
 11 13  1  0
 12  8  1  0
 12 13  1  0
 13 14  2  0
 14 15  1  0
 15 16  2  0
 16 17  1  0
 17 12  2  0
 19 20  1  0
 19 18  1  0
 20 21  1  0
 21 22  2  0
 22 23  1  0
 23 24  1  0
 24 20  2  0
 23 25  1  0
 25 26  1  0
 26 31  2  0
 30 27  2  0
 27 28  1  0
 28 29  2  0
 29 26  1  0
 30 31  1  0
 31 32  1  0
 32 33  2  0
 33 34  1  0
 34 35  2  0
 35 30  1  0
 18 36  1  0
 36 38  1  0
 37 38  1  0
 38 39  2  0
 39 40  1  0
 40 41  1  0
 41 37  2  0
 40 42  1  0
 42 43  1  0
 43 44  2  0
 44 45  1  0
 45 46  2  0
 46 48  1  0
 47 43  1  0
 47 48  1  0
 48 49  2  0
 49 50  1  0
 50 51  2  0
 51 52  1  0
 52 47  2  0
M  END