
  SciTegic01061414252D

 20 22  0  0  0  0            999 V2000
   29.2978   -8.7373    0.0000 C   0  0
   29.2966   -9.5568    0.0000 C   0  0
   30.0047   -9.9658    0.0000 N   0  0
   30.0029   -8.3284    0.0000 C   0  0
   30.7115   -8.7337    0.0000 C   0  0
   30.7123   -9.5527    0.0000 C   0  0
   31.4208   -9.9598    0.0000 C   0  0
   32.1291   -9.5490    0.0000 C   0  0
   32.1243   -8.7268    0.0000 C   0  0
   31.4152   -8.3235    0.0000 C   0  0
   29.9989   -7.5169    0.0000 N   0  0
   30.7072   -7.1074    0.0000 C   0  0
   30.7067   -6.2938    0.0000 C   0  0
   29.9996   -5.8835    0.0000 N   0  0
   29.2913   -6.2930    0.0000 C   0  0
   29.2901   -7.1128    0.0000 C   0  0
   32.8384   -9.9548    0.0000 C   0  0
   32.8415  -10.7720    0.0000 F   0  0
   33.5445   -9.5435    0.0000 F   0  0
   33.6245  -10.1612    0.0000 F   0  0
  1  2  2  0
  2  3  1  0
  3  6  2  0
  5  4  2  0
  4  1  1  0
  5  6  1  0
  6  7  1  0
  7  8  2  0
  8  9  1  0
  9 10  2  0
 10  5  1  0
 11 12  1  0
 11 16  1  0
 12 13  1  0
 13 14  1  0
 14 15  1  0
 15 16  1  0
  4 11  1  0
  8 17  1  0
 17 18  1  0
 17 19  1  0
 17 20  1  0
M  END