
          11280715082D 1   1.00000     0.00000     0

 33 35  0     1  0            999 V2000
    5.8417   -2.9417    0.0000 C   0  0  0  0  0  0           0  0  0
   10.6875   -4.3417    0.0000 S   0  0  3  0  0  0           0  0  0
    5.8417   -2.1125    0.0000 C   0  0  0  0  0  0           0  0  0
    6.6292   -3.2042    0.0000 S   0  0  0  0  0  0           0  0  0
    7.1250   -2.5292    0.0000 C   0  0  0  0  0  0           0  0  0
    5.0417   -3.1917    0.0000 S   0  0  0  0  0  0           0  0  0
    6.6375   -1.8542    0.0000 C   0  0  0  0  0  0           0  0  0
   10.1167   -2.9375    0.0000 C   0  0  2  0  0  0           0  0  0
   10.7000   -3.5167    0.0000 N   0  0  0  0  0  0           0  0  0
    7.9542   -2.5292    0.0000 C   0  0  0  0  0  0           0  0  0
    5.0542   -1.8542    0.0000 C   0  0  0  0  0  0           0  0  0
    4.5625   -2.5292    0.0000 C   0  0  0  0  0  0           0  0  0
   10.8250   -2.5167    0.0000 C   0  0  0  0  0  0           0  0  0
    8.6750   -2.9417    0.0000 N   0  0  0  0  0  0           0  0  0
   11.5167   -4.3417    0.0000 O   0  0  0  0  0  0           0  0  0
    9.8542   -4.3417    0.0000 O   0  0  0  0  0  0           0  0  0
    9.3917   -2.5292    0.0000 C   0  0  0  0  0  0           0  0  0
    0.8167   -3.2042    0.0000 N   0  0  0  0  0  0           0  0  0
    8.1625   -1.7292    0.0000 O   0  0  0  0  0  0           0  0  0
   10.8250   -1.6917    0.0000 O   0  0  0  0  0  0           0  0  0
    3.7292   -2.5167    0.0000 C   0  0  0  0  0  0           0  0  0
   10.6875   -5.1750    0.0000 C   0  0  0  0  0  0           0  0  0
   11.5542   -2.9250    0.0000 O   0  0  0  0  0  0           0  0  0
    3.3042   -3.2375    0.0000 C   0  0  0  0  0  0           0  0  0
    2.4792   -3.2292    0.0000 C   0  0  3  0  0  0           0  0  0
    1.2375   -2.4917    0.0000 C   0  0  0  0  0  0           0  0  0
    1.2167   -3.9292    0.0000 C   0  0  0  0  0  0           0  0  0
    2.0667   -2.5042    0.0000 C   0  0  0  0  0  0           0  0  0
    2.0625   -3.9417    0.0000 C   0  0  0  0  0  0           0  0  0
    9.9625   -5.5917    0.0000 C   0  0  0  0  0  0           0  0  0
    9.9542   -6.4167    0.0000 C   0  0  0  0  0  0           0  0  0
    9.2292   -6.8292    0.0000 C   0  0  0  0  0  0           0  0  0
    9.6917   -3.6542    0.0000 H   0  0  0  0  0  0           0  0  0
  2  9  1  0     0  0
  3  1  2  0     0  0
  4  1  1  0     0  0
  5  4  1  0     0  0
  6  1  1  0     0  0
  7  3  1  0     0  0
  8 17  1  0     0  0
  8  9  1  1     0  0
 10  5  1  0     0  0
 11  3  1  0     0  0
 12  6  1  0     0  0
 13  8  1  0     0  0
 14 10  1  0     0  0
 15  2  2  0     0  0
 16  2  2  0     0  0
 17 14  1  0     0  0
 18 27  1  0     0  0
 19 10  2  0     0  0
 20 13  2  0     0  0
 21 12  1  0     0  0
 22  2  1  0     0  0
 23 13  1  0     0  0
 24 21  1  0     0  0
 25 24  1  0     0  0
 26 28  1  0     0  0
 27 29  1  0     0  0
 28 25  1  0     0  0
 29 25  1  0     0  0
 30 22  1  0     0  0
 31 30  1  0     0  0
 32 31  1  0     0  0
  8 33  1  6     0  0
 12 11  2  0     0  0
  7  5  2  0     0  0
 18 26  1  0     0  0
M  END