
  SciTegic05171617272D

 24 26  0  0  1  0            999 V2000
    8.2994    1.2613    0.0000 O   0  0
    7.1253    1.0134    0.0000 C   0  0
    6.1219    2.1295    0.0000 C   0  0  2  0  0  0
    6.4939    3.2703    0.0000 O   0  0
    4.6534    1.8194    0.0000 C   0  0
    3.6500    2.9355    0.0000 N   0  0
    2.1812    2.6271    0.0000 C   0  0
    1.7138    1.2033    0.0000 C   0  0
    2.5889    0.0182    0.0000 C   0  0
    1.7138   -1.2033    0.0000 N   0  0
    0.2917   -0.7475    0.0000 C   0  0
    0.2917    0.7475    0.0000 C   0  0
   -1.0028    1.5132    0.0000 N   0  0
   -2.3155    0.7475    0.0000 C   0  0
   -2.3155   -0.7475    0.0000 N   0  0
   -1.0028   -1.5132    0.0000 C   0  0
   -0.9991   -2.7132    0.0000 O   0  0
    4.1182    4.3614    0.0000 C   0  0
    3.1182    5.4805    0.0000 C   0  0
    3.5841    6.9064    0.0000 C   0  0
    2.5823    8.0228    0.0000 C   0  0
    1.1145    7.7135    0.0000 C   0  0
    0.6486    6.2877    0.0000 C   0  0
    1.6503    5.1712    0.0000 C   0  0
  1  2  1  0
  2  3  1  0
  3  4  1  1
  3  5  1  0
  5  6  1  0
  6  7  1  0
  7  8  1  0
  8  9  2  0
  9 10  1  0
 10 11  1  0
 11 12  2  0
  8 12  1  0
 12 13  1  0
 13 14  2  0
 14 15  1  0
 15 16  1  0
 11 16  1  0
 16 17  2  0
  6 18  1  0
 18 19  1  0
 19 20  2  0
 20 21  1  0
 21 22  2  0
 22 23  1  0
 23 24  2  0
 19 24  1  0
M  END