
  SciTegic09261414532D

 32 35  0  0  0  0            999 V2000
   10.8551  -14.4920    0.0000 O   0  0
    9.4906  -16.1791    0.0000 C   0  0
   10.1843  -15.7474    0.0000 C   0  0
    5.1715  -14.6782    0.0000 C   0  0
    6.5947  -14.6317    0.0000 C   0  0
    7.3435  -15.8388    0.0000 O   0  0
    4.4227  -13.4712    0.0000 O   0  0
    8.0124  -14.5869    0.0000 C   0  0
    5.8955  -15.0651    0.0000 C   0  0
    5.1467  -13.8580    0.0000 C   0  0
    7.2636  -13.3799    0.0000 O   0  0
    5.8404  -13.4264    0.0000 C   0  0
    7.3187  -15.0186    0.0000 C   0  0
    8.7666  -15.7922    0.0000 C   0  0
    7.9876  -13.7667    0.0000 C   0  0
    8.7363  -14.9737    0.0000 C   0  0
   11.6075  -15.7009    0.0000 C   0  0
    6.5644  -13.8132    0.0000 C   0  0
   10.9083  -16.1343    0.0000 O   0  0
    9.4355  -14.5404    0.0000 C   0  0
   10.1595  -14.9272    0.0000 C   0  0
    3.7158  -13.8768    0.0000 C   0  0  1  0  0  0
    3.7158  -14.6940    0.0000 C   0  0  2  0  0  0
    4.4207  -15.1026    0.0000 O   0  0
    3.0067  -15.1026    0.0000 C   0  0  1  0  0  0
    3.0067  -15.9198    0.0000 O   0  0
    2.2976  -14.6940    0.0000 C   0  0  2  0  0  0
    1.5926  -15.1026    0.0000 O   0  0
    2.2976  -13.8768    0.0000 C   0  0  2  0  0  0
    3.0067  -13.4682    0.0000 O   0  0
    1.5926  -13.4682    0.0000 C   0  0
    1.5926  -12.6510    0.0000 O   0  0
 18 11  1  0
 10 12  2  0
 15 11  1  0
  2 14  1  0
  5  9  1  0
  3 19  1  0
 21  1  1  0
 10  7  1  0
 20 21  2  0
 15  8  2  0
  8 13  1  0
  8 16  1  0
 13  5  1  0
  4 10  1  0
 16 14  2  0
 21  3  1  0
 12 18  1  0
  3  2  2  0
 19 17  1  0
 16 20  1  0
 13  6  2  0
  5 18  2  0
  9  4  2  0
 22  7  1  1
 22 23  1  0
 23 24  1  6
 23 25  1  0
 25 26  1  1
 25 27  1  0
 27 28  1  6
 27 29  1  0
 29 30  1  0
 29 31  1  1
 31 32  1  0
 22 30  1  0
M  END