
  Mrv0541 04051115152D          

 39 41  0  0  0  0            999 V2000
   -0.3647    0.3880    0.0000 N   0  0  0  0  0  0  0  0  0  0  0  0
    0.3497    0.8005    0.0000 C   0  0  0  0  0  0  0  0  0  0  0  0
    1.0642    0.3880    0.0000 N   0  0  0  0  0  0  0  0  0  0  0  0
    1.0642   -0.4370    0.0000 C   0  0  0  0  0  0  0  0  0  0  0  0
    0.3497   -0.8495    0.0000 C   0  0  0  0  0  0  0  0  0  0  0  0
   -0.3647   -0.4370    0.0000 C   0  0  0  0  0  0  0  0  0  0  0  0
    1.7787   -1.6745    0.0000 C   0  0  0  0  0  0  0  0  0  0  0  0
    1.0642   -2.0870    0.0000 C   0  0  0  0  0  0  0  0  0  0  0  0
    0.3497   -1.6745    0.0000 C   0  0  0  0  0  0  0  0  0  0  0  0
    1.7787   -0.8495    0.0000 C   0  0  0  0  0  0  0  0  0  0  0  0
    2.4931   -2.0870    0.0000 O   0  0  0  0  0  0  0  0  0  0  0  0
    1.0642   -2.9120    0.0000 O   0  0  0  0  0  0  0  0  0  0  0  0
    0.3497   -3.3245    0.0000 C   0  0  0  0  0  0  0  0  0  0  0  0
   -1.0792   -0.8495    0.0000 N   0  0  0  0  0  0  0  0  0  0  0  0
   -1.7937   -0.4370    0.0000 C   0  0  0  0  0  0  0  0  0  0  0  0
   -2.5082   -0.8495    0.0000 C   0  0  0  0  0  0  0  0  0  0  0  0
   -3.2226   -0.4370    0.0000 C   0  0  0  0  0  0  0  0  0  0  0  0
   -3.2226    0.3880    0.0000 N   0  0  0  0  0  0  0  0  0  0  0  0
   -2.5082    0.8005    0.0000 C   0  0  0  0  0  0  0  0  0  0  0  0
   -1.7937    0.3880    0.0000 C   0  0  0  0  0  0  0  0  0  0  0  0
    0.3497    1.6255    0.0000 N   0  0  0  0  0  0  0  0  0  0  0  0
    1.0642    2.0380    0.0000 C   0  0  0  0  0  0  0  0  0  0  0  0
    1.0642    2.8630    0.0000 C   0  0  0  0  0  0  0  0  0  0  0  0
    1.7787    3.2755    0.0000 C   0  0  0  0  0  0  0  0  0  0  0  0
    1.7787    4.1005    0.0000 N   0  0  0  0  0  0  0  0  0  0  0  0
    1.0642    4.5130    0.0000 C   0  0  0  0  0  0  0  0  0  0  0  0
    2.4931    4.5130    0.0000 C   0  0  0  0  0  0  0  0  0  0  0  0
    3.2076   -1.6745    0.0000 C   0  0  0  0  0  0  0  0  0  0  0  0
    3.9221   -2.0870    0.0000 C   0  0  0  0  0  0  0  0  0  0  0  0
    4.6365   -1.6745    0.0000 C   0  0  0  0  0  0  0  0  0  0  0  0
    5.3510   -2.0870    0.0000 C   0  0  0  0  0  0  0  0  0  0  0  0
    6.0655   -1.6745    0.0000 C   0  0  0  0  0  0  0  0  0  0  0  0
    6.7800   -2.0870    0.0000 N   0  0  0  0  0  0  0  0  0  0  0  0
   -3.9371    0.8005    0.0000 C   0  0  0  0  0  0  0  0  0  0  0  0
   -4.6516    0.3880    0.0000 C   0  0  0  0  0  0  0  0  0  0  0  0
   -5.3660    0.8005    0.0000 C   0  0  0  0  0  0  0  0  0  0  0  0
   -6.0805    0.3880    0.0000 C   0  0  0  0  0  0  0  0  0  0  0  0
   -6.7950    0.8005    0.0000 C   0  0  0  0  0  0  0  0  0  0  0  0
   -7.5095    0.3880    0.0000 N   0  0  0  0  0  0  0  0  0  0  0  0
  2  1  2  0  0  0  0
  6  1  1  0  0  0  0
  2  3  1  0  0  0  0
  2 21  1  0  0  0  0
  4  3  2  0  0  0  0
  4 10  1  0  0  0  0
  4  5  1  0  0  0  0
  5  9  1  0  0  0  0
  5  6  2  0  0  0  0
  6 14  1  0  0  0  0
  7 11  1  0  0  0  0
  7 10  2  0  0  0  0
  7  8  1  0  0  0  0
  8 12  1  0  0  0  0
  8  9  2  0  0  0  0
 28 11  1  0  0  0  0
 13 12  1  0  0  0  0
 15 14  1  0  0  0  0
 15 16  1  0  0  0  0
 15 20  1  0  0  0  0
 16 17  1  0  0  0  0
 17 18  1  0  0  0  0
 19 18  1  0  0  0  0
 34 18  1  0  0  0  0
 19 20  1  0  0  0  0
 22 21  1  0  0  0  0
 22 23  1  0  0  0  0
 23 24  1  0  0  0  0
 24 25  1  0  0  0  0
 26 25  1  0  0  0  0
 27 25  1  0  0  0  0
 28 29  1  0  0  0  0
 29 30  1  0  0  0  0
 30 31  1  0  0  0  0
 31 32  1  0  0  0  0
 32 33  1  0  0  0  0
 34 35  1  0  0  0  0
 35 36  1  0  0  0  0
 36 37  1  0  0  0  0
 37 38  1  0  0  0  0
 38 39  1  0  0  0  0
M  END