
          11280715132D 1   1.00000     0.00000     0

 27 29  0     0  0            999 V2000
    1.6917   -4.9167    0.0000 N   0  0  3  0  0  0           0  0  0
    0.9917   -3.6792    0.0000 N   0  0  3  0  0  0           0  0  0
    0.9917   -4.5042    0.0000 C   0  0  0  0  0  0           0  0  0
    2.4042   -4.5042    0.0000 C   0  0  3  0  0  0           0  0  0
    2.4042   -3.6792    0.0000 C   0  0  3  0  0  0           0  0  0
    1.6917   -3.2667    0.0000 C   0  0  0  0  0  0           0  0  0
    3.1917   -4.7625    0.0000 N   0  0  0  0  0  0           0  0  0
    3.1917   -3.4250    0.0000 N   0  0  0  0  0  0           0  0  0
    3.6792   -4.0917    0.0000 C   0  0  3  0  0  0           0  0  0
    0.2750   -4.9167    0.0000 O   0  0  0  0  0  0           0  0  0
    1.6792   -2.4417    0.0000 O   0  0  0  0  0  0           0  0  0
    0.2542   -8.2167    0.0000 C   0  0  0  0  0  0           0  0  0
    1.6917   -5.7417    0.0000 C   0  0  0  0  0  0           0  0  0
    4.5042   -4.0917    0.0000 C   0  0  3  0  0  0           0  0  0
    0.2750   -3.2667    0.0000 C   0  0  0  0  0  0           0  0  0
    0.9750   -8.6292    0.0000 O   0  0  0  0  0  0           0  0  0
    0.2542   -7.3917    0.0000 O   0  0  0  0  0  0           0  0  0
    0.9792   -6.1542    0.0000 C   0  0  0  0  0  0           0  0  0
   -1.1750   -8.2167    0.0000 Br  0  0  0  0  0  0           0  0  0
   -0.4583   -8.6292    0.0000 C   0  0  0  0  0  0           0  0  0
    0.9750   -6.9792    0.0000 C   0  0  0  0  0  0           0  0  0
    4.9792   -4.7625    0.0000 C   0  0  0  0  0  0           0  0  0
    4.9792   -3.4250    0.0000 C   0  0  0  0  0  0           0  0  0
    0.2667   -2.4417    0.0000 C   0  0  0  0  0  0           0  0  0
   -0.4458   -2.0292    0.0000 C   0  0  0  0  0  0           0  0  0
    5.7750   -3.6792    0.0000 C   0  0  0  0  0  0           0  0  0
    5.7750   -4.5042    0.0000 C   0  0  0  0  0  0           0  0  0
  2  3  1  0     0  0
  3  1  1  0     0  0
  4  1  1  0     0  0
  5  4  1  0     0  0
  6  5  1  0     0  0
  7  4  1  0     0  0
  8  5  1  0     0  0
  9  7  1  0     0  0
 10  3  2  0     0  0
 11  6  2  0     0  0
 12 17  1  0     0  0
 13  1  1  0     0  0
 14  9  1  0     0  0
 15  2  1  0     0  0
 16 12  2  0     0  0
 17 21  1  0     0  0
 18 13  1  0     0  0
 19 20  1  0     0  0
 20 12  1  0     0  0
 21 18  1  0     0  0
 22 14  1  0     0  0
 23 14  1  0     0  0
 24 15  1  0     0  0
 25 24  1  0     0  0
 26 23  1  0     0  0
 27 22  1  0     0  0
  8  9  1  0     0  0
  6  2  1  0     0  0
 26 27  1  0     0  0
M  END