
          08180812492D 1   1.00000     0.00000     0

 28 30  0     0  0            999 V2000
   -0.3389   -1.2666    0.0000 C   0  0  0  0  0  0           0  0  0
   -0.3401   -2.0940    0.0000 C   0  0  0  0  0  0           0  0  0
    0.3747   -2.5069    0.0000 C   0  0  0  0  0  0           0  0  0
    1.0912   -2.0935    0.0000 C   0  0  0  0  0  0           0  0  0
    1.0883   -1.2630    0.0000 C   0  0  0  0  0  0           0  0  0
    0.3729   -0.8539    0.0000 C   0  0  0  0  0  0           0  0  0
   -1.0549   -2.5059    0.0000 C   0  0  0  0  0  0           0  0  0
   -1.7690   -2.0929    0.0000 N   0  0  3  0  0  0           0  0  0
   -1.0555   -3.3309    0.0000 O   0  0  0  0  0  0           0  0  0
   -1.7690   -1.2682    0.0000 C   0  0  0  0  0  0           0  0  0
   -2.4790   -0.8552    0.0000 C   0  0  0  0  0  0           0  0  0
   -3.1962   -1.2637    0.0000 N   0  0  3  0  0  0           0  0  0
   -3.1989   -2.0896    0.0000 C   0  0  0  0  0  0           0  0  0
   -2.4843   -2.5072    0.0000 C   0  0  0  0  0  0           0  0  0
    1.8012   -0.8478    0.0000 O   0  0  0  0  0  0           0  0  0
    1.7981   -0.0228    0.0000 C   0  0  0  0  0  0           0  0  0
    2.5128    0.3876    0.0000 C   0  0  0  0  0  0           0  0  0
    2.5100    1.2118    0.0000 C   0  0  0  0  0  0           0  0  0
    1.7935    1.6224    0.0000 C   0  0  0  0  0  0           0  0  0
    1.0782    1.2028    0.0000 C   0  0  0  0  0  0           0  0  0
    1.0845    0.3799    0.0000 C   0  0  0  0  0  0           0  0  0
    1.8063   -2.5049    0.0000 C   0  0  0  0  0  0           0  0  0
    2.5201   -2.0913    0.0000 N   0  0  0  0  0  0           0  0  0
    3.2352   -2.5027    0.0000 C   0  0  0  0  0  0           0  0  0
   -3.9088   -0.8479    0.0000 C   0  0  3  0  0  0           0  0  0
   -3.9050   -0.0229    0.0000 C   0  0  0  0  0  0           0  0  0
   -4.6252   -1.2571    0.0000 C   0  0  0  0  0  0           0  0  0
    1.7893    2.4474    0.0000 Cl  0  0  0  0  0  0           0  0  0
 12 13  1  0     0  0
 13 14  1  0     0  0
  2  7  1  0     0  0
  5 15  1  0     0  0
  3  4  2  0     0  0
 15 16  1  0     0  0
  7  8  1  0     0  0
 16 17  2  0     0  0
 17 18  1  0     0  0
  7  9  2  0     0  0
 18 19  2  0     0  0
  8 10  1  0     0  0
 19 20  1  0     0  0
  4  5  1  0     0  0
 20 21  2  0     0  0
 21 16  1  0     0  0
  2  3  1  0     0  0
  4 22  1  0     0  0
  5  6  2  0     0  0
 22 23  1  0     0  0
  6  1  1  0     0  0
 23 24  1  0     0  0
  1  2  2  0     0  0
 12 25  1  0     0  0
  8 14  1  0     0  0
 25 26  1  0     0  0
 10 11  1  0     0  0
 25 27  1  0     0  0
 11 12  1  0     0  0
 19 28  1  0     0  0
M  END