
  SciTegic06271319142D

 24 26  0  0  0  0            999 V2000
   -6.1484   -2.2259    0.0000 C   0  0  2  0  0  0
   -5.4344   -2.6393    0.0000 C   0  0
   -6.8540   -3.4743    0.0000 C   0  0  1  0  0  0
   -6.8749   -2.6225    0.0000 C   0  0  1  0  0  0
   -7.5555   -3.0651    0.0000 N   0  0
   -5.4136   -3.4618    0.0000 C   0  0
   -6.1484   -3.8793    0.0000 C   0  0
   -6.8624   -1.8501    0.0000 C   0  0
   -9.0043   -3.0651    0.0000 C   0  0
   -7.5555   -2.2635    0.0000 C   0  0
   -8.2820   -3.4868    0.0000 C   0  0
   -4.7079   -2.2259    0.0000 C   0  0
   -4.6996   -3.8668    0.0000 C   0  0
   -9.7350   -3.4910    0.0000 C   0  0
   -3.9856   -2.6393    0.0000 C   0  0
   -5.7350   -1.5077    0.0000 C   0  0
   -3.9856   -3.4618    0.0000 C   0  0
   -3.2591   -2.2217    0.0000 O   0  0
   -9.7350   -4.3428    0.0000 C   0  0
  -10.4364   -3.0860    0.0000 C   0  0
   -7.2757   -4.2050    0.0000 H   0  0
   -6.1609   -3.0359    0.0000 C   0  0
   -4.7068   -1.4009    0.0000 T   0  0
   -3.2727   -3.8770    0.0000 T   0  0
  2  1  1  0
  3  4  1  0
  4  1  1  0
  5 10  1  0
  6  2  1  0
  7  3  1  0
  8  1  1  0
  9 11  1  0
 10  8  1  0
 11  5  1  0
 12  2  2  0
 13  6  2  0
 14  9  2  0
 15 12  1  0
  1 16  1  1
 17 15  2  0
 18 15  1  0
 19 14  1  0
 20 14  1  0
  3 21  1  1
  3  5  1  0
  6  7  1  0
 13 17  1  0
  4 22  1  1
 12 23  1  0
 17 24  1  0
M  END