
          11280714522D 1   1.00000     0.00000     0

 15 15  0     0  0            999 V2000
    2.5500   -4.2292    0.0000 C   0  0  0  0  0  0           0  0  0
    2.0292   -5.1375    0.0000 C   0  0  0  0  0  0           0  0  0
    2.5500   -4.8292    0.0000 C   0  0  0  0  0  0           0  0  0
    1.5125   -4.8375    0.0000 C   0  0  0  0  0  0           0  0  0
    2.0292   -3.9292    0.0000 C   0  0  0  0  0  0           0  0  0
    1.5125   -4.2292    0.0000 C   0  0  0  0  0  0           0  0  0
    3.0667   -3.9250    0.0000 C   0  0  0  0  0  0           0  0  0
    3.0667   -5.1292    0.0000 Br  0  0  0  0  0  0           0  0  0
    0.9917   -5.1292    0.0000 O   0  0  0  0  0  0           0  0  0
    0.9917   -3.9292    0.0000 O   0  0  0  0  0  0           0  0  0
    4.1042   -3.9167    0.0000 N   0  0  0  0  0  0           0  0  0
    3.5875   -4.2167    0.0000 C   0  0  3  0  0  0           0  0  0
    0.9917   -5.7292    0.0000 C   0  0  0  0  0  0           0  0  0
    0.4750   -4.2292    0.0000 C   0  0  0  0  0  0           0  0  0
    3.5875   -4.8250    0.0000 C   0  0  0  0  0  0           0  0  0
  2  3  2  0     0  0
  3  1  1  0     0  0
  4  6  2  0     0  0
  5  1  2  0     0  0
  6  5  1  0     0  0
  7  1  1  0     0  0
  8  3  1  0     0  0
  9  4  1  0     0  0
 10  6  1  0     0  0
 11 12  1  0     0  0
 12  7  1  0     0  0
 13  9  1  0     0  0
 14 10  1  0     0  0
 15 12  1  0     0  0
  2  4  1  0     0  0
M  END