
  SciTegic11201309402D

 57 62  0  0  0  0            999 V2000
    7.6015  -11.2650    0.0000 N   0  0
    5.5440  -10.0705    0.0000 N   0  0
    6.7899  -11.1165    0.0000 C   0  0
    6.0755  -10.7050    0.0000 C   0  0  1  0  0  0
    8.4188  -11.1165    0.0000 C   0  0  2  0  0  0
    5.2639   -9.2990    0.0000 C   0  0
    9.1275  -10.7050    0.0000 C   0  0
    5.5440   -7.6986    0.0000 N   0  0
    5.2639   -8.4760    0.0000 C   0  0  1  0  0  0
    9.6590  -10.0705    0.0000 N   0  0
    7.6015   -6.5155    0.0000 N   0  0
    9.6590   -7.6986    0.0000 N   0  0
    6.0755   -7.0700    0.0000 C   0  0
    8.4188   -6.6585    0.0000 C   0  0
    9.9448   -8.4760    0.0000 C   0  0
    4.7381  -10.2191    0.0000 C   0  0
    7.4815  -12.0766    0.0000 C   0  0
    6.7899   -6.6585    0.0000 C   0  0  2  0  0  0
    8.8017  -11.8480    0.0000 C   0  0
    5.7954  -11.4879    0.0000 C   0  0
    8.2301  -12.4367    0.0000 C   0  0
   12.3510   -7.5501    0.0000 C   0  0
    9.9448   -9.2990    0.0000 C   0  0  2  0  0  0
    9.1275   -7.0700    0.0000 C   0  0  2  0  0  0
    6.5041   -5.8811    0.0000 C   0  0
    4.4466  -10.9964    0.0000 C   0  0
    4.9781  -11.6251    0.0000 C   0  0
    7.0357   -5.2525    0.0000 C   0  0
    6.8413   -4.4466    0.0000 S   0  0
    6.5041  -11.8994    0.0000 O   0  0
    4.4466   -9.4475    0.0000 O   0  0
   12.8768   -6.9157    0.0000 N   0  0
    9.6590  -11.3394    0.0000 O   0  0
    5.5440   -6.4356    0.0000 O   0  0
   10.7564   -8.3330    0.0000 O   0  0
    8.6989   -5.8811    0.0000 O   0  0
    7.5329   -4.0122    0.0000 C   0  0
    7.8587   -5.3039    0.0000 C   0  0
    8.1673   -4.5437    0.0000 C   0  0
   12.6253   -8.3216    0.0000 N   0  0
   11.5280   -7.4071    0.0000 N   0  0
    4.4466   -8.3330    0.0000 C   0  0
    6.8070  -12.5396    0.0000 C   0  0
    3.9151   -8.9674    0.0000 O   0  0
    8.2873  -13.2597    0.0000 C   0  0
   10.7564   -9.4475    0.0000 C   0  0
    4.6980  -12.4024    0.0000 C   0  0
    3.6407  -11.1336    0.0000 C   0  0
    9.6590   -6.4356    0.0000 C   0  0
   12.0938   -8.9560    0.0000 C   0  0
   11.2879   -8.8131    0.0000 C   0  0
    6.8642  -13.3626    0.0000 C   0  0
    7.6015  -13.7227    0.0000 C   0  0
    3.3493  -11.9166    0.0000 C   0  0
    3.8922  -12.5396    0.0000 C   0  0
    9.3795  -11.3941    0.0000 H   0  0
    6.4206  -11.6436    0.0000 H   0  0
  4  2  1  0
  3  1  1  0
  4  3  1  0
  5  1  1  0
  6  2  1  0
  7  5  1  0
  8  9  1  0
  9  6  1  0
 10  7  1  0
 11 14  1  0
 12 15  1  0
 13  8  1  0
 14 24  1  0
 15 23  1  0
 16  2  1  0
 17  1  1  0
 18 13  1  0
 19  5  1  0
 20  4  1  0
 21 17  1  0
 22 40  2  0
 23 10  1  0
 24 12  1  0
 18 25  1  6
 26 27  2  0
 27 20  1  0
 28 25  1  0
 29 28  1  0
 30  3  2  0
 31  6  2  0
 32 22  1  0
 33  7  2  0
 34 13  2  0
 35 15  2  0
 36 14  2  0
 37 29  1  0
 38 28  2  0
 39 38  1  0
 40 50  1  0
 41 22  1  0
  9 42  1  6
 43 17  1  0
 44 42  1  0
 45 21  1  0
 23 46  1  6
 47 27  1  0
 48 26  1  0
 24 49  1  6
 50 51  1  0
 51 46  1  0
 52 43  1  0
 53 52  1  0
 54 55  1  0
 55 47  2  0
 19 21  1  0
 45 53  1  0
 16 26  1  0
 48 54  2  0
 18 11  1  0
 39 37  2  0
  5 56  1  1
  4 57  1  6
M  END