
          11280715492D 1   1.00000     0.00000     0

 29 33  0     0  0            999 V2000
   10.9736  -17.6958    0.0000 N   0  0  0  0  0  0           0  0  0
   10.9724  -18.5232    0.0000 C   0  0  0  0  0  0           0  0  0
   11.6872  -18.9360    0.0000 C   0  0  0  0  0  0           0  0  0
   12.4037  -18.5227    0.0000 C   0  0  0  0  0  0           0  0  0
   12.4008  -17.6922    0.0000 C   0  0  0  0  0  0           0  0  0
   11.6854  -17.2830    0.0000 C   0  0  0  0  0  0           0  0  0
   13.1188  -18.9341    0.0000 C   0  0  0  0  0  0           0  0  0
   14.0102  -19.9299    0.0000 N   0  0  0  0  0  0           0  0  0
   14.4219  -19.2184    0.0000 C   0  0  0  0  0  0           0  0  0
   13.8612  -18.5959    0.0000 N   0  0  0  0  0  0           0  0  0
   13.2031  -19.7515    0.0000 C   0  0  0  0  0  0           0  0  0
   12.5875  -20.2996    0.0000 C   0  0  0  0  0  0           0  0  0
   11.8660  -19.8971    0.0000 C   0  0  0  0  0  0           0  0  0
   11.1589  -20.3205    0.0000 C   0  0  0  0  0  0           0  0  0
   12.6023  -21.1211    0.0000 C   0  0  0  0  0  0           0  0  0
   15.2466  -19.1988    0.0000 C   0  0  0  0  0  0           0  0  0
   15.6718  -19.9034    0.0000 C   0  0  0  0  0  0           0  0  0
   16.4958  -19.8841    0.0000 C   0  0  0  0  0  0           0  0  0
   16.8921  -19.1595    0.0000 C   0  0  0  0  0  0           0  0  0
   16.4582  -18.4528    0.0000 C   0  0  0  0  0  0           0  0  0
   15.6357  -18.4755    0.0000 C   0  0  0  0  0  0           0  0  0
   11.9003  -21.5451    0.0000 C   0  0  0  0  0  0           0  0  0
   11.1688  -21.1452    0.0000 C   0  0  0  0  0  0           0  0  0
   10.4607  -21.5763    0.0000 C   0  0  0  0  0  0           0  0  0
   10.4777  -22.4092    0.0000 C   0  0  0  0  0  0           0  0  0
   11.2092  -22.8091    0.0000 C   0  0  0  0  0  0           0  0  0
   11.9236  -22.3762    0.0000 C   0  0  0  0  0  0           0  0  0
    9.7373  -21.1795    0.0000 N   0  0  0  0  0  0           0  0  0
    9.7193  -20.3547    0.0000 O   0  0  0  0  0  0           0  0  0
 14 23  1  0     0  0
  4  7  1  0     0  0
 22 15  1  0     0  0
 15 12  2  0     0  0
 11 12  1  0     0  0
  3  4  1  0     0  0
  9 16  1  0     0  0
 16 17  2  0     0  0
  4  5  2  0     0  0
 17 18  1  0     0  0
  2  3  2  0     0  0
 18 19  2  0     0  0
  8  9  1  0     0  0
 19 20  1  0     0  0
  9 10  2  0     0  0
 20 21  2  0     0  0
 21 16  1  0     0  0
 22 23  2  0     0  0
 10  7  1  0     0  0
  7 11  2  0     0  0
 11  8  1  0     0  0
  5  6  1  0     0  0
  6  1  2  0     0  0
 12 13  1  0     0  0
 22 27  1  0     0  0
 23 24  1  0     0  0
 24 25  1  0     0  0
 25 26  1  0     0  0
 26 27  1  0     0  0
  1  2  1  0     0  0
 24 28  2  0     0  0
 13 14  2  0     0  0
 28 29  1  0     0  0
M  END