
  SciTegic10311217562D

 43 39  0  0  0  0            999 V2000
   -0.5375   -2.1708    0.0000 C   0  0  2  0  0  0
   -0.5375   -2.9958    0.0000 C   0  0  1  0  0  0
    0.1745   -3.4041    0.0000 C   0  0  2  0  0  0
    0.8865   -2.9958    0.0000 O   0  0
    0.8865   -2.1708    0.0000 C   0  0  1  0  0  0
    0.1745   -1.7541    0.0000 C   0  0  1  0  0  0
    1.6022   -1.7604    0.0000 C   0  0
   -1.2532   -1.7604    0.0000 O   0  0
   -1.2514   -3.4093    0.0000 O   0  0
    0.1745   -0.9291    0.0000 O   0  0
    0.1745   -4.2291    0.0000 O   0  0
    2.3155   -2.1750    0.0000 N   0  0
    0.8890   -4.6416    0.0000 C   0  0
    3.0311   -1.7646    0.0000 C   0  0
    3.7444   -2.1792    0.0000 C   0  0
    3.0336   -0.9396    0.0000 O   0  0
    4.4601   -1.7688    0.0000 N   0  0
    5.1733   -2.1834    0.0000 C   0  0
    5.8890   -1.7730    0.0000 O   0  0
   -0.5400   -0.5166    0.0000 S   0  0
   -1.2544   -0.9291    0.0000 O   0  5
   -0.9583    0.2000    0.0000 O   0  0
   -0.1333    0.2000    0.0000 O   0  0
   -1.9664   -2.1750    0.0000 S   0  0
   -2.6821   -1.7646    0.0000 O   0  5
   -2.3833   -2.8875    0.0000 O   0  0
   -1.5583   -2.8875    0.0000 O   0  0
   -1.2502   -4.2343    0.0000 S   0  0
   -1.9640   -4.6479    0.0000 O   0  5
   -0.4292   -4.2333    0.0000 O   0  0
   -0.8458   -4.9458    0.0000 O   0  0
    4.4613   -0.9461    0.0000 C   0  0
    5.1709   -3.0084    0.0000 C   0  0
    5.1764   -0.5347    0.0000 C   0  0
    5.1777    0.2903    0.0000 O   0  0
    5.8928    0.7017    0.0000 S   0  0
    6.6066    0.2882    0.0000 O   0  5
    5.4750    1.4209    0.0000 O   0  0
    6.3000    1.4209    0.0000 O   0  0
   -3.8708   -1.1875    0.0000 Na  0  3
   -2.3708    0.9958    0.0000 Na  0  3
   -2.9667   -5.1167    0.0000 Na  0  3
    7.6250    0.2167    0.0000 Na  0  3
  3  4  1  0
  3 11  1  6
 20 22  2  0
  4  5  1  0
 20 23  2  0
  7 12  1  0
  8 24  1  0
  5  6  1  0
 24 25  1  0
 11 13  1  0
 24 26  2  0
 24 27  2  0
 12 14  1  0
  5  7  1  1
  9 28  1  0
 14 15  1  0
 28 29  1  0
  1  2  1  0
 28 30  2  0
 14 16  2  0
 28 31  2  0
  1  8  1  1
 15 17  1  0
 17 32  1  0
  1  6  1  0
 18 33  1  0
 17 18  1  0
 32 34  1  0
  2  9  1  1
 34 35  1  0
 18 19  2  0
 35 36  1  0
  2  3  1  0
 36 37  1  0
 10 20  1  0
 36 38  2  0
  6 10  1  6
 36 39  2  0
 20 21  1  0
M  CHG  8  21  -1  25  -1  29  -1  37  -1  40   1  41   1  42   1  43   1
M  END