
  SciTegic07291412072D

 61 68  0  0  0  0            999 V2000
    1.2585   -2.4829    0.0000 N   0  0
    3.3406   -7.1472    0.0000 N   0  0
    2.0400   -2.7473    0.0000 C   0  0
    1.7164   -1.1293    0.0000 C   0  0
    2.6872   -5.9832    0.0000 C   0  0
    3.4367   -6.3278    0.0000 C   0  0
    2.4979   -1.3937    0.0000 N   0  0
    2.6597   -2.2027    0.0000 C   0  0  1  0  0  0
    1.0967   -1.6739    0.0000 C   0  0  2  0  0  0
    3.9470   -7.7066    0.0000 C   0  0
    2.5316   -7.3090    0.0000 C   0  0
    5.9474   -4.0691    0.0000 C   0  0
    2.1278   -6.5896    0.0000 C   0  0
    3.9265   -4.8940    0.0000 C   0  0
    5.3277   -4.6137    0.0000 C   0  0  1  0  0  0
    4.5462   -4.3494    0.0000 N   0  0
    3.4412   -2.4670    0.0000 C   0  0
    6.7289   -4.3335    0.0000 N   0  0
    3.6030   -3.2760    0.0000 C   0  0
    3.1451   -4.6296    0.0000 C   0  0  1  0  0  0
    2.5254   -5.1742    0.0000 C   0  0
    2.9833   -3.8206    0.0000 N   0  0
    0.5100   -2.1360    0.0000 C   0  0
    3.7658   -8.5114    0.0000 O   0  0
    1.5546   -0.3203    0.0000 O   0  0
    2.2018   -3.5563    0.0000 O   0  0
    0.3673   -1.3876    0.0000 C   0  0
    7.3486   -3.7889    0.0000 C   0  0
    5.4895   -5.4227    0.0000 C   0  0
    4.7347   -7.4611    0.0000 O   0  0
    5.7856   -3.2602    0.0000 O   0  0
    4.0883   -5.7030    0.0000 O   0  0
    4.3845   -3.5404    0.0000 O   0  0
    0.6497   -1.0974    0.0000 C   0  0
   -0.3293   -2.4949    0.0000 C   0  0
   -0.4365   -1.7395    0.0000 C   0  0
    0.4050   -0.4915    0.0000 C   0  0
    4.3722   -9.0708    0.0000 C   0  0
    8.1301   -4.0533    0.0000 C   0  0
    6.2710   -5.6871    0.0000 C   0  0
    2.1106   -8.0184    0.0000 C   0  0
    4.1910   -9.8756    0.0000 C   0  0
    1.3028   -6.5797    0.0000 C   0  0
    7.3353   -4.8929    0.0000 C   0  0
    6.4328   -6.4961    0.0000 C   0  0
    8.2919   -4.8622    0.0000 C   0  0
    8.7498   -3.5087    0.0000 C   0  0
    6.8907   -5.1425    0.0000 C   0  0
    3.4033  -10.1211    0.0000 C   0  0
    4.7974  -10.4350    0.0000 C   0  0
    1.2856   -8.0085    0.0000 C   0  0
    0.8818   -7.2891    0.0000 C   0  0
    7.6722   -5.4069    0.0000 C   0  0
    7.2143   -6.7604    0.0000 C   0  0
    9.5313   -3.7730    0.0000 C   0  0
    3.2221  -10.9260    0.0000 C   0  0
    4.6161  -11.2399    0.0000 C   0  0
    9.0734   -5.1266    0.0000 C   0  0
    3.8285  -11.4853    0.0000 C   0  0
    7.8340   -6.2158    0.0000 C   0  0
    9.6931   -4.5820    0.0000 C   0  0
  2  6  1  0
  3  1  1  0
  9  4  1  1
  5 21  1  0
  6  5  2  0
  7  4  1  0
  8  3  1  0
  9  1  1  0
 10  2  1  0
 11 13  2  0
 12 15  1  0
 13  5  1  0
 14 20  1  0
 15 16  1  0
 16 14  1  0
  8 17  1  1
 18 12  1  0
 19 17  1  0
 20 22  1  0
 20 21  1  1
 22 19  1  0
 23  1  1  0
 24 10  1  0
 25  4  2  0
 26  3  2  0
 27  9  1  0
 28 18  1  0
 15 29  1  6
 30 10  2  0
 31 12  2  0
 32 14  2  0
 33 19  2  0
 34 23  1  0
 35 23  1  0
 36 35  1  0
 37 34  1  0
 38 24  1  0
 39 28  1  0
 40 29  1  0
 41 11  1  0
 42 38  1  0
 43 13  1  0
 44 18  1  0
 45 40  1  0
 46 39  2  0
 47 39  1  0
 48 40  2  0
 49 42  2  0
 50 42  1  0
 51 52  1  0
 52 43  2  0
 53 48  1  0
 54 45  2  0
 55 47  2  0
 56 49  1  0
 57 50  2  0
 58 46  1  0
 59 57  1  0
 60 53  2  0
 61 55  1  0
  7  8  1  0
 36 27  1  0
 37 27  1  0
  2 11  1  0
 51 41  2  0
 60 54  1  0
 61 58  2  0
 59 56  2  0
M  END