
  SciTegic06051315212D

 27 30  0  0  0  0            999 V2000
   11.7653   -5.6006    0.0000 C   0  0
   11.7642   -6.4201    0.0000 C   0  0
   12.4722   -6.8291    0.0000 C   0  0
   13.1798   -6.4160    0.0000 C   0  0
   13.8883   -6.8231    0.0000 C   0  0
   14.5966   -6.4123    0.0000 C   0  0
   14.5919   -5.5901    0.0000 C   0  0
   13.8085   -5.1992    0.0000 C   0  0
   12.4704   -5.1918    0.0000 C   0  0
   13.1811   -5.6006    0.0000 C   0  0
   12.6406   -4.3904    0.0000 C   0  0
   13.6517   -4.3661    0.0000 C   0  0
   12.1281   -3.7539    0.0000 O   0  0
   13.9184   -3.7145    0.0000 C   0  0
   14.7356   -3.7119    0.0000 C   0  0
   13.5554   -2.9824    0.0000 C   0  0
   15.5530   -3.7070    0.0000 N   0  0
   13.1886   -2.2491    0.0000 N   0  0
   13.8900   -7.6403    0.0000 O   0  0
   14.5986   -8.0474    0.0000 C   0  0
   14.5969   -8.8622    0.0000 C   0  0
   15.3047   -9.2693    0.0000 C   0  0
   16.0125   -8.8592    0.0000 C   0  0
   16.0082   -8.0378    0.0000 C   0  0
   15.2999   -7.6344    0.0000 C   0  0
   16.7216   -9.2654    0.0000 O   0  0
   16.7244  -10.0825    0.0000 C   0  0
  1  2  2  0
  2  3  1  0
  3  4  2  0
  9  1  1  0
 10  4  1  0
  4  5  1  0
  5  6  2  0
  6  7  1  0
  7  8  2  0
  8 10  1  0
  9 10  2  0
 11  9  1  0
  8 12  1  0
 11 12  1  0
 11 13  2  0
 12 14  2  0
 14 15  1  0
 14 16  1  0
 15 17  3  0
 16 18  3  0
  5 19  1  0
 19 20  1  0
 20 21  2  0
 21 22  1  0
 22 23  2  0
 23 24  1  0
 24 25  2  0
 25 20  1  0
 23 26  1  0
 26 27  1  0
M  END