
          11280715232D 1   1.00000     0.00000     0

 62 66  0     1  0            999 V2000
    4.2000   -7.7625    0.0000 N   0  0  0  0  0  0           0  0  0
    5.9125   -6.0917    0.0000 N   0  0  0  0  0  0           0  0  0
    1.8625   -7.2375    0.0000 N   0  0  0  0  0  0           0  0  0
    5.5375   -6.8292    0.0000 C   0  0  0  0  0  0           0  0  0
    6.2417   -8.0167    0.0000 C   0  0  0  0  0  0           0  0  0
    3.3792   -7.8500    0.0000 C   0  0  0  0  0  0           0  0  0
    1.3417   -6.6000    0.0000 C   0  0  0  0  0  0           0  0  0
    4.9417   -7.4042    0.0000 C   0  0  2  0  0  0           0  0  0
    6.0250   -5.2750    0.0000 C   0  0  1  0  0  0           0  0  0
    7.5417   -8.3250    0.0000 N   0  0  0  0  0  0           0  0  0
    5.8667   -4.4625    0.0000 C   0  0  0  0  0  0           0  0  0
    6.7792   -8.6417    0.0000 C   0  0  0  0  0  0           0  0  0
    2.5667   -7.6667    0.0000 C   0  0  1  0  0  0           0  0  0
    2.4417   -3.0667    0.0000 N   0  0  0  0  0  0           0  0  0
    1.0250   -5.0000    0.0000 N   0  0  0  0  0  0           0  0  0
    3.2375   -2.8417    0.0000 C   0  0  0  0  0  0           0  0  0
    5.4167   -8.0875    0.0000 C   0  0  0  0  0  0           0  0  0
    6.6667   -7.3125    0.0000 C   0  0  0  0  0  0           0  0  0
    1.0500   -5.8250    0.0000 C   0  0  1  0  0  0           0  0  0
    5.4542   -3.7417    0.0000 N   0  0  0  0  0  0           0  0  0
    7.4750   -7.5000    0.0000 C   0  0  0  0  0  0           0  0  0
    2.4542   -9.8542    0.0000 C   0  0  0  0  0  0           0  0  0
    6.2042   -7.3167    0.0000 O   0  0  0  0  0  0           0  0  0
    3.3292   -8.6750    0.0000 O   0  0  0  0  0  0           0  0  0
    0.6250   -7.0125    0.0000 O   0  0  0  0  0  0           0  0  0
    6.8542   -5.2500    0.0000 C   0  0  0  0  0  0           0  0  0
    4.0625   -2.8917    0.0000 C   0  0  0  0  0  0           0  0  0
    1.7667   -3.5417    0.0000 C   0  0  1  0  0  0           0  0  0
    6.4625   -4.2292    0.0000 O   0  0  0  0  0  0           0  0  0
    3.1417   -2.0167    0.0000 O   0  0  0  0  0  0           0  0  0
    1.6375   -9.9667    0.0000 O   0  0  0  0  0  0           0  0  0
    2.2542   -8.4375    0.0000 C   0  0  0  0  0  0           0  0  0
    1.2750   -4.2042    0.0000 C   0  0  0  0  0  0           0  0  0
   -1.1458   -6.3500    0.0000 C   0  0  3  0  0  0           0  0  0
    0.2375   -5.9792    0.0000 C   0  0  0  0  0  0           0  0  0
   -0.9333   -7.1500    0.0000 O   0  0  0  0  0  0           0  0  0
    4.8292   -3.2042    0.0000 C   0  0  0  0  0  0           0  0  0
    2.7667   -9.0917    0.0000 C   0  0  0  0  0  0           0  0  0
    2.9625  -10.5042    0.0000 N   0  0  0  0  0  0           0  0  0
   -0.5625   -5.7667    0.0000 C   0  0  0  0  0  0           0  0  0
   -1.9458   -6.1375    0.0000 N   0  0  0  0  0  0           0  0  0
    1.1875   -2.9500    0.0000 C   0  0  0  0  0  0           0  0  0
   -0.9375   -7.9750    0.0000 C   0  0  0  0  0  0           0  0  0
    7.2500   -4.5250    0.0000 C   0  0  0  0  0  0           0  0  0
   -1.6583   -8.3792    0.0000 C   0  0  0  0  0  0           0  0  0
    6.4292   -6.5167    0.0000 C   0  0  0  0  0  0           0  0  0
    8.0417   -6.9000    0.0000 C   0  0  0  0  0  0           0  0  0
    0.3875   -3.1542    0.0000 C   0  0  3  0  0  0           0  0  0
    8.0750   -4.5000    0.0000 C   0  0  0  0  0  0           0  0  0
    6.8125   -3.8167    0.0000 C   0  0  0  0  0  0           0  0  0
   -2.3708   -7.9625    0.0000 C   0  0  0  0  0  0           0  0  0
   -1.6583   -9.2042    0.0000 C   0  0  0  0  0  0           0  0  0
   -0.1958   -2.5542    0.0000 C   0  0  0  0  0  0           0  0  0
    0.1625   -3.9417    0.0000 C   0  0  0  0  0  0           0  0  0
    7.0000   -5.9167    0.0000 C   0  0  0  0  0  0           0  0  0
    7.8042   -6.1042    0.0000 C   0  0  0  0  0  0           0  0  0
    8.4667   -3.7667    0.0000 C   0  0  0  0  0  0           0  0  0
   -3.0833   -8.3667    0.0000 C   0  0  0  0  0  0           0  0  0
   -2.3708   -9.6125    0.0000 C   0  0  0  0  0  0           0  0  0
    7.2042   -3.0875    0.0000 C   0  0  0  0  0  0           0  0  0
    8.0292   -3.0667    0.0000 C   0  0  0  0  0  0           0  0  0
   -3.0875   -9.1917    0.0000 C   0  0  0  0  0  0           0  0  0
  2  4  1  0     0  0
  3 13  1  0     0  0
  4  8  1  0     0  0
  5 17  1  0     0  0
  6  1  1  0     0  0
  7  3  1  0     0  0
  8  1  1  0     0  0
  9  2  1  0     0  0
 10 12  1  0     0  0
 11  9  1  0     0  0
 12  5  2  0     0  0
 13  6  1  0     0  0
 14 28  1  0     0  0
 15 19  1  0     0  0
 16 27  1  0     0  0
  8 17  1  6     0  0
 18  5  1  0     0  0
 19  7  1  0     0  0
 20 11  1  0     0  0
 21 18  2  0     0  0
 22 38  1  0     0  0
 23  4  2  0     0  0
 24  6  2  0     0  0
 25  7  2  0     0  0
  9 26  1  1     0  0
 27 37  1  0     0  0
 28 33  1  0     0  0
 29 11  2  0     0  0
 30 16  2  0     0  0
 31 22  2  0     0  0
 13 32  1  1     0  0
 33 15  1  0     0  0
 34 40  1  0     0  0
 19 35  1  6     0  0
 36 34  1  0     0  0
 37 20  1  0     0  0
 38 32  1  0     0  0
 39 22  1  0     0  0
 40 35  1  0     0  0
 41 34  1  0     0  0
 28 42  1  1     0  0
 43 36  1  0     0  0
 44 26  1  0     0  0
 45 43  1  0     0  0
 46 18  1  0     0  0
 47 21  1  0     0  0
 48 42  1  0     0  0
 49 44  1  0     0  0
 50 44  2  0     0  0
 51 45  2  0     0  0
 52 45  1  0     0  0
 53 48  1  0     0  0
 54 48  1  0     0  0
 55 46  2  0     0  0
 56 55  1  0     0  0
 57 49  2  0     0  0
 58 51  1  0     0  0
 59 52  2  0     0  0
 60 50  1  0     0  0
 61 60  2  0     0  0
 62 59  1  0     0  0
 10 21  1  0     0  0
 56 47  2  0     0  0
 61 57  1  0     0  0
 16 14  1  0     0  0
 62 58  2  0     0  0
M  END