
          11280715412D 1   1.00000     0.00000     0

 40 43  0     0  0            999 V2000
    1.8167    2.8958    0.0000 S   0  0  3  0  0  0           0  0  0
    2.5292    1.6583    0.0000 C   0  0  0  0  0  0           0  0  0
    2.5292    2.4833    0.0000 N   0  0  0  0  0  0           0  0  0
    3.2500    1.2458    0.0000 C   0  0  0  0  0  0           0  0  0
    1.8167    1.2458    0.0000 N   0  0  0  0  0  0           0  0  0
    2.5292    0.0083    0.0000 N   0  0  0  0  0  0           0  0  0
    1.8167    0.4208    0.0000 C   0  0  0  0  0  0           0  0  0
    3.2500    0.4208    0.0000 C   0  0  0  0  0  0           0  0  0
    3.9625    1.6625    0.0000 O   0  0  0  0  0  0           0  0  0
    1.1042    0.0083    0.0000 C   0  0  0  0  0  0           0  0  0
    1.8125    3.7208    0.0000 C   0  0  0  0  0  0           0  0  0
    4.6792    1.2583    0.0000 C   0  0  0  0  0  0           0  0  0
    4.6792   -1.2292    0.0000 C   0  0  0  0  0  0           0  0  0
    1.6000    2.0958    0.0000 O   0  0  0  0  0  0           0  0  0
    1.0167    3.1083    0.0000 O   0  0  0  0  0  0           0  0  0
    5.3917   -1.6417    0.0000 C   0  0  0  0  0  0           0  0  0
    1.1042   -0.8167    0.0000 N   0  0  0  0  0  0           0  0  0
    0.3917    0.4208    0.0000 N   0  0  0  0  0  0           0  0  0
    1.8042    6.1875    0.0000 C   0  0  3  0  0  0           0  0  0
    1.8042    5.3542    0.0000 C   0  0  0  0  0  0           0  0  0
    5.3792    1.6708    0.0000 C   0  0  0  0  0  0           0  0  0
    1.1000    4.1167    0.0000 C   0  0  0  0  0  0           0  0  0
    2.5292    4.1250    0.0000 C   0  0  0  0  0  0           0  0  0
    2.5250    4.9500    0.0000 C   0  0  0  0  0  0           0  0  0
    1.0917    4.9417    0.0000 C   0  0  0  0  0  0           0  0  0
    3.9667    0.0083    0.0000 O   0  0  0  0  0  0           0  0  0
    5.3750    2.4958    0.0000 O   0  0  0  0  0  0           0  0  0
    3.9667   -0.8167    0.0000 C   0  0  0  0  0  0           0  0  0
   -0.3208   -0.8167    0.0000 C   0  0  0  0  0  0           0  0  0
   -0.3208    0.0083    0.0000 C   0  0  0  0  0  0           0  0  0
    0.3917   -1.2292    0.0000 C   0  0  0  0  0  0           0  0  0
    6.1042   -2.0500    0.0000 C   0  0  0  0  0  0           0  0  0
    4.6792    0.4333    0.0000 C   0  0  0  0  0  0           0  0  0
    2.5167    6.6042    0.0000 C   0  0  0  0  0  0           0  0  0
    1.0917    6.5917    0.0000 C   0  0  0  0  0  0           0  0  0
    2.6042    5.9792    0.0000 C   0  0  0  0  0  0           0  0  0
    6.1000    1.2708    0.0000 C   0  0  0  0  0  0           0  0  0
    4.6542    2.9000    0.0000 C   0  0  0  0  0  0           0  0  0
    5.3917    0.0208    0.0000 C   0  0  0  0  0  0           0  0  0
    6.1042    0.4375    0.0000 C   0  0  0  0  0  0           0  0  0
  2  3  1  0     0  0
  3  1  1  0     0  0
  4  2  2  0     0  0
  5  2  1  0     0  0
  6  7  1  0     0  0
  7  5  2  0     0  0
  8  4  1  0     0  0
  9  4  1  0     0  0
 10  7  1  0     0  0
 11  1  1  0     0  0
 12  9  1  0     0  0
 13 28  1  0     0  0
 14  1  2  0     0  0
 15  1  2  0     0  0
 16 13  3  0     0  0
 17 10  1  0     0  0
 18 10  2  0     0  0
 19 20  1  0     0  0
 20 24  2  0     0  0
 21 12  1  0     0  0
 22 11  1  0     0  0
 23 11  2  0     0  0
 24 23  1  0     0  0
 25 22  2  0     0  0
 26  8  1  0     0  0
 27 21  1  0     0  0
 28 26  1  0     0  0
 29 30  2  0     0  0
 30 18  1  0     0  0
 31 17  2  0     0  0
 32 16  1  0     0  0
 33 12  2  0     0  0
 34 19  1  0     0  0
 35 19  1  0     0  0
 36 19  1  0     0  0
 37 21  2  0     0  0
 38 27  1  0     0  0
 39 33  1  0     0  0
 40 39  2  0     0  0
 25 20  1  0     0  0
  6  8  2  0     0  0
 29 31  1  0     0  0
 37 40  1  0     0  0
M  END