
  SciTegic12121611302D

 37 41  0  0  0  0            999 V2000
    6.9420   -0.1864    0.0000 O   0  0
    6.3556   -1.2334    0.0000 S   0  0
    5.7423   -0.2019    0.0000 O   0  0
    2.6300    5.4281    0.0000 C   0  0
    1.5886    6.0244    0.0000 C   0  0  1  0  0  0
    0.5472    6.6206    0.0000 O   0  0
    2.6206    8.1293    0.0000 F   0  0
    1.5837    7.5252    0.0000 C   0  0
    0.5423    8.1215    0.0000 F   0  0
    4.8549   -1.2525    0.0000 N   0  0
    4.0872    0.0371    0.0000 C   0  0  1  0  0  0
    2.5889    0.0182    0.0000 C   0  0
    1.7138   -1.2033    0.0000 C   0  0
    0.2917   -0.7475    0.0000 C   0  0
    0.2917    0.7475    0.0000 C   0  0
    1.7138    1.2033    0.0000 S   0  0
   -1.0028    1.5132    0.0000 C   0  0
   -2.3155    0.7475    0.0000 C   0  0
   -2.3155   -0.7475    0.0000 C   0  0
   -1.0028   -1.5132    0.0000 C   0  0
   -0.9982    3.0140    0.0000 C   0  0
    0.2977    3.7689    0.0000 C   0  0
    0.2918    5.2689    0.0000 C   0  0
   -1.0102    6.0138    0.0000 C   0  0
   -2.3063    5.2587    0.0000 C   0  0
   -2.3004    3.7588    0.0000 C   0  0
    4.8205    1.3465    0.0000 C   0  0
    6.3205    1.3681    0.0000 C   0  0
    7.0518    2.6778    0.0000 C   0  0
    6.2832    3.9659    0.0000 C   0  0
    4.7834    3.9444    0.0000 C   0  0
    4.0521    2.6348    0.0000 C   0  0
    6.9354    0.3376    0.0000 Cl  0  0
    1.5792    8.7252    0.0000 F   0  0
    7.1233   -2.5230    0.0000 C   0  0
    7.0966   -3.9442    0.0000 C   0  0
    8.3855   -3.1769    0.0000 C   0  0
  2  1  2  0
  3  2  2  0
  5  4  1  0
  5  6  1  1
  8  7  1  0
  9  8  1  0
 12 13  2  0
 13 14  1  0
 14 15  1  0
 15 16  1  0
 12 16  1  0
 17 18  1  0
 18 19  2  0
 19 20  1  0
 14 20  2  0
 15 17  2  0
 21 22  1  0
 22 23  2  0
 23 24  1  0
 24 25  2  0
 25 26  1  0
 21 26  2  0
 17 21  1  0
 11 12  1  0
 27 28  1  0
 28 29  2  0
 29 30  1  0
 30 31  2  0
 31 32  1  0
 27 32  2  0
 28 33  1  0
 11 27  1  0
 11 10  1  1
 23  5  1  0
  5  8  1  0
  8 34  1  0
 10  2  1  0
  2 35  1  0
 36 35  1  0
 37 36  1  0
 35 37  1  0
M  END