
  Mrv0541 05211314572D          

 35 35  0  0  0  0            999 V2000
   -1.4473   -0.7429    0.0000 C   0  0  0  0  0  0  0  0  0  0  0  0
   -1.0348   -0.0284    0.0000 C   0  0  0  0  0  0  0  0  0  0  0  0
   -0.6223    0.6860    0.0000 C   0  0  0  0  0  0  0  0  0  0  0  0
   -1.7492    0.3841    0.0000 C   0  0  0  0  0  0  0  0  0  0  0  0
   -2.4637   -0.0284    0.0000 N   0  0  0  0  0  0  0  0  0  0  0  0
   -3.1782    0.3841    0.0000 S   0  0  0  0  0  0  0  0  0  0  0  0
   -3.5907   -0.3304    0.0000 O   0  0  0  0  0  0  0  0  0  0  0  0
   -2.7657    1.0985    0.0000 O   0  0  0  0  0  0  0  0  0  0  0  0
   -3.8926    0.7966    0.0000 C   0  0  0  0  0  0  0  0  0  0  0  0
   -4.6071    0.3841    0.0000 C   0  0  0  0  0  0  0  0  0  0  0  0
   -5.3216    0.7966    0.0000 C   0  0  0  0  0  0  0  0  0  0  0  0
   -5.3216    1.6216    0.0000 C   0  0  0  0  0  0  0  0  0  0  0  0
   -4.6071    2.0341    0.0000 C   0  0  0  0  0  0  0  0  0  0  0  0
   -3.8926    1.6216    0.0000 C   0  0  0  0  0  0  0  0  0  0  0  0
   -0.3203   -0.4409    0.0000 N   0  0  0  0  0  0  0  0  0  0  0  0
    0.3942   -0.0284    0.0000 C   0  0  0  0  0  0  0  0  0  0  0  0
    1.1087   -0.4409    0.0000 C   0  0  0  0  0  0  0  0  0  0  0  0
    1.1087   -1.2659    0.0000 O   0  0  0  0  0  0  0  0  0  0  0  0
    1.8231   -0.0284    0.0000 C   0  0  0  0  0  0  0  0  0  0  0  0
    2.5376   -0.4409    0.0000 O   0  0  0  0  0  0  0  0  0  0  0  0
    3.2521   -0.0284    0.0000 C   0  0  0  0  0  0  0  0  0  0  0  0
    3.2521    0.7966    0.0000 O   0  0  0  0  0  0  0  0  0  0  0  0
    3.9665   -0.4409    0.0000 C   0  0  0  0  0  0  0  0  0  0  0  0
    4.6810   -0.0284    0.0000 C   0  0  0  0  0  0  0  0  0  0  0  0
    5.3955   -0.4409    0.0000 C   0  0  0  0  0  0  0  0  0  0  0  0
    5.3955   -1.2659    0.0000 C   0  0  0  0  0  0  0  0  0  0  0  0
    4.6810   -1.6784    0.0000 C   0  0  0  0  0  0  0  0  0  0  0  0
    3.9665   -1.2659    0.0000 C   0  0  0  0  0  0  0  0  0  0  0  0
    3.2521   -1.6784    0.0000 F   0  0  0  0  0  0  0  0  0  0  0  0
    8.3419    1.0717    0.0000 O   0  0  0  0  0  0  0  0  0  0  0  0
    8.7544    0.3572    0.0000 C   0  0  0  0  0  0  0  0  0  0  0  0
    9.5794    0.3572    0.0000 O   0  0  0  0  0  0  0  0  0  0  0  0
    8.3419   -0.3572    0.0000 C   0  0  0  0  0  0  0  0  0  0  0  0
    8.7544   -1.0717    0.0000 O   0  0  0  0  0  0  0  0  0  0  0  0
    7.5169   -0.3572    0.0000 O   0  0  0  0  0  0  0  0  0  0  0  0
  1  2  1  0  0  0  0
  2  3  1  0  0  0  0
  2  4  1  0  0  0  0
  4  5  1  0  0  0  0
  5  6  1  0  0  0  0
  6  7  2  0  0  0  0
  6  8  2  0  0  0  0
  6  9  1  0  0  0  0
  9 10  2  0  0  0  0
 10 11  1  0  0  0  0
 11 12  2  0  0  0  0
 12 13  1  0  0  0  0
 13 14  2  0  0  0  0
 14  9  1  0  0  0  0
  2 15  1  0  0  0  0
 15 16  1  0  0  0  0
 16 17  1  0  0  0  0
 17 18  1  0  0  0  0
 17 19  1  0  0  0  0
 19 20  1  0  0  0  0
 20 21  1  0  0  0  0
 21 22  2  0  0  0  0
 21 23  1  0  0  0  0
 23 24  2  0  0  0  0
 24 25  1  0  0  0  0
 25 26  2  0  0  0  0
 26 27  1  0  0  0  0
 27 28  2  0  0  0  0
 28 23  1  0  0  0  0
 28 29  1  0  0  0  0
 30 31  1  0  0  0  0
 31 32  2  0  0  0  0
 31 33  1  0  0  0  0
 33 34  2  0  0  0  0
 33 35  1  0  0  0  0
M  END