
  SciTegic09261414482D

 21 22  0  0  0  0            999 V2000
    9.4560   -9.7629    0.0000 C   0  0
   10.1719   -9.3499    0.0000 C   0  0
   10.1691   -8.5199    0.0000 C   0  0
    9.4542   -8.1109    0.0000 C   0  0
   10.8816   -8.1049    0.0000 O   0  0
   11.5971   -8.5145    0.0000 C   0  0
   12.3095   -8.0995    0.0000 C   0  0
   13.0250   -8.5091    0.0000 C   0  0
   12.3064   -7.2751    0.0000 O   0  0
   13.7375   -8.0942    0.0000 N   0  0
   14.4530   -8.5037    0.0000 C   0  0
   15.1655   -8.0888    0.0000 C   0  0
   14.4561   -9.3282    0.0000 C   0  0
    8.7442   -8.5239    0.0000 C   0  0
    8.7416   -9.3503    0.0000 C   0  0
    8.0912   -9.8692    0.0000 C   0  0
    8.0940   -8.0046    0.0000 C   0  0
    7.2822   -9.6880    0.0000 N   0  0
    7.2834   -8.1899    0.0000 C   0  0
    6.9250   -8.9400    0.0000 C   0  0
    8.2763  -10.6727    0.0000 O   0  0
 15  1  1  0
  1  2  2  0
  2  3  1  0
  3  4  2  0
  4 14  1  0
  3  5  1  0
  5  6  1  0
  6  7  1  0
  7  8  1  0
  7  9  1  0
  8 10  1  0
 10 11  1  0
 11 12  1  0
 11 13  1  0
 14 15  2  0
 15 16  1  0
 14 17  1  0
 16 18  1  0
 17 19  1  0
 18 20  1  0
 19 20  1  0
 16 21  2  0
M  END