
  SciTegic01161211262D

 50 56  0  0  0  0            999 V2000
   17.3839  -16.0759    0.0000 C   0  0
   17.3837  -15.2502    0.0000 C   0  0
   16.6710  -14.8417    0.0000 C   0  0
   16.6713  -16.4930    0.0000 C   0  0
   15.9587  -16.0762    0.0000 C   0  0
   15.9602  -15.2523    0.0000 C   0  0
   15.2486  -14.8409    0.0000 N   0  0
   15.2497  -16.4869    0.0000 C   0  0
   14.5376  -16.0792    0.0000 C   0  0
   14.5383  -15.2526    0.0000 C   0  0
   13.8238  -14.8405    0.0000 C   0  0
   13.1082  -15.2539    0.0000 C   0  0
   13.1116  -16.0837    0.0000 C   0  0
   13.8266  -16.4920    0.0000 C   0  0
   15.2517  -17.3151    0.0000 N   0  0
   10.5493  -15.2083    0.0000 C   0  0
   11.3760  -15.2074    0.0000 C   0  0
   11.6326  -15.9925    0.0000 C   0  0
   10.9627  -16.4797    0.0000 N   0  0
   10.2972  -15.9925    0.0000 N   0  0
   11.7911  -14.4975    0.0000 C   0  0
   12.6177  -14.5047    0.0000 C   0  0
   13.0356  -13.7935    0.0000 C   0  0
   12.6279  -13.0745    0.0000 C   0  0
   11.7979  -13.0713    0.0000 C   0  0
   11.3839  -13.7832    0.0000 C   0  0
   10.1578  -14.4866    0.0000 C   0  0
   10.5930  -13.7837    0.0000 C   0  0
   10.2018  -13.0575    0.0000 C   0  0
    9.3757  -13.0330    0.0000 C   0  0
    8.9422  -13.7407    0.0000 C   0  0
    9.3359  -14.4641    0.0000 C   0  0
    8.9829  -12.3067    0.0000 Cl  0  0
   10.9615  -17.3053    0.0000 C   0  0
   10.2459  -17.7171    0.0000 N   0  0
   10.2446  -18.5427    0.0000 S   0  0
    9.5289  -18.9544    0.0000 C   0  0
    8.8170  -18.5380    0.0000 C   0  0
    8.1018  -18.9491    0.0000 C   0  0
    8.1001  -19.7756    0.0000 C   0  0
    8.8195  -20.1894    0.0000 C   0  0
    9.5318  -19.7760    0.0000 C   0  0
   10.6501  -19.2527    0.0000 O   0  0
   10.9544  -18.1226    0.0000 O   0  0
    7.3850  -20.1883    0.0000 Cl  0  0
   11.6759  -17.7193    0.0000 N   0  0
   12.3916  -17.3074    0.0000 C   0  0
   13.1060  -17.7214    0.0000 C   0  0
   13.8217  -17.3096    0.0000 C   0  0
   14.5361  -17.7236    0.0000 C   0  0
  1  2  1  0
 24 25  1  0
 11 12  2  0
 25 26  2  0
 26 21  1  0
 17 21  1  0
  5  6  2  0
 12 13  1  0
 27 28  2  0
  1  4  1  0
 28 29  1  0
 13 14  2  0
 29 30  2  0
 14  9  1  0
 30 31  1  0
  6  7  1  0
 31 32  2  0
 32 27  1  0
 16 27  1  0
  8 15  1  0
 30 33  1  0
 16 17  1  0
 19 34  1  0
  7 10  2  0
 34 35  2  0
  2  3  1  0
 35 36  1  0
  9  8  2  0
 36 37  1  0
  8  5  1  0
 37 38  2  0
  3  6  1  0
 38 39  1  0
 17 18  1  0
 39 40  2  0
 18 19  1  0
 40 41  1  0
 19 20  1  0
 41 42  2  0
 42 37  1  0
 20 16  2  0
 36 43  2  0
  5  4  1  0
 36 44  2  0
  9 10  1  0
 40 45  1  0
 21 22  2  0
 34 46  1  0
 46 47  1  0
 22 23  1  0
 47 48  1  0
 10 11  1  0
 48 49  1  0
 23 24  2  0
 49 50  1  0
 50 15  1  0
M  END