
  SciTegic12231509382D

 24 26  0  0  0  0            999 V2000
    4.9793    0.4125    0.0000 N   0  0
    7.1227    0.0000    0.0000 C   0  0
    7.8372    0.4125    0.0000 C   0  0
    7.1227   -0.8250    0.0000 C   0  0
    6.4083    0.4125    0.0000 C   0  0
    7.8372    1.2375    0.0000 C   0  0
    7.8372   -1.2375    0.0000 C   0  0
    8.5517    0.0000    0.0000 C   0  0
    6.4083   -1.2375    0.0000 C   0  0
    3.5504    0.4125    0.0000 C   0  0
    4.2648    0.0000    0.0000 C   0  0
    5.6938    0.0000    0.0000 C   0  0
    8.5517    1.6500    0.0000 C   0  0
    7.8372   -2.0625    0.0000 C   0  0
    9.2661    0.4125    0.0000 C   0  0
    6.4083   -2.0625    0.0000 C   0  0
    2.8359    0.0000    0.0000 C   0  0
    3.5504    1.2375    0.0000 C   0  0
    9.2661    1.2375    0.0000 C   0  0
    7.1227   -2.4750    0.0000 C   0  0
    2.1214    0.4125    0.0000 C   0  0
    2.8359    1.6500    0.0000 C   0  0
    4.2648   -0.8250    0.0000 C   0  0
    2.1214    1.2375    0.0000 C   0  0
  1 11  1  0
  1 12  1  0
  2  3  1  0
  2  4  1  0
  2  5  1  0
  3  6  2  0
  3  8  1  0
  4  7  2  0
  4  9  1  0
  5 12  1  0
  6 13  1  0
  7 14  1  0
  8 15  2  0
  9 16  2  0
 10 11  1  0
 10 17  2  0
 10 18  1  0
 11 23  1  0
 13 19  2  0
 14 20  2  0
 15 19  1  0
 16 20  1  0
 17 21  1  0
 18 22  2  0
 21 24  2  0
 22 24  1  0
M  END