
          11280715142D 1   1.00000     0.00000     0

 37 40  0     1  0            999 V2000
    3.7667   -1.6250    0.0000 C   0  0  2  0  0  0           0  0  0
    4.1792   -2.3375    0.0000 C   0  0  1  0  0  0           0  0  0
    3.1125   -1.1125    0.0000 C   0  0  0  0  0  0           0  0  0
    3.7500    0.2458    0.0000 N   0  0  3  0  0  0           0  0  0
    3.1125   -0.2792    0.0000 C   0  0  0  0  0  0           0  0  0
    3.9750   -3.8417    0.0000 C   0  0  0  0  0  0           0  0  0
    4.5792   -1.4292    0.0000 N   0  0  0  0  0  0           0  0  0
    4.5625    0.0625    0.0000 C   0  0  0  0  0  0           0  0  0
    4.9750   -2.5500    0.0000 C   0  0  0  0  0  0           0  0  0
    3.7625   -3.0500    0.0000 O   0  0  0  0  0  0           0  0  0
    3.3875   -4.4250    0.0000 N   0  0  0  0  0  0           0  0  0
    4.7625   -4.0542    0.0000 N   0  0  0  0  0  0           0  0  0
    4.9292   -0.6792    0.0000 C   0  0  0  0  0  0           0  0  0
    3.1792   -2.2042    0.0000 C   0  0  0  0  0  0           0  0  0
    4.9792   -4.8417    0.0000 C   0  0  0  0  0  0           0  0  0
    3.6000   -5.2167    0.0000 C   0  0  0  0  0  0           0  0  0
    4.3917   -5.4292    0.0000 C   0  0  0  0  0  0           0  0  0
    5.0667    0.7125    0.0000 O   0  0  0  0  0  0           0  0  0
    5.1875   -3.3417    0.0000 O   0  0  0  0  0  0           0  0  0
    5.7667   -2.3292    0.0000 O   0  0  0  0  0  0           0  0  0
    2.3917   -1.5250    0.0000 C   0  0  0  0  0  0           0  0  0
    3.5000    1.0333    0.0000 C   0  0  0  0  0  0           0  0  0
    2.3917    0.1333    0.0000 C   0  0  0  0  0  0           0  0  0
    2.3792   -1.9792    0.0000 C   0  0  0  0  0  0           0  0  0
    3.3917   -3.0042    0.0000 C   0  0  0  0  0  0           0  0  0
    5.7750   -5.0542    0.0000 C   0  0  0  0  0  0           0  0  0
    3.0167   -5.8042    0.0000 C   0  0  0  0  0  0           0  0  0
    2.7167    1.2833    0.0000 C   0  0  0  0  0  0           0  0  0
    1.6792   -1.1125    0.0000 C   0  0  0  0  0  0           0  0  0
    1.5875    3.1500    0.0000 C   0  0  0  0  0  0           0  0  0
    1.7542    2.3458    0.0000 C   0  0  0  0  0  0           0  0  0
    2.5417    2.0875    0.0000 C   0  0  0  0  0  0           0  0  0
    1.6792   -0.2875    0.0000 C   0  0  0  0  0  0           0  0  0
    0.8000    3.4083    0.0000 C   0  0  0  0  0  0           0  0  0
    1.7917   -2.5542    0.0000 C   0  0  0  0  0  0           0  0  0
    2.7917   -3.5792    0.0000 C   0  0  0  0  0  0           0  0  0
    2.0000   -3.3542    0.0000 C   0  0  0  0  0  0           0  0  0
  2  1  1  0     0  0
  3  1  1  0     0  0
  4  5  1  0     0  0
  5  3  1  0     0  0
  6 10  1  0     0  0
  7  1  1  0     0  0
  8 13  1  0     0  0
  9  2  1  0     0  0
  2 10  1  1     0  0
 11  6  2  0     0  0
 12  6  1  0     0  0
 13  7  1  0     0  0
  1 14  1  1     0  0
 15 12  2  0     0  0
 16 11  1  0     0  0
 17 15  1  0     0  0
 18  8  2  0     0  0
 19  9  2  0     0  0
 20  9  1  0     0  0
 21  3  2  0     0  0
 22  4  1  0     0  0
 23  5  2  0     0  0
 24 14  2  0     0  0
 25 14  1  0     0  0
 26 15  1  0     0  0
 27 16  1  0     0  0
 28 22  1  0     0  0
 29 21  1  0     0  0
 30 31  1  0     0  0
 31 32  1  0     0  0
 32 28  1  0     0  0
 33 29  2  0     0  0
 34 30  1  0     0  0
 35 24  1  0     0  0
 36 25  2  0     0  0
 37 36  1  0     0  0
  4  8  1  0     0  0
 35 37  2  0     0  0
 23 33  1  0     0  0
 16 17  2  0     0  0
M  END