
  SciTegic10041313202D

 34 36  0  0  1  0            999 V2000
    4.2125   -3.0750    0.0000 C   0  0
    6.3542   -3.5000    0.0000 C   0  0
    4.9250   -3.4917    0.0000 N   0  0
    3.4917   -3.4875    0.0000 N   0  0
    5.6417   -3.0792    0.0000 C   0  0  1  0  0  0
    7.0667   -3.0917    0.0000 N   0  0
    9.3204   -2.6119    0.0000 N   0  0
    8.4917   -3.0917    0.0000 C   0  0
    4.2042   -2.2500    0.0000 O   0  0
    7.7750   -6.3625    0.0000 C   0  0
    6.3500   -4.3167    0.0000 O   0  0
    5.6417   -2.2542    0.0000 C   0  0
    7.7792   -3.5042    0.0000 C   0  0  2  0  0  0
    8.1792   -7.0667    0.0000 C   0  0
    2.0667   -4.3125    0.0000 O   0  0
    9.0042   -7.0667    0.0000 Cl  0  0
    7.7750   -4.9292    0.0000 O   0  0
    2.7792   -3.0667    0.0000 C   0  0
    3.4917   -4.3125    0.0000 C   0  0
    6.0542   -1.5375    0.0000 C   0  0
    8.1875   -5.6417    0.0000 C   0  0
    8.1917   -4.2167    0.0000 C   0  0
    6.9417   -6.3542    0.0000 C   0  0
    2.0667   -3.4875    0.0000 C   0  0
    2.7792   -4.7167    0.0000 C   0  0
    7.7750   -7.7792    0.0000 C   0  0
    6.8792   -1.5292    0.0000 C   0  0
    5.6292   -0.8250    0.0000 C   0  0
    6.5292   -7.0667    0.0000 C   0  0
    6.9417   -7.7875    0.0000 C   0  0
    6.0417   -0.1042    0.0000 C   0  0
    7.2792   -0.8167    0.0000 C   0  0
    6.8667   -0.0917    0.0000 C   0  0
    7.3667   -4.2167    0.0000 H   0  0
  2  5  1  0
  3  1  1  0
  4  1  1  0
  5  3  1  0
  6  2  1  0
  7  8  3  0
  8 13  1  0
  9  1  2  0
 10 21  1  0
 11  2  2  0
  5 12  1  1
 13  6  1  0
 14 10  1  0
 15 25  1  0
 16 14  1  0
 17 22  1  0
 18  4  1  0
 19  4  1  0
 20 12  1  0
 21 17  1  0
 13 22  1  6
 23 10  2  0
 24 18  1  0
 25 19  1  0
 26 14  2  0
 27 20  1  0
 28 20  1  0
 29 23  1  0
 30 29  2  0
 31 28  1  0
 32 27  1  0
 33 31  1  0
 13 34  1  1
 24 15  1  0
 32 33  1  0
 26 30  1  0
M  END