
  SciTegic12231509382D

 30 33  0  0  0  0            999 V2000
   -3.8331  -18.7754    0.0000 C   0  0
   -3.8331  -19.6055    0.0000 C   0  0
   -3.1214  -20.0184    0.0000 C   0  0
   -3.1214  -18.3581    0.0000 C   0  0
   -2.4007  -18.7754    0.0000 C   0  0
   -2.4026  -19.6043    0.0000 C   0  0
   -1.7822  -20.0862    0.0000 C   0  0
   -1.7552  -18.2809    0.0000 N   0  0
   -0.9852  -18.4892    0.0000 C   0  0
   -0.6489  -19.2554    0.0000 C   0  0  1  0  0  0
   -1.0097  -19.9371    0.0000 N   0  0
   -1.9185  -17.4709    0.0000 C   0  0
   -0.4444  -17.8604    0.0000 O   0  0
   -2.1814  -20.8101    0.0000 C   0  0
   -3.0041  -20.8209    0.0000 C   0  0
   -3.4034  -21.5393    0.0000 C   0  0
   -2.9771  -22.2486    0.0000 C   0  0
   -2.1476  -22.2304    0.0000 C   0  0
   -1.7520  -21.5068    0.0000 C   0  0
    0.1763  -19.2857    0.0000 N   0  0
    0.5625  -20.0166    0.0000 C   0  0
    1.3875  -20.0469    0.0000 N   0  0
    0.1238  -20.7126    0.0000 O   0  0
    1.8263  -19.3463    0.0000 C   0  0
    2.6487  -19.3817    0.0000 C   0  0
    3.0873  -18.6820    0.0000 C   0  0
    2.7056  -17.9547    0.0000 C   0  0
    1.8717  -17.9269    0.0000 C   0  0
    1.4368  -18.6228    0.0000 C   0  0
    1.4874  -17.1974    0.0000 C   0  0
  3  6  1  0
 14 15  2  0
  5  4  1  0
 15 16  1  0
 16 17  2  0
  5  6  2  0
 17 18  1  0
  6  7  1  0
 18 19  2  0
 19 14  1  0
  5  8  1  0
 10 20  1  6
  9 10  1  0
 20 21  1  0
 10 11  1  0
 21 22  1  0
 11  7  2  0
 21 23  2  0
  8  9  1  0
 22 24  1  0
  1  2  1  0
 24 25  2  0
  8 12  1  0
 25 26  1  0
  1  4  2  0
 26 27  2  0
  9 13  2  0
 27 28  1  0
  2  3  2  0
 28 29  2  0
 29 24  1  0
  7 14  1  0
 28 30  1  0
M  END