
  SciTegic07291412072D

 52 56  0  0  0  0            999 V2000
    1.0531   -3.2241    0.0000 N   0  0
    0.2430   -5.2509    0.0000 N   0  0
    0.5130   -3.8477    0.0000 C   0  0
    0.7831   -4.6273    0.0000 C   0  0  2  0  0  0
    1.8751   -3.2945    0.0000 C   0  0  2  0  0  0
   -0.5671   -5.0950    0.0000 C   0  0
    2.3013   -4.0008    0.0000 C   0  0
    0.5130   -6.0305    0.0000 C   0  0
    0.8660   -2.4206    0.0000 C   0  0
   -1.1072   -5.7187    0.0000 C   0  0  1  0  0  0
    2.1961   -2.5344    0.0000 C   0  0
    1.5932   -4.7832    0.0000 C   0  0
    3.1262   -3.9849    0.0000 N   0  0
    1.5724   -1.9944    0.0000 C   0  0
    4.2945   -0.3893    0.0000 C   0  0
   -1.9174   -5.5627    0.0000 N   0  0
    4.3497   -3.2467    0.0000 C   0  0
    1.3232   -6.1864    0.0000 C   0  0
    1.8633   -5.5627    0.0000 C   0  0
   -0.2971   -3.6918    0.0000 O   0  0
   -2.4575   -6.1864    0.0000 C   0  0
    3.5248   -3.2626    0.0000 C   0  0  2  0  0  0
    4.7207   -1.0957    0.0000 N   0  0
   -0.8372   -4.3155    0.0000 O   0  0
    1.9027   -4.7231    0.0000 O   0  0
   -0.8372   -6.4982    0.0000 C   0  0
    4.7483   -2.5244    0.0000 O   0  0
   -2.6972   -6.9758    0.0000 O   0  0
    3.4696   -0.4052    0.0000 N   0  0
    4.6931    0.3330    0.0000 N   0  0
    4.7759   -3.9530    0.0000 O   0  0
   -1.3773   -7.1218    0.0000 C   0  0
   -5.1579   -7.1218    0.0000 N   0  0
    0.1437   -2.0220    0.0000 C   0  0
    1.5565   -1.1695    0.0000 C   0  0
    1.5932   -6.9659    0.0000 C   0  0
    2.6734   -5.7187    0.0000 C   0  0
   -3.2676   -6.0305    0.0000 C   0  0
    3.0986   -2.5562    0.0000 C   0  0
    3.0710   -1.1275    0.0000 C   0  0
   -4.6178   -6.4982    0.0000 C   0  0
   -2.1874   -6.9659    0.0000 C   0  0
   -1.1072   -7.9014    0.0000 C   0  0
   -3.8077   -6.6541    0.0000 C   0  0
    3.4972   -1.8339    0.0000 C   0  0
    0.1278   -1.1971    0.0000 C   0  0
    0.8342   -0.7709    0.0000 C   0  0
    2.4034   -7.1218    0.0000 C   0  0
    2.9434   -6.4982    0.0000 C   0  0
   -1.6473   -8.5250    0.0000 C   0  0
   -2.7275   -7.5896    0.0000 C   0  0
   -2.4575   -8.3691    0.0000 C   0  0
  2  4  1  0
  3  1  1  0
  4  3  1  6
  5  1  1  0
  6  2  1  0
  5  7  1  1
  8  2  1  0
  9  1  1  0
 10  6  1  0
 11  5  1  0
 12  4  1  0
 13  7  1  0
 14  9  1  0
 15 29  2  0
 16 10  1  0
 17 22  1  0
 18 19  2  0
 19 12  1  0
 20  3  2  0
 21 16  1  0
 22 13  1  0
 23 15  1  0
 24  6  2  0
 25  7  2  0
 10 26  1  6
 27 17  2  0
 28 21  2  0
 29 40  1  0
 30 15  1  0
 31 17  1  0
 32 26  1  0
 33 41  1  0
 34  9  1  0
 35 14  1  0
 36 18  1  0
 37 19  1  0
 38 21  1  0
 22 39  1  1
 40 45  1  0
 41 44  1  0
 42 32  1  0
 43 32  2  0
 44 38  1  0
 45 39  1  0
 46 34  1  0
 47 46  1  0
 48 49  1  0
 49 37  2  0
 50 43  1  0
 51 42  2  0
 52 50  2  0
 11 14  1  0
 35 47  1  0
  8 18  1  0
 36 48  2  0
 52 51  1  0
M  END