
  SciTegic10311316212D

 25 28  0  0  0  0            999 V2000
   30.9548  -10.1324    0.0000 C   0  0
   31.6776  -10.5318    0.0000 O   0  0
   31.6441   -8.8847    0.0000 N   0  0
   30.9344   -9.3069    0.0000 C   0  0
   32.3669   -9.2840    0.0000 C   0  0
   32.3760  -10.1056    0.0000 C   0  0
   33.0880  -10.5062    0.0000 C   0  0
   33.7956  -10.0898    0.0000 C   0  0
   33.7865   -9.2683    0.0000 C   0  0
   33.0698   -8.8632    0.0000 C   0  0
   30.2115   -8.9075    0.0000 O   0  0
   34.4974   -8.8482    0.0000 C   0  0
   35.2167   -9.2538    0.0000 N   0  0
   35.2191  -10.0770    0.0000 C   0  0
   35.9343  -10.4826    0.0000 C   0  0
   36.6477  -10.0661    0.0000 C   0  0
   36.6413   -9.2393    0.0000 C   0  0
   35.9216   -8.8292    0.0000 C   0  0
   37.3655  -10.4745    0.0000 C   0  0
   37.3676  -11.2995    0.0000 C   0  0
   38.0846  -11.7078    0.0000 C   0  0
   38.7981  -11.2904    0.0000 C   0  0
   38.7902  -10.4603    0.0000 C   0  0
   38.0728  -10.0557    0.0000 C   0  0
   39.5164  -11.6978    0.0000 Cl  0  0
  1  2  1  0
  1  4  1  0
  2  6  1  0
  5  3  1  0
  3  4  1  0
  5  6  1  0
  5 10  2  0
  6  7  2  0
  7  8  1  0
  8  9  2  0
  9 10  1  0
  4 11  2  0
  9 12  1  0
 12 13  1  0
 13 14  1  0
 13 18  1  0
 14 15  1  0
 15 16  2  0
 16 17  1  0
 17 18  1  0
 16 19  1  0
 19 20  2  0
 20 21  1  0
 21 22  2  0
 22 23  1  0
 23 24  2  0
 24 19  1  0
 22 25  1  0
M  END