
  SciTegic10191216022D

 30 33  0  0  0  0            999 V2000
   -3.2649   -9.0704    0.0000 C   0  0
   -3.2662   -9.8980    0.0000 C   0  0
   -2.5532  -10.3108    0.0000 C   0  0
   -2.5552   -8.6575    0.0000 C   0  0
   -1.8370   -9.0664    0.0000 C   0  0
   -1.8380   -9.9000    0.0000 C   0  0
   -1.1205  -10.3153    0.0000 C   0  0
   -0.3974   -9.9015    0.0000 N   0  0
   -0.3965   -9.0679    0.0000 C   0  0
   -1.1186   -8.6481    0.0000 C   0  0
   -1.1188   -7.8231    0.0000 C   0  0
   -0.4055   -7.4135    0.0000 C   0  0
   -0.4053   -6.5893    0.0000 C   0  0
   -1.1205   -6.1762    0.0000 C   0  0
   -1.8372   -6.5934    0.0000 C   0  0
   -1.8338   -7.4162    0.0000 C   0  0
    0.3160  -10.3159    0.0000 C   0  0
   -3.9812  -10.3094    0.0000 O   0  0
   -4.6951   -9.8959    0.0000 C   0  0
   -4.6939   -9.0709    0.0000 C   0  0
   -5.4078   -8.6574    0.0000 C   0  0
   -5.4066   -7.8324    0.0000 N   0  0
   -4.6884   -7.4233    0.0000 C   0  0
   -4.6852   -6.6020    0.0000 C   0  0
   -5.3973   -6.1846    0.0000 C   0  0
   -6.1142   -6.5948    0.0000 C   0  0
   -6.1191   -7.4225    0.0000 C   0  0
   -5.3930   -5.3596    0.0000 F   0  0
   -1.1218   -5.3512    0.0000 S   0  0
   -0.4080   -4.9376    0.0000 C   0  0
  1  2  2  0
 14 15  1  0
  5  4  2  0
 15 16  2  0
 16 11  1  0
  4  1  1  0
  8 17  1  0
  5 10  1  0
  2 18  1  0
  6  7  1  0
 18 19  1  0
  7  8  1  0
 19 20  1  0
  8  9  1  0
 20 21  1  0
  9 10  1  0
 21 22  1  0
 22 23  1  0
  5  6  1  0
 10 11  1  0
 11 12  2  0
  2  3  1  0
 22 27  1  0
 23 24  1  0
 24 25  1  0
 25 26  1  0
 26 27  1  0
 12 13  1  0
 25 28  1  0
  3  6  2  0
 14 29  1  0
 13 14  2  0
 29 30  1  0
M  END