
          11280715412D 1   1.00000     0.00000     0

 42 45  0     0  0            999 V2000
    8.7042    2.5708    0.0000 S   0  0  3  0  0  0           0  0  0
    9.4292    1.3333    0.0000 C   0  0  0  0  0  0           0  0  0
    9.4250    2.1583    0.0000 N   0  0  0  0  0  0           0  0  0
   10.1417    0.9208    0.0000 C   0  0  0  0  0  0           0  0  0
    8.7167    0.9208    0.0000 N   0  0  0  0  0  0           0  0  0
    9.4292   -0.3167    0.0000 N   0  0  0  0  0  0           0  0  0
    8.7167    0.0958    0.0000 C   0  0  0  0  0  0           0  0  0
   13.0792   -2.5667    0.0000 S   0  0  3  0  0  0           0  0  0
   10.1417    0.0958    0.0000 C   0  0  0  0  0  0           0  0  0
   10.8542    1.3375    0.0000 O   0  0  0  0  0  0           0  0  0
    8.0000   -0.3167    0.0000 C   0  0  3  0  0  0           0  0  0
    7.9875    2.1583    0.0000 C   0  0  0  0  0  0           0  0  0
    7.5875   -1.0292    0.0000 C   0  0  0  0  0  0           0  0  0
    7.1750   -0.3167    0.0000 C   0  0  0  0  0  0           0  0  0
   11.5750    0.9333    0.0000 C   0  0  0  0  0  0           0  0  0
    9.1125    3.2833    0.0000 O   0  0  0  0  0  0           0  0  0
    7.9875    2.9833    0.0000 O   0  0  0  0  0  0           0  0  0
   12.6542   -1.8542    0.0000 O   0  0  0  0  0  0           0  0  0
   13.5042   -3.2750    0.0000 O   0  0  0  0  0  0           0  0  0
    5.8292    0.9458    0.0000 C   0  0  3  0  0  0           0  0  0
    6.5417    1.3500    0.0000 C   0  0  0  0  0  0           0  0  0
   12.2917   -2.7917    0.0000 N   0  0  0  0  0  0           0  0  0
   12.2792    1.3458    0.0000 C   0  0  0  0  0  0           0  0  0
    7.2750    2.5833    0.0000 C   0  0  0  0  0  0           0  0  0
    7.9792    1.3375    0.0000 C   0  0  0  0  0  0           0  0  0
    7.2625    0.9333    0.0000 C   0  0  0  0  0  0           0  0  0
    6.5542    2.1750    0.0000 C   0  0  0  0  0  0           0  0  0
   10.8625   -0.3167    0.0000 O   0  0  0  0  0  0           0  0  0
   13.8750   -2.3375    0.0000 C   0  0  0  0  0  0           0  0  0
   12.2750    2.1708    0.0000 O   0  0  0  0  0  0           0  0  0
   11.5792   -1.5542    0.0000 C   0  0  0  0  0  0           0  0  0
   11.5792   -2.3792    0.0000 C   0  0  0  0  0  0           0  0  0
   11.5750    0.1083    0.0000 C   0  0  0  0  0  0           0  0  0
    5.8167    0.1208    0.0000 C   0  0  0  0  0  0           0  0  0
    5.6167    1.7458    0.0000 C   0  0  0  0  0  0           0  0  0
    5.1167    1.3583    0.0000 C   0  0  0  0  0  0           0  0  0
   10.8625   -1.1417    0.0000 C   0  0  0  0  0  0           0  0  0
   12.9917    0.9458    0.0000 C   0  0  0  0  0  0           0  0  0
   11.5542    2.5833    0.0000 C   0  0  0  0  0  0           0  0  0
   14.4667   -2.9167    0.0000 C   0  0  0  0  0  0           0  0  0
   12.2875   -0.3042    0.0000 C   0  0  0  0  0  0           0  0  0
   13.0042    0.1125    0.0000 C   0  0  0  0  0  0           0  0  0
  2  3  1  0     0  0
  3  1  1  0     0  0
  4  2  2  0     0  0
  5  2  1  0     0  0
  6  7  1  0     0  0
  7  5  2  0     0  0
  8 22  1  0     0  0
  9  4  1  0     0  0
 10  4  1  0     0  0
 11  7  1  0     0  0
 12  1  1  0     0  0
 13 11  1  0     0  0
 14 11  1  0     0  0
 15 10  1  0     0  0
 16  1  2  0     0  0
 17  1  2  0     0  0
 18  8  2  0     0  0
 19  8  2  0     0  0
 20 21  1  0     0  0
 21 26  1  0     0  0
 22 32  1  0     0  0
 23 15  1  0     0  0
 24 12  2  0     0  0
 25 12  1  0     0  0
 26 25  2  0     0  0
 27 24  1  0     0  0
 28  9  1  0     0  0
 29  8  1  0     0  0
 30 23  1  0     0  0
 31 37  1  0     0  0
 32 31  1  0     0  0
 33 15  2  0     0  0
 34 20  1  0     0  0
 35 20  1  0     0  0
 36 20  1  0     0  0
 37 28  1  0     0  0
 38 23  2  0     0  0
 39 30  1  0     0  0
 40 29  1  0     0  0
 41 33  1  0     0  0
 42 41  2  0     0  0
 21 27  2  0     0  0
  9  6  2  0     0  0
 14 13  1  0     0  0
 42 38  1  0     0  0
M  END