
  SciTegic12091613522D

 42 47  0  0  0  0            999 V2000
  -12.7718   -4.7063    0.0000 C   0  0
  -12.3004   -6.1250    0.0000 C   0  0
  -10.8132   -6.4378    0.0000 C   0  0
  -11.7675   -3.5657    0.0000 C   0  0
  -10.2976   -3.8842    0.0000 C   0  0
   -9.8262   -5.3029    0.0000 C   0  0
   -8.3330   -5.2871    0.0000 N   0  0
   -7.8876   -3.8519    0.0000 C   0  0
   -9.0928   -3.0223    0.0000 C   0  0
   -9.0999   -1.5215    0.0000 C   0  0
   -7.8042   -0.7641    0.0000 N   0  0
   -7.8091    0.7359    0.0000 C   0  0
   -6.5125    1.4901    0.0000 C   0  0
   -5.2109    0.7445    0.0000 N   0  0
   -3.9122    1.4966    0.0000 C   0  0
   -2.6111    0.7486    0.0000 C   0  0
   -2.6111   -0.7486    0.0000 C   0  0
   -1.2964   -1.4973    0.0000 O   0  0
   -1.2964    1.4973    0.0000 C   0  0
   -1.2928    2.6973    0.0000 O   0  0
    0.0000    0.7486    0.0000 C   0  0
    0.0000   -0.7486    0.0000 C   0  0
    1.2964   -1.4973    0.0000 C   0  0
    2.5929   -0.7486    0.0000 C   0  0
    2.5929    0.7486    0.0000 C   0  0
    1.2964    1.4973    0.0000 C   0  0
   -6.5027   -1.5098    0.0000 C   0  0
   -5.2061   -0.7556    0.0000 C   0  0
  -10.1421   -0.9267    0.0000 O   0  0
   -3.9141    2.6966    0.0000 O   0  0
   -7.4394   -6.4897    0.0000 S   0  0
   -8.0343   -7.8676    0.0000 C   0  0
   -7.1390   -9.0711    0.0000 C   0  0
   -7.7336  -10.4482    0.0000 C   0  0
   -9.2236  -10.6218    0.0000 C   0  0
  -10.1189   -9.4183    0.0000 C   0  0
   -9.5243   -8.0412    0.0000 C   0  0
   -6.2474   -6.3512    0.0000 O   0  0
   -6.9632   -5.3882    0.0000 O   0  0
  -11.6100   -9.5889    0.0000 N   0  3
  -12.3248   -8.6251    0.0000 O   0  0
  -12.0876  -10.6898    0.0000 O   0  5
  1  2  2  0
  2  3  1  0
  3  6  2  0
  5  4  2  0
  4  1  1  0
  5  6  1  0
  6  7  1  0
  7  8  1  0
  8  9  2  0
  9  5  1  0
  9 10  1  0
 10 11  1  0
 11 12  1  0
 12 13  1  0
 13 14  1  0
 14 15  1  0
 15 16  1  0
 16 17  2  0
 16 19  1  0
 17 18  1  0
 18 22  1  0
 21 19  1  0
 19 20  2  0
 21 22  2  0
 22 23  1  0
 23 24  2  0
 24 25  1  0
 25 26  2  0
 26 21  1  0
 11 27  1  0
 14 28  1  0
 10 29  2  0
 15 30  2  0
  7 31  1  0
 31 32  1  0
 32 33  2  0
 33 34  1  0
 34 35  2  0
 35 36  1  0
 36 37  2  0
 37 32  1  0
 31 38  2  0
 31 39  2  0
 40 41  2  0
 40 42  1  0
 36 40  1  0
 27 28  1  0
M  CHG  2  40   1  42  -1
M  END