
  SciTegic02271514512D

 28 31  0  0  0  0            999 V2000
    6.9124   -4.5043    0.0000 N   0  0
    5.0913   -5.6710    0.0000 C   0  0
    5.8861   -5.4796    0.0000 N   0  0
    6.1177   -4.6957    0.0000 C   0  0
    5.5545   -4.1031    0.0000 C   0  0
    4.7598   -4.2945    0.0000 C   0  0
    4.5282   -5.0785    0.0000 N   0  0
    5.7862   -3.3191    0.0000 F   0  0
    4.1113   -7.5456    0.0000 C   0  0
    4.0893   -6.7285    0.0000 C   0  0
    3.3706   -6.3389    0.0000 C   0  0
    2.6739   -6.7665    0.0000 C   0  0
    2.6959   -7.5837    0.0000 C   0  0
    3.4146   -7.9733    0.0000 N   0  0
    4.8953   -7.7772    0.0000 N   0  0
    4.8597   -6.4550    0.0000 C   0  0
    5.3578   -7.1032    0.0000 C   0  0
    1.9552   -6.3770    0.0000 Cl  0  0
    7.4754   -5.0966    0.0000 C   0  0  1  0  0  0
    7.2405   -5.8809    0.0000 C   0  0
    7.7996   -6.4720    0.0000 C   0  0
    8.5954   -6.2847    0.0000 C   0  0
    8.8291   -5.5007    0.0000 C   0  0  2  0  0  0
    8.2670   -4.9039    0.0000 C   0  0
    9.6242   -5.3120    0.0000 N   0  0
   10.1851   -5.9063    0.0000 C   0  0
   10.9802   -5.7177    0.0000 C   0  0
    9.9509   -6.6892    0.0000 O   0  0
  2  3  1  0
  3  4  2  0
  4  5  1  0
  5  6  2  0
  6  7  1  0
  2  7  2  0
  5  8  1  0
  9 10  1  0
 10 11  2  0
 11 12  1  0
 12 13  2  0
 13 14  1  0
  9 14  2  0
 16 17  2  0
 15 17  1  0
  9 15  1  0
 10 16  1  0
 12 18  1  0
  2 16  1  0
  1  4  1  0
 19  1  1  6
 19 20  1  0
 19 24  1  0
 20 21  1  0
 21 22  1  0
 22 23  1  0
 23 24  1  0
 23 25  1  6
 25 26  1  0
 26 27  1  0
 26 28  2  0
M  END