
  SciTegic04191616232D

159167  0  0  0  0            999 V2000
    6.6912   32.3646    0.0000 N   0  0
  -10.4732   33.2737    0.0000 O   0  0
    5.4026   41.8192    0.0000 N   0  0
   -5.2728   34.4717    0.0000 N   0  0
   21.7402   44.0797    0.0000 C   0  0
   20.7161   38.9740    0.0000 C   0  0
  -24.7724   35.2290    0.0000 C   0  0
  -18.2727   34.4766    0.0000 C   0  0
  -31.2728   37.4399    0.0000 C   0  0
    1.2274   35.2193    0.0000 C   0  0
   19.4125   41.2210    0.0000 C   0  0
  -23.4727   34.4785    0.0000 C   0  0
   -2.6824   29.9720    0.0000 N   0  0
  -18.2732   33.2766    0.0000 O   0  0
    3.8310   36.7192    0.0000 C   0  0
  -24.7660   41.2347    0.0000 N   0  3
    2.5271   34.4688    0.0000 N   0  0
  -27.3724   35.2300    0.0000 C   0  0
   18.1232   37.4653    0.0000 C   0  0
   23.3082   37.4956    0.0000 C   0  0
   14.2273   35.2145    0.0000 N   0  0
   24.6180   36.7326    0.0000 C   0  0
  -39.3790   32.5108    0.0000 C   0  0
   16.8273   35.2135    0.0000 C   0  0
   19.4234   36.7169    0.0000 C   0  0
    9.0273   35.2164    0.0000 C   0  0
  -32.5717   38.1902    0.0000 C   0  0  2  0  0  0
  -19.5750   36.7279    0.0000 C   0  0
    7.7296   32.9660    0.0000 C   0  0
   -3.9726   35.2212    0.0000 C   0  0  1  0  0  0
   23.3143   38.9797    0.0000 O   0  0
  -33.8742   32.9810    0.0000 C   0  0
  -14.3720   36.4251    0.0000 O   0  0
  -19.5724   35.2271    0.0000 C   0  0  2  0  0  0
  -33.8709   37.4405    0.0000 C   0  0
   20.7246   34.4657    0.0000 C   0  0
  -22.1721   36.2280    0.0000 O   0  0
    6.4369   39.7161    0.0000 N   0  0
   26.9598   35.0827    0.0000 C   0  0
  -23.4737   37.4795    0.0000 C   0  0
   22.0137   39.7268    0.0000 C   0  0
   18.1273   34.4653    0.0000 C   0  0
  -31.2731   33.2814    0.0000 O   0  0
   15.5270   34.4640    0.0000 C   0  0
   -3.7263   27.8730    0.0000 N   0  0
   -0.0765   32.9690    0.0000 C   0  0
  -15.6728   34.4756    0.0000 C   0  0  2  0  0  0
   15.5266   33.2640    0.0000 O   0  0
  -23.4722   38.9796    0.0000 C   0  0
  -22.1724   35.2280    0.0000 C   0  0
   10.3270   34.4659    0.0000 C   0  0
   25.9216   33.2823    0.0000 C   0  0
  -37.7709   30.7207    0.0000 C   0  0
  -22.1724   39.7283    0.0000 C   0  0
  -11.7750   36.7250    0.0000 C   0  0
   -0.3191   41.8180    0.0000 N   0  0
   -9.1812   30.7230    0.0000 C   0  0
  -33.8727   34.4818    0.0000 C   0  0
   20.7038   43.4747    0.0000 N   0  3
   20.7101   41.9739    0.0000 C   0  0
    7.4808   41.8151    0.0000 N   0  0
   -2.6860   28.4712    0.0000 C   0  0
  -24.7697   39.7339    0.0000 N   0  0
  -13.0781   38.9749    0.0000 C   0  0
   -9.4480   27.8719    0.0000 N   0  0
  -40.1268   31.2105    0.0000 C   0  0
  -14.1025   27.8736    0.0000 N   0  0
   22.0228   35.2270    0.0000 C   0  0
   22.0106   36.7427    0.0000 C   0  0
   11.6273   35.2154    0.0000 C   0  0
   -1.3813   30.7201    0.0000 C   0  0
   -2.6642   38.9710    0.0000 C   0  0
   -1.6481   27.8690    0.0000 N   0  0
   21.5908   34.9654    0.0000 O   0  0
    6.4405   41.2170    0.0000 C   0  0
  -28.6727   34.4805    0.0000 C   0  0
   20.7245   33.2657    0.0000 O   0  0
   -1.3594   41.2199    0.0000 C   0  0
   -1.3726   35.2203    0.0000 N   0  0
  -20.8741   38.9770    0.0000 C   0  0
  -14.3697   32.2257    0.0000 C   0  0
  -32.5723   35.2319    0.0000 C   0  0  2  0  0  0
  -13.0728   34.4746    0.0000 N   0  0
    5.1321   37.4672    0.0000 C   0  0
   -3.9689   36.7221    0.0000 C   0  0
  -20.8755   37.4769    0.0000 C   0  0
   -6.5725   35.2222    0.0000 C   0  0
  -33.8712   35.9405    0.0000 C   0  0
   -1.3631   39.7190    0.0000 N   0  0
  -12.1975   27.9759    0.0000 N   0  0
    7.7271   34.4669    0.0000 C   0  0  2  0  0  0
  -16.9725   35.2261    0.0000 N   0  0
  -26.0727   34.4795    0.0000 C   0  0
    8.7695   32.3671    0.0000 O   0  0
  -32.5729   30.7322    0.0000 C   0  0
  -22.1754   36.7283    0.0000 C   0  0
  -35.1725   32.2295    0.0000 N   0  0
   19.4155   39.7211    0.0000 C   0  0
  -29.9724   35.2309    0.0000 N   0  0
   20.7191   37.4740    0.0000 C   0  0
   -2.3974   41.8221    0.0000 N   0  0
    5.1271   34.4678    0.0000 C   0  0
  -14.3725   35.2251    0.0000 C   0  0
  -11.3529   27.9756    0.0000 N   0  0
   24.6210   35.2327    0.0000 C   0  0
  -13.0641   28.4750    0.0000 C   0  0
  -11.7725   35.2242    0.0000 C   0  0  2  0  0  0
  -24.7632   42.4347    0.0000 N   0  5
   19.6619   44.0700    0.0000 C   0  0
  -20.8727   34.4775    0.0000 N   0  0
   19.4254   35.2170    0.0000 C   0  0
   22.0107   41.2267    0.0000 C   0  0
    5.1266   33.2679    0.0000 O   0  0
   -2.6678   37.4701    0.0000 C   0  0
  -31.2732   35.9399    0.0000 C   0  0
   -2.6729   34.4708    0.0000 C   0  0
   -1.3776   32.2209    0.0000 C   0  0
  -35.1710   30.7295    0.0000 C   0  0
   23.3234   34.4799    0.0000 C   0  0
  -36.4684   29.9751    0.0000 N   0  0
  -13.0666   29.9759    0.0000 N   0  0
    5.1358   38.9681    0.0000 C   0  0
  -39.1213   30.0974    0.0000 S   0  0
  -13.3428   41.8261    0.0000 N   0  0
   -6.5721   36.4222    0.0000 O   0  0
  -31.2726   34.4814    0.0000 C   0  0
    1.2278   36.4193    0.0000 O   0  0
    3.8274   35.2183    0.0000 C   0  0  2  0  0  0
  -13.0756   37.4740    0.0000 C   0  0
  -15.4210   41.8236    0.0000 N   0  0
  -15.6702   32.9748    0.0000 C   0  0
   -9.1725   35.2232    0.0000 N   0  0
   -0.0729   34.4698    0.0000 C   0  0  2  0  0  0
  -14.3786   39.7239    0.0000 N   0  0
   -9.1776   32.2238    0.0000 C   0  0
  -14.3812   41.2247    0.0000 C   0  0
  -10.4823   29.9749    0.0000 N   0  0
   12.9270   34.4649    0.0000 C   0  0
  -33.8711   29.9809    0.0000 C   0  0
  -10.4728   34.4737    0.0000 C   0  0
    6.4274   35.2174    0.0000 N   0  0
   16.8252   36.7135    0.0000 C   0  0
  -10.4860   28.4741    0.0000 C   0  0
  -32.5744   32.2322    0.0000 C   0  0
   25.9208   34.4823    0.0000 N   0  0
   -7.8765   32.9719    0.0000 C   0  0
   -7.8728   34.4727    0.0000 C   0  0  1  0  0  0
  -14.3672   30.7249    0.0000 C   0  0
  -37.9113   32.2013    0.0000 N   0  0
   -2.6733   33.2708    0.0000 O   0  0
  -32.5745   39.6911    0.0000 O   0  0
  -33.8751   40.4399    0.0000 C   0  0
  -33.8801   41.9399    0.0000 C   0  0
  -35.1816   42.6857    0.0000 C   0  0
  -36.4782   41.9315    0.0000 C   0  0
  -36.4733   40.4315    0.0000 C   0  0
  -35.1718   39.6857    0.0000 C   0  0
  -32.8428   42.5433    0.0000 F   0  0
  -35.1855   43.8857    0.0000 Cl  0  0
 53123  1  0
 64134  1  0
102141  1  0
122 38  1  0
 59  5  1  0
 75 61  2  0
 17128  1  0
 54 80  2  0
 78 56  2  0
 92 47  1  0
 20 22  1  0
 62 45  2  0
 10 17  1  0
 34  8  1  0
 66 23  2  0
 60112  1  0
 41  6  1  0
145 52  1  0
 34 28  1  1
 30116  1  0
 55129  1  0
111 25  2  0
147146  1  6
135 57  1  0
 63 16  2  0
128102  1  0
134136  1  0
 60 59  2  0
138 21  1  0
 16108  2  0
 81148  1  0
136124  1  0
 36 74  1  0
 62 73  1  0
114 72  1  0
 11 60  1  0
 91 29  1  0
 59109  1  0
118120  1  0
115  9  1  0
133 10  1  0
 47103  1  0
103 33  2  0
128 15  1  1
 42111  1  0
126 43  2  0
 69 20  2  0
 93  7  1  0
 50 37  2  0
139 95  1  0
 28 86  1  0
 18 93  1  0
 97118  1  0
 40 49  2  0
 82115  1  0
106 90  2  0
 50110  1  0
 44 48  2  0
136130  2  0
 19142  2  0
 29 94  2  0
100  6  1  0
  4 30  1  0
  6 98  1  0
 89 78  1  0
 29  1  1  0
 47131  1  6
 22105  2  0
 27 35  1  0
140132  1  0
 51 70  1  0
 44 24  1  0
123 66  1  0
 23149  1  0
 21 44  1  0
 13 62  1  0
 15 84  1  0
 36 77  2  0
 86 96  2  0
107140  1  0
 25100  1  0
 99 76  1  0
 76 18  1  0
 49 54  1  0
 80 86  1  0
141 91  1  0
117 71  1  0
116150  2  0
105119  1  0
 98 11  2  0
 10127  2  0
 87125  2  0
 78101  1  0
  7 12  1  0
 30 85  1  1
137143  1  0
111 36  1  0
140  2  2  0
118139  2  0
 70138  1  0
 12 50  1  0
  8 14  2  0
 35 88  1  0
116 79  1  0
 95144  2  0
133 46  1  6
 84122  1  0
  8 92  1  0
121106  1  0
120 53  1  0
106 67  1  0
 58 32  1  0
146135  1  0
 82126  1  1
105145  1  0
 32 97  2  0
100 69  1  0
 72 89  1  0
132147  1  0
129 64  1  0
 96 40  1  0
110 34  1  0
149 53  2  0
 41112  2  0
  9 27  1  0
 46117  1  0
 26 51  1  0
107 55  1  1
119 68  2  0
 38 75  1  0
 24 42  2  0
 91 26  1  6
 82 58  1  0
 49 63  1  0
144 32  1  0
145 39  1  0
 41 31  1  0
143104  2  0
142 24  1  0
 83107  1  0
103 83  1  0
 75  3  1  0
148121  1  0
 68 69  1  0
 85114  1  0
 82 88  1  0
 87  4  1  0
 25 19  1  0
 71 13  1  0
126 99  1  0
147 87  1  0
143 65  1  0
102113  2  0
131 81  1  0
 31 20  1  0
 57137  1  0
 79133  1  0
 27151  1  6
151152  1  0
152153  2  0
153154  1  0
154155  2  0
155156  1  0
156157  2  0
157152  1  0
153158  1  0
154159  1  0
M  CHG  3  16   1  59   1 108  -1
M  END