
  SciTegic05071317032D

 31 29  0  0  0  0            999 V2000
   34.9965  -13.6745    0.0000 N   0  0
   35.7125  -14.0875    0.0000 C   0  0
   36.4232  -13.6758    0.0000 C   0  0
   36.4244  -12.8504    0.0000 N   0  0
   35.7085  -12.4384    0.0000 C   0  0
   34.9914  -12.8518    0.0000 C   0  0
   37.1389  -12.4380    0.0000 C   0  0
   37.8533  -12.8505    0.0000 C   0  0
   27.1444  -14.1125    0.0000 C   0  0
   27.1432  -14.9398    0.0000 C   0  0
   27.8580  -15.3527    0.0000 C   0  0
   28.5744  -14.9393    0.0000 C   0  0
   28.5716  -14.1088    0.0000 C   0  0
   27.8562  -13.6996    0.0000 C   0  0
   29.2845  -13.6936    0.0000 O   0  0
   30.0005  -14.1035    0.0000 C   0  0
   30.7135  -13.6882    0.0000 C   0  0
   31.4294  -14.0980    0.0000 C   0  0
   32.1424  -13.6829    0.0000 C   0  0
   32.8584  -14.0927    0.0000 C   0  0
   33.5713  -13.6774    0.0000 C   0  0
   34.2873  -14.0873    0.0000 C   0  0
   37.8533  -13.6755    0.0000 C   0  0
   38.5678  -14.0880    0.0000 C   0  0
   39.2822  -13.6755    0.0000 C   0  0
   39.2822  -12.8505    0.0000 C   0  0
   38.5678  -12.4380    0.0000 C   0  0
   38.5678  -11.6130    0.0000 N   0  0
   33.8675  -15.3943    0.0000 Cl  0  0
   35.8286  -15.1152    0.0000 Cl  0  0
   35.3277  -16.2643    0.0000 Cl  0  0
  1  2  1  0
  1  6  1  0
  2  3  1  0
  3  4  1  0
  4  5  1  0
  5  6  1  0
  4  7  1  0
  7  8  1  0
  9 10  2  0
 10 11  1  0
 11 12  2  0
 12 13  1  0
 13 14  2  0
 14  9  1  0
 13 15  1  0
 15 16  1  0
 16 17  1  0
 17 18  1  0
 18 19  1  0
 19 20  1  0
 20 21  1  0
 21 22  1  0
 22  1  1  0
  8 23  1  0
 23 24  1  0
 24 25  1  0
 25 26  1  0
 26 27  1  0
 27 28  1  0
M  END