
  SciTegic01161211242D

 20 20  0  0  0  0            999 V2000
   -3.9122    1.4966    0.0000 C   0  0  1  0  0  0
   -2.6111    0.7486    0.0000 C   0  0
   -5.2109    0.7445    0.0000 C   0  0  2  0  0  0
   -1.2964    1.4973    0.0000 C   0  0
   -6.5121    1.4924    0.0000 C   0  0
    0.0000    0.7486    0.0000 C   0  0
   -2.6111   -0.7486    0.0000 C   0  0
    0.0000   -0.7486    0.0000 C   0  0
   -1.2964   -1.4973    0.0000 C   0  0
   -5.2090   -0.4555    0.0000 O   0  0
   -3.9115    2.9974    0.0000 C   0  0
    5.0929    1.1254    0.0000 Cl  0  0
   -2.8724    3.5976    0.0000 N   0  0
   -7.5506    0.8910    0.0000 C   0  0
   -6.5141    2.6924    0.0000 C   0  0
   -7.5522    2.0909    0.0000 C   0  0
    1.2964    1.4973    0.0000 C   0  0
    1.2964   -1.4973    0.0000 C   0  0
    2.5929    0.7486    0.0000 C   0  0
    2.5929   -0.7486    0.0000 C   0  0
  1  2  1  1
  1  3  1  0
  2  4  1  0
  3  5  1  0
  4  6  2  0
  2  7  2  0
  6  8  1  0
  7  9  1  0
  8  9  2  0
  3 10  1  1
  1 11  1  0
 11 13  1  0
  5 14  1  0
  5 15  1  0
  5 16  1  0
  6 17  1  0
  8 18  1  0
 17 19  2  0
 18 20  2  0
 19 20  1  0
M  END