
  Mrv0541 05211314572D          

 33 37  0  0  0  0            999 V2000
    2.8172   -3.6035    0.0000 N   0  0  0  0  0  0  0  0  0  0  0  0
    2.5690   -2.1963    0.0000 C   0  0  0  0  0  0  0  0  0  0  0  0
    2.2869   -2.9715    0.0000 C   0  0  0  0  0  0  0  0  0  0  0  0
    3.6296   -3.4602    0.0000 C   0  0  0  0  0  0  0  0  0  0  0  0
    1.8546    1.0330    0.0000 C   0  0  0  0  0  0  0  0  0  0  0  0
    1.8546   -0.1338    0.0000 N   0  0  0  0  0  0  0  0  0  0  0  0
    1.8546    1.8580    0.0000 N   0  0  0  0  0  0  0  0  0  0  0  0
    1.7566   -2.0530    0.0000 C   0  0  0  0  0  0  0  0  0  0  0  0
    1.2712    0.4496    0.0000 C   0  0  0  0  0  0  0  0  0  0  0  0
    2.4379    0.4496    0.0000 C   0  0  0  0  0  0  0  0  0  0  0  0
    0.4138   -2.5417    0.0000 C   0  0  0  0  0  0  0  0  0  0  0  0
    1.2263   -2.6850    0.0000 C   0  0  0  0  0  0  0  0  0  0  0  0
    0.1316   -1.7665    0.0000 C   0  0  0  0  0  0  0  0  0  0  0  0
    2.5350   -4.3787    0.0000 C   0  0  0  0  0  0  0  0  0  0  0  0
    3.3815   -2.0530    0.0000 C   0  0  0  0  0  0  0  0  0  0  0  0
    3.9118   -2.6850    0.0000 C   0  0  0  0  0  0  0  0  0  0  0  0
    4.1599   -4.0922    0.0000 O   0  0  0  0  0  0  0  0  0  0  0  0
    2.5690   -1.3713    0.0000 C   0  0  0  0  0  0  0  0  0  0  0  0
    1.4744   -1.2778    0.0000 C   0  0  0  0  0  0  0  0  0  0  0  0
    0.6619   -1.1345    0.0000 C   0  0  0  0  0  0  0  0  0  0  0  0
    1.8546   -0.9588    0.0000 C   0  0  0  0  0  0  0  0  0  0  0  0
    1.8546    3.5080    0.0000 O   0  0  0  0  0  0  0  0  0  0  0  0
   -0.1165   -3.1737    0.0000 Cl  0  0  0  0  0  0  0  0  0  0  0  0
   -0.6808   -1.6232    0.0000 Cl  0  0  0  0  0  0  0  0  0  0  0  0
    2.5690    2.2705    0.0000 C   0  0  0  0  0  0  0  0  0  0  0  0
    1.1401    2.2705    0.0000 C   0  0  0  0  0  0  0  0  0  0  0  0
    2.5690    3.0955    0.0000 C   0  0  0  0  0  0  0  0  0  0  0  0
    1.1401    3.0955    0.0000 C   0  0  0  0  0  0  0  0  0  0  0  0
    1.7225   -4.5220    0.0000 C   0  0  0  0  0  0  0  0  0  0  0  0
    3.0653   -5.0107    0.0000 C   0  0  0  0  0  0  0  0  0  0  0  0
    2.7831   -5.7860    0.0000 C   0  0  0  0  0  0  0  0  0  0  0  0
    1.4404   -5.2972    0.0000 C   0  0  0  0  0  0  0  0  0  0  0  0
    1.9707   -5.9292    0.0000 C   0  0  0  0  0  0  0  0  0  0  0  0
  2  3  1  0  0  0  0
  3  1  1  0  0  0  0
  4  1  1  0  0  0  0
  5 10  1  0  0  0  0
  6 21  1  0  0  0  0
  7  5  1  0  0  0  0
  8  2  1  0  0  0  0
  9  6  1  0  0  0  0
 10  6  1  0  0  0  0
 11 12  2  0  0  0  0
 12  8  1  0  0  0  0
 13 20  2  0  0  0  0
 14  1  1  0  0  0  0
 15 16  1  0  0  0  0
 16  4  1  0  0  0  0
 17  4  2  0  0  0  0
 18  2  1  0  0  0  0
 19  8  2  0  0  0  0
 20 19  1  0  0  0  0
 21 18  1  0  0  0  0
 22 28  1  0  0  0  0
 23 11  1  0  0  0  0
 24 13  1  0  0  0  0
 25  7  1  0  0  0  0
 26  7  1  0  0  0  0
 27 25  1  0  0  0  0
 28 26  1  0  0  0  0
 29 14  1  0  0  0  0
 30 14  1  0  0  0  0
 31 30  1  0  0  0  0
 32 29  1  0  0  0  0
 33 31  1  0  0  0  0
 15  2  1  0  0  0  0
 33 32  1  0  0  0  0
  5  9  1  0  0  0  0
 11 13  1  0  0  0  0
 27 22  1  0  0  0  0
M  END