
          11280715312D 1   1.00000     0.00000     0

 23 25  0     0  0            999 V2000
    1.6792    0.0083    0.0000 C   0  0  0  0  0  0           0  0  0
    0.7292   -0.2000    0.0000 C   0  0  0  0  0  0           0  0  0
    1.3792    0.5250    0.0000 N   0  0  0  0  0  0           0  0  0
    1.2792   -0.4375    0.0000 C   0  0  0  0  0  0           0  0  0
   -0.8208   -0.5000    0.0000 C   0  0  0  0  0  0           0  0  0
   -0.8208   -1.1000    0.0000 C   0  0  0  0  0  0           0  0  0
    0.2042   -0.5000    0.0000 C   0  0  0  0  0  0           0  0  0
    0.7917    0.4000    0.0000 O   0  0  0  0  0  0           0  0  0
   -0.3083   -0.2000    0.0000 C   0  0  0  0  0  0           0  0  0
   -0.3083   -1.4000    0.0000 C   0  0  0  0  0  0           0  0  0
    2.2667   -0.0542    0.0000 C   0  0  0  0  0  0           0  0  0
    0.2167   -1.1000    0.0000 C   0  0  0  0  0  0           0  0  0
   -1.3458   -1.4000    0.0000 C   0  0  3  0  0  0           0  0  0
   -1.3458   -0.2000    0.0000 C   0  0  3  0  0  0           0  0  0
    2.6292    0.4333    0.0000 O   0  0  0  0  0  0           0  0  0
   -1.8583   -1.1000    0.0000 C   0  0  0  0  0  0           0  0  0
   -1.8583   -0.5000    0.0000 C   0  0  0  0  0  0           0  0  0
    2.5167   -0.6000    0.0000 O   0  0  0  0  0  0           0  0  0
    0.6292   -1.5167    0.0000 C   0  0  0  0  0  0           0  0  0
   -1.8708    0.1000    0.0000 C   0  0  0  0  0  0           0  0  0
   -0.9208    0.2250    0.0000 C   0  0  0  0  0  0           0  0  0
   -1.8708   -1.7000    0.0000 C   0  0  0  0  0  0           0  0  0
   -0.9208   -1.8250    0.0000 C   0  0  0  0  0  0           0  0  0
  2  4  2  0     0  0
  3  1  2  0     0  0
  4  1  1  0     0  0
  5  9  1  0     0  0
  6 10  1  0     0  0
  7  2  1  0     0  0
  8  3  1  0     0  0
  9  7  2  0     0  0
 10 12  2  0     0  0
 11  1  1  0     0  0
 12  7  1  0     0  0
 13  6  1  0     0  0
 14  5  1  0     0  0
 15 11  2  0     0  0
 16 13  1  0     0  0
 17 14  1  0     0  0
 18 11  1  0     0  0
 19 12  1  0     0  0
 20 14  1  0     0  0
 21 14  1  0     0  0
 22 13  1  0     0  0
 23 13  1  0     0  0
  8  2  1  0     0  0
  5  6  2  0     0  0
 17 16  1  0     0  0
M  END