
          11280714432D 1   1.00000     0.00000     0

 31 34  0     0  0            999 V2000
    5.0042   -1.9542    0.0000 C   0  0  0  0  0  0           0  0  0
    5.0042   -2.7875    0.0000 N   0  0  0  0  0  0           0  0  0
    3.5792   -2.7917    0.0000 C   0  0  0  0  0  0           0  0  0
    4.2917   -3.2042    0.0000 C   0  0  0  0  0  0           0  0  0
    4.2875   -1.5500    0.0000 N   0  0  0  0  0  0           0  0  0
    3.5792   -1.9667    0.0000 C   0  0  0  0  0  0           0  0  0
    5.7167   -1.5417    0.0000 N   0  0  3  0  0  0           0  0  0
    7.1417   -0.7167    0.0000 N   0  0  3  0  0  0           0  0  0
    7.8542   -0.3000    0.0000 C   0  0  0  0  0  0           0  0  0
    2.8625   -3.2042    0.0000 C   0  0  0  0  0  0           0  0  0
    2.8625   -1.5542    0.0000 C   0  0  0  0  0  0           0  0  0
    8.5667   -0.7125    0.0000 C   0  0  0  0  0  0           0  0  0
    2.1500   -2.7917    0.0000 C   0  0  0  0  0  0           0  0  0
    2.1500   -1.9667    0.0000 C   0  0  0  0  0  0           0  0  0
    8.5750   -1.5375    0.0000 C   0  0  0  0  0  0           0  0  0
    5.7125   -0.7167    0.0000 C   0  0  0  0  0  0           0  0  0
    6.4292   -1.9542    0.0000 C   0  0  0  0  0  0           0  0  0
    7.1417   -1.5417    0.0000 C   0  0  0  0  0  0           0  0  0
    6.4250   -0.3042    0.0000 C   0  0  0  0  0  0           0  0  0
    7.8542    0.5250    0.0000 O   0  0  0  0  0  0           0  0  0
    4.2917   -4.0292    0.0000 N   0  0  0  0  0  0           0  0  0
    9.2917   -1.9500    0.0000 C   0  0  0  0  0  0           0  0  0
    1.4292   -3.2042    0.0000 O   0  0  0  0  0  0           0  0  0
    1.4375   -1.5542    0.0000 O   0  0  0  0  0  0           0  0  0
    9.2875   -2.7750    0.0000 C   0  0  0  0  0  0           0  0  0
   10.0000   -1.5292    0.0000 C   0  0  0  0  0  0           0  0  0
    0.7167   -2.7917    0.0000 C   0  0  0  0  0  0           0  0  0
    0.7167   -1.9667    0.0000 C   0  0  0  0  0  0           0  0  0
   10.7042   -1.9417    0.0000 C   0  0  0  0  0  0           0  0  0
   10.0042   -3.1792    0.0000 C   0  0  0  0  0  0           0  0  0
   10.7167   -2.7667    0.0000 C   0  0  0  0  0  0           0  0  0
  2  1  1  0     0  0
  3  6  1  0     0  0
  4  2  2  0     0  0
  5  1  2  0     0  0
  6  5  1  0     0  0
  7  1  1  0     0  0
  8 18  1  0     0  0
  9  8  1  0     0  0
 10  3  2  0     0  0
 11  6  2  0     0  0
 12  9  1  0     0  0
 13 14  2  0     0  0
 14 11  1  0     0  0
 15 12  2  0     0  0
 16  7  1  0     0  0
 17  7  1  0     0  0
 18 17  1  0     0  0
 19 16  1  0     0  0
 20  9  2  0     0  0
 21  4  1  0     0  0
 22 15  1  0     0  0
 23 13  1  0     0  0
 24 14  1  0     0  0
 25 22  2  0     0  0
 26 22  1  0     0  0
 27 23  1  0     0  0
 28 24  1  0     0  0
 29 26  2  0     0  0
 30 25  1  0     0  0
 31 29  1  0     0  0
  3  4  1  0     0  0
 19  8  1  0     0  0
 10 13  1  0     0  0
 30 31  2  0     0  0
M  END