
  SciTegic01161211222D

 27 29  0  0  0  0            999 V2000
    5.4234    1.1922    0.0000 C   0  0
    5.6366    1.9902    0.0000 C   0  0
    5.0527    2.5717    0.0000 C   0  0
    4.2555    2.3565    0.0000 C   0  0
    4.0455    1.5545    0.0000 C   0  0
    4.6308    0.9764    0.0000 C   0  0
    6.0082    0.6102    0.0000 C   0  0
    5.7966   -0.1872    0.0000 N   0  0
    5.0280   -0.4845    0.0000 N   0  0
    5.0731   -1.3083    0.0000 C   0  0
    5.8705   -1.5199    0.0000 N   0  0
    6.3182   -0.8269    0.0000 C   0  0
    4.4333   -1.8290    0.0000 N   0  0
    3.6623   -1.5353    0.0000 C   0  0
    3.5340   -0.7212    0.0000 C   0  0
    2.7640   -0.4273    0.0000 C   0  0
    2.1231   -0.9483    0.0000 C   0  0
    2.2574   -1.7666    0.0000 C   0  0
    3.0275   -2.0566    0.0000 C   0  0
    1.3518   -0.6555    0.0000 S   0  0
    2.0625   -0.2375    0.0000 O   0  0
    0.6333   -1.0625    0.0000 N   0  0
    0.5500   -0.4375    0.0000 O   0  0
    6.8046    0.8257    0.0000 O   0  0
    7.1420   -0.7814    0.0000 N   0  0
    6.4332    2.2048    0.0000 F   0  0
    4.4214    0.1784    0.0000 F   0  0
 10 13  1  0
  1  2  2  0
 13 14  1  0
  1  7  1  0
 14 15  2  0
  3  4  2  0
 15 16  1  0
  7  8  1  0
 16 17  2  0
 11 12  2  0
 17 18  1  0
 18 19  2  0
 19 14  1  0
  9 10  2  0
 17 20  1  0
  4  5  1  0
 20 21  2  0
  2  3  1  0
 20 22  1  0
  5  6  2  0
 20 23  2  0
  8  9  1  0
  7 24  2  0
 10 11  1  0
 12 25  1  0
 12  8  1  0
  2 26  1  0
  6  1  1  0
  6 27  1  0
M  END