
  CDK    9/16/09,9:46

107112  0  0  0  0  0  0  0  0999 V2000
   19.4730   -2.1034    0.0000 N   0  0  0  0  0  0  0  0  0  0  0  0
   20.1229   -1.6375    0.0000 C   0  0  0  0  0  0  0  0  0  0  0  0
   20.8057   -2.9138    0.0000 O   0  0  0  0  0  0  0  0  0  0  0  0
   20.8028   -2.0910    0.0000 C   0  0  0  0  0  0  0  0  0  0  0  0
   20.1232   -0.8034    0.0000 C   0  0  0  0  0  0  0  0  0  0  0  0
   20.8324   -0.3962    0.0000 S   0  0  0  0  0  0  0  0  0  0  0  0
   21.5286   -1.7009    0.0000 O   0  0  0  0  0  0  0  0  0  0  0  0
   15.7614   -1.0386    0.0000 N   0  0  0  0  0  0  0  0  0  0  0  0
   16.4067   -0.5635    0.0000 C   0  0  0  0  0  0  0  0  0  0  0  0
   17.0896   -1.8490    0.0000 O   0  0  0  0  0  0  0  0  0  0  0  0
   17.0865   -1.0262    0.0000 C   0  0  0  0  0  0  0  0  0  0  0  0
   16.4071    0.2615    0.0000 C   0  0  0  0  0  0  0  0  0  0  0  0
   17.8141   -0.6394    0.0000 N   0  0  0  0  0  0  0  0  0  0  0  0
   13.7096   -0.6378    0.0000 N   0  0  0  0  0  0  0  0  0  0  0  0
   14.3548   -1.1083    0.0000 C   0  0  0  0  0  0  0  0  0  0  0  0
   15.0377    0.1726    0.0000 O   0  0  0  0  0  0  0  0  0  0  0  0
   15.0347   -0.6502    0.0000 C   0  0  0  0  0  0  0  0  0  0  0  0
   14.3552   -1.9333    0.0000 C   0  0  0  0  0  0  0  0  0  0  0  0
   15.0644   -2.3450    0.0000 C   0  0  0  0  0  0  0  0  0  0  0  0
   15.0647   -3.1644    0.0000 C   0  0  0  0  0  0  0  0  0  0  0  0
   15.7778   -1.9327    0.0000 C   0  0  0  0  0  0  0  0  0  0  0  0
   17.9294    0.1724    0.0000 C   0  0  0  0  0  0  0  0  0  0  0  0
   18.7410    0.3153    0.0000 C   0  0  0  0  0  0  0  0  0  0  0  0
   19.1277   -0.4123    0.0000 C   0  0  0  0  0  0  0  0  0  0  0  0
   18.5551   -1.0049    0.0000 C   0  0  0  0  0  0  0  0  0  0  0  0
   18.6963   -1.8168    0.0000 C   0  0  0  0  0  0  0  0  0  0  0  0
   18.0638   -2.3449    0.0000 O   0  0  0  0  0  0  0  0  0  0  0  0
   16.9842    0.8497    0.0000 C   0  0  0  0  0  0  0  0  0  0  0  0
   17.7825    0.6410    0.0000 C   0  0  0  0  0  0  0  0  0  0  0  0
   18.3593    1.2284    0.0000 C   0  0  0  0  0  0  0  0  0  0  0  0
   18.1387    2.0233    0.0000 C   0  0  0  0  0  0  0  0  0  0  0  0
   17.3359    2.2276    0.0000 C   0  0  0  0  0  0  0  0  0  0  0  0
   16.7626    1.6387    0.0000 C   0  0  0  0  0  0  0  0  0  0  0  0
   18.7151    2.6123    0.0000 O   0  0  0  0  0  0  0  0  0  0  0  0
    7.3629   -0.8898    0.0000 N   0  0  0  0  0  0  0  0  0  0  0  0
    8.0174   -0.4148    0.0000 C   0  0  0  0  0  0  0  0  0  0  0  0
    8.7095   -1.7093    0.0000 O   0  0  0  0  0  0  0  0  0  0  0  0
    8.7064   -0.8773    0.0000 C   0  0  0  0  0  0  0  0  0  0  0  0
    8.0177    0.4195    0.0000 C   0  0  0  0  0  0  0  0  0  0  0  0
    3.1467   -0.8898    0.0000 N   0  0  0  0  0  0  0  0  0  0  0  0
    3.7966   -0.4148    0.0000 C   0  0  0  0  0  0  0  0  0  0  0  0
    4.4842   -1.7047    0.0000 O   0  0  0  0  0  0  0  0  0  0  0  0
    4.4811   -0.8773    0.0000 C   0  0  0  0  0  0  0  0  0  0  0  0
    5.2081   -0.4895    0.0000 N   0  0  0  0  0  0  0  0  0  0  0  0
    1.0855   -0.4895    0.0000 N   0  0  0  0  0  0  0  0  0  0  0  0
    1.7354   -0.9646    0.0000 C   0  0  0  0  0  0  0  0  0  0  0  0
    2.4228    0.3254    0.0000 O   0  0  0  0  0  0  0  0  0  0  0  0
    2.4197   -0.5020    0.0000 C   0  0  0  0  0  0  0  0  0  0  0  0
    1.7357   -1.7941    0.0000 C   0  0  0  0  0  0  0  0  0  0  0  0
    2.4495   -2.2059    0.0000 O   0  0  0  0  0  0  0  0  0  0  0  0
    1.0222   -2.2065    0.0000 C   0  0  0  0  0  0  0  0  0  0  0  0
    5.9516   -0.9646    0.0000 C   0  0  0  0  0  0  0  0  0  0  0  0
    6.6390    0.3254    0.0000 O   0  0  0  0  0  0  0  0  0  0  0  0
    6.6359   -0.5020    0.0000 C   0  0  0  0  0  0  0  0  0  0  0  0
    5.9519   -1.7941    0.0000 C   0  0  0  0  0  0  0  0  0  0  0  0
    6.6777   -3.0317    0.0000 N   0  0  0  0  0  0  0  0  0  0  0  0
    7.4639   -3.2782    0.0000 C   0  0  0  0  0  0  0  0  0  0  0  0
    7.9414   -2.6067    0.0000 N   0  0  0  0  0  0  0  0  0  0  0  0
    7.4503   -1.9451    0.0000 C   0  0  0  0  0  0  0  0  0  0  0  0
    6.6692   -2.2077    0.0000 C   0  0  0  0  0  0  0  0  0  0  0  0
   -3.1288   -0.5179    0.0000 N   0  0  0  0  0  0  0  0  0  0  0  0
   -2.4790   -0.9930    0.0000 C   0  0  0  0  0  0  0  0  0  0  0  0
   -1.7869    0.3016    0.0000 O   0  0  0  0  0  0  0  0  0  0  0  0
   -1.7900   -0.5304    0.0000 C   0  0  0  0  0  0  0  0  0  0  0  0
   -2.4786   -1.8272    0.0000 C   0  0  0  0  0  0  0  0  0  0  0  0
   -1.7612   -3.0751    0.0000 C   0  0  0  0  0  0  0  0  0  0  0  0
   -1.7612   -2.2465    0.0000 C   0  0  0  0  0  0  0  0  0  0  0  0
   -1.0430   -1.8299    0.0000 C   0  0  0  0  0  0  0  0  0  0  0  0
   -0.3248   -2.2465    0.0000 C   0  0  0  0  0  0  0  0  0  0  0  0
   -0.3248   -3.0751    0.0000 C   0  0  0  0  0  0  0  0  0  0  0  0
   -1.0430   -3.4871    0.0000 C   0  0  0  0  0  0  0  0  0  0  0  0
   -1.0584   -0.9183    0.0000 N   0  0  0  0  0  0  0  0  0  0  0  0
   -3.1166    2.0248    0.0000 N   0  0  0  0  0  0  0  0  0  0  0  0
   -5.2039   -0.9183    0.0000 N   0  0  0  0  0  0  0  0  0  0  0  0
   -4.5494   -0.4386    0.0000 C   0  0  0  0  0  0  0  0  0  0  0  0
   -3.8574   -1.7377    0.0000 O   0  0  0  0  0  0  0  0  0  0  0  0
   -3.8604   -0.9058    0.0000 C   0  0  0  0  0  0  0  0  0  0  0  0
   -4.5491    0.3956    0.0000 C   0  0  0  0  0  0  0  0  0  0  0  0
   -3.8308    0.8073    0.0000 C   0  0  0  0  0  0  0  0  0  0  0  0
   -3.8304    1.6359    0.0000 C   0  0  0  0  0  0  0  0  0  0  0  0
   -3.0943    2.8531    0.0000 C   0  0  0  0  0  0  0  0  0  0  0  0
   -2.3697    3.2455    0.0000 N   0  0  0  0  0  0  0  0  0  0  0  0
   -3.8011    3.2842    0.0000 N   0  0  0  0  0  0  0  0  0  0  0  0
    0.3706   -0.9078    0.0000 C   0  0  0  0  0  0  0  0  0  0  0  0
   -0.3473   -0.4961    0.0000 C   0  0  0  0  0  0  0  0  0  0  0  0
   -0.3543    0.3319    0.0000 C   0  0  0  0  0  0  0  0  0  0  0  0
   -1.1823    0.3250    0.0000 C   0  0  0  0  0  0  0  0  0  0  0  0
   -0.3573    1.1622    0.0000 C   0  0  0  0  0  0  0  0  0  0  0  0
    0.4759    0.3350    0.0000 S   0  0  0  0  0  0  0  0  0  0  0  0
    0.3776   -1.7358    0.0000 O   0  0  0  0  0  0  0  0  0  0  0  0
    8.7316    0.8312    0.0000 C   0  0  0  0  0  0  0  0  0  0  0  0
    9.4422    0.4155    0.0000 C   0  0  0  0  0  0  0  0  0  0  0  0
   10.1556    0.8266    0.0000 C   0  0  0  0  0  0  0  0  0  0  0  0
   10.1563    1.6515    0.0000 C   0  0  0  0  0  0  0  0  0  0  0  0
    9.4379    2.0637    0.0000 C   0  0  0  0  0  0  0  0  0  0  0  0
    8.7275    1.6502    0.0000 C   0  0  0  0  0  0  0  0  0  0  0  0
    9.4328   -0.4884    0.0000 N   0  0  0  0  0  0  0  0  0  0  0  0
   10.1329   -0.9230    0.0000 C   0  0  0  0  0  0  0  0  0  0  0  0
   10.1024   -1.7491    0.0000 C   0  0  0  0  0  0  0  0  0  0  0  0
   10.7983   -2.1835    0.0000 C   0  0  0  0  0  0  0  0  0  0  0  0
   11.5270   -1.7982    0.0000 C   0  0  0  0  0  0  0  0  0  0  0  0
   11.5554   -0.9737    0.0000 N   0  0  0  0  0  0  0  0  0  0  0  0
   10.8551   -0.5346    0.0000 C   0  0  0  0  0  0  0  0  0  0  0  0
   10.8824    0.2890    0.0000 O   0  0  0  0  0  0  0  0  0  0  0  0
   12.2831   -0.5872    0.0000 C   0  0  0  0  0  0  0  0  0  0  0  0
   12.9818   -1.0243    0.0000 C   0  0  0  0  0  0  0  0  0  0  0  0
   12.9526   -1.8478    0.0000 O   0  0  0  0  0  0  0  0  0  0  0  0
 52 55  1  6  0  0  0 
  2  5  1  1  0  0  0 
 26 27  2  0  0  0  0 
 55 60  1  0  0  0  0 
 12 28  1  0  0  0  0 
 56 57  1  0  0  0  0 
 14 15  1  0  0  0  0 
 57 58  2  0  0  0  0 
 28 29  2  0  0  0  0 
 58 59  1  0  0  0  0 
 15 17  1  0  0  0  0 
 59 60  2  0  0  0  0 
 60 56  1  0  0  0  0 
 54 35  1  0  0  0  0 
 29 30  1  0  0  0  0 
 17 16  2  0  0  0  0 
 30 31  2  0  0  0  0 
 61 62  1  0  0  0  0 
 62 64  1  0  0  0  0 
 64 63  2  0  0  0  0 
 62 65  1  6  0  0  0 
 15 18  1  6  0  0  0 
 31 32  1  0  0  0  0 
 65 67  1  0  0  0  0 
  1  2  1  0  0  0  0 
 32 33  2  0  0  0  0 
 66 67  2  0  0  0  0 
 33 28  1  0  0  0  0 
 67 68  1  0  0  0  0 
  8  9  1  0  0  0  0 
 68 69  2  0  0  0  0 
 31 34  1  0  0  0  0 
 69 70  1  0  0  0  0 
  9 11  1  0  0  0  0 
 70 71  2  0  0  0  0 
 71 66  1  0  0  0  0 
 18 19  1  0  0  0  0 
 64 72  1  0  0  0  0 
 11 10  2  0  0  0  0 
 35 36  1  0  0  0  0 
 36 38  1  0  0  0  0 
 38 37  2  0  0  0  0 
 74 75  1  0  0  0  0 
 75 77  1  0  0  0  0 
 77 76  2  0  0  0  0 
 75 78  1  1  0  0  0 
 36 39  1  1  0  0  0 
 19 20  1  0  0  0  0 
  9 12  1  1  0  0  0 
 78 79  1  0  0  0  0 
 19 21  1  0  0  0  0 
 79 80  1  0  0  0  0 
 80 73  1  0  0  0  0 
 77 61  1  0  0  0  0 
 17  8  1  0  0  0  0 
 73 81  1  0  0  0  0 
 13 22  1  0  0  0  0 
 81 82  2  0  0  0  0 
 40 41  1  0  0  0  0 
 81 83  1  0  0  0  0 
 41 43  1  0  0  0  0 
 43 42  2  0  0  0  0 
  2  4  1  0  0  0  0 
  5  6  1  0  0  0  0 
 43 44  1  0  0  0  0 
  4  3  2  0  0  0  0 
 11 13  1  0  0  0  0 
 85 72  1  6  0  0  0 
 84 85  1  0  0  0  0 
 85 86  1  0  0  0  0 
 86 87  1  0  0  0  0 
 86 88  1  0  0  0  0 
 86 89  1  0  0  0  0 
 84 90  2  0  0  0  0 
 84 45  1  0  0  0  0 
 22 23  1  0  0  0  0 
 39 91  1  0  0  0  0 
 46 45  1  6  0  0  0 
 91 92  2  0  0  0  0 
 46 48  1  0  0  0  0 
 92 93  1  0  0  0  0 
 48 47  2  0  0  0  0 
 93 94  2  0  0  0  0 
 46 49  1  0  0  0  0 
 94 95  1  0  0  0  0 
 23 24  1  0  0  0  0 
 95 96  2  0  0  0  0 
 96 91  1  0  0  0  0 
 24 25  1  0  0  0  0 
 38 97  1  0  0  0  0 
 25 13  1  0  0  0  0 
 98 97  1  6  0  0  0 
 98 99  1  0  0  0  0 
 49 50  1  6  0  0  0 
  4  7  1  0  0  0  0 
 49 51  1  0  0  0  0 
 48 40  1  0  0  0  0 
 25 26  1  1  0  0  0 
 98103  1  0  0  0  0 
 99100  1  0  0  0  0 
100101  1  0  0  0  0 
101102  1  0  0  0  0 
102103  1  0  0  0  0 
 26  1  1  0  0  0  0 
103104  2  0  0  0  0 
 44 52  1  0  0  0  0 
102105  1  0  0  0  0 
 52 54  1  0  0  0  0 
105106  1  0  0  0  0 
106 14  1  0  0  0  0 
 54 53  2  0  0  0  0 
106107  2  0  0  0  0 
M  END