
          11280715362D 1   1.00000     0.00000     0

 41 44  0     1  0            999 V2000
    3.3542   -0.0042    0.0000 S   0  0  3  0  0  0           0  0  0
    0.7417   -4.5292    0.0000 C   0  0  1  0  0  0           0  0  0
    0.5542   -3.7250    0.0000 C   0  0  2  0  0  0           0  0  0
    1.3250   -5.1125    0.0000 N   0  0  3  0  0  0           0  0  0
    3.3875   -1.4292    0.0000 C   0  0  0  0  0  0           0  0  0
    2.9542   -0.7250    0.0000 C   0  0  0  0  0  0           0  0  0
    2.9875   -2.1417    0.0000 C   0  0  0  0  0  0           0  0  0
    0.0292   -4.9542    0.0000 C   0  0  0  0  0  0           0  0  0
    4.1792    0.0125    0.0000 O   0  0  0  0  0  0           0  0  0
    2.5667   -0.2292    0.0000 O   0  0  0  0  0  0           0  0  0
   -0.2625   -3.6542    0.0000 C   0  0  3  0  0  0           0  0  0
    2.1667   -2.1667    0.0000 C   0  0  0  0  0  0           0  0  0
    5.5125   -4.5042    0.0000 C   0  0  0  0  0  0           0  0  0
    2.9292    0.7083    0.0000 N   0  0  0  0  0  0           0  0  0
   -0.6875   -2.9417    0.0000 O   0  0  0  0  0  0           0  0  0
   -0.5875   -4.4042    0.0000 C   0  0  0  0  0  0           0  0  0
    6.1750   -4.2417    0.0000 O   0  0  0  0  0  0           0  0  0
    1.7667   -2.8917    0.0000 C   0  0  0  0  0  0           0  0  0
    1.7542   -1.4667    0.0000 C   0  0  0  0  0  0           0  0  0
    2.6500   -3.6750    0.0000 C   0  0  0  0  0  0           0  0  0
    3.5125   -3.7375    0.0000 C   0  0  0  0  0  0           0  0  0
    1.3500   -3.5042    0.0000 O   0  0  0  0  0  0           0  0  0
   -0.2833   -2.2250    0.0000 C   0  0  0  0  0  0           0  0  0
    0.5417   -2.2125    0.0000 C   0  0  0  0  0  0           0  0  0
    5.4167   -5.2167    0.0000 O   0  0  0  0  0  0           0  0  0
    0.9542   -2.9042    0.0000 C   0  0  0  0  0  0           0  0  0
    0.9417   -1.4917    0.0000 C   0  0  0  0  0  0           0  0  0
    1.0542   -5.8875    0.0000 C   0  0  0  0  0  0           0  0  0
    2.0917   -4.8375    0.0000 C   0  0  0  0  0  0           0  0  0
    4.2000   -1.4125    0.0000 C   0  0  0  0  0  0           0  0  0
    3.3917   -2.8500    0.0000 C   0  0  0  0  0  0           0  0  0
    2.0250   -4.0375    0.0000 C   0  0  0  0  0  0           0  0  0
    4.9500   -4.0667    0.0000 C   0  0  0  0  0  0           0  0  0
    4.0125   -4.3167    0.0000 C   0  0  0  0  0  0           0  0  0
    3.3292    1.4250    0.0000 C   0  0  0  0  0  0           0  0  0
    2.7917   -5.2750    0.0000 C   0  0  0  0  0  0           0  0  0
    1.4917   -6.5792    0.0000 C   0  0  0  0  0  0           0  0  0
    4.6167   -2.1167    0.0000 C   0  0  0  0  0  0           0  0  0
    4.2167   -2.8375    0.0000 C   0  0  0  0  0  0           0  0  0
    2.8917   -6.0875    0.0000 C   0  0  0  0  0  0           0  0  0
    2.3167   -6.6667    0.0000 C   0  0  0  0  0  0           0  0  0
  2  3  1  0     0  0
  3 11  1  0     0  0
  2  4  1  1     0  0
  5  6  1  0     0  0
  6  1  1  0     0  0
  7  5  1  0     0  0
  8 16  1  0     0  0
  9  1  2  0     0  0
 10  1  2  0     0  0
 11 15  1  0     0  0
 12  7  1  0     0  0
 13 33  1  0     0  0
 14  1  1  0     0  0
 15 23  1  0     0  0
 16 11  1  0     0  0
 17 13  2  0     0  0
 18 12  1  0     0  0
 19 12  2  0     0  0
 20 32  1  0     0  0
 21 20  2  0     0  0
  3 22  1  6     0  0
 23 24  1  0     0  0
 24 27  2  0     0  0
 25 13  1  0     0  0
 26 18  2  0     0  0
 27 19  1  0     0  0
 28  4  1  0     0  0
 29  4  1  0     0  0
 30  5  2  0     0  0
 31  7  2  0     0  0
 32 22  1  0     0  0
 33 34  1  0     0  0
 34 21  1  0     0  0
 35 14  1  0     0  0
 36 29  1  0     0  0
 37 28  1  0     0  0
 38 30  1  0     0  0
 39 38  2  0     0  0
 40 36  1  0     0  0
 41 37  1  0     0  0
 31 39  1  0     0  0
 26 24  1  0     0  0
  8  2  1  0     0  0
 40 41  1  0     0  0
M  END