
          11280715242D 1   1.00000     0.00000     0

 45 49  0     0  0            999 V2000
    5.0167   -6.5417    0.0000 N   0  0  0  0  0  0           0  0  0
    5.6542   -6.0250    0.0000 C   0  0  0  0  0  0           0  0  0
    5.3667   -5.2542    0.0000 N   0  0  3  0  0  0           0  0  0
    4.5417   -5.2917    0.0000 N   0  0  0  0  0  0           0  0  0
    4.3250   -6.0917    0.0000 C   0  0  0  0  0  0           0  0  0
    9.5250   -3.8500    0.0000 C   0  0  0  0  0  0           0  0  0
    9.9292   -8.4917    0.0000 C   0  0  0  0  0  0           0  0  0
    9.9292   -7.6667    0.0000 C   0  0  0  0  0  0           0  0  0
    9.1125   -4.5625    0.0000 C   0  0  0  0  0  0           0  0  0
    9.2125   -8.9042    0.0000 C   0  0  0  0  0  0           0  0  0
    9.1125   -3.1292    0.0000 C   0  0  0  0  0  0           0  0  0
    6.3667   -6.4375    0.0000 S   0  0  0  0  0  0           0  0  0
    5.8167   -4.5625    0.0000 C   0  0  0  0  0  0           0  0  0
    8.2875   -4.5625    0.0000 C   0  0  0  0  0  0           0  0  0
    9.2167   -7.2542    0.0000 C   0  0  0  0  0  0           0  0  0
    8.5000   -8.4917    0.0000 O   0  0  0  0  0  0           0  0  0
    8.2875   -3.1292    0.0000 O   0  0  0  0  0  0           0  0  0
    7.8792   -5.2750    0.0000 C   0  0  0  0  0  0           0  0  0
    9.2125   -6.4292    0.0000 C   0  0  0  0  0  0           0  0  0
    7.8792   -3.8500    0.0000 C   0  0  0  0  0  0           0  0  0
    8.5000   -7.6667    0.0000 C   0  0  0  0  0  0           0  0  0
    6.6417   -4.5625    0.0000 C   0  0  0  0  0  0           0  0  0
    7.0792   -6.0167    0.0000 C   0  0  0  0  0  0           0  0  0
    9.5250   -2.4167    0.0000 O   0  0  0  0  0  0           0  0  0
    9.2125   -9.7292    0.0000 O   0  0  0  0  0  0           0  0  0
    7.7917   -6.4292    0.0000 C   0  0  0  0  0  0           0  0  0
    7.0625   -5.2792    0.0000 C   0  0  0  0  0  0           0  0  0
    7.0542   -3.8417    0.0000 C   0  0  0  0  0  0           0  0  0
    7.7917   -7.2542    0.0000 C   0  0  0  0  0  0           0  0  0
    8.5042   -6.0167    0.0000 C   0  0  0  0  0  0           0  0  0
    3.5542   -6.3792    0.0000 C   0  0  0  0  0  0           0  0  0
   10.6417   -8.9042    0.0000 C   0  0  0  0  0  0           0  0  0
   10.3417   -3.8500    0.0000 C   0  0  0  0  0  0           0  0  0
   10.6417   -7.2542    0.0000 C   0  0  0  0  0  0           0  0  0
    9.5250   -5.2750    0.0000 C   0  0  0  0  0  0           0  0  0
    3.4167   -7.1917    0.0000 C   0  0  0  0  0  0           0  0  0
    1.3875   -9.2042    0.0000 C   0  0  0  0  0  0           0  0  0
    1.6042   -8.4125    0.0000 C   0  0  0  0  0  0           0  0  0
    2.6167   -7.4042    0.0000 C   0  0  0  0  0  0           0  0  0
    2.4042   -8.2042    0.0000 C   0  0  0  0  0  0           0  0  0
   10.3500   -5.2667    0.0000 C   0  0  0  0  0  0           0  0  0
   11.3542   -8.4917    0.0000 C   0  0  0  0  0  0           0  0  0
   11.3542   -7.6667    0.0000 C   0  0  0  0  0  0           0  0  0
   10.7542   -4.5542    0.0000 C   0  0  0  0  0  0           0  0  0
    0.5917   -9.4167    0.0000 C   0  0  0  0  0  0           0  0  0
  2  1  2  0     0  0
  3  2  1  0     0  0
  4  5  2  0     0  0
  5  1  1  0     0  0
  6  9  1  0     0  0
  7  8  2  0     0  0
  8 15  1  0     0  0
  9 14  1  0     0  0
 10  7  1  0     0  0
 11  6  1  0     0  0
 12  2  1  0     0  0
 13  3  1  0     0  0
 14 20  2  0     0  0
 15 19  1  0     0  0
 16 10  2  0     0  0
 17 11  2  0     0  0
 18 27  2  0     0  0
 19 30  2  0     0  0
 20 28  1  0     0  0
 21 29  1  0     0  0
 22 13  1  0     0  0
 23 12  1  0     0  0
 24 11  1  0     0  0
 25 10  1  0     0  0
 26 23  1  0     0  0
 27 22  1  0     0  0
 28 22  2  0     0  0
 29 26  2  0     0  0
 30 26  1  0     0  0
 31  5  1  0     0  0
 32  7  1  0     0  0
 33  6  2  0     0  0
 34  8  1  0     0  0
 35  9  2  0     0  0
 36 31  1  0     0  0
 37 38  1  0     0  0
 38 40  1  0     0  0
 39 36  1  0     0  0
 40 39  1  0     0  0
 41 35  1  0     0  0
 42 43  1  0     0  0
 43 34  2  0     0  0
 44 41  2  0     0  0
 45 37  1  0     0  0
  4  3  1  0     0  0
 15 21  2  0     0  0
 14 18  1  0     0  0
 42 32  2  0     0  0
 44 33  1  0     0  0
M  END