
  SciTegic09261415472D

  8  8  0  0  0  0            999 V2000
    8.6421   -4.1968    0.0000 N   0  0
    8.8936   -4.9812    0.0000 N   0  0
    8.2277   -5.4633    0.0000 C   0  0
    7.5618   -4.9812    0.0000 C   0  0
    7.8175   -4.1968    0.0000 C   0  0
    8.2277   -6.2916    0.0000 C   0  0
    7.5104   -6.7057    0.0000 C   0  0
    7.5104   -7.5339    0.0000 Cl  0  0
  1  2  1  0
  2  3  2  0
  3  4  1  0
  4  5  2  0
  1  5  1  0
  3  6  1  0
  6  7  1  0
  7  8  1  0
M  END