
  Mrv0541 04051115152D          

  7  7  0  0  0  0            999 V2000
   34.0325   19.6985    0.0000 N   0  0  0  0  0  0  0  0  0  0  0  0
   34.0325   18.8735    0.0000 C   0  0  0  0  0  0  0  0  0  0  0  0
   34.7469   18.4610    0.0000 N   0  0  0  0  0  0  0  0  0  0  0  0
   34.7469   17.6360    0.0000 C   0  0  0  0  0  0  0  0  0  0  0  0
   34.0325   17.2235    0.0000 C   0  0  0  0  0  0  0  0  0  0  0  0
   33.3180   17.6360    0.0000 C   0  0  0  0  0  0  0  0  0  0  0  0
   33.3180   18.4610    0.0000 N   0  0  0  0  0  0  0  0  0  0  0  0
  2  1  1  0  0  0  0
  2  3  1  0  0  0  0
  2  7  2  0  0  0  0
  4  3  2  0  0  0  0
  4  5  1  0  0  0  0
  6  5  2  0  0  0  0
  6  7  1  0  0  0  0
M  END