
  SciTegic11201309402D

 52 57  0  0  0  0            999 V2000
    3.8103  -11.4366    0.0000 N   0  0
    2.5593  -13.4417    0.0000 N   0  0
    3.6561  -12.2420    0.0000 C   0  0
    3.2219  -12.9447    0.0000 C   0  0  1  0  0  0
    3.6561  -10.6253    0.0000 C   0  0  2  0  0  0
    1.7709  -13.6758    0.0000 C   0  0
    3.2219   -9.9285    0.0000 C   0  0
    0.9483  -13.5959    0.0000 C   0  0  1  0  0  0
    2.5593   -9.4257    0.0000 N   0  0
    0.2114  -13.2303    0.0000 N   0  0
    2.6621  -14.2643    0.0000 C   0  0
    4.6272  -11.5394    0.0000 C   0  0
    4.3759  -10.2369    0.0000 C   0  0
    3.9817  -13.2703    0.0000 C   0  0
    0.9483   -9.2772    0.0000 C   0  0
    4.9757  -10.7967    0.0000 C   0  0
   -0.1714   -6.9465    0.0000 C   0  0
    1.7709   -9.2029    0.0000 C   0  0  2  0  0  0
    0.7255  -14.3842    0.0000 C   0  0
   -0.3428  -12.6191    0.0000 C   0  0
    3.4275  -14.5841    0.0000 C   0  0
   -0.0799  -14.5899    0.0000 C   0  0
    4.0845  -14.0871    0.0000 C   0  0
   -0.3884  -15.3553    0.0000 S   0  0
    4.4273  -12.5448    0.0000 O   0  0
    0.2114   -9.6485    0.0000 N   0  0
    1.8509  -14.4871    0.0000 O   0  0
   -0.8511   -6.4780    0.0000 N   0  0
    3.8275   -9.3743    0.0000 O   0  0
    0.7255   -8.4889    0.0000 O   0  0
   -1.2110  -15.2925    0.0000 C   0  0
   -0.7026  -14.0586    0.0000 C   0  0
   -1.0396  -13.0475    0.0000 O   0  0
   -1.4053  -14.4984    0.0000 C   0  0
    0.5827   -6.6038    0.0000 N   0  0
   -0.2513   -7.7691    0.0000 N   0  0
    5.0956  -12.2249    0.0000 C   0  0
    5.7983  -10.7339    0.0000 C   0  0
   -0.6455  -11.8479    0.0000 C   0  0
   -0.3428  -10.2541    0.0000 C   0  0
    1.8509   -8.3861    0.0000 C   0  0
    4.8386  -14.4128    0.0000 C   0  0
    3.5304  -15.4067    0.0000 C   0  0
    1.2568   -7.0836    0.0000 C   0  0
    1.1711   -7.9062    0.0000 C   0  0
   -0.6455  -11.0253    0.0000 C   0  0
    5.9182  -12.1563    0.0000 C   0  0
    6.2724  -11.4137    0.0000 C   0  0
    4.9414  -15.2240    0.0000 C   0  0
    4.2902  -15.7210    0.0000 C   0  0
    3.9126   -9.6587    0.0000 H   0  0
    4.1754  -12.6432    0.0000 H   0  0
  4  2  1  0
  3  1  1  0
  4  3  1  0
  5  1  1  0
  6  2  1  0
  7  5  1  0
  8  6  1  0
  9  7  1  0
 10  8  1  0
 11  2  1  0
 12  1  1  0
 13  5  1  0
 14  4  1  0
 15 18  1  0
 16 12  1  0
 17 35  1  0
 18  9  1  0
  8 19  1  6
 20 10  1  0
 21 23  2  0
 22 19  1  0
 23 14  1  0
 24 22  1  0
 25  3  2  0
 26 15  1  0
 27  6  2  0
 28 17  2  0
 29  7  2  0
 30 15  2  0
 31 24  1  0
 32 22  2  0
 33 20  2  0
 34 32  1  0
 35 44  1  0
 36 17  1  0
 37 12  1  0
 38 16  1  0
 39 20  1  0
 40 26  1  0
 18 41  1  6
 42 23  1  0
 43 21  1  0
 44 45  1  0
 45 41  1  0
 46 40  1  0
 47 37  1  0
 48 47  1  0
 49 42  2  0
 50 49  1  0
 13 16  1  0
 38 48  1  0
 11 21  1  0
 43 50  2  0
 39 46  1  0
 34 31  2  0
  5 51  1  1
  4 52  1  6
M  END