
          11280715112D 1   1.00000     0.00000     0

 25 28  0     0  0            999 V2000
    1.3417   -1.6792    0.0000 C   0  0  0  0  0  0           0  0  0
    2.6417   -1.9542    0.0000 N   0  0  0  0  0  0           0  0  0
    2.0917   -1.3417    0.0000 C   0  0  0  0  0  0           0  0  0
    1.4292   -2.5000    0.0000 C   0  0  0  0  0  0           0  0  0
    2.2375   -2.6667    0.0000 O   0  0  0  0  0  0           0  0  0
    0.6250   -1.2667    0.0000 C   0  0  0  0  0  0           0  0  0
   -2.2333   -2.9292    0.0000 N   0  0  3  0  0  0           0  0  0
    2.2542   -0.5292    0.0000 C   0  0  0  0  0  0           0  0  0
   -1.5208   -2.5167    0.0000 C   0  0  0  0  0  0           0  0  0
    0.8167   -3.0542    0.0000 O   0  0  0  0  0  0           0  0  0
   -0.0875   -1.6875    0.0000 C   0  0  0  0  0  0           0  0  0
    3.0417   -0.2750    0.0000 C   0  0  0  0  0  0           0  0  0
    1.6417    0.0125    0.0000 C   0  0  0  0  0  0           0  0  0
   -1.5208   -1.6875    0.0000 C   0  0  0  0  0  0           0  0  0
   -0.8083   -2.9292    0.0000 C   0  0  0  0  0  0           0  0  0
    2.6000    1.0750    0.0000 C   0  0  0  0  0  0           0  0  0
   -0.0875   -2.5167    0.0000 C   0  0  0  0  0  0           0  0  0
   -0.8083   -1.2750    0.0000 C   0  0  0  0  0  0           0  0  0
    1.8125    0.8208    0.0000 C   0  0  0  0  0  0           0  0  0
    3.2125    0.5333    0.0000 C   0  0  0  0  0  0           0  0  0
    2.7667    1.8833    0.0000 F   0  0  0  0  0  0           0  0  0
   -2.3125   -3.7500    0.0000 C   0  0  0  0  0  0           0  0  0
   -2.9875   -2.5917    0.0000 C   0  0  0  0  0  0           0  0  0
   -3.5333   -3.2125    0.0000 C   0  0  0  0  0  0           0  0  0
   -3.1208   -3.9250    0.0000 C   0  0  0  0  0  0           0  0  0
  2  3  2  0     0  0
  3  1  1  0     0  0
  4  1  1  0     0  0
  5  4  1  0     0  0
  6  1  2  0     0  0
  7  9  1  0     0  0
  8  3  1  0     0  0
  9 14  2  0     0  0
 10  4  2  0     0  0
 11  6  1  0     0  0
 12  8  2  0     0  0
 13  8  1  0     0  0
 14 18  1  0     0  0
 15 17  2  0     0  0
 16 19  1  0     0  0
 17 11  1  0     0  0
 18 11  2  0     0  0
 19 13  2  0     0  0
 20 12  1  0     0  0
 21 16  1  0     0  0
 22  7  1  0     0  0
 23  7  1  0     0  0
 24 23  1  0     0  0
 25 22  1  0     0  0
  2  5  1  0     0  0
 15  9  1  0     0  0
 16 20  2  0     0  0
 25 24  1  0     0  0
M  END