
          11280715242D 1   1.00000     0.00000     0

 46 50  0     0  0            999 V2000
    4.5250   -4.6042    0.0000 C   0  0  0  0  0  0           0  0  0
    3.8792   -5.1167    0.0000 N   0  0  0  0  0  0           0  0  0
    5.2375   -5.0167    0.0000 S   0  0  3  0  0  0           0  0  0
    4.2292   -3.8292    0.0000 N   0  0  0  0  0  0           0  0  0
    3.4042   -3.8750    0.0000 N   0  0  3  0  0  0           0  0  0
    3.1917   -4.6667    0.0000 C   0  0  0  0  0  0           0  0  0
   -0.7083   -2.4417    0.0000 C   0  0  0  0  0  0           0  0  0
    8.7917   -7.0750    0.0000 C   0  0  0  0  0  0           0  0  0
    8.7917   -6.2500    0.0000 C   0  0  0  0  0  0           0  0  0
   -0.2958   -3.1542    0.0000 C   0  0  0  0  0  0           0  0  0
    8.0792   -7.4875    0.0000 C   0  0  0  0  0  0           0  0  0
   -0.2958   -1.7292    0.0000 C   0  0  0  0  0  0           0  0  0
    5.9500   -4.6000    0.0000 C   0  0  0  0  0  0           0  0  0
    4.6500   -5.6000    0.0000 O   0  0  0  0  0  0           0  0  0
    5.8167   -5.6000    0.0000 O   0  0  0  0  0  0           0  0  0
    3.0000   -3.1542    0.0000 C   0  0  0  0  0  0           0  0  0
    0.5292   -3.1542    0.0000 C   0  0  0  0  0  0           0  0  0
    8.0792   -5.8375    0.0000 C   0  0  0  0  0  0           0  0  0
    7.3667   -7.0667    0.0000 O   0  0  0  0  0  0           0  0  0
    0.5292   -1.7292    0.0000 O   0  0  0  0  0  0           0  0  0
    0.9375   -3.8750    0.0000 C   0  0  0  0  0  0           0  0  0
    7.3667   -6.2417    0.0000 C   0  0  0  0  0  0           0  0  0
    0.9292   -2.4417    0.0000 C   0  0  0  0  0  0           0  0  0
    8.0792   -5.0042    0.0000 C   0  0  0  0  0  0           0  0  0
    6.6625   -5.0125    0.0000 C   0  0  0  0  0  0           0  0  0
    2.1750   -3.1542    0.0000 C   0  0  0  0  0  0           0  0  0
    8.0792   -8.3125    0.0000 O   0  0  0  0  0  0           0  0  0
   -0.7125   -1.0167    0.0000 O   0  0  0  0  0  0           0  0  0
    6.6542   -5.8292    0.0000 C   0  0  0  0  0  0           0  0  0
    7.3667   -4.6000    0.0000 C   0  0  0  0  0  0           0  0  0
    1.7542   -2.4417    0.0000 C   0  0  0  0  0  0           0  0  0
    1.7542   -3.8750    0.0000 C   0  0  0  0  0  0           0  0  0
    2.4167   -4.9625    0.0000 C   0  0  0  0  0  0           0  0  0
    9.5042   -7.4875    0.0000 C   0  0  0  0  0  0           0  0  0
   -1.5333   -2.4500    0.0000 C   0  0  0  0  0  0           0  0  0
    9.5042   -5.8375    0.0000 C   0  0  0  0  0  0           0  0  0
   -0.7083   -3.8667    0.0000 C   0  0  0  0  0  0           0  0  0
    2.2875   -5.7750    0.0000 C   0  0  0  0  0  0           0  0  0
    0.4667   -6.9917    0.0000 C   0  0  0  0  0  0           0  0  0
    1.2667   -6.7792    0.0000 C   0  0  0  0  0  0           0  0  0
    1.4875   -5.9875    0.0000 C   0  0  0  0  0  0           0  0  0
   10.2250   -7.0750    0.0000 C   0  0  0  0  0  0           0  0  0
   10.2167   -6.2417    0.0000 C   0  0  0  0  0  0           0  0  0
   -1.5333   -3.8667    0.0000 C   0  0  0  0  0  0           0  0  0
   -1.9458   -3.1625    0.0000 C   0  0  0  0  0  0           0  0  0
    0.2542   -7.7917    0.0000 C   0  0  0  0  0  0           0  0  0
  2  1  1  0     0  0
  3  1  1  0     0  0
  4  1  2  0     0  0
  5  4  1  0     0  0
  6  2  2  0     0  0
  7 10  2  0     0  0
  8  9  2  0     0  0
  9 18  1  0     0  0
 10 17  1  0     0  0
 11  8  1  0     0  0
 12  7  1  0     0  0
 13  3  1  0     0  0
 14  3  2  0     0  0
 15  3  2  0     0  0
 16  5  1  0     0  0
 17 21  2  0     0  0
 18 24  1  0     0  0
 19 11  2  0     0  0
 20 12  2  0     0  0
 21 32  1  0     0  0
 22 29  1  0     0  0
 23 31  2  0     0  0
 24 30  2  0     0  0
 25 13  1  0     0  0
 26 16  1  0     0  0
 27 11  1  0     0  0
 28 12  1  0     0  0
 29 25  2  0     0  0
 30 25  1  0     0  0
 31 26  1  0     0  0
 32 26  2  0     0  0
 33  6  1  0     0  0
 34  8  1  0     0  0
 35  7  1  0     0  0
 36  9  1  0     0  0
 37 10  1  0     0  0
 38 33  1  0     0  0
 39 40  1  0     0  0
 40 41  1  0     0  0
 41 38  1  0     0  0
 42 43  1  0     0  0
 43 36  2  0     0  0
 44 37  2  0     0  0
 45 44  1  0     0  0
 46 39  1  0     0  0
  6  5  1  0     0  0
 18 22  2  0     0  0
 17 23  1  0     0  0
 42 34  2  0     0  0
 45 35  2  0     0  0
M  END