
  SciTegic01111613442D

 15 15  0  0  0  0            999 V2000
    2.5951   -3.0039    0.0000 C   0  0
    2.5973   -1.5031    0.0000 C   0  0
    1.2990   -0.7500    0.0000 C   0  0
    1.5548   -3.6021    0.0000 O   0  0
    3.6331   -3.6060    0.0000 O   0  0
    1.2990    0.7500    0.0000 C   0  0
    0.0000   -1.5000    0.0000 C   0  0
   -1.2990    0.7500    0.0000 C   0  0
    0.0000    1.5000    0.0000 C   0  0
   -1.2990   -0.7500    0.0000 C   0  0
   -2.6003    1.4977    0.0000 C   0  0
    3.6375   -0.9049    0.0000 C   0  0
   -3.8990    0.7455    0.0000 C   0  0
   -4.9395    1.3433    0.0000 C   0  0
   -3.8969   -0.4545    0.0000 C   0  0
  2  1  1  0
  3  2  1  0
  4  1  1  0
  5  1  2  0
  6  3  1  0
  7  3  2  0
  8  9  1  0
  9  6  2  0
 10  7  1  0
 11  8  1  0
 12  2  1  0
 13 11  1  0
 14 13  1  0
 15 13  1  0
 10  8  2  0
M  END