
  SciTegic04091414152D

 16 16  0  0  0  0            999 V2000
   16.8299  -16.3216    0.0000 C   0  0
   16.8299  -17.1465    0.0000 C   0  0
   17.5420  -17.5549    0.0000 C   0  0
   18.2539  -17.1465    0.0000 C   0  0
   18.2539  -16.3216    0.0000 C   0  0
   17.5420  -15.9048    0.0000 N   0  0
   18.9696  -15.9111    0.0000 O   0  0
   16.1142  -15.9111    0.0000 O   0  0
   16.1160  -17.5601    0.0000 C   0  0
   15.4053  -17.9731    0.0000 N   0  0
   17.5420  -18.3799    0.0000 C   0  0
   18.9678  -17.5601    0.0000 C   0  0
   19.6830  -17.1486    0.0000 N   0  0
   20.3969  -17.5622    0.0000 C   0  0
   21.1120  -17.1508    0.0000 C   0  0
   21.8259  -17.5643    0.0000 O   0  0
  1  2  1  0
  1  6  1  0
  2  3  2  0
  3  4  1  0
  4  5  2  0
  5  6  1  0
  5  7  1  0
  1  8  2  0
  2  9  1  0
  9 10  3  0
  3 11  1  0
  4 12  1  0
 12 13  1  0
 13 14  1  0
 14 15  1  0
 15 16  1  0
M  END