
  SciTegic04091414352D

 54 58  0  0  0  0            999 V2000
   17.7374  -22.0311    0.0000 C   0  0
   17.7363  -22.8506    0.0000 C   0  0
   18.4443  -23.2596    0.0000 C   0  0
   18.4425  -21.6222    0.0000 C   0  0
   19.1511  -22.0275    0.0000 C   0  0
   19.1514  -22.8507    0.0000 C   0  0
   19.9344  -23.1049    0.0000 S   0  0
   20.4181  -22.4387    0.0000 C   0  0
   19.9340  -21.7730    0.0000 N   0  0
   21.2336  -22.4387    0.0000 C   0  0
   21.7142  -23.0996    0.0000 C   0  0
   22.4913  -22.8468    0.0000 N   0  0
   22.4910  -22.0295    0.0000 C   0  0
   21.7137  -21.7774    0.0000 S   0  0
   23.1519  -21.5489    0.0000 C   0  0
   23.0662  -20.7362    0.0000 C   0  0
   21.4619  -23.8769    0.0000 O   0  0
   20.1862  -20.9957    0.0000 C   0  0
   23.1526  -23.3269    0.0000 C   0  0
   23.0675  -24.1396    0.0000 C   0  0
   23.7282  -20.2571    0.0000 N   0  3
   23.6428  -19.4452    0.0000 C   0  0
   22.8955  -19.1123    0.0000 C   0  0
   22.2327  -19.5976    0.0000 C   0  0
   22.3214  -20.4078    0.0000 C   0  0
   24.4744  -20.5902    0.0000 C   0  0
   25.1360  -20.1104    0.0000 C   0  0
   25.8822  -20.4435    0.0000 C   0  0
   26.5438  -19.9638    0.0000 C   0  0
   27.2900  -20.2968    0.0000 C   0  0
   27.9516  -19.8171    0.0000 C   0  0
   28.6978  -20.1502    0.0000 N   0  0
   29.3594  -19.6705    0.0000 C   0  0
   30.1056  -20.0035    0.0000 C   0  0
   29.2747  -18.8577    0.0000 O   0  0
   30.7672  -19.5238    0.0000 C   0  0
   31.5134  -19.8568    0.0000 C   0  0
   32.1750  -19.3771    0.0000 C   0  0
   32.9212  -19.7102    0.0000 C   0  0  2  0  0  0
   33.0882  -20.5073    0.0000 S   0  0
   33.9009  -20.5935    0.0000 C   0  0
   33.6271  -19.3000    0.0000 C   0  0  2  0  0  0
   34.2312  -19.8457    0.0000 C   0  0  1  0  0  0
   34.9370  -19.4398    0.0000 N   0  0
   34.7690  -18.6431    0.0000 C   0  0
   33.9595  -18.5568    0.0000 N   0  0
   35.3168  -18.0367    0.0000 O   0  0
   33.0426  -18.7170    0.0000 H   0  0
   34.8049  -20.4215    0.0000 H   0  0
   17.0282  -23.2587    0.0000 C   0  0
   16.3209  -22.8495    0.0000 F   0  0
   17.0276  -24.0759    0.0000 F   0  0
   16.3149  -23.6614    0.0000 F   0  0
   26.2533  -22.3407    0.0000 Cl  0  5
  1  2  2  0
  2  3  1  0
  3  6  2  0
  5  4  2  0
  4  1  1  0
  5  6  1  0
  6  7  1  0
  7  8  1  0
  8  9  1  0
  9  5  1  0
 10 11  1  0
 11 12  1  0
 12 13  1  0
 13 14  1  0
 14 10  1  0
  8 10  2  0
 13 15  2  0
 15 16  1  0
 11 17  2  0
  9 18  1  0
 12 19  1  0
 19 20  1  0
 16 21  2  0
 21 22  1  0
 22 23  2  0
 23 24  1  0
 24 25  2  0
 25 16  1  0
 21 26  1  0
 26 27  1  0
 27 28  1  0
 28 29  1  0
 29 30  1  0
 30 31  1  0
 31 32  1  0
 32 33  1  0
 33 34  1  0
 33 35  2  0
 34 36  1  0
 36 37  1  0
 37 38  1  0
 39 38  1  1
 39 40  1  0
 40 41  1  0
 41 43  1  0
 42 39  1  0
 42 43  1  0
 43 44  1  0
 44 45  1  0
 45 46  1  0
 46 42  1  0
 45 47  2  0
 42 48  1  6
 43 49  1  6
  2 50  1  0
 50 51  1  0
 50 52  1  0
 50 53  1  0
M  CHG  2  21   1  54  -1
M  END