
          11280715342D 1   1.00000     0.00000     0

 31 34  0     0  0            999 V2000
   -0.5875   -3.7250    0.0000 N   0  0  3  0  0  0           0  0  0
   -0.7208   -2.9917    0.0000 C   0  0  0  0  0  0           0  0  0
   -0.1708   -4.4375    0.0000 C   0  0  0  0  0  0           0  0  0
   -2.1208   -2.6875    0.0000 O   0  0  0  0  0  0           0  0  0
   -1.1958   -4.2875    0.0000 C   0  0  0  0  0  0           0  0  0
   -1.3333   -2.4375    0.0000 C   0  0  0  0  0  0           0  0  0
   -2.0083   -4.1667    0.0000 C   0  0  0  0  0  0           0  0  0
   -2.4208   -3.4542    0.0000 C   0  0  0  0  0  0           0  0  0
    0.6542   -4.4292    0.0000 N   0  0  0  0  0  0           0  0  0
    0.0667   -2.7500    0.0000 C   0  0  0  0  0  0           0  0  0
    4.7917   -7.2792    0.0000 C   0  0  0  0  0  0           0  0  0
    4.3792   -8.0000    0.0000 O   0  0  0  0  0  0           0  0  0
   -0.5833   -5.1542    0.0000 O   0  0  0  0  0  0           0  0  0
    5.6042   -7.4625    0.0000 C   0  0  0  0  0  0           0  0  0
    4.9417   -8.6167    0.0000 C   0  0  0  0  0  0           0  0  0
   -1.1583   -1.6292    0.0000 C   0  0  0  0  0  0           0  0  0
    5.6875   -8.2750    0.0000 C   0  0  0  0  0  0           0  0  0
    1.9000   -5.1417    0.0000 C   0  0  0  0  0  0           0  0  0
    2.3125   -4.4292    0.0000 O   0  0  0  0  0  0           0  0  0
    0.2417   -1.9375    0.0000 C   0  0  0  0  0  0           0  0  0
    1.0667   -5.1417    0.0000 C   0  0  0  0  0  0           0  0  0
   -0.3708   -1.3792    0.0000 C   0  0  0  0  0  0           0  0  0
    1.0417   -1.6792    0.0000 Cl  0  0  0  0  0  0           0  0  0
    3.5542   -6.5667    0.0000 S   0  0  0  0  0  0           0  0  0
    2.3125   -5.8542    0.0000 C   0  0  0  0  0  0           0  0  0
    4.3792   -6.5667    0.0000 C   0  0  0  0  0  0           0  0  0
   -2.4208   -4.8875    0.0000 C   0  0  0  0  0  0           0  0  0
   -3.2458   -3.4542    0.0000 C   0  0  0  0  0  0           0  0  0
    3.1375   -5.8542    0.0000 C   0  0  0  0  0  0           0  0  0
   -3.2458   -4.8875    0.0000 C   0  0  0  0  0  0           0  0  0
   -3.6583   -4.1667    0.0000 C   0  0  0  0  0  0           0  0  0
  2  1  1  0     0  0
  3  1  1  0     0  0
  4  6  1  0     0  0
  5  1  1  0     0  0
  6  2  1  0     0  0
  7  5  1  0     0  0
  8  7  2  0     0  0
  9  3  1  0     0  0
 10  2  2  0     0  0
 11 26  1  0     0  0
 12 11  1  0     0  0
 13  3  2  0     0  0
 14 11  2  0     0  0
 15 12  1  0     0  0
 16  6  2  0     0  0
 17 14  1  0     0  0
 18 21  1  0     0  0
 19 18  2  0     0  0
 20 10  1  0     0  0
 21  9  1  0     0  0
 22 20  2  0     0  0
 23 20  1  0     0  0
 24 29  1  0     0  0
 25 18  1  0     0  0
 26 24  1  0     0  0
 27  7  1  0     0  0
 28  8  1  0     0  0
 29 25  1  0     0  0
 30 27  2  0     0  0
 31 30  1  0     0  0
  8  4  1  0     0  0
 22 16  1  0     0  0
 28 31  2  0     0  0
 17 15  2  0     0  0
M  END