
  SciTegic07221113202D

 38 39  0  0  0  0            999 V2000
    3.5946    3.9482    0.0000 C   0  0
    2.8801    3.5357    0.0000 C   0  0
    2.8801    2.7107    0.0000 C   0  0
    3.5946    2.2982    0.0000 C   0  0
    4.3091    2.7107    0.0000 C   0  0
    4.3091    3.5357    0.0000 C   0  0
    3.5946    4.7732    0.0000 O   0  0
    2.1657    3.9482    0.0000 N   0  3
    1.4512    3.5357    0.0000 O   0  5
    2.1657    4.7732    0.0000 O   0  0
    5.0236    3.9482    0.0000 N   0  3
    5.7381    3.5357    0.0000 O   0  5
    5.0236    4.7732    0.0000 O   0  0
    3.5946    1.4732    0.0000 N   0  3
    4.3091    1.0607    0.0000 O   0  0
    2.8802    1.0607    0.0000 O   0  5
    7.4484   -0.0413    0.0000 C   0  0
    7.7000   -0.8305    0.0000 N   0  0
   16.0561    0.0960    0.0000 N   0  0
    6.6248   -0.0355    0.0000 C   0  0
   11.7322   -0.0069    0.0000 C   0  0
    7.0309   -1.3110    0.0000 C   0  0
   15.3011    0.4220    0.0000 C   0  0
    6.3617   -0.8134    0.0000 N   0  0
   15.3755    1.2456    0.0000 S   0  0
   11.7551   -0.8305    0.0000 N   0  0
   16.5937    0.7023    0.0000 C   0  0
   16.1819    1.4172    0.0000 C   0  0
   12.4415    0.4049    0.0000 N   0  0
   11.0116    0.4049    0.0000 N   0  0
    8.1633    0.3763    0.0000 C   0  0
    8.8840   -0.0241    0.0000 S   0  0
    6.1444    0.6337    0.0000 C   0  0
   14.5862    0.0102    0.0000 C   0  0
   10.3081   -0.0183    0.0000 C   0  0
   13.1563   -0.0069    0.0000 C   0  0
    9.5874    0.3877    0.0000 C   0  0
   13.8770    0.4106    0.0000 C   0  0
  1  2  1  0
  1  6  2  0
  2  3  2  0
  3  4  1  0
  4  5  2  0
  5  6  1  0
  1  7  1  0
  2  8  1  0
  8  9  1  0
  8 10  2  0
  6 11  1  0
 11 12  1  0
 11 13  2  0
  4 14  1  0
 14 15  2  0
 14 16  1  0
 18 17  1  0
 19 23  2  0
 20 17  2  0
 21 30  2  0
 22 18  2  0
 23 34  1  0
 24 20  1  0
 25 23  1  0
 26 21  1  0
 27 19  1  0
 28 25  1  0
 29 21  1  0
 30 35  1  0
 31 17  1  0
 32 31  1  0
 33 20  1  0
 34 38  1  0
 35 37  1  0
 36 29  1  0
 37 32  1  0
 38 36  1  0
 24 22  1  0
 27 28  2  0
M  CHG  6   8   1   9  -1  11   1  12  -1  14   1  16  -1
M  END