
          11280715202D 1   1.00000     0.00000     0

 28 28  0     0  0            999 V2000
   -0.8333   -2.6292    0.0000 N   0  0  0  0  0  0           0  0  0
   -1.2458   -3.9042    0.0000 N   0  0  0  0  0  0           0  0  0
   -1.5000   -3.1167    0.0000 C   0  0  0  0  0  0           0  0  0
   -0.1708   -3.1167    0.0000 C   0  0  0  0  0  0           0  0  0
    9.9792   -1.9792    0.0000 C   0  0  0  0  0  0           0  0  0
    9.9667   -3.6292    0.0000 C   0  0  0  0  0  0           0  0  0
    9.2667   -2.3917    0.0000 C   0  0  0  0  0  0           0  0  0
    9.2625   -3.2167    0.0000 C   0  0  0  0  0  0           0  0  0
    5.7667   -2.7000    0.0000 C   0  0  0  0  0  0           0  0  0
    6.3792   -3.2542    0.0000 N   0  0  0  0  0  0           0  0  0
    4.9792   -2.9542    0.0000 C   0  0  0  0  0  0           0  0  0
   -0.4208   -3.9042    0.0000 C   0  0  0  0  0  0           0  0  0
    9.9792   -1.1542    0.0000 O   0  0  0  0  0  0           0  0  0
    9.9667   -4.4542    0.0000 O   0  0  0  0  0  0           0  0  0
    4.8042   -3.7625    0.0000 C   0  0  0  0  0  0           0  0  0
    4.3625   -2.4000    0.0000 C   0  0  0  0  0  0           0  0  0
    3.4125   -3.4625    0.0000 C   0  0  0  0  0  0           0  0  0
   10.6875   -3.2250    0.0000 O   0  0  0  0  0  0           0  0  0
   10.6917   -2.4000    0.0000 O   0  0  0  0  0  0           0  0  0
    4.0250   -4.0167    0.0000 C   0  0  0  0  0  0           0  0  0
    3.5792   -2.6542    0.0000 C   0  0  0  0  0  0           0  0  0
    7.1625   -2.9917    0.0000 O   0  0  0  0  0  0           0  0  0
    2.6292   -3.7167    0.0000 O   0  0  0  0  0  0           0  0  0
    0.6167   -2.8625    0.0000 C   0  0  0  0  0  0           0  0  0
    5.9375   -1.8917    0.0000 C   0  0  0  0  0  0           0  0  0
    2.0167   -3.1625    0.0000 C   0  0  0  0  0  0           0  0  0
    7.7792   -3.5500    0.0000 C   0  0  0  0  0  0           0  0  0
    1.2292   -3.4167    0.0000 C   0  0  0  0  0  0           0  0  0
  2  3  1  0     0  0
  3  1  2  0     0  0
  4  1  1  0     0  0
  6  8  1  0     0  0
  7  5  1  0     0  0
  8  7  2  0     0  0
  9 11  1  0     0  0
 10  9  2  0     0  0
 11 16  1  0     0  0
 12  4  2  0     0  0
 13  5  2  0     0  0
 14  6  2  0     0  0
 15 20  1  0     0  0
 16 21  2  0     0  0
 17 23  1  0     0  0
 18  6  1  0     0  0
 19  5  1  0     0  0
 20 17  2  0     0  0
 21 17  1  0     0  0
 22 10  1  0     0  0
 23 26  1  0     0  0
 24  4  1  0     0  0
 25  9  1  0     0  0
 26 28  1  0     0  0
 27 22  1  0     0  0
 28 24  1  0     0  0
 12  2  1  0     0  0
 11 15  2  0     0  0
M  END