
  SciTegic12231509382D

 15 17  0  0  0  0            999 V2000
   -2.6111    0.7486    0.0000 C   0  0
   -1.2964    1.4973    0.0000 O   0  0
   -3.9086    1.5029    0.0000 C   0  0
   -5.2640    0.8910    0.0000 N   0  0
   -1.2964   -1.4973    0.0000 O   0  0
    0.0000    0.7486    0.0000 C   0  0
   -4.0363    2.9847    0.0000 N   0  0
   -2.6111   -0.7486    0.0000 C   0  0
    0.0000   -0.7486    0.0000 C   0  0
   -6.2601    2.0125    0.0000 C   0  0
   -5.5014    3.3065    0.0000 C   0  0
    1.2964    1.4973    0.0000 C   0  0
    1.2964   -1.4973    0.0000 C   0  0
    2.5929    0.7486    0.0000 C   0  0
    2.5929   -0.7486    0.0000 C   0  0
  1  2  1  0
  1  3  1  0
  3  4  2  0
  2  6  1  0
  3  7  1  0
  1  8  1  0
  5  8  1  0
  5  9  1  0
  6  9  1  0
  4 10  1  0
  7 11  1  0
 10 11  1  0
  6 12  2  0
  9 13  2  0
 12 14  1  0
 13 15  1  0
 14 15  2  0
M  END