
  SciTegic01161211242D

 31 32  0  0  0  0            999 V2000
    4.2010   -3.2956    0.0000 C   0  0
    2.5987   -1.5004    0.0000 N   0  0
    4.9531   -1.9978    0.0000 N   0  0
    2.7343   -2.9815    0.0000 N   0  0
    3.9511   -0.8815    0.0000 C   0  0
    4.8054   -4.6666    0.0000 C   0  0
    1.2990   -0.7500    0.0000 C   0  0
    3.9195   -5.8781    0.0000 N   0  0
    1.2990    0.7500    0.0000 C   0  0
    4.5250   -7.2514    0.0000 N   0  0
    4.2567    0.5878    0.0000 C   0  0
    0.0000   -1.5000    0.0000 C   0  0
    0.0000    1.5000    0.0000 C   0  0
    5.9984   -4.7960    0.0000 O   0  0
    3.2235    1.6679    0.0000 C   0  0
    5.7171    0.9385    0.0000 C   0  0
   -1.2990    0.7500    0.0000 C   0  0
    2.3383    1.3500    0.0000 Cl  0  0
   -1.2990   -0.7500    0.0000 C   0  0
    5.1019    3.4627    0.0000 C   0  0
    3.6446    3.1076    0.0000 C   0  0
    6.1382    2.3782    0.0000 C   0  0
   -2.3383    1.3500    0.0000 Cl  0  0
    5.4388    4.6145    0.0000 Cl  0  0
   11.6244   -2.5455    0.0000 Cl  0  0
    9.1244   -2.5455    0.0000 Cl  0  0
    3.6414   -8.4636    0.0000 C   0  0
    6.0165   -7.4107    0.0000 C   0  0
    4.2492   -9.8349    0.0000 C   0  0
    6.6244   -8.7820    0.0000 C   0  0
    5.7408   -9.9941    0.0000 C   0  0
  1  3  1  0
  1  4  2  0
  2  4  1  0
  2  5  1  0
  3  5  2  0
  1  6  1  0
  2  7  1  0
  6  8  1  0
  7  9  1  0
  8 10  1  0
  5 11  1  0
  7 12  2  0
  9 13  2  0
  6 14  2  0
 11 15  2  0
 11 16  1  0
 13 17  1  0
  9 18  1  0
 12 19  1  0
 17 19  2  0
 15 21  1  0
 20 21  2  0
 16 22  2  0
 20 22  1  0
 17 23  1  0
 20 24  1  0
 10 27  1  0
 10 28  1  0
 27 29  1  0
 28 30  1  0
 29 31  1  0
 30 31  1  0
M  END