
  SciTegic06231514502D

 25 28  0  0  1  0            999 V2000
    2.7460    1.1732    0.0000 O   0  0
   -3.4576   -0.3226    0.0000 O   0  0
    1.4151    0.5487    0.0000 C   0  0  1  0  0  0
   -1.0212    0.1131    0.0000 C   0  0  2  0  0  0
   -0.2091    0.2583    0.0000 C   0  0  2  0  0  0
    1.1348   -0.2272    0.0000 C   0  0  2  0  0  0
    0.3227   -0.3724    0.0000 C   0  0  2  0  0  0
   -1.3015   -0.6629    0.0000 C   0  0  2  0  0  0
    2.2397    0.5219    0.0000 C   0  0
    0.8833    1.1794    0.0000 C   0  0
    0.0712    1.0342    0.0000 C   0  0
    0.0424   -1.1484    0.0000 C   0  0
    1.7862   -0.7336    0.0000 C   0  0
   -1.5530    0.7438    0.0000 C   0  0
   -0.7697   -1.2936    0.0000 C   0  0
    2.4690   -0.2706    0.0000 C   0  0
   -2.1136   -0.8081    0.0000 C   0  0
    1.7750    1.2911    0.0000 C   0  0
   -0.7409    0.8890    0.0000 C   0  0
   -2.6455   -0.1774    0.0000 C   0  0  1  0  0  0
   -2.3652    0.5986    0.0000 C   0  0
   -1.5818   -1.4388    0.0000 H   0  0
    0.6892    0.4540    0.0000 H   0  0
    1.2230   -1.0475    0.0000 H   0  0
   -0.4226   -0.5386    0.0000 H   0  0
  1  9  2  0
 20  2  1  6
  3  6  1  0
  3  9  1  0
  3 10  1  0
  3 18  1  1
  4  5  1  0
  4  8  1  0
  4 14  1  0
  4 19  1  1
  5  7  1  0
  5 11  1  0
  6  7  1  0
  6 13  1  0
  7 12  1  0
  8 15  1  0
  8 17  1  0
  9 16  1  0
 10 11  1  0
 12 15  1  0
 13 16  1  0
 14 21  1  0
 17 20  1  0
 20 21  1  0
  8 22  1  1
  7 23  1  1
  6 24  1  6
  5 25  1  6
M  END