
          11280715122D 1   1.00000     0.00000     0

 30 32  0     0  0            999 V2000
    8.9542   -6.0667    0.0000 C   0  0  0  0  0  0           0  0  0
    8.2417   -5.6542    0.0000 C   0  0  0  0  0  0           0  0  0
    8.9542   -6.8917    0.0000 C   0  0  0  0  0  0           0  0  0
    3.7042   -7.7667    0.0000 N   0  0  3  0  0  0           0  0  0
    2.8917   -7.6292    0.0000 C   0  0  0  0  0  0           0  0  0
    5.3417   -7.8292    0.0000 N   0  0  3  0  0  0           0  0  0
    8.2417   -4.8292    0.0000 N   0  0  3  0  0  0           0  0  0
    7.5250   -6.0667    0.0000 O   0  0  0  0  0  0           0  0  0
    4.0917   -8.5000    0.0000 C   0  0  0  0  0  0           0  0  0
    4.1375   -7.0667    0.0000 C   0  0  0  0  0  0           0  0  0
    9.6667   -7.3042    0.0000 C   0  0  0  0  0  0           0  0  0
    2.6000   -6.8542    0.0000 C   0  0  0  0  0  0           0  0  0
    8.1292   -6.9000    0.0000 N   0  0  0  0  0  0           0  0  0
    4.9625   -7.1042    0.0000 C   0  0  0  0  0  0           0  0  0
    4.9125   -8.5250    0.0000 C   0  0  0  0  0  0           0  0  0
    9.6667   -5.6542    0.0000 C   0  0  0  0  0  0           0  0  0
    3.1250   -6.2167    0.0000 O   0  0  0  0  0  0           0  0  0
    6.1667   -7.8625    0.0000 C   0  0  0  0  0  0           0  0  0
    6.7542   -7.2750    0.0000 C   0  0  0  0  0  0           0  0  0
   10.3792   -6.0667    0.0000 C   0  0  0  0  0  0           0  0  0
    2.3625   -8.2667    0.0000 C   0  0  0  0  0  0           0  0  0
    7.5500   -7.4875    0.0000 C   0  0  0  0  0  0           0  0  0
    7.5250   -4.4167    0.0000 C   0  0  0  0  0  0           0  0  0
    8.9542   -4.4167    0.0000 C   0  0  0  0  0  0           0  0  0
   10.3792   -6.8917    0.0000 C   0  0  0  0  0  0           0  0  0
    9.6667   -8.1292    0.0000 C   0  0  0  0  0  0           0  0  0
    1.7875   -6.7167    0.0000 C   0  0  0  0  0  0           0  0  0
    3.9375   -6.3542    0.0000 C   0  0  0  0  0  0           0  0  0
    1.5417   -8.1292    0.0000 C   0  0  0  0  0  0           0  0  0
    1.2625   -7.3542    0.0000 C   0  0  0  0  0  0           0  0  0
  2  1  1  0     0  0
  3  1  2  0     0  0
  4  9  1  0     0  0
  5  4  1  0     0  0
  6 18  1  0     0  0
  7  2  1  0     0  0
  8  2  2  0     0  0
  9 15  1  0     0  0
 10 14  1  0     0  0
 11  3  1  0     0  0
 12  5  1  0     0  0
 13  3  1  0     0  0
 14  6  1  0     0  0
 15  6  1  0     0  0
 16  1  1  0     0  0
 17 12  1  0     0  0
 18 19  1  0     0  0
 19 22  1  0     0  0
 20 16  2  0     0  0
 21  5  2  0     0  0
 22 13  1  0     0  0
 23  7  1  0     0  0
 24  7  1  0     0  0
 25 20  1  0     0  0
 26 11  1  0     0  0
 27 12  2  0     0  0
 28 17  1  0     0  0
 29 21  1  0     0  0
 30 29  2  0     0  0
 25 11  2  0     0  0
  4 10  1  0     0  0
 30 27  1  0     0  0
M  END