
  CDK    9/16/09,10:8

 33 35  0  0  0  0  0  0  0  0999 V2000
    3.8833  -13.2792    0.0000 C   0  0  0  0  0  0  0  0  0  0  0  0
    3.8833  -14.1042    0.0000 C   0  0  0  0  0  0  0  0  0  0  0  0
    4.5954  -14.5125    0.0000 C   0  0  0  0  0  0  0  0  0  0  0  0
    4.5954  -12.8625    0.0000 C   0  0  0  0  0  0  0  0  0  0  0  0
    5.3074  -13.2792    0.0000 C   0  0  0  0  0  0  0  0  0  0  0  0
    5.3039  -14.1042    0.0000 C   0  0  0  0  0  0  0  0  0  0  0  0
    6.0126  -14.5174    0.0000 C   0  0  0  0  0  0  0  0  0  0  0  0
    6.7294  -14.1102    0.0000 C   0  0  0  0  0  0  0  0  0  0  0  0
    6.0080  -15.3424    0.0000 O   0  0  0  0  0  0  0  0  0  0  0  0
    6.0196  -12.8674    0.0000 C   0  0  0  0  0  0  0  0  0  0  0  0
    6.7353  -13.2861    0.0000 C   0  0  0  0  0  0  0  0  0  0  0  0
    7.4491  -10.3789    0.0000 C   0  0  0  0  0  0  0  0  0  0  0  0
    6.7344  -10.7979    0.0000 C   0  0  0  0  0  0  0  0  0  0  0  0
    6.7432  -11.6307    0.0000 C   0  0  0  0  0  0  0  0  0  0  0  0
    6.0204  -12.0405    0.0000 C   0  0  0  0  0  0  0  0  0  0  0  0
    6.0125  -13.6917    0.0000 H   0  0  0  0  0  0  0  0  0  0  0  0
    6.0166  -10.3913    0.0000 C   0  0  0  0  0  0  0  0  0  0  0  0
    6.0099   -9.5663    0.0000 C   0  0  0  0  0  0  0  0  0  0  0  0
    5.2921   -9.1596    0.0000 C   0  0  0  0  0  0  0  0  0  0  0  0
    5.2014   -8.3426    0.0000 O   0  0  0  0  0  0  0  0  0  0  0  0
    4.3931   -8.1826    0.0000 C   0  0  0  0  0  0  0  0  0  0  0  0
    3.9864   -8.8981    0.0000 C   0  0  0  0  0  0  0  0  0  0  0  0
    4.5434   -9.5021    0.0000 C   0  0  0  0  0  0  0  0  0  0  0  0
    4.0514   -7.4252    0.0000 O   0  0  0  0  0  0  0  0  0  0  0  0
    5.3000  -12.4542    0.0000 C   0  0  0  0  0  0  0  0  0  0  0  0
    4.3808  -10.3109    0.0000 C   0  0  0  0  0  0  0  0  0  0  0  0
    5.2958  -14.9250    0.0000 H   0  0  0  0  0  0  0  0  0  0  0  0
    4.8042  -15.3083    0.0000 C   0  0  0  0  0  0  0  0  0  0  0  0
    3.8750  -14.9208    0.0000 C   0  0  0  0  0  0  0  0  0  0  0  0
    7.1417  -12.5667    0.0000 C   0  0  0  0  0  0  0  0  0  0  0  0
    7.4458  -13.6958    0.0000 O   0  0  0  0  0  0  0  0  0  0  0  0
    3.1612  -14.5037    0.0000 O   0  0  0  0  0  0  0  0  0  0  0  0
    3.8684  -15.7514    0.0000 O   0  0  0  0  0  0  0  0  0  0  0  0
 10 16  1  6  0  0  0 
  6  7  1  0  0  0  0 
 13 17  2  0  0  0  0 
  7  8  1  0  0  0  0 
 17 18  1  0  0  0  0 
  8 11  1  0  0  0  0 
 19 18  1  0  0  0  0 
 19 20  1  0  0  0  0 
  3  6  1  0  0  0  0 
  7  9  1  6  0  0  0 
 10 11  1  0  0  0  0 
  5  4  1  0  0  0  0 
 20 21  1  0  0  0  0 
 21 22  1  0  0  0  0 
 22 23  2  0  0  0  0 
 23 19  1  0  0  0  0 
  5  6  1  0  0  0  0 
 21 24  2  0  0  0  0 
  5 25  1  1  0  0  0 
  1  2  1  0  0  0  0 
 23 26  1  0  0  0  0 
  1  4  1  0  0  0  0 
  6 27  1  6  0  0  0 
  2  3  1  0  0  0  0 
  3 28  1  1  0  0  0 
 10 15  1  0  0  0  0 
  3 29  1  0  0  0  0 
 12 13  1  0  0  0  0 
 11 30  1  0  0  0  0 
 13 14  1  0  0  0  0 
 11 31  1  6  0  0  0 
 14 15  1  0  0  0  0 
  5 10  1  0  0  0  0 
 29 32  1  0  0  0  0 
 29 33  2  0  0  0  0 
M  END