
  SciTegic01181116592D

  9 10  0  0  0  0            999 V2000
    0.8404  -20.5692    0.0000 C   0  0
    1.6023  -20.2178    0.0000 N   0  0
    0.9947  -19.7938    0.0000 C   0  0
    2.4569  -20.5803    0.0000 C   0  0
    1.4600  -19.1572    0.0000 C   0  0
    1.7474  -19.4560    0.0000 C   0  0
    2.5647  -19.8120    0.0000 C   0  0  1  0  0  0
    1.7082  -18.5403    0.0000 C   0  0
    3.3132  -19.3930    0.0000 N   0  0
  1  2  1  0
  1  3  1  0
  2  4  1  0
  2  5  1  0
  3  6  1  0
  4  7  1  0
  5  8  1  0
  6  7  1  0
  6  8  1  0
  7  9  1  1
M  END