
  SciTegic12201110432D

 10 10  0  0  0  0            999 V2000
   -1.0307    0.4248    0.0000 N   0  0
   -0.3163    0.8373    0.0000 C   0  0  1  0  0  0
    0.3982    0.4248    0.0000 C   0  0
    0.3982   -0.4002    0.0000 C   0  0
    1.0656   -0.8851    0.0000 N   0  0
   -0.2692   -0.8851    0.0000 C   0  0
    0.8107   -1.6697    0.0000 C   0  0
   -0.0143   -1.6697    0.0000 N   0  0
   -0.3163    1.6623    0.0000 C   0  0
   -1.0307    2.0748    0.0000 O   0  0
  2  1  1  6
  2  3  1  0
  9  2  1  0
  3  4  1  0
  4  5  1  0
  6  4  2  0
  7  5  2  0
  6  8  1  0
  7  8  1  0
  9 10  2  0
M  END