
  SciTegic04091414152D

 19 19  0  0  0  0            999 V2000
    9.2652  -11.2833    0.0000 S   0  0
    9.6775  -10.5706    0.0000 O   0  0
    8.8541  -10.5699    0.0000 O   0  0
    8.5521  -11.6943    0.0000 C   0  0
    9.9809  -11.6964    0.0000 N   0  0
   10.6934  -11.2906    0.0000 C   0  0
   11.4083  -11.7025    0.0000 C   0  0
   12.1229  -11.2931    0.0000 N   0  0
   12.1189  -10.4697    0.0000 C   0  0
   11.4048  -10.0566    0.0000 C   0  0
   12.8377  -11.7050    0.0000 C   0  0
   13.5492  -11.2947    0.0000 C   0  0
    7.8397  -11.2830    0.0000 C   0  0
    7.1237  -11.6963    0.0000 C   0  0
    6.4078  -11.2830    0.0000 C   0  0
    6.4077  -10.4562    0.0000 C   0  0
    7.1217  -10.0464    0.0000 C   0  0
    7.8376  -10.4598    0.0000 C   0  0
    5.6954  -10.0449    0.0000 Cl  0  0
  2  1  2  0
  1  3  2  0
  1  5  1  0
  4  1  1  0
  6  7  1  0
  9 10  1  0
  8  9  1  0
 11 12  1  0
  8 11  1  0
  7  8  1  0
  5  6  1  0
 13 14  1  0
 14 15  2  0
 15 16  1  0
 16 17  2  0
 17 18  1  0
 13 18  2  0
 16 19  1  0
  4 13  1  0
M  END