
  SciTegic03291108552D

 12 13  0  0  0  0            999 V2000
   -3.6080    0.4174    0.0000 N   0  0
   -0.7583   -0.1097    0.0000 N   0  0
   -2.9406   -0.0676    0.0000 C   0  0
   -2.1560    0.1874    0.0000 C   0  0
   -3.1955   -0.8522    0.0000 C   0  0
   -4.2755   -0.0676    0.0000 C   0  0
   -1.5429   -0.3647    0.0000 C   0  0
   -1.9844    0.9943    0.0000 C   0  0
   -4.0205   -0.8522    0.0000 C   0  0
   -1.1998    1.2493    0.0000 C   0  0
   -3.6080    1.2424    0.0000 C   0  0
   -0.5867    0.6972    0.0000 C   0  0
  1  3  1  0
  1  6  1  0
  1 11  1  0
  2  7  1  0
  2 12  2  0
  3  4  1  0
  3  5  2  0
  4  7  2  0
  4  8  1  0
  5  9  1  0
  6  9  2  0
  8 10  2  0
 10 12  1  0
M  END