
          11280715482D 1   1.00000     0.00000     0

 37 36  0     1  0            999 V2000
   -4.0833   -3.3417    0.0000 N   0  3  0  0  0  0           0  0  0
   -3.5083   -3.6792    0.0000 N   0  0  0  0  0  0           0  0  0
   -2.3458   -0.3250    0.0000 C   0  0  0  0  0  0           0  0  0
   -2.9250   -3.3417    0.0000 C   0  0  0  0  0  0           0  0  0
   -1.7625   -0.6625    0.0000 N   0  0  3  0  0  0           0  0  0
    2.2917   -0.3250    0.0000 C   0  0  0  0  0  0           0  0  0
   -0.6083   -0.6625    0.0000 C   0  0  0  0  0  0           0  0  0
   -4.0958   -2.6667    0.0000 O   0  5  0  0  0  0           0  0  0
   -4.6708   -3.6750    0.0000 O   0  0  0  0  0  0           0  0  0
   -2.9208   -0.6625    0.0000 O   0  0  0  0  0  0           0  0  0
   -1.1833   -0.3250    0.0000 C   0  0  0  0  0  0           0  0  0
   -0.0208   -0.3250    0.0000 N   0  0  0  0  0  0           0  0  0
   -2.3458    0.3458    0.0000 O   0  0  0  0  0  0           0  0  0
    2.2917    0.3458    0.0000 O   0  0  0  0  0  0           0  0  0
   -0.6083   -1.3292    0.0000 O   0  0  0  0  0  0           0  0  0
    1.7167   -0.6625    0.0000 O   0  0  0  0  0  0           0  0  0
   -2.9250   -2.6667    0.0000 N   0  0  0  0  0  0           0  0  0
   -2.3458   -3.6792    0.0000 N   0  0  0  0  0  0           0  0  0
    2.8667   -0.6542    0.0000 N   0  0  0  0  0  0           0  0  0
   -3.5000   -0.3250    0.0000 C   0  0  0  0  0  0           0  0  0
    1.1375   -0.3250    0.0000 C   0  0  0  0  0  0           0  0  0
   -4.6583   -0.3167    0.0000 N   0  0  0  0  0  0           0  0  0
    1.7125   -3.3417    0.0000 N   0  0  0  0  0  0           0  0  0
   -0.6083   -3.3417    0.0000 N   0  0  0  0  0  0           0  0  0
    0.5542   -0.6625    0.0000 C   0  0  1  0  0  0           0  0  0
   -1.7625   -1.3292    0.0000 C   0  0  0  0  0  0           0  0  0
   -4.0833   -0.6625    0.0000 C   0  0  1  0  0  0           0  0  0
   -3.5083   -2.3375    0.0000 C   0  0  0  0  0  0           0  0  0
    1.7125   -2.6667    0.0000 C   0  0  0  0  0  0           0  0  0
   -0.6083   -2.6667    0.0000 C   0  0  0  0  0  0           0  0  0
    0.5542   -1.3292    0.0000 C   0  0  0  0  0  0           0  0  0
   -4.0833   -1.3292    0.0000 C   0  0  0  0  0  0           0  0  0
   -1.1875   -1.6667    0.0000 C   0  0  0  0  0  0           0  0  0
   -3.5083   -1.6667    0.0000 C   0  0  0  0  0  0           0  0  0
   -1.1875   -2.3375    0.0000 C   0  0  0  0  0  0           0  0  0
    1.1292   -2.3375    0.0000 C   0  0  0  0  0  0           0  0  0
    1.1292   -1.6667    0.0000 C   0  0  0  0  0  0           0  0  0
  2  1  1  0     0  0
  3 10  1  0     0  0
  4  2  1  0     0  0
  5  3  1  0     0  0
  6 16  1  0     0  0
  7 11  1  0     0  0
  8  1  1  0     0  0
  9  1  2  0     0  0
 10 20  1  0     0  0
 11  5  1  0     0  0
 12  7  1  0     0  0
 13  3  2  0     0  0
 14  6  2  0     0  0
 15  7  2  0     0  0
 16 21  1  0     0  0
 17  4  2  0     0  0
 18  4  1  0     0  0
 19  6  1  0     0  0
 20 27  1  0     0  0
 21 25  1  0     0  0
 22 27  1  0     0  0
 23 29  1  0     0  0
 24 30  1  0     0  0
 25 12  1  0     0  0
 26  5  1  0     0  0
 27 32  1  6     0  0
 28 17  1  0     0  0
 29 36  1  0     0  0
 30 35  1  0     0  0
 25 31  1  1     0  0
 32 34  1  0     0  0
 33 26  1  0     0  0
 34 28  1  0     0  0
 35 33  1  0     0  0
 36 37  1  0     0  0
 37 31  1  0     0  0
M  CHG  2   1   1   8  -1
M  END