
          11280715012D 1   1.00000     0.00000     0

 40 43  0     1  0            999 V2000
    4.8667   -4.3667    0.0000 N   0  0  0  0  0  0           0  0  0
    5.2542   -3.9000    0.0000 C   0  0  0  0  0  0           0  0  0
    5.2042   -4.8667    0.0000 C   0  0  1  0  0  0           0  0  0
    5.8125   -4.1167    0.0000 O   0  0  0  0  0  0           0  0  0
    5.1667   -5.4667    0.0000 C   0  0  0  0  0  0           0  0  0
    5.2542   -1.5000    0.0000 C   0  0  0  0  0  0           0  0  0
    5.2625   -3.3000    0.0000 C   0  0  0  0  0  0           0  0  0
    5.7792   -4.7167    0.0000 C   0  0  0  0  0  0           0  0  0
    5.2542   -2.1000    0.0000 C   0  0  0  0  0  0           0  0  0
    8.3667   -1.4917    0.0000 C   0  0  0  0  0  0           0  0  0
    4.7375   -1.2000    0.0000 C   0  0  0  0  0  0           0  0  0
    4.6292   -5.7375    0.0000 O   0  0  0  0  0  0           0  0  0
    5.7750   -1.2000    0.0000 C   0  0  0  0  0  0           0  0  0
    4.2167   -0.3000    0.0000 N   0  0  0  0  0  0           0  0  0
    8.3667   -2.0917    0.0000 O   0  0  0  0  0  0           0  0  0
    5.7792   -2.9917    0.0000 C   0  0  0  0  0  0           0  0  0
    4.7417   -3.0000    0.0000 C   0  0  0  0  0  0           0  0  0
    5.7750   -2.4000    0.0000 C   0  0  0  0  0  0           0  0  0
    4.7417   -2.4000    0.0000 C   0  0  0  0  0  0           0  0  0
    5.6667   -5.8000    0.0000 N   0  0  0  0  0  0           0  0  0
    8.8917   -1.1917    0.0000 O   0  0  0  0  0  0           0  0  0
    4.7375   -0.6000    0.0000 C   0  0  0  0  0  0           0  0  0
    7.8500   -1.1917    0.0000 C   0  0  0  0  0  0           0  0  0
    3.6917   -0.6000    0.0000 C   0  0  0  0  0  0           0  0  0
    4.4917   -8.1292    0.0000 C   0  0  3  0  0  0           0  0  0
    6.2917   -1.5000    0.0000 C   0  0  0  0  0  0           0  0  0
    4.2167   -1.5000    0.0000 C   0  0  0  0  0  0           0  0  0
    5.6375   -6.3917    0.0000 C   0  0  0  0  0  0           0  0  0
    4.5292   -7.5292    0.0000 C   0  0  0  0  0  0           0  0  0
    4.9917   -8.4542    0.0000 C   0  0  0  0  0  0           0  0  0
    3.9542   -8.3917    0.0000 C   0  0  0  0  0  0           0  0  0
    7.3292   -1.4917    0.0000 C   0  0  0  0  0  0           0  0  0
    6.8167   -1.1917    0.0000 C   0  0  0  0  0  0           0  0  0
    5.0917   -6.6625    0.0000 C   0  0  0  0  0  0           0  0  0
    5.0667   -7.2625    0.0000 C   0  0  0  0  0  0           0  0  0
    3.6917   -1.2000    0.0000 C   0  0  0  0  0  0           0  0  0
    4.9542   -9.0542    0.0000 C   0  0  0  0  0  0           0  0  0
    3.9167   -8.9917    0.0000 C   0  0  0  0  0  0           0  0  0
    4.4167   -9.3250    0.0000 C   0  0  0  0  0  0           0  0  0
    4.6042   -4.8667    0.0000 H   0  0  0  0  0  0           0  0  0
  2  1  2  0     0  0
  3  1  1  0     0  0
  4  2  1  0     0  0
  5  3  1  0     0  0
  6  9  1  0     0  0
  7  2  1  0     0  0
  8  3  1  0     0  0
  9 19  2  0     0  0
 10 23  1  0     0  0
 11  6  1  0     0  0
 12  5  2  0     0  0
 13  6  2  0     0  0
 14 22  2  0     0  0
 15 10  2  0     0  0
 16  7  1  0     0  0
 17  7  2  0     0  0
 18 16  2  0     0  0
 19 17  1  0     0  0
 20  5  1  0     0  0
 21 10  1  0     0  0
 22 11  1  0     0  0
 23 32  1  0     0  0
 24 36  2  0     0  0
 25 29  1  0     0  0
 26 13  1  0     0  0
 27 11  2  0     0  0
 28 20  1  0     0  0
 29 35  1  0     0  0
 30 25  1  0     0  0
 31 25  1  0     0  0
 32 33  1  0     0  0
 33 26  1  0     0  0
 34 28  1  0     0  0
 35 34  1  0     0  0
 36 27  1  0     0  0
 37 30  1  0     0  0
 38 31  1  0     0  0
 39 38  1  0     0  0
  3 40  1  1     0  0
  4  8  1  0     0  0
  9 18  1  0     0  0
 24 14  1  0     0  0
 37 39  1  0     0  0
M  END