
  SciTegic11161115462D

 23 26  0  0  0  0            999 V2000
    3.4866   -9.2379    0.0000 C   0  0
   -0.7234   -9.7058    0.0000 N   0  0
   -1.5440   -9.7049    0.0000 C   0  0
   -1.7960  -10.4916    0.0000 N   0  0
   -1.1410  -10.9746    0.0000 C   0  0
   -0.4698  -10.4879    0.0000 C   0  0
   -1.1442  -11.7996    0.0000 O   0  0
   -2.0299   -9.0382    0.0000 N   0  0
    0.3146  -10.7435    0.0000 C   0  0
    0.9281  -10.1919    0.0000 C   0  0
    1.7128  -10.4494    0.0000 C   0  0
    1.3660   -8.8362    0.0000 C   0  0
    0.7562   -9.3887    0.0000 C   0  0
   -2.8503   -9.1257    0.0000 C   0  0
    2.1583   -9.0886    0.0000 C   0  0
    2.3242   -9.8978    0.0000 C   0  0
    3.1451   -9.9901    0.0000 O   0  0
    2.8767   -8.6808    0.0000 O   0  0
   -3.3344   -8.4573    0.0000 C   0  0
   -3.9986   -9.9677    0.0000 C   0  0
   -3.1807   -9.8773    0.0000 C   0  0
   -4.4881   -9.3036    0.0000 C   0  0
   -4.1568   -8.5434    0.0000 C   0  0
  6  2  1  0
 15 12  1  0
  2  3  2  0
 12 13  2  0
 13 10  1  0
  5  7  2  0
  8 14  1  0
 15 16  2  0
  3  8  1  0
  3  4  1  0
  6  9  2  0
 16 17  1  0
 17  1  1  0
  1 18  1  0
 18 15  1  0
  4  5  1  0
 14 19  2  0
 19 23  1  0
  9 10  1  0
 22 20  1  0
  5  6  1  0
 20 21  2  0
 21 14  1  0
 22 23  2  0
 10 11  2  0
 11 16  1  0
M  END