
  SciTegic04201616412D

103109  0  0  0  0            999 V2000
    2.9432    8.0863    0.0000 S   0  0
    1.4942    8.4746    0.0000 C   0  0
    4.3026    7.4524    0.0000 C   0  0
    0.0000    8.6053    0.0000 C   0  0  2  0  0  0
   -1.4943    8.4746    0.0000 N   0  0
   -0.0030   10.1183    0.0000 C   0  0
   -1.0430   10.7169    0.0000 O   0  0
    1.0353   10.7200    0.0000 N   0  0
   -2.9432    8.0863    0.0000 C   0  0
   -4.3027    7.4524    0.0000 C   0  0  2  0  0  0
   -3.3537    9.2139    0.0000 O   0  0
   -4.7467    8.8946    0.0000 C   0  0
   -6.2464    8.9207    0.0000 C   0  0
   -6.7348    7.5025    0.0000 C   0  0
   -5.5314    6.5920    0.0000 N   0  0
   -6.5921    5.5313    0.0000 C   0  0
   -7.4524    4.3026    0.0000 C   0  0  1  0  0  0
   -7.5113    6.3027    0.0000 O   0  0
   -8.0863    2.9431    0.0000 N   0  0
   -8.7612    5.0616    0.0000 C   0  0
   -8.7593    6.5624    0.0000 C   0  0
  -10.0558    7.3169    0.0000 C   0  0
  -10.0508    8.8169    0.0000 C   0  0
   -8.7493    9.5625    0.0000 C   0  0
   -7.4527    8.8082    0.0000 C   0  0
   -7.4577    7.3082    0.0000 C   0  0
   -8.4746    1.4943    0.0000 C   0  0
   -9.6563    1.7026    0.0000 O   0  0
   -8.6053    0.0000    0.0000 C   0  0  2  0  0  0
  -10.1183   -0.0030    0.0000 C   0  0  2  0  0  0
   -8.4746   -1.4943    0.0000 N   0  0
  -10.7169   -1.0430    0.0000 O   0  0
  -10.7200    1.0353    0.0000 C   0  0
    5.5314    6.5920    0.0000 C   0  0
    6.5920    5.5314    0.0000 N   0  0
    6.3027    7.5113    0.0000 O   0  0
    7.4524    4.3027    0.0000 C   0  0  2  0  0  0
    8.0863    2.9432    0.0000 C   0  0
    9.2140    3.3536    0.0000 O   0  0
    8.4746    1.4943    0.0000 N   0  0
    8.7612    5.0617    0.0000 C   0  0
    8.7592    6.5625    0.0000 C   0  0
    9.9515    7.4093    0.0000 C   0  0
    7.5450    7.4246    0.0000 N   0  0
    8.0098    8.8437    0.0000 C   0  0
    9.5048    8.8343    0.0000 C   0  0
   10.2787   10.1238    0.0000 C   0  0
    9.5213   11.4414    0.0000 C   0  0
    8.0263   11.4509    0.0000 C   0  0
    7.2523   10.1430    0.0000 C   0  0
    8.6053    0.0000    0.0000 C   0  0  2  0  0  0
    8.4746   -1.4943    0.0000 C   0  0
    9.6563   -1.7027    0.0000 O   0  0
    8.0863   -2.9432    0.0000 N   0  0
   10.1183    0.0029    0.0000 C   0  0
   10.8670    1.3037    0.0000 C   0  0
   12.3670    1.3088    0.0000 C   0  0
   13.1127    2.6103    0.0000 C   0  0
   12.3583    3.9068    0.0000 C   0  0
   10.8583    3.9018    0.0000 C   0  0
   10.1127    2.6003    0.0000 C   0  0
    7.4524   -4.3026    0.0000 C   0  0  1  0  0  0
    8.7641   -5.0566    0.0000 C   0  0
    6.5920   -5.5314    0.0000 C   0  0
    5.5314   -6.5920    0.0000 N   0  0
    7.5113   -6.3027    0.0000 O   0  0
   10.0629   -4.3045    0.0000 C   0  0
   11.3641   -5.0524    0.0000 C   0  0
   12.4026   -4.4510    0.0000 O   0  0
   11.3661   -6.2524    0.0000 O   0  0
    4.3027   -7.4524    0.0000 C   0  0
    2.9432   -8.0863    0.0000 C   0  0
    1.4943   -8.4746    0.0000 N   0  0
    3.3536   -9.2140    0.0000 O   0  0
    0.0000   -8.6053    0.0000 C   0  0  2  0  0  0
   -1.4943   -8.4746    0.0000 C   0  0
    0.0029  -10.1183    0.0000 C   0  0
    1.3037  -10.8670    0.0000 C   0  0
    1.3088  -12.3670    0.0000 C   0  0
    2.6103  -13.1126    0.0000 C   0  0
    3.9068  -12.3583    0.0000 C   0  0
    3.9018  -10.8583    0.0000 C   0  0
    2.6003  -10.1127    0.0000 C   0  0
   -2.9432   -8.0863    0.0000 N   0  0
   -1.7026   -9.6563    0.0000 O   0  0
   -4.3026   -7.4524    0.0000 C   0  0  2  0  0  0
   -5.5314   -6.5921    0.0000 C   0  0
   -5.0566   -8.7641    0.0000 C   0  0
   -4.3045  -10.0629    0.0000 C   0  0
   -4.9024  -11.1033    0.0000 O   0  0
   -3.1045  -10.0610    0.0000 O   0  0
   -6.5920   -5.5314    0.0000 N   0  0
   -6.3027   -7.5113    0.0000 O   0  0
   -7.4524   -4.3027    0.0000 C   0  0  1  0  0  0
   -8.7612   -5.0617    0.0000 C   0  0
   -8.7592   -6.5625    0.0000 C   0  0
   -7.7190   -7.1608    0.0000 N   0  0
   -9.7973   -7.1645    0.0000 O   0  0
   -8.0863   -2.9432    0.0000 C   0  0
   -9.2139   -3.3536    0.0000 O   0  0
    4.9481  -12.9548    0.0000 O   0  0
   -9.2802   -0.7380    0.0000 H   0  0
   -3.8968    8.3663    0.0000 H   0  0
  1  2  1  0
  1  3  1  0
  2  4  1  0
  4  5  1  0
  4  6  1  6
  6  7  2  0
  6  8  1  0
  5  9  1  0
 10  9  1  0
  9 11  2  0
 10 12  1  0
 12 13  1  0
 13 14  1  0
 14 15  1  0
 15 10  1  0
 15 16  1  0
 16 17  1  0
 16 18  2  0
 17 19  1  0
 17 20  1  1
 20 21  1  0
 21 22  2  0
 22 23  1  0
 23 24  2  0
 24 25  1  0
 25 26  2  0
 26 21  1  0
 19 27  1  0
 27 28  2  0
 27 29  1  0
 29 30  1  0
 29 31  1  0
 30 32  1  6
 30 33  1  0
  3 34  1  0
 34 35  1  0
 34 36  2  0
 37 35  1  0
 37 38  1  0
 38 39  2  0
 38 40  1  0
 37 41  1  1
 41 42  1  0
 42 43  2  0
 43 46  1  0
 45 44  1  0
 44 42  1  0
 45 46  2  0
 46 47  1  0
 47 48  2  0
 48 49  1  0
 49 50  2  0
 50 45  1  0
 51 40  1  0
 51 52  1  0
 52 53  2  0
 52 54  1  0
 51 55  1  1
 55 56  1  0
 56 57  2  0
 57 58  1  0
 58 59  2  0
 59 60  1  0
 60 61  2  0
 61 56  1  0
 62 54  1  0
 62 63  1  1
 62 64  1  0
 64 65  1  0
 64 66  2  0
 63 67  1  0
 67 68  1  0
 68 69  2  0
 68 70  1  0
 65 71  1  0
 71 72  1  0
 72 73  1  0
 72 74  2  0
 75 73  1  0
 75 76  1  0
 75 77  1  1
 77 78  1  0
 78 79  2  0
 79 80  1  0
 80 81  2  0
 81 82  1  0
 82 83  2  0
 83 78  1  0
 76 84  1  0
 76 85  2  0
 86 84  1  0
 86 87  1  0
 86 88  1  1
 88 89  1  0
 89 90  2  0
 89 91  1  0
 87 92  1  0
 87 93  2  0
 94 92  1  0
 94 95  1  1
 95 96  1  0
 96 97  1  0
 96 98  2  0
 94 99  1  0
 99100  2  0
 99 31  1  0
 81101  1  0
 29102  1  6
 10103  1  6
M  END