
          11280715512D 1   1.00000     0.00000     0

 36 39  0     0  0            999 V2000
    4.3066    0.0834    0.0000 C   0  0  0  0  0  0           0  0  0
    4.3054   -0.7440    0.0000 C   0  0  0  0  0  0           0  0  0
    5.0203   -1.1568    0.0000 C   0  0  0  0  0  0           0  0  0
    5.0185    0.4961    0.0000 C   0  0  0  0  0  0           0  0  0
    5.7386   -0.7411    0.0000 C   0  0  0  0  0  0           0  0  0
    5.7337    0.0870    0.0000 C   0  0  0  0  0  0           0  0  0
    6.3808    0.6129    0.0000 N   0  0  3  0  0  0           0  0  0
    6.3948   -1.2555    0.0000 C   0  0  0  0  0  0           0  0  0
    7.1929    0.4386    0.0000 C   0  0  0  0  0  0           0  0  0
    7.2054   -1.0624    0.0000 N   0  0  0  0  0  0           0  0  0
    7.5577   -0.3078    0.0000 N   0  0  3  0  0  0           0  0  0
    7.7012    1.0884    0.0000 O   0  0  0  0  0  0           0  0  0
    6.2183   -2.0614    0.0000 C   0  0  3  0  0  0           0  0  0
    8.3827   -0.3004    0.0000 C   0  0  0  0  0  0           0  0  0
    8.8014   -1.0111    0.0000 C   0  0  0  0  0  0           0  0  0
    9.6264   -1.0037    0.0000 N   0  0  0  0  0  0           0  0  0
    8.3954   -1.7292    0.0000 O   0  0  0  0  0  0           0  0  0
    6.1883    1.4150    0.0000 C   0  0  0  0  0  0           0  0  0
    6.7868    1.9829    0.0000 C   0  0  0  0  0  0           0  0  0
    6.5943    2.7850    0.0000 C   0  0  3  0  0  0           0  0  0
    7.5777    1.7485    0.0000 O   0  0  0  0  0  0           0  0  0
    6.3746    3.5873    0.0000 C   0  0  0  0  0  0           0  0  0
    7.3933    2.9902    0.0000 C   0  0  0  0  0  0           0  0  0
    5.7970    2.5729    0.0000 C   0  0  0  0  0  0           0  0  0
   10.0452   -1.7145    0.0000 C   0  0  0  0  0  0           0  0  0
    9.6372   -2.4303    0.0000 C   0  0  0  0  0  0           0  0  0
   10.0554   -3.1405    0.0000 C   0  0  0  0  0  0           0  0  0
   10.8811   -3.1336    0.0000 C   0  0  0  0  0  0           0  0  0
   11.2870   -2.4105    0.0000 C   0  0  0  0  0  0           0  0  0
   10.8665   -1.7033    0.0000 C   0  0  0  0  0  0           0  0  0
   12.1119   -2.4002    0.0000 N   0  0  0  0  0  0           0  0  0
    5.4347   -2.3111    0.0000 C   0  0  0  0  0  0           0  0  0
    5.2571   -3.1129    0.0000 C   0  0  0  0  0  0           0  0  0
    5.8641   -3.6721    0.0000 C   0  0  0  0  0  0           0  0  0
    6.6518   -3.4236    0.0000 C   0  0  0  0  0  0           0  0  0
    6.8324   -2.6159    0.0000 C   0  0  0  0  0  0           0  0  0
  6  4  2  0     0  0
  7 18  1  0     0  0
  7  9  1  0     0  0
 18 19  1  0     0  0
  4  1  1  0     0  0
 19 20  1  0     0  0
  8 10  2  0     0  0
 19 21  2  0     0  0
 20 22  1  0     0  0
  9 11  1  0     0  0
 20 23  1  0     0  0
 10 11  1  0     0  0
 20 24  1  0     0  0
  2  3  1  0     0  0
 16 25  1  0     0  0
  9 12  2  0     0  0
 25 26  2  0     0  0
  5  6  1  0     0  0
 26 27  1  0     0  0
  8 13  1  0     0  0
 27 28  2  0     0  0
  3  5  2  0     0  0
 28 29  1  0     0  0
 11 14  1  0     0  0
 29 30  2  0     0  0
 30 25  1  0     0  0
  6  7  1  0     0  0
 29 31  1  0     0  0
 13 32  1  0     0  0
 14 15  1  0     0  0
  1  2  2  0     0  0
 15 16  1  0     0  0
  5  8  1  0     0  0
 15 17  2  0     0  0
 13 36  1  0     0  0
 32 33  1  0     0  0
 33 34  1  0     0  0
 34 35  1  0     0  0
 35 36  1  0     0  0
M  END