
          11280714532D 1   1.00000     0.00000     0

 34 36  0     0  0            999 V2000
   11.7542   -3.5375    0.0000 C   0  0  0  0  0  0           0  0  0
   11.3417   -4.2542    0.0000 C   0  0  0  0  0  0           0  0  0
    7.4792   -2.5000    0.0000 N   0  0  3  0  0  0           0  0  0
   -0.3750   -4.5625    0.0000 N   0  0  3  0  0  0           0  0  0
   11.3417   -2.8167    0.0000 O   0  0  0  0  0  0           0  0  0
   11.7542   -4.9792    0.0000 O   0  0  0  0  0  0           0  0  0
    0.3417   -4.9750    0.0000 C   0  0  0  0  0  0           0  0  0
    6.7667   -2.0917    0.0000 C   0  0  0  0  0  0           0  0  0
    3.9125   -3.7417    0.0000 O   0  0  0  0  0  0           0  0  0
   12.5875   -3.5375    0.0000 O   0  0  0  0  0  0           0  0  0
   10.5125   -4.2542    0.0000 O   0  0  0  0  0  0           0  0  0
    4.6250   -3.3292    0.0000 C   0  0  0  0  0  0           0  0  0
    6.0542   -2.5042    0.0000 C   0  0  0  0  0  0           0  0  0
    1.0542   -4.5625    0.0000 C   0  0  0  0  0  0           0  0  0
    2.4792   -3.7417    0.0000 C   0  0  0  0  0  0           0  0  0
    3.2000   -3.3292    0.0000 C   0  0  0  0  0  0           0  0  0
    4.6250   -2.5042    0.0000 C   0  0  0  0  0  0           0  0  0
    5.3417   -3.7417    0.0000 C   0  0  0  0  0  0           0  0  0
    1.7667   -4.9750    0.0000 C   0  0  0  0  0  0           0  0  0
    5.3292   -2.0917    0.0000 C   0  0  0  0  0  0           0  0  0
    1.0542   -3.7417    0.0000 C   0  0  0  0  0  0           0  0  0
    6.0542   -3.3292    0.0000 C   0  0  0  0  0  0           0  0  0
    2.4792   -4.5667    0.0000 C   0  0  0  0  0  0           0  0  0
    1.7667   -3.3250    0.0000 C   0  0  0  0  0  0           0  0  0
    7.3750   -3.3167    0.0000 C   0  0  0  0  0  0           0  0  0
   -1.0875   -4.9667    0.0000 C   0  0  0  0  0  0           0  0  0
    8.2417   -2.1875    0.0000 C   0  0  0  0  0  0           0  0  0
   -0.3750   -3.7375    0.0000 C   0  0  0  0  0  0           0  0  0
    8.8917   -2.6875    0.0000 C   0  0  0  0  0  0           0  0  0
    8.0292   -3.8250    0.0000 C   0  0  0  0  0  0           0  0  0
   -1.7958   -4.5625    0.0000 C   0  0  0  0  0  0           0  0  0
   -1.0875   -3.3167    0.0000 C   0  0  0  0  0  0           0  0  0
   -1.7958   -3.7375    0.0000 C   0  0  0  0  0  0           0  0  0
    8.7792   -3.5042    0.0000 C   0  0  0  0  0  0           0  0  0
  2  1  1  0     0  0
  4  7  1  0     0  0
  5  1  2  0     0  0
  6  2  2  0     0  0
  7 14  1  0     0  0
  8  3  1  0     0  0
  9 12  1  0     0  0
 10  1  1  0     0  0
 11  2  1  0     0  0
 12 18  2  0     0  0
 13  8  1  0     0  0
 14 21  1  0     0  0
 15 16  1  0     0  0
 16  9  1  0     0  0
 17 20  2  0     0  0
 18 22  1  0     0  0
 19 23  1  0     0  0
 20 13  1  0     0  0
 21 24  2  0     0  0
 22 13  2  0     0  0
 23 15  2  0     0  0
 24 15  1  0     0  0
 25  3  1  0     0  0
 26  4  1  0     0  0
 27  3  1  0     0  0
 28  4  1  0     0  0
 29 27  1  0     0  0
 30 25  1  0     0  0
 31 26  1  0     0  0
 32 28  1  0     0  0
 33 32  1  0     0  0
 34 29  1  0     0  0
 34 30  1  0     0  0
 12 17  1  0     0  0
 19 14  2  0     0  0
 31 33  1  0     0  0
M  END