
          11280715262D 1   1.00000     0.00000     0

 12 13  0     0  0            999 V2000
    4.7792   -6.1125    0.0000 C   0  0  0  0  0  0           0  0  0
    4.6292   -6.6875    0.0000 C   0  0  0  0  0  0           0  0  0
    4.0500   -6.8417    0.0000 C   0  0  0  0  0  0           0  0  0
    3.6292   -6.4167    0.0000 O   0  0  0  0  0  0           0  0  0
    4.3542   -5.6917    0.0000 C   0  0  0  0  0  0           0  0  0
    3.7792   -5.8500    0.0000 C   0  0  0  0  0  0           0  0  0
    5.5250   -5.3667    0.0000 N   0  0  0  0  0  0           0  0  0
    5.3667   -5.9542    0.0000 C   0  0  0  0  0  0           0  0  0
    5.0500   -7.1125    0.0000 C   0  0  0  0  0  0           0  0  0
    3.8917   -7.4167    0.0000 C   0  0  0  0  0  0           0  0  0
    4.8917   -7.6792    0.0000 C   0  0  0  0  0  0           0  0  0
    4.3167   -7.8375    0.0000 C   0  0  0  0  0  0           0  0  0
  2  1  1  0     0  0
  3  2  2  0     0  0
  4  6  1  0     0  0
  5  1  2  0     0  0
  6  5  1  0     0  0
  7  8  1  0     0  0
  8  1  1  0     0  0
  9  2  1  0     0  0
 10  3  1  0     0  0
 11  9  2  0     0  0
 12 11  1  0     0  0
  3  4  1  0     0  0
 10 12  2  0     0  0
M  END