
          08180812482D 1   1.00000     0.00000     0

 39 43  0     1  0            999 V2000
    5.6342  -13.6793    0.0000 C   0  0  0  0  0  0           0  0  0
    6.0688  -14.3833    0.0000 C   0  0  0  0  0  0           0  0  0
    6.8938  -14.3580    0.0000 C   0  0  0  0  0  0           0  0  0
    7.2854  -13.6294    0.0000 C   0  0  0  0  0  0           0  0  0
    6.8457  -12.9248    0.0000 C   0  0  0  0  0  0           0  0  0
    6.0221  -12.9536    0.0000 C   0  0  0  0  0  0           0  0  0
    5.5857  -12.2535    0.0000 O   0  0  0  0  0  0           0  0  0
    8.1099  -13.6027    0.0000 C   0  0  0  0  0  0           0  0  0
    5.6779  -15.1099    0.0000 C   0  0  0  0  0  0           0  0  0
    7.3280  -15.0596    0.0000 C   0  0  0  0  0  0           0  0  0
    7.3208  -15.8833    0.0000 C   0  0  1  0  0  0           0  0  0
    8.0317  -16.3020    0.0000 C   0  0  0  0  0  0           0  0  0
    6.6028  -16.2896    0.0000 N   0  0  0  0  0  0           0  0  0
    8.7497  -15.8958    0.0000 N   0  0  3  0  0  0           0  0  0
    8.0245  -17.1270    0.0000 O   0  0  0  0  0  0           0  0  0
    9.4544  -16.3180    0.0000 C   0  0  1  0  0  0           0  0  0
   10.1702  -15.9153    0.0000 C   0  0  0  0  0  0           0  0  0
    8.7489  -15.0735    0.0000 C   0  0  0  0  0  0           0  0  0
    9.4710  -14.6691    0.0000 C   0  0  0  0  0  0           0  0  0
   10.1811  -15.0907    0.0000 C   0  0  0  0  0  0           0  0  0
   10.8991  -14.6866    0.0000 C   0  0  0  0  0  0           0  0  0
   10.9083  -13.8611    0.0000 C   0  0  0  0  0  0           0  0  0
   10.1935  -13.4413    0.0000 C   0  0  0  0  0  0           0  0  0
    9.4783  -13.8478    0.0000 C   0  0  0  0  0  0           0  0  0
    9.4431  -17.1430    0.0000 C   0  0  0  0  0  0           0  0  0
    8.7230  -17.5456    0.0000 O   0  0  0  0  0  0           0  0  0
   10.1518  -17.5652    0.0000 N   0  0  0  0  0  0           0  0  0
   10.8719  -17.1625    0.0000 C   0  0  0  0  0  0           0  0  0
   11.5806  -17.5848    0.0000 C   0  0  0  0  0  0           0  0  0
   11.6570  -18.4045    0.0000 N   0  0  0  0  0  0           0  0  0
   12.4616  -18.5871    0.0000 C   0  0  0  0  0  0           0  0  0
   12.8839  -17.8783    0.0000 C   0  0  0  0  0  0           0  0  0
   12.3402  -17.2578    0.0000 N   0  0  0  0  0  0           0  0  0
   13.7014  -17.8021    0.0000 C   0  0  0  0  0  0           0  0  0
   14.1767  -18.4778    0.0000 C   0  0  0  0  0  0           0  0  0
   14.9975  -18.4031    0.0000 C   0  0  0  0  0  0           0  0  0
   15.3441  -17.6535    0.0000 C   0  0  0  0  0  0           0  0  0
   14.8637  -16.9776    0.0000 C   0  0  0  0  0  0           0  0  0
   14.0445  -17.0556    0.0000 C   0  0  0  0  0  0           0  0  0
  2  9  1  0     0  0
  4  5  1  0     0  0
 19 20  2  0     0  0
  3 10  1  0     0  0
 20 21  1  0     0  0
  2  3  1  0     0  0
 21 22  2  0     0  0
 11 10  1  1     0  0
 22 23  1  0     0  0
  5  6  2  0     0  0
 23 24  2  0     0  0
 24 19  1  0     0  0
 11 12  1  0     0  0
 16 25  1  1     0  0
  6  1  1  0     0  0
 25 26  2  0     0  0
 11 13  1  0     0  0
 25 27  1  0     0  0
  1  2  2  0     0  0
 27 28  1  0     0  0
 12 14  1  0     0  0
 28 29  1  0     0  0
 29 30  1  0     0  0
  6  7  1  0     0  0
 12 15  2  0     0  0
 14 16  1  0     0  0
  3  4  2  0     0  0
 30 31  1  0     0  0
 31 32  2  0     0  0
 32 33  1  0     0  0
 33 29  2  0     0  0
  4  8  1  0     0  0
 34 35  2  0     0  0
 14 18  1  0     0  0
 35 36  1  0     0  0
 16 17  1  0     0  0
 36 37  2  0     0  0
 17 20  1  0     0  0
 37 38  1  0     0  0
 19 18  1  0     0  0
 38 39  2  0     0  0
 39 34  1  0     0  0
 32 34  1  0     0  0
M  END