
  SciTegic01181116592D

 25 28  0  0  0  0            999 V2000
   -6.4588    2.3714    0.0000 C   0  0
   -5.7176    2.7092    0.0000 N   0  0
   -6.3072    3.1171    0.0000 C   0  0
   -4.8957    2.3607    0.0000 C   0  0  2  0  0  0
   -5.8545    3.7295    0.0000 C   0  0
   -5.5781    3.4421    0.0000 C   0  0
   -4.7920    3.0996    0.0000 C   0  0  1  0  0  0
   -5.6159    4.3279    0.0000 C   0  0
   -4.0720    3.5027    0.0000 O   0  0
   -4.4892    1.6426    0.0000 C   0  0
   -4.9078    0.9317    0.0000 C   0  0
   -5.7321    0.9424    0.0000 C   0  0
   -6.1587    0.2322    0.0000 C   0  0
   -5.7440   -0.4868    0.0000 C   0  0
   -4.9147   -0.4911    0.0000 N   0  0
   -4.4999    0.2196    0.0000 C   0  0
   -3.3631    3.0806    0.0000 C   0  0
   -2.6431    3.4837    0.0000 N   0  0
   -3.3740    2.2557    0.0000 O   0  0
   -1.9341    3.0616    0.0000 C   0  0
   -1.9472    2.2367    0.0000 C   0  0
   -1.2391    1.8148    0.0000 C   0  0
   -0.5181    2.2179    0.0000 C   0  0
   -0.5097    3.0471    0.0000 C   0  0
   -1.2186    3.4653    0.0000 C   0  0
 11 12  2  0
  2  5  1  0
 12 13  1  0
  3  6  1  0
 13 14  2  0
  4  7  1  0
 14 15  1  0
  5  8  1  0
 15 16  2  0
 16 11  1  0
  6  7  1  0
  9 17  1  0
  6  8  1  0
 17 18  1  0
 17 19  2  0
  7  9  1  1
 18 20  1  0
  1  2  1  0
 20 21  2  0
  4 10  1  6
 21 22  1  0
  1  3  1  0
 22 23  2  0
 10 11  1  0
 23 24  1  0
  2  4  1  0
 24 25  2  0
 25 20  1  0
M  END