
          05270816392D 1   1.00000     0.00000     0

 37 42  0     1  0            999 V2000
   -4.9380   -4.8172    0.0000 C   0  0  0  0  0  0           0  0  0
   -4.9393   -5.6403    0.0000 C   0  0  0  0  0  0           0  0  0
   -3.5146   -4.8132    0.0000 C   0  0  0  0  0  0           0  0  0
   -4.2237   -4.4045    0.0000 C   0  0  0  0  0  0           0  0  0
   -3.5116   -5.6398    0.0000 C   0  0  0  0  0  0           0  0  0
   -4.2230   -6.0543    0.0000 C   0  0  0  0  0  0           0  0  0
   -4.2243   -6.8765    0.0000 C   0  0  0  0  0  0           0  0  0
   -3.5112   -7.2903    0.0000 C   0  0  0  0  0  0           0  0  0
   -5.5552   -6.1924    0.0000 N   0  0  0  0  0  0           0  0  0
   -5.0087   -7.1310    0.0000 C   0  0  0  0  0  0           0  0  0
   -2.7968   -6.0520    0.0000 C   0  0  2  0  0  0           0  0  0
   -2.7960   -6.8799    0.0000 C   0  0  2  0  0  0           0  0  0
   -2.0825   -7.2908    0.0000 N   0  0  3  0  0  0           0  0  0
   -1.3654   -6.8784    0.0000 C   0  0  0  0  0  0           0  0  0
   -1.3663   -6.0505    0.0000 C   0  0  1  0  0  0           0  0  0
   -2.0843   -5.6350    0.0000 C   0  0  0  0  0  0           0  0  0
   -2.8051   -7.7003    0.0000 H   0  0  0  0  0  0           0  0  0
   -2.8051   -5.2252    0.0000 H   0  0  0  0  0  0           0  0  0
   -0.6518   -5.6379    0.0000 C   0  0  0  0  0  0           0  0  0
   -0.6518   -4.8129    0.0000 O   0  0  0  0  0  0           0  0  0
    0.0627   -6.0505    0.0000 N   0  0  3  0  0  0           0  0  0
    0.0576   -6.8808    0.0000 C   0  0  0  0  0  0           0  0  0
    0.7681   -7.2932    0.0000 C   0  0  0  0  0  0           0  0  0
    1.4849   -6.8842    0.0000 N   0  0  3  0  0  0           0  0  0
    1.4869   -6.0582    0.0000 C   0  0  0  0  0  0           0  0  0
    0.7719   -5.6412    0.0000 C   0  0  0  0  0  0           0  0  0
    2.1979   -7.2993    0.0000 C   0  0  0  0  0  0           0  0  0
    2.1899   -8.1233    0.0000 C   0  0  0  0  0  0           0  0  0
    2.9019   -8.5384    0.0000 C   0  0  0  0  0  0           0  0  0
    3.6190   -8.1284    0.0000 C   0  0  0  0  0  0           0  0  0
    3.6195   -7.2992    0.0000 C   0  0  0  0  0  0           0  0  0
    2.9068   -6.8878    0.0000 C   0  0  0  0  0  0           0  0  0
   -5.3032   -7.9017    0.0000 Br  0  0  0  0  0  0           0  0  0
   -2.0828   -8.1158    0.0000 C   0  0  0  0  0  0           0  0  0
    4.3341   -6.8868    0.0000 F   0  0  0  0  0  0           0  0  0
    4.3325   -8.5427    0.0000 F   0  0  0  0  0  0           0  0  0
   -2.7974   -8.5281    0.0000 C   0  0  0  0  0  0           0  0  0
 12 17  1  1     0  0
  7  8  1  0     0  0
 11 18  1  6     0  0
  8 12  1  0     0  0
 15 19  1  1     0  0
  3  4  2  0     0  0
 19 20  2  0     0  0
  2  9  1  0     0  0
 19 21  1  0     0  0
 21 22  1  0     0  0
  4  1  1  0     0  0
  7 10  2  0     0  0
  9 10  1  0     0  0
 11 12  1  0     0  0
  5  6  2  0     0  0
 21 26  1  0     0  0
 22 23  1  0     0  0
 23 24  1  0     0  0
 24 25  1  0     0  0
 25 26  1  0     0  0
  2  6  1  0     0  0
 24 27  1  0     0  0
 27 28  2  0     0  0
  5  3  1  0     0  0
 28 29  1  0     0  0
  1  2  2  0     0  0
 29 30  2  0     0  0
  5 11  1  0     0  0
 30 31  1  0     0  0
 11 16  1  0     0  0
 31 32  2  0     0  0
 32 27  1  0     0  0
 12 13  1  0     0  0
 10 33  1  0     0  0
 13 14  1  0     0  0
 13 34  1  0     0  0
 14 15  1  0     0  0
 31 35  1  0     0  0
 15 16  1  0     0  0
 30 36  1  0     0  0
  6  7  1  0     0  0
 34 37  1  0     0  0
M  END