
  SciTegic05171617272D

 31 34  0  0  1  0            999 V2000
   -7.2775    5.3768    0.0000 C   0  0
   -6.2413    5.9820    0.0000 C   0  0  2  0  0  0
   -4.9380    5.2378    0.0000 N   0  0
   -4.9300    3.7369    0.0000 C   0  0
   -5.9662    3.1317    0.0000 O   0  0
   -3.6267    2.9927    0.0000 C   0  0
   -3.6187    1.4919    0.0000 O   0  0
   -2.3155    0.7475    0.0000 C   0  0
   -2.3155   -0.7475    0.0000 C   0  0
   -1.0028   -1.5132    0.0000 C   0  0
    0.2917   -0.7475    0.0000 C   0  0
    1.7138   -1.2033    0.0000 C   0  0
    2.5889    0.0182    0.0000 N   0  0
    1.7138    1.2033    0.0000 N   0  0
    2.0825    2.3453    0.0000 C   0  0
    0.2917    0.7475    0.0000 C   0  0
   -1.0028    1.5132    0.0000 N   0  0
    2.1852   -2.6281    0.0000 C   0  0
    3.1871   -3.6309    0.0000 C   0  0
    1.7264   -3.9718    0.0000 C   0  0
   -0.9940   -3.0137    0.0000 C   0  0
   -2.0293   -3.6205    0.0000 F   0  0
    0.0489   -3.6073    0.0000 F   0  0
   -0.9864   -4.2137    0.0000 F   0  0
   -6.2494    7.4828    0.0000 C   0  0
   -4.9554    8.2417    0.0000 C   0  0
   -4.9655    9.7416    0.0000 C   0  0
   -6.2695   10.4829    0.0000 C   0  0
   -6.2776   11.6828    0.0000 C   0  0
   -7.5635    9.7242    0.0000 C   0  0
   -7.5534    8.2242    0.0000 C   0  0
  2  1  1  1
  2  3  1  0
  3  4  1  0
  4  5  2  0
  4  6  1  0
  6  7  1  0
  7  8  1  0
  8  9  2  0
  9 10  1  0
 10 11  2  0
 11 12  1  0
 12 13  2  0
 13 14  1  0
 14 15  1  0
 14 16  1  0
 11 16  1  0
 16 17  2  0
  8 17  1  0
 12 18  1  0
 18 19  1  0
 19 20  1  0
 18 20  1  0
 10 21  1  0
 21 22  1  0
 21 23  1  0
 21 24  1  0
  2 25  1  0
 25 26  2  0
 26 27  1  0
 27 28  2  0
 28 29  1  0
 28 30  1  0
 30 31  2  0
 25 31  1  0
M  END