
          11280715432D 1   1.00000     0.00000     0

 22 23  0     1  0            999 V2000
   -0.3458   -1.3792    0.0000 S   0  0  0  0  0  0           0  0  0
   -0.1208   -2.1625    0.0000 C   0  0  0  0  0  0           0  0  0
    0.3375   -0.9167    0.0000 C   0  0  0  0  0  0           0  0  0
    0.9792   -1.4375    0.0000 N   0  0  0  0  0  0           0  0  0
   -0.6375   -2.8250    0.0000 N   0  0  0  0  0  0           0  0  0
    0.6917   -2.2000    0.0000 N   0  0  0  0  0  0           0  0  0
   -1.4458   -2.7167    0.0000 C   0  0  0  0  0  0           0  0  0
    0.3375   -0.0875    0.0000 C   0  0  0  0  0  0           0  0  0
   -1.9500   -3.3625    0.0000 O   0  0  0  0  0  0           0  0  0
   -1.7625   -1.9500    0.0000 C   0  0  1  0  0  0           0  0  0
    1.0542    0.3208    0.0000 C   0  0  0  0  0  0           0  0  0
   -0.3708    0.3208    0.0000 C   0  0  0  0  0  0           0  0  0
    0.3375    1.5625    0.0000 C   0  0  0  0  0  0           0  0  0
   -2.5708   -1.8417    0.0000 N   0  0  0  0  0  0           0  0  0
    1.0542    1.1500    0.0000 C   0  0  0  0  0  0           0  0  0
   -0.3708    1.1500    0.0000 C   0  0  0  0  0  0           0  0  0
    0.3375    2.3833    0.0000 O   0  0  0  0  0  0           0  0  0
   -1.2625   -1.3000    0.0000 C   0  0  0  0  0  0           0  0  0
    1.0542    2.8000    0.0000 C   0  0  0  0  0  0           0  0  0
    1.0542    3.6333    0.0000 C   0  0  0  0  0  0           0  0  0
    1.7625    4.0292    0.0000 C   0  0  0  0  0  0           0  0  0
    1.7625    4.8667    0.0000 C   0  0  0  0  0  0           0  0  0
  2  1  1  0     0  0
  3  1  1  0     0  0
  4  3  2  0     0  0
  5  2  1  0     0  0
  6  2  2  0     0  0
  7  5  1  0     0  0
  8  3  1  0     0  0
  9  7  2  0     0  0
 10  7  1  0     0  0
 11  8  2  0     0  0
 12  8  1  0     0  0
 13 16  1  0     0  0
 14 10  1  0     0  0
 15 11  1  0     0  0
 16 12  2  0     0  0
 17 13  1  0     0  0
 10 18  1  1     0  0
 19 17  1  0     0  0
 20 19  1  0     0  0
 21 20  1  0     0  0
 22 21  1  0     0  0
  6  4  1  0     0  0
 13 15  2  0     0  0
M  END