
          11290713132D 1   1.00000     0.00000     0

 25 27  0     0  0            999 V2000
    8.8370  -16.5048    0.0000 O   0  0  0  0  0  0           0  0  0
    9.5382  -16.9397    0.0000 C   0  0  0  0  0  0           0  0  0
   10.2653  -16.5499    0.0000 C   0  0  0  0  0  0           0  0  0
   10.9623  -16.9881    0.0000 C   0  0  0  0  0  0           0  0  0
   11.6890  -16.5990    0.0000 C   0  0  0  0  0  0           0  0  0
   11.7155  -15.7735    0.0000 C   0  0  0  0  0  0           0  0  0
   11.0094  -15.3387    0.0000 C   0  0  0  0  0  0           0  0  0
   10.2855  -15.7302    0.0000 C   0  0  0  0  0  0           0  0  0
   12.4422  -15.3828    0.0000 Br  0  0  0  0  0  0           0  0  0
    8.1098  -16.8945    0.0000 C   0  0  0  0  0  0           0  0  0
    7.4111  -16.4581    0.0000 C   0  0  0  0  0  0           0  0  0
    6.6843  -16.8471    0.0000 C   0  0  0  0  0  0           0  0  0
    6.6578  -17.6727    0.0000 C   0  0  0  0  0  0           0  0  0
    7.3640  -18.1075    0.0000 C   0  0  0  0  0  0           0  0  0
    8.0878  -17.7160    0.0000 C   0  0  0  0  0  0           0  0  0
    7.4371  -15.6370    0.0000 O   0  0  0  0  0  0           0  0  0
    6.7367  -15.2008    0.0000 C   0  0  0  0  0  0           0  0  0
    5.9312  -18.0634    0.0000 C   0  0  0  0  0  0           0  0  0
    5.2294  -17.6294    0.0000 C   0  0  0  0  0  0           0  0  0
    5.1748  -16.8043    0.0000 C   0  0  0  0  0  0           0  0  0
    4.3725  -16.6081    0.0000 N   0  0  0  0  0  0           0  0  0
    3.9390  -17.3115    0.0000 C   0  0  0  0  0  0           0  0  0
    4.4750  -17.9400    0.0000 N   0  0  0  0  0  0           0  0  0
    5.8067  -16.2738    0.0000 O   0  0  0  0  0  0           0  0  0
    3.1164  -17.3749    0.0000 O   0  0  0  0  0  0           0  0  0
  1  2  1  0     0  0
 12 13  2  0     0  0
  6  7  1  0     0  0
 13 14  1  0     0  0
  3  4  2  0     0  0
 14 15  2  0     0  0
 15 10  1  0     0  0
  7  8  2  0     0  0
  8  3  1  0     0  0
 16 17  1  0     0  0
 11 16  1  0     0  0
 13 18  1  0     0  0
  6  9  1  0     0  0
 18 19  2  0     0  0
 20 21  1  0     0  0
  4  5  1  0     0  0
  1 10  1  0     0  0
  2  3  1  0     0  0
 10 11  2  0     0  0
 19 20  1  0     0  0
 21 22  1  0     0  0
 22 23  1  0     0  0
 23 19  1  0     0  0
  5  6  2  0     0  0
 20 24  2  0     0  0
 11 12  1  0     0  0
 22 25  2  0     0  0
M  END