
  SciTegic06231513582D

 24 25  0  0  0  0            999 V2000
   -5.3628   -1.7456    0.0000 O   0  0
   -4.7074   -0.5546    0.0000 C   0  0  1  0  0  0
   -5.4069   -0.9138    0.0000 C   0  0
   -5.0855   -0.2269    0.0000 C   0  0  1  0  0  0
   -4.2663    0.0504    0.0000 C   0  0  1  0  0  0
    1.5188    0.0126    0.0000 C   0  0
   -6.1442   -0.3466    0.0000 C   0  0
   -5.7661    0.2394    0.0000 C   0  0
    1.5124    0.9200    0.0000 O   0  0
   -2.6971    0.0504    0.0000 C   0  0
   -1.7015    0.0504    0.0000 C   0  0
   -4.1781   -1.0840    0.0000 C   0  0
    2.3065   -0.4412    0.0000 O   0  0
   -3.4786   -0.4034    0.0000 C   0  0
   -4.1906   -1.8213    0.0000 S   0  0
    0.7248   -0.4412    0.0000 C   0  0
   -0.8444   -0.4412    0.0000 C   0  0
   -3.5542   -2.1930    0.0000 C   0  0
   -0.0567    0.0126    0.0000 C   0  0
   -2.9240   -1.8338    0.0000 C   0  0
   -1.0209   -2.2183    0.0000 C   0  0
   -1.6573   -1.8402    0.0000 C   0  0
   -2.2875   -2.1994    0.0000 C   0  0
   -0.3907   -1.8591    0.0000 C   0  0
  2  3  1  0
  3  1  1  0
  4  1  1  6
  5  4  1  0
  6 16  1  0
  7  3  1  0
  8  4  1  0
  9  6  2  0
 10 14  1  0
 11 10  2  0
  2 12  1  1
 13  6  1  0
  5 14  1  1
 15 12  1  0
 16 19  1  0
 17 11  1  0
 18 15  1  0
 19 17  1  0
 20 18  1  0
 21 22  1  0
 22 23  1  0
 23 20  1  0
 24 21  1  0
  7  8  1  0
  5  2  1  0
M  END