
  SciTegic10311316212D

 27 30  0  0  0  0            999 V2000
   18.7610   -0.9492    0.0000 C   0  0
   18.7598   -1.7688    0.0000 C   0  0
   19.4679   -2.1777    0.0000 C   0  0
   19.4661   -0.5404    0.0000 C   0  0
   20.1747   -0.9456    0.0000 C   0  0
   20.1750   -1.7642    0.0000 C   0  0
   20.9536   -2.0170    0.0000 S   0  0
   21.4346   -1.3545    0.0000 C   0  0
   20.9532   -0.6925    0.0000 C   0  0
   18.0563   -2.1759    0.0000 N   0  0
   17.3101   -1.8430    0.0000 C   0  0
   16.7628   -2.4498    0.0000 N   0  0
   17.1708   -3.1579    0.0000 N   0  0
   17.9702   -2.9885    0.0000 C   0  0
   18.5759   -3.5325    0.0000 C   0  0
   18.4039   -4.3326    0.0000 C   0  0
   19.0100   -4.8796    0.0000 C   0  0
   19.7883   -4.6278    0.0000 C   0  0
   19.9571   -3.8239    0.0000 C   0  0
   19.3497   -3.2804    0.0000 C   0  0
   17.1408   -1.0435    0.0000 S   0  0
   22.2498   -1.3521    0.0000 C   0  0
   22.6586   -2.0597    0.0000 O   0  0
   22.6581   -0.6443    0.0000 O   0  0
   21.2054    0.0885    0.0000 Cl  0  0
   20.7336   -3.5692    0.0000 C   0  0
   20.3959   -5.1742    0.0000 Br  0  0
  1  2  2  0
  2  3  1  0
  3  6  2  0
  5  4  2  0
  4  1  1  0
  5  6  1  0
  6  7  1  0
  7  8  1  0
  8  9  2  0
  9  5  1  0
 10 11  1  0
 11 12  2  0
 12 13  1  0
 13 14  2  0
 14 10  1  0
  2 10  1  0
 15 16  2  0
 16 17  1  0
 17 18  2  0
 18 19  1  0
 19 20  2  0
 20 15  1  0
 14 15  1  0
 11 21  1  0
 22 23  1  0
 22 24  2  0
  8 22  1  0
  9 25  1  0
 19 26  1  0
 18 27  1  0
M  END