
  CDK    9/16/09,9:56

 24 26  0  0  0  0  0  0  0  0999 V2000
    2.3512  -14.8362    0.0000 C   0  0  0  0  0  0  0  0  0  0  0  0
    2.3512  -15.6658    0.0000 C   0  0  0  0  0  0  0  0  0  0  0  0
    3.0657  -16.0783    0.0000 N   0  0  0  0  0  0  0  0  0  0  0  0
    3.7848  -15.6658    0.0000 C   0  0  0  0  0  0  0  0  0  0  0  0
    3.7848  -14.8362    0.0000 C   0  0  0  0  0  0  0  0  0  0  0  0
    3.0657  -14.4191    0.0000 O   0  0  0  0  0  0  0  0  0  0  0  0
    4.4996  -14.4245    0.0000 C   0  0  0  0  0  0  0  0  0  0  0  0
    5.2137  -14.8376    0.0000 O   0  0  0  0  0  0  0  0  0  0  0  0
    5.9285  -14.4259    0.0000 C   0  0  0  0  0  0  0  0  0  0  0  0
    6.6394  -14.8429    0.0000 C   0  0  0  0  0  0  0  0  0  0  0  0
    7.3538  -14.4319    0.0000 C   0  0  0  0  0  0  0  0  0  0  0  0
    7.3551  -13.6060    0.0000 C   0  0  0  0  0  0  0  0  0  0  0  0
    6.6361  -13.1929    0.0000 C   0  0  0  0  0  0  0  0  0  0  0  0
    5.9246  -13.6063    0.0000 C   0  0  0  0  0  0  0  0  0  0  0  0
    6.6340  -12.3679    0.0000 C   0  0  0  0  0  0  0  0  0  0  0  0
    7.3473  -11.9536    0.0000 N   0  0  0  0  0  0  0  0  0  0  0  0
    8.0623  -12.3666    0.0000 C   0  0  0  0  0  0  0  0  0  0  0  0
    8.7736  -11.9558    0.0000 C   0  0  0  0  0  0  0  0  0  0  0  0
    8.7758  -11.1304    0.0000 O   0  0  0  0  0  0  0  0  0  0  0  0
    8.0605  -10.7176    0.0000 C   0  0  0  0  0  0  0  0  0  0  0  0
    7.3429  -11.1300    0.0000 C   0  0  0  0  0  0  0  0  0  0  0  0
    3.0646  -16.9033    0.0000 C   0  0  0  0  0  0  0  0  0  0  0  0
    2.3495  -17.3148    0.0000 C   0  0  0  0  0  0  0  0  0  0  0  0
    3.7785  -17.3168    0.0000 C   0  0  0  0  0  0  0  0  0  0  0  0
 11 12  2  0  0  0  0 
  5  6  1  0  0  0  0 
 12 13  1  0  0  0  0 
 13 14  2  0  0  0  0 
 14  9  1  0  0  0  0 
  5  7  1  0  0  0  0 
 13 15  1  0  0  0  0 
  1  2  1  0  0  0  0 
 15 16  1  0  0  0  0 
 16 17  1  0  0  0  0 
  7  8  1  0  0  0  0 
  1  6  1  0  0  0  0 
  8  9  1  0  0  0  0 
  2  3  1  0  0  0  0 
  9 10  2  0  0  0  0 
 16 21  1  0  0  0  0 
 17 18  1  0  0  0  0 
 18 19  1  0  0  0  0 
 19 20  1  0  0  0  0 
 20 21  1  0  0  0  0 
  3  4  1  0  0  0  0 
  3 22  1  0  0  0  0 
 10 11  1  0  0  0  0 
 22 23  1  0  0  0  0 
  4  5  1  0  0  0  0 
 22 24  1  0  0  0  0 
M  END