
  SciTegic10041313202D

 37 41  0  0  0  0            999 V2000
    6.8292   -2.7375    0.0000 N   0  0
    7.3167   -2.0667    0.0000 C   0  0
    6.8292   -1.3917    0.0000 C   0  0
    6.0375   -1.6542    0.0000 C   0  0
    6.0375   -2.4792    0.0000 C   0  0
    8.1417   -1.9792    0.0000 C   0  0
    7.0292   -3.5417    0.0000 C   0  0
    2.2065   -5.8075    0.0000 C   0  0
    2.8917   -6.2042    0.0000 C   0  0
    5.3167   -2.8917    0.0000 C   0  0
    9.3667   -2.6875    0.0000 C   0  0
    5.3167   -1.2417    0.0000 C   0  0
    8.5417   -2.6875    0.0000 C   0  0
    0.7190   -4.1808    0.0000 N   0  0
    6.4500   -4.1125    0.0000 C   0  0
    9.7917   -1.9792    0.0000 O   0  0
    7.1625   -0.6250    0.0000 C   0  0
    4.6125   -1.6542    0.0000 C   0  0
    1.4470   -5.4050    0.0000 C   0  0
    4.6125   -2.4792    0.0000 C   0  0
    6.4500   -4.9375    0.0000 C   0  0
    9.7792   -3.4042    0.0000 O   0  0
    5.7292   -5.3500    0.0000 C   0  0
    3.8792   -1.2417    0.0000 F   0  0
    8.4792   -1.2167    0.0000 C   0  0
    5.7417   -6.1750    0.0000 O   0  0
    3.6042   -6.6167    0.0000 C   0  0
    1.4435   -4.5769    0.0000 C   0  0
    7.9917   -0.5375    0.0000 C   0  0
    5.0250   -4.1125    0.0000 C   0  0
    0.0065   -4.5988    0.0000 C   0  0
    5.7292   -3.7000    0.0000 C   0  0
    5.0125   -4.9375    0.0000 C   0  0
    0.7459   -5.8201    0.0000 C   0  0
    5.0417   -6.6000    0.0000 C   0  0
    4.3167   -6.1917    0.0000 C   0  0
    0.0214   -5.4241    0.0000 C   0  0
  2  1  1  0
  3  2  2  0
  4  5  1  0
  5  1  1  0
  6  2  1  0
  7  1  1  0
  8  9  3  0
  9 27  1  0
 10  5  2  0
 11 13  1  0
 12  4  2  0
 13  6  1  0
 14 28  2  0
 15  7  1  0
 16 11  2  0
 17  3  1  0
 18 20  2  0
 19  8  1  0
 20 10  1  0
 21 15  1  0
 22 11  1  0
 23 21  2  0
 24 18  1  0
 25  6  1  0
 26 23  1  0
 27 36  1  0
 28 19  1  0
 29 25  1  0
 30 32  1  0
 31 37  2  0
 32 15  2  0
 33 30  2  0
 34 19  2  0
 35 26  1  0
 36 35  1  0
 37 34  1  0
  3  4  1  0
 12 18  1  0
 17 29  1  0
 33 23  1  0
 14 31  1  0
M  END