
          11280715372D 1   1.00000     0.00000     0

 31 35  0     0  0            999 V2000
    2.9167   -1.6875    0.0000 C   0  0  0  0  0  0           0  0  0
    2.2042   -1.2667    0.0000 C   0  0  0  0  0  0           0  0  0
    2.2042   -0.4417    0.0000 C   0  0  0  0  0  0           0  0  0
    2.9167   -2.5042    0.0000 C   0  0  0  0  0  0           0  0  0
    2.8750    0.0375    0.0000 S   0  0  0  0  0  0           0  0  0
    1.5000   -1.6875    0.0000 C   0  0  0  0  0  0           0  0  0
    3.6292   -1.2750    0.0000 C   0  0  0  0  0  0           0  0  0
    3.6292   -2.9167    0.0000 C   0  0  0  0  0  0           0  0  0
    1.5375    0.0375    0.0000 C   0  0  0  0  0  0           0  0  0
    4.3417   -1.6792    0.0000 C   0  0  0  0  0  0           0  0  0
    2.2042   -2.9167    0.0000 C   0  0  3  0  0  0           0  0  0
    8.6125   -0.0167    0.0000 C   0  0  0  0  0  0           0  0  0
    2.6167    0.8250    0.0000 C   0  0  0  0  0  0           0  0  0
    4.3417   -2.5042    0.0000 C   0  0  0  0  0  0           0  0  0
    5.7667   -1.6792    0.0000 C   0  0  0  0  0  0           0  0  0
    5.0542   -1.2667    0.0000 C   0  0  0  0  0  0           0  0  0
    1.7917    0.8250    0.0000 C   0  0  0  0  0  0           0  0  0
    1.5000   -2.5125    0.0000 C   0  0  0  0  0  0           0  0  0
    7.9000   -0.4375    0.0000 C   0  0  0  0  0  0           0  0  0
    6.4750   -1.2667    0.0000 C   0  0  0  0  0  0           0  0  0
    8.6042    0.8083    0.0000 O   0  0  0  0  0  0           0  0  0
    5.7667   -2.5042    0.0000 C   0  0  0  0  0  0           0  0  0
    5.0542   -2.9167    0.0000 C   0  0  0  0  0  0           0  0  0
    7.1792   -0.0250    0.0000 C   0  0  0  0  0  0           0  0  0
    7.9042   -1.2625    0.0000 C   0  0  0  0  0  0           0  0  0
    6.4667   -0.4417    0.0000 C   0  0  0  0  0  0           0  0  0
    7.1917   -1.6750    0.0000 C   0  0  0  0  0  0           0  0  0
    9.3292   -0.4292    0.0000 O   0  0  0  0  0  0           0  0  0
    1.4917   -3.3292    0.0000 C   0  0  0  0  0  0           0  0  0
    2.9167   -3.3292    0.0000 C   0  0  0  0  0  0           0  0  0
    3.1042    1.4958    0.0000 C   0  0  0  0  0  0           0  0  0
  2  1  1  0     0  0
  3  2  1  0     0  0
  4  1  2  0     0  0
  5  3  1  0     0  0
  6  2  2  0     0  0
  7  1  1  0     0  0
  8  4  1  0     0  0
  9  3  2  0     0  0
 10  7  2  0     0  0
 11  4  1  0     0  0
 12 19  1  0     0  0
 13  5  1  0     0  0
 14 10  1  0     0  0
 15 16  2  0     0  0
 16 10  1  0     0  0
 17  9  1  0     0  0
 18 11  1  0     0  0
 19 25  2  0     0  0
 20 15  1  0     0  0
 21 12  2  0     0  0
 22 15  1  0     0  0
 23 14  1  0     0  0
 24 26  2  0     0  0
 25 27  1  0     0  0
 26 20  1  0     0  0
 27 20  2  0     0  0
 28 12  1  0     0  0
 29 11  1  0     0  0
 30 11  1  0     0  0
 31 13  1  0     0  0
 14  8  2  0     0  0
 18  6  1  0     0  0
 23 22  2  0     0  0
 17 13  2  0     0  0
 19 24  1  0     0  0
M  END