
          11280715342D 1   1.00000     0.00000     0

 24 24  0     0  0            999 V2000
    2.5042   -3.2417    0.0000 S   0  0  3  0  0  0           0  0  0
    5.7917   -3.2292    0.0000 C   0  0  0  0  0  0           0  0  0
    8.7417   -5.3250    0.0000 C   0  0  3  0  0  0           0  0  0
    9.5667   -5.2625    0.0000 C   0  0  0  0  0  0           0  0  0
    8.2792   -4.6417    0.0000 N   0  0  0  0  0  0           0  0  0
    3.3250   -3.2417    0.0000 C   0  0  0  0  0  0           0  0  0
    7.4542   -4.6417    0.0000 C   0  0  0  0  0  0           0  0  0
    6.2125   -3.9417    0.0000 N   0  0  0  0  0  0           0  0  0
    2.5000   -4.0667    0.0000 O   0  0  0  0  0  0           0  0  0
    2.5042   -2.4167    0.0000 O   0  0  0  0  0  0           0  0  0
    4.9667   -3.2292    0.0000 C   0  0  0  0  0  0           0  0  0
    1.6750   -3.2375    0.0000 N   0  0  0  0  0  0           0  0  0
    6.2042   -2.5125    0.0000 O   0  0  0  0  0  0           0  0  0
    9.9250   -4.5167    0.0000 O   0  0  0  0  0  0           0  0  0
    7.0417   -5.3625    0.0000 O   0  0  0  0  0  0           0  0  0
    3.7292   -2.5292    0.0000 C   0  0  0  0  0  0           0  0  0
    3.7417   -3.9542    0.0000 C   0  0  0  0  0  0           0  0  0
    4.5625   -3.9500    0.0000 C   0  0  0  0  0  0           0  0  0
    4.5500   -2.5167    0.0000 C   0  0  0  0  0  0           0  0  0
    7.0375   -3.9292    0.0000 C   0  0  0  0  0  0           0  0  0
    8.3875   -6.0667    0.0000 C   0  0  3  0  0  0           0  0  0
   10.0292   -5.9417    0.0000 O   0  0  0  0  0  0           0  0  0
    8.8500   -6.7500    0.0000 C   0  0  0  0  0  0           0  0  0
    7.5625   -6.1292    0.0000 C   0  0  0  0  0  0           0  0  0
  2 11  1  0     0  0
  3  5  1  0     0  0
  4  3  1  0     0  0
  5  7  1  0     0  0
  6  1  1  0     0  0
  7 20  1  0     0  0
  8  2  1  0     0  0
  9  1  2  0     0  0
 10  1  2  0     0  0
 11 18  2  0     0  0
 12  1  1  0     0  0
 13  2  2  0     0  0
 14  4  2  0     0  0
 15  7  2  0     0  0
 16  6  1  0     0  0
 17  6  2  0     0  0
 18 17  1  0     0  0
 19 16  2  0     0  0
 20  8  1  0     0  0
 21  3  1  0     0  0
 22  4  1  0     0  0
 23 21  1  0     0  0
 24 21  1  0     0  0
 19 11  1  0     0  0
M  END