
  CDK    9/16/09,10:4

 34 37  0  0  0  0  0  0  0  0999 V2000
   14.6289  -28.0398    0.0000 C   0  0  0  0  0  0  0  0  0  0  0  0
   15.4581  -28.0209    0.0000 C   0  0  0  0  0  0  0  0  0  0  0  0
   15.8542  -27.2972    0.0000 C   0  0  0  0  0  0  0  0  0  0  0  0
   15.4255  -26.5878    0.0000 C   0  0  0  0  0  0  0  0  0  0  0  0
   14.5961  -26.6067    0.0000 C   0  0  0  0  0  0  0  0  0  0  0  0
   14.1956  -27.3350    0.0000 N   0  0  0  0  0  0  0  0  0  0  0  0
   14.8310  -27.6593    0.0000 C   0  0  0  0  0  0  0  0  0  0  0  0
   15.1544  -26.9642    0.0000 C   0  0  0  0  0  0  0  0  0  0  0  0
   13.3709  -27.3625    0.0000 C   0  0  0  0  0  0  0  0  0  0  0  0
   16.6792  -27.2871    0.0000 C   0  0  0  0  0  0  0  0  0  0  0  0
   17.5041  -27.2728    0.0000 C   0  0  0  0  0  0  0  0  0  0  0  0
   16.6914  -28.1120    0.0000 O   0  0  0  0  0  0  0  0  0  0  0  0
   16.6670  -26.4621    0.0000 C   0  0  0  0  0  0  0  0  0  0  0  0
   17.3761  -26.0419    0.0000 C   0  0  0  0  0  0  0  0  0  0  0  0
   17.3643  -25.2178    0.0000 C   0  0  0  0  0  0  0  0  0  0  0  0
   16.6433  -24.8151    0.0000 C   0  0  0  0  0  0  0  0  0  0  0  0
   15.9327  -25.2425    0.0000 C   0  0  0  0  0  0  0  0  0  0  0  0
   15.9480  -26.0652    0.0000 C   0  0  0  0  0  0  0  0  0  0  0  0
   17.9271  -27.9824    0.0000 C   0  0  0  0  0  0  0  0  0  0  0  0
   18.7512  -27.9685    0.0000 C   0  0  0  0  0  0  0  0  0  0  0  0
   19.1521  -27.2465    0.0000 C   0  0  0  0  0  0  0  0  0  0  0  0
   18.7229  -26.5369    0.0000 C   0  0  0  0  0  0  0  0  0  0  0  0
   17.9001  -26.5543    0.0000 C   0  0  0  0  0  0  0  0  0  0  0  0
   12.9349  -26.6622    0.0000 C   0  0  0  0  0  0  0  0  0  0  0  0
   12.1103  -26.6897    0.0000 O   0  0  0  0  0  0  0  0  0  0  0  0
   11.6743  -25.9893    0.0000 C   0  0  0  0  0  0  0  0  0  0  0  0
   10.8498  -26.0167    0.0000 C   0  0  0  0  0  0  0  0  0  0  0  0
   10.4174  -25.3150    0.0000 C   0  0  0  0  0  0  0  0  0  0  0  0
    9.5937  -25.3421    0.0000 C   0  0  0  0  0  0  0  0  0  0  0  0
    9.2044  -26.0705    0.0000 C   0  0  0  0  0  0  0  0  0  0  0  0
    9.6449  -26.7731    0.0000 C   0  0  0  0  0  0  0  0  0  0  0  0
   10.4672  -26.7425    0.0000 C   0  0  0  0  0  0  0  0  0  0  0  0
    8.3798  -26.0990    0.0000 F   0  0  0  0  0  0  0  0  0  0  0  0
   14.8590  -23.8010    0.0000 Br  0  0  0  0  0  0  0  0  0  0  0  0
 15 16  2  0  0  0  0 
 16 17  1  0  0  0  0 
  7  8  1  0  0  0  0 
 17 18  2  0  0  0  0 
 18 13  1  0  0  0  0 
  3  8  1  0  0  0  0 
 11 19  2  0  0  0  0 
  1  2  1  0  0  0  0 
 19 20  1  0  0  0  0 
  6  9  1  0  0  0  0 
 20 21  2  0  0  0  0 
  1  6  1  0  0  0  0 
 21 22  1  0  0  0  0 
  3 10  1  0  0  0  0 
 22 23  2  0  0  0  0 
 23 11  1  0  0  0  0 
  2  3  1  0  0  0  0 
  9 24  1  0  0  0  0 
 10 11  1  0  0  0  0 
 24 25  1  0  0  0  0 
  3  4  1  0  0  0  0 
 25 26  1  0  0  0  0 
 10 12  1  0  0  0  0 
 26 27  1  0  0  0  0 
  4  5  1  0  0  0  0 
 27 28  2  0  0  0  0 
 10 13  1  0  0  0  0 
 28 29  1  0  0  0  0 
  5  6  1  0  0  0  0 
 29 30  2  0  0  0  0 
 13 14  2  0  0  0  0 
 30 31  1  0  0  0  0 
 31 32  2  0  0  0  0 
 32 27  1  0  0  0  0 
 14 15  1  0  0  0  0 
 30 33  1  0  0  0  0 
  6  7  1  0  0  0  0 
M  CHG  1   6   1
M  CHG  1  34  -1
M  END