
  SciTegic05061116452D

 25 27  0  0  0  0            999 V2000
   -0.3419  -15.6410    0.0000 N   0  0
    0.3698  -15.2324    0.0000 C   0  0
    0.3698  -14.4074    0.0000 N   0  0
   -0.3419  -13.9910    0.0000 C   0  0
   -1.0537  -15.2324    0.0000 C   0  0
   -1.0536  -14.4028    0.0000 C   0  0
   -1.8426  -14.1463    0.0000 N   0  0
   -2.3304  -14.8176    0.0000 C   0  0
   -1.8429  -15.4895    0.0000 N   0  0
   -2.2727  -16.1937    0.0000 C   0  0
   -3.0975  -16.1737    0.0000 C   0  0
   -3.5272  -16.8779    0.0000 O   0  0
   -3.4926  -15.4494    0.0000 O   0  0
   -0.3399  -13.1659    0.0000 N   0  0
    1.0838  -15.6458    0.0000 N   0  0
    1.7988  -15.2341    0.0000 C   0  0
    2.5128  -15.6475    0.0000 C   0  0
    3.2278  -15.2358    0.0000 C   0  0
    3.9418  -15.6492    0.0000 C   0  0
    4.6568  -15.2376    0.0000 C   0  0
    0.3756  -12.7551    0.0000 C   0  0
    1.1571  -13.0163    0.0000 C   0  0
    1.6456  -12.3514    0.0000 C   0  0
    1.1640  -11.6812    0.0000 C   0  0
    0.3781  -11.9323    0.0000 C   0  0
 11 12  1  0
  6  4  1  0
 11 13  2  0
  5  1  1  0
  4 14  1  0
  1  2  2  0
  2 15  1  0
  2  3  1  0
 15 16  1  0
  6  7  1  0
 16 17  1  0
  7  8  2  0
 17 18  1  0
  8  9  1  0
 18 19  1  0
  9  5  1  0
 19 20  1  0
  3  4  2  0
 14 21  1  0
 21 22  1  0
  9 10  1  0
  5  6  2  0
 10 11  1  0
 22 23  1  0
 23 24  1  0
 24 25  1  0
 25 21  1  0
M  END