
  Mrv0541 04051115152D          

 30 33  0  0  0  0            999 V2000
    2.2632   -3.7113    0.0000 N   0  0  0  0  0  0  0  0  0  0  0  0
    2.2632   -2.8863    0.0000 C   0  0  0  0  0  0  0  0  0  0  0  0
    1.5487   -2.4738    0.0000 N   0  0  0  0  0  0  0  0  0  0  0  0
    0.8342   -2.8863    0.0000 C   0  0  0  0  0  0  0  0  0  0  0  0
    0.8342   -3.7113    0.0000 C   0  0  0  0  0  0  0  0  0  0  0  0
    1.5487   -4.1238    0.0000 C   0  0  0  0  0  0  0  0  0  0  0  0
    1.5487   -4.9488    0.0000 N   0  0  0  0  0  0  0  0  0  0  0  0
    0.0496   -3.9663    0.0000 N   0  0  0  0  0  0  0  0  0  0  0  0
   -0.4353   -3.2988    0.0000 C   0  0  0  0  0  0  0  0  0  0  0  0
    0.0496   -2.6314    0.0000 N   0  0  0  0  0  0  0  0  0  0  0  0
   -1.1388    5.8636    0.0000 O   0  0  0  0  0  0  0  0  0  0  0  0
   -1.6574   -0.2819    0.0000 O   0  0  0  0  0  0  0  0  0  0  0  0
   -1.6574   -2.0768    0.0000 O   0  0  0  0  0  0  0  0  0  0  0  0
   -2.2007    4.9074    0.0000 O   0  5  0  0  0  0  0  0  0  0  0  0
    0.5173    4.0243    0.0000 C   0  0  0  0  0  0  0  0  0  0  0  0
    0.2624    3.2397    0.0000 C   0  0  0  0  0  0  0  0  0  0  0  0
   -0.0347    4.6374    0.0000 C   0  0  0  0  0  0  0  0  0  0  0  0
   -1.0966    3.6813    0.0000 C   0  0  0  0  0  0  0  0  0  0  0  0
   -0.7995    2.2835    0.0000 C   0  0  0  0  0  0  0  0  0  0  0  0
    0.0496    0.2727    0.0000 C   0  0  0  0  0  0  0  0  0  0  0  0
    0.2796   -1.1793    0.0000 O   0  0  0  0  0  0  0  0  0  0  0  0
   -0.2475    1.6704    0.0000 S   0  0  0  0  0  0  0  0  0  0  0  0
   -0.5024    0.8858    0.0000 S   0  0  0  0  0  0  0  0  0  0  0  0
   -0.5446    3.0682    0.0000 C   0  0  0  0  0  0  0  0  0  0  0  0
   -0.8417    4.4659    0.0000 C   0  0  0  0  0  0  0  0  0  0  0  0
   -0.9900   -0.7668    0.0000 C   0  0  1  0  0  0  0  0  0  0  0  0
   -0.9900   -1.5918    0.0000 C   0  0  2  0  0  0  0  0  0  0  0  0
   -0.2053   -0.5119    0.0000 C   0  0  1  0  0  0  0  0  0  0  0  0
   -0.2053   -1.8468    0.0000 C   0  0  2  0  0  0  0  0  0  0  0  0
   -1.3937    5.0790    0.0000 N   0  3  0  0  0  0  0  0  0  0  0  0
  2  1  2  0  0  0  0
  6  1  1  0  0  0  0
  2  3  1  0  0  0  0
  4  3  2  0  0  0  0
  4  5  1  0  0  0  0
  4 10  1  0  0  0  0
  5  6  2  0  0  0  0
  5  8  1  0  0  0  0
  6  7  1  0  0  0  0
  9  8  2  0  0  0  0
  9 10  1  0  0  0  0
 29 10  1  1  0  0  0
 30 11  2  0  0  0  0
 26 12  1  6  0  0  0
 27 13  1  6  0  0  0
 30 14  1  0  0  0  0
 15 16  2  0  0  0  0
 15 17  1  0  0  0  0
 16 24  1  0  0  0  0
 17 25  2  0  0  0  0
 18 24  2  0  0  0  0
 18 25  1  0  0  0  0
 19 22  1  0  0  0  0
 19 24  1  0  0  0  0
 20 23  1  0  0  0  0
 28 20  1  1  0  0  0
 28 21  1  0  0  0  0
 29 21  1  0  0  0  0
 22 23  1  0  0  0  0
 25 30  1  0  0  0  0
 26 27  1  0  0  0  0
 26 28  1  0  0  0  0
 27 29  1  0  0  0  0
M  CHG  2  14  -1  30   1
M  END