
  Mrv0541 04051115152D          

 17 17  0  0  0  0            999 V2000
   -3.7305   -2.4341    0.0000 C   0  0  0  0  0  0  0  0  0  0  0  0
   -3.7305   -0.7841    0.0000 C   0  0  0  0  0  0  0  0  0  0  0  0
   -4.4449   -1.1966    0.0000 C   0  0  0  0  0  0  0  0  0  0  0  0
    1.2708   -2.0216    0.0000 C   0  0  0  0  0  0  0  0  0  0  0  0
   -5.1594   -2.4341    0.0000 C   0  0  0  0  0  0  0  0  0  0  0  0
   -0.8726   -2.4341    0.0000 C   0  0  0  0  0  0  0  0  0  0  0  0
   -3.0160   -1.1966    0.0000 C   0  0  0  0  0  0  0  0  0  0  0  0
   -1.5871   -2.0216    0.0000 C   0  0  0  0  0  0  0  0  0  0  0  0
    2.6998   -2.0216    0.0000 C   0  0  0  0  0  0  0  0  0  0  0  0
    1.9853   -2.4341    0.0000 C   0  0  0  0  0  0  0  0  0  0  0  0
   -3.0160   -2.0216    0.0000 C   0  0  0  0  0  0  0  0  0  0  0  0
    0.5564   -2.4341    0.0000 C   0  0  0  0  0  0  0  0  0  0  0  0
   -0.1581   -2.0216    0.0000 C   0  0  0  0  0  0  0  0  0  0  0  0
   -4.4449   -2.0216    0.0000 C   0  0  0  0  0  0  0  0  0  0  0  0
   -5.1594   -3.2591    0.0000 O   0  0  0  0  0  0  0  0  0  0  0  0
   -2.3015   -2.4341    0.0000 O   0  0  0  0  0  0  0  0  0  0  0  0
   -5.8739   -2.0216    0.0000 O   0  0  0  0  0  0  0  0  0  0  0  0
  5 15  2  0  0  0  0
  2  3  2  0  0  0  0
 14  3  1  0  0  0  0
  2  7  1  0  0  0  0
 14  5  1  0  0  0  0
  5 17  1  0  0  0  0
  1 14  2  0  0  0  0
 11  7  2  0  0  0  0
  1 11  1  0  0  0  0
 11 16  1  0  0  0  0
  8 16  1  0  0  0  0
  6  8  1  0  0  0  0
 13  6  1  0  0  0  0
 12 13  1  0  0  0  0
 12  4  1  0  0  0  0
 10  4  1  0  0  0  0
 10  9  1  0  0  0  0
M  END