
  CDK    9/16/09,9:59

 19 20  0  0  0  0  0  0  0  0999 V2000
    2.8361  -15.4416    0.0000 C   0  0  0  0  0  0  0  0  0  0  0  0
    2.8373  -14.1064    0.0000 N   0  0  0  0  0  0  0  0  0  0  0  0
    2.3550  -14.7792    0.0000 C   0  0  0  0  0  0  0  0  0  0  0  0
    3.6236  -14.3626    0.0000 C   0  0  0  0  0  0  0  0  0  0  0  0
    3.6215  -15.1876    0.0000 C   0  0  0  0  0  0  0  0  0  0  0  0
    4.3379  -15.6043    0.0000 N   0  0  0  0  0  0  0  0  0  0  0  0
    5.0569  -15.1888    0.0000 C   0  0  0  0  0  0  0  0  0  0  0  0
    5.0550  -14.3606    0.0000 N   0  0  0  0  0  0  0  0  0  0  0  0
    4.3380  -13.9477    0.0000 C   0  0  0  0  0  0  0  0  0  0  0  0
    4.3364  -13.1207    0.0000 O   0  0  0  0  0  0  0  0  0  0  0  0
    2.4180  -16.1580    0.0000 C   0  0  0  0  0  0  0  0  0  0  0  0
    2.8290  -16.8764    0.0000 N   0  0  0  0  0  0  0  0  0  0  0  0
    2.4252  -19.0081    0.0000 C   0  0  0  0  0  0  0  0  0  0  0  0
    2.8330  -18.2980    0.0000 C   0  0  0  0  0  0  0  0  0  0  0  0
    2.4199  -17.5882    0.0000 C   0  0  0  0  0  0  0  0  0  0  0  0
    3.6509  -18.2958    0.0000 O   0  0  0  0  0  0  0  0  0  0  0  0
    2.8362  -19.7231    0.0000 C   0  0  0  0  0  0  0  0  0  0  0  0
    2.4207  -20.4361    0.0000 O   0  0  0  0  0  0  0  0  0  0  0  0
    1.6027  -19.0140    0.0000 O   0  0  0  0  0  0  0  0  0  0  0  0
  9  4  1  0  0  0  0 
  1  5  1  0  0  0  0 
  9 10  2  0  0  0  0 
  4  5  2  0  0  0  0 
  1 11  1  0  0  0  0 
  4  2  1  0  0  0  0 
 11 12  1  0  0  0  0 
  5  6  1  0  0  0  0 
  2  3  1  0  0  0  0 
  6  7  2  0  0  0  0 
 13 14  1  0  0  0  0 
 14 15  1  0  0  0  0 
 15 12  1  0  0  0  0 
  3  1  2  0  0  0  0 
 14 16  1  6  0  0  0 
  7  8  1  0  0  0  0 
 13 17  1  0  0  0  0 
 17 18  1  0  0  0  0 
  8  9  1  0  0  0  0 
 13 19  1  1  0  0  0 
M  END