
          11280715492D 1   1.00000     0.00000     0

 18 20  0     0  0            999 V2000
   -1.9044  -24.7926    0.0000 C   0  0  0  0  0  0           0  0  0
   -1.9056  -25.6195    0.0000 C   0  0  0  0  0  0           0  0  0
   -1.1911  -26.0320    0.0000 C   0  0  0  0  0  0           0  0  0
   -1.1929  -24.3801    0.0000 C   0  0  0  0  0  0           0  0  0
   -0.4781  -24.7890    0.0000 C   0  0  0  0  0  0           0  0  0
   -0.4732  -25.6195    0.0000 C   0  0  0  0  0  0           0  0  0
    0.3182  -25.8715    0.0000 N   0  0  0  0  0  0           0  0  0
    0.8025  -25.1968    0.0000 C   0  0  0  0  0  0           0  0  0
    0.3103  -24.5278    0.0000 N   0  0  0  0  0  0           0  0  0
    1.6270  -25.1919    0.0000 C   0  0  0  0  0  0           0  0  0
    2.0434  -25.9034    0.0000 O   0  0  0  0  0  0           0  0  0
    2.0349  -24.4754    0.0000 N   0  0  3  0  0  0           0  0  0
    2.8567  -24.4757    0.0000 C   0  0  0  0  0  0           0  0  0
    3.2646  -23.7634    0.0000 C   0  0  0  0  0  0           0  0  0
    2.8517  -23.0493    0.0000 N   0  0  3  0  0  0           0  0  0
    2.0262  -23.0522    0.0000 C   0  0  0  0  0  0           0  0  0
    1.6138  -23.7692    0.0000 C   0  0  0  0  0  0           0  0  0
    3.2624  -22.3345    0.0000 C   0  0  0  0  0  0           0  0  0
  8  9  1  0     0  0
  9  5  1  0     0  0
  4  1  2  0     0  0
  8 10  1  0     0  0
  5  6  2  0     0  0
 10 11  2  0     0  0
 10 12  1  0     0  0
 12 13  1  0     0  0
  2  3  2  0     0  0
  3  6  1  0     0  0
  1  2  1  0     0  0
  5  4  1  0     0  0
  6  7  1  0     0  0
 12 17  1  0     0  0
 13 14  1  0     0  0
 14 15  1  0     0  0
 15 16  1  0     0  0
 16 17  1  0     0  0
  7  8  2  0     0  0
 15 18  1  0     0  0
M  END