
  SciTegic11201309402D

 87 90  0  0  1  0            999 V2000
   15.9417   -3.4542    0.0000 N   0  0
   15.2000   -3.9042    0.0000 C   0  0
   17.3875   -2.4500    0.0000 C   0  0
   10.7042   -3.9292    0.0000 C   0  0
    9.2042   -3.9292    0.0000 N   0  0
    8.4542   -3.5042    0.0000 C   0  0
   16.6667   -3.0000    0.0000 C   0  0  1  0  0  0
   12.9542   -3.5042    0.0000 C   0  0
    6.2042   -3.9292    0.0000 C   0  0
   18.0625   -0.2875    0.0000 C   0  0
   11.4542   -3.5042    0.0000 N   0  0
    6.9542   -3.5042    0.0000 N   0  0
    9.9542   -3.5042    0.0000 C   0  0  1  0  0  0
   13.7042   -3.9292    0.0000 N   0  0
   17.2125   -1.5167    0.0000 N   0  0
   12.2042   -3.9292    0.0000 C   0  0  1  0  0  0
   18.8500    0.0833    0.0000 N   0  0
   12.2042   -4.8000    0.0000 C   0  0
    7.7042   -3.9292    0.0000 C   0  0  1  0  0  0
   14.4417   -3.4875    0.0000 C   0  0  1  0  0  0
    5.4625   -3.5042    0.0000 C   0  0  2  0  0  0
   16.9292    4.1417    0.0000 C   0  0
   21.6917   -1.8917    0.0000 C   0  0
    4.7125   -4.8000    0.0000 C   0  0
    4.7125   -3.9292    0.0000 N   0  0
   19.7000    1.3125    0.0000 C   0  0
   11.9875   -5.5917    0.0000 C   0  0
   17.9917   -1.1417    0.0000 C   0  0  1  0  0  0
   18.9167    0.9458    0.0000 C   0  0  2  0  0  0
   22.4750   -1.5167    0.0000 N   0  0
   17.0000    5.0042    0.0000 N   0  0
   15.2167   -4.7667    0.0000 O   0  0
   18.2000   -2.7917    0.0000 O   0  0
   10.7042   -4.8000    0.0000 O   0  0
    8.4542   -2.6375    0.0000 O   0  0
   12.9542   -2.6375    0.0000 O   0  0
    6.2042   -4.8000    0.0000 O   0  0
   17.3542    0.2083    0.0000 O   0  0
    5.4625   -2.6375    0.0000 C   0  0
    7.7042   -4.8000    0.0000 C   0  0
   20.4125    0.8208    0.0000 O   0  0
    5.4625   -5.2292    0.0000 O   0  0
   11.1875   -5.8000    0.0000 O   0  0
   20.9792   -1.3917    0.0000 N   0  0
   17.6375    3.6583    0.0000 N   0  0
    3.9917   -5.2125    0.0000 C   0  0
   21.6167   -2.7542    0.0000 N   0  0
   16.1500    3.7833    0.0000 N   0  0
   19.7750    2.1750    0.0000 N   0  0
   16.1542   -4.2917    0.0000 C   0  0
    9.9542   -2.6375    0.0000 C   0  0
   12.5625   -6.1792    0.0000 N   0  0
    6.2042   -2.2042    0.0000 C   0  0
    7.7042   -1.3417    0.0000 C   0  0
    8.4542   -5.2292    0.0000 C   0  0
    3.9917   -6.0375    0.0000 C   0  0
    6.2042   -1.3417    0.0000 C   0  0
    6.9542   -2.6375    0.0000 C   0  0
   12.9667   -1.0417    0.0000 N   0  0
    6.9542   -0.9042    0.0000 C   0  0
    7.7042   -2.2042    0.0000 C   0  0
   17.3375   -3.5542    0.0000 C   0  0
    8.4542   -0.9042    0.0000 O   0  0
   17.0167   -4.3542    0.0000 C   0  0
   14.4250   -2.6625    0.0000 C   0  0
   18.7042   -1.6417    0.0000 C   0  0
   18.2042    1.4375    0.0000 C   0  0
   20.1917   -1.7667    0.0000 C   0  0
   17.5667    2.7958    0.0000 C   0  0
   13.6875   -1.4417    0.0000 C   0  0
    9.2042   -2.2042    0.0000 C   0  0
   10.7042   -2.2042    0.0000 C   0  0
    8.4542   -0.0417    0.0000 C   0  0
    9.2042   -4.8000    0.0000 C   0  0
    8.4542   -6.0917    0.0000 C   0  0
    4.7042   -6.4417    0.0000 C   0  0
    3.2792   -6.4417    0.0000 C   0  0
   13.7042   -2.2667    0.0000 C   0  0
   19.4792   -1.2750    0.0000 C   0  0
   18.2792    2.3000    0.0000 C   0  0
    9.2042    0.3958    0.0000 C   0  0
    9.2042   -6.5292    0.0000 C   0  0
    4.7042   -7.2667    0.0000 C   0  0
    3.2750   -7.2667    0.0000 C   0  0
    9.9542   -5.2292    0.0000 C   0  0
    3.9917   -7.6792    0.0000 C   0  0
    9.9542   -6.0917    0.0000 C   0  0
  2  1  1  0
  7  3  1  1
  4 11  1  0
 13  5  1  1
  6  5  1  0
  7  1  1  0
  8 14  1  0
  9 12  1  0
 10 28  1  0
 16 11  1  6
 19 12  1  6
 13  4  1  0
 20 14  1  1
 15  3  1  0
 16  8  1  0
 17 10  1  0
 16 18  1  0
 19  6  1  0
 20  2  1  0
 21  9  1  0
 22 45  2  0
 23 44  2  0
 24 25  1  0
 21 25  1  6
 26 29  1  0
 27 18  1  0
 28 15  1  6
 29 17  1  1
 30 23  1  0
 31 22  1  0
 32  2  2  0
 33  3  2  0
 34  4  2  0
 35  6  2  0
 36  8  2  0
 37  9  2  0
 38 10  2  0
 21 39  1  0
 19 40  1  0
 41 26  2  0
 42 24  2  0
 43 27  2  0
 44 68  1  0
 45 69  1  0
 46 24  1  0
 47 23  1  0
 48 22  1  0
 49 26  1  0
 50  1  1  0
 13 51  1  0
 52 27  1  0
 53 39  1  0
 54 61  2  0
 55 40  1  0
 56 46  1  0
 57 53  1  0
 58 53  2  0
 59 70  1  0
 60 57  2  0
 61 58  1  0
  7 62  1  0
 63 54  1  0
 64 50  1  0
 20 65  1  0
 28 66  1  0
 29 67  1  0
 68 79  1  0
 69 80  1  0
 70 78  1  0
 71 51  1  0
 72 51  1  0
 73 63  1  0
 74 55  1  0
 75 55  2  0
 76 56  1  0
 77 56  2  0
 78 65  1  0
 79 66  1  0
 80 67  1  0
 81 73  1  0
 82 75  1  0
 83 76  2  0
 84 77  1  0
 85 74  2  0
 86 84  2  0
 87 82  2  0
 64 62  1  0
 85 87  1  0
 60 54  1  0
 86 83  1  0
M  END