
          11280714442D 1   1.00000     0.00000     0

 30 30  0     0  0            999 V2000
    0.1792    2.1333    0.0000 C   0  0  0  0  0  0           0  0  0
    0.5917    1.4125    0.0000 C   0  0  0  0  0  0           0  0  0
   -0.6458    2.1333    0.0000 O   0  0  0  0  0  0           0  0  0
    1.4167    1.4125    0.0000 O   0  0  0  0  0  0           0  0  0
    3.7167   -1.4167    0.0000 N   0  0  0  0  0  0           0  0  0
    1.6292   -1.4292    0.0000 O   0  0  0  0  0  0           0  0  0
    2.6792   -1.4292    0.0000 C   0  0  3  0  0  0           0  0  0
    0.1750    0.7000    0.0000 O   0  0  0  0  0  0           0  0  0
    0.5917    2.8458    0.0000 O   0  0  0  0  0  0           0  0  0
    1.1167   -1.1292    0.0000 C   0  0  0  0  0  0           0  0  0
    3.1917   -1.1292    0.0000 C   0  0  0  0  0  0           0  0  0
    2.1542   -1.1292    0.0000 C   0  0  0  0  0  0           0  0  0
    0.0792   -0.5292    0.0000 C   0  0  0  0  0  0           0  0  0
    1.1167   -0.5292    0.0000 C   0  0  0  0  0  0           0  0  0
    0.5917   -1.4292    0.0000 C   0  0  0  0  0  0           0  0  0
    0.5917   -0.2292    0.0000 C   0  0  0  0  0  0           0  0  0
    0.0792   -1.1292    0.0000 C   0  0  0  0  0  0           0  0  0
    2.6792   -2.0292    0.0000 O   0  0  0  0  0  0           0  0  0
    4.2292   -1.1167    0.0000 C   0  0  3  0  0  0           0  0  0
   -2.0083   -0.5292    0.0000 O   0  0  0  0  0  0           0  0  0
   -3.7833   -0.9542    0.0000 C   0  0  0  0  0  0           0  0  0
   -3.0458   -0.5292    0.0000 C   0  0  3  0  0  0           0  0  0
   -2.5208   -0.2292    0.0000 C   0  0  0  0  0  0           0  0  0
   -3.6333   -0.3792    0.0000 C   0  0  0  0  0  0           0  0  0
   -3.1958   -1.1167    0.0000 C   0  0  0  0  0  0           0  0  0
   -0.4458   -0.2292    0.0000 C   0  0  0  0  0  0           0  0  0
   -1.4833   -0.2292    0.0000 C   0  0  0  0  0  0           0  0  0
   -0.9583   -0.5292    0.0000 C   0  0  0  0  0  0           0  0  0
    4.7542   -1.4167    0.0000 C   0  0  0  0  0  0           0  0  0
    4.2292   -0.5167    0.0000 C   0  0  0  0  0  0           0  0  0
  2  1  1  0     0  0
  3  1  2  0     0  0
  4  2  2  0     0  0
  6 12  1  0     0  0
  7 11  1  0     0  0
  8  2  1  0     0  0
  9  1  1  0     0  0
 10  6  1  0     0  0
 11  5  1  0     0  0
 12  7  1  0     0  0
 13 17  2  0     0  0
 14 10  1  0     0  0
 15 10  2  0     0  0
 16 14  2  0     0  0
 17 15  1  0     0  0
 18  7  1  0     0  0
 19  5  1  0     0  0
 20 27  1  0     0  0
 21 25  1  0     0  0
 22 23  1  0     0  0
 23 20  1  0     0  0
 24 22  1  0     0  0
 25 22  1  0     0  0
 26 13  1  0     0  0
 27 28  1  0     0  0
 28 26  1  0     0  0
 29 19  1  0     0  0
 30 19  1  0     0  0
 13 16  1  0     0  0
 21 24  1  0     0  0
M  END