
          11280715302D 1   1.00000     0.00000     0

 23 26  0     0  0            999 V2000
    2.8875   -4.6750    0.0000 C   0  0  0  0  0  0           0  0  0
    2.8542   -5.2750    0.0000 C   0  0  0  0  0  0           0  0  0
    3.4167   -4.4042    0.0000 C   0  0  0  0  0  0           0  0  0
    5.9917   -4.8417    0.0000 N   0  0  3  0  0  0           0  0  0
    6.5292   -4.5750    0.0000 C   0  0  0  0  0  0           0  0  0
    4.9250   -5.3792    0.0000 N   0  0  3  0  0  0           0  0  0
    2.2792   -5.4292    0.0000 O   0  0  0  0  0  0           0  0  0
    3.3542   -5.5917    0.0000 C   0  0  0  0  0  0           0  0  0
    3.8875   -5.3250    0.0000 C   0  0  3  0  0  0           0  0  0
    2.3167   -4.4625    0.0000 C   0  0  0  0  0  0           0  0  0
    3.9167   -4.7292    0.0000 C   0  0  0  0  0  0           0  0  0
    1.9500   -4.9292    0.0000 C   0  0  0  0  0  0           0  0  0
    7.0292   -4.9042    0.0000 N   0  0  0  0  0  0           0  0  0
    3.4417   -3.8042    0.0000 O   0  0  0  0  0  0           0  0  0
    5.9625   -5.4417    0.0000 C   0  0  0  0  0  0           0  0  0
    5.4917   -4.5167    0.0000 C   0  0  0  0  0  0           0  0  0
    4.3917   -5.6542    0.0000 C   0  0  0  0  0  0           0  0  0
    5.4292   -5.7125    0.0000 C   0  0  0  0  0  0           0  0  0
    4.9542   -4.7875    0.0000 C   0  0  0  0  0  0           0  0  0
    6.5625   -3.9792    0.0000 C   0  0  0  0  0  0           0  0  0
    7.5667   -4.6292    0.0000 C   0  0  0  0  0  0           0  0  0
    7.0917   -3.7042    0.0000 C   0  0  0  0  0  0           0  0  0
    7.6000   -4.0292    0.0000 C   0  0  0  0  0  0           0  0  0
  2  1  2  0     0  0
  3  1  1  0     0  0
  4 16  1  0     0  0
  5  4  1  0     0  0
  6 17  1  0     0  0
  7  2  1  0     0  0
  8  2  1  0     0  0
  9 11  1  0     0  0
 10  1  1  0     0  0
 11  3  1  0     0  0
 12 10  2  0     0  0
 13  5  2  0     0  0
 14  3  2  0     0  0
 15 18  1  0     0  0
 16 19  1  0     0  0
 17  9  1  0     0  0
 18  6  1  0     0  0
 19  6  1  0     0  0
 20  5  1  0     0  0
 21 13  1  0     0  0
 22 20  2  0     0  0
 23 22  1  0     0  0
  7 12  1  0     0  0
  9  8  1  0     0  0
  4 15  1  0     0  0
 23 21  2  0     0  0
M  END