
  SciTegic01181116592D

 30 33  0  0  0  0            999 V2000
   -5.0889   -5.5083    0.0000 C   0  0
   -5.0901   -6.3357    0.0000 C   0  0
   -4.3753   -6.7485    0.0000 C   0  0
   -3.6588   -6.3352    0.0000 C   0  0
   -3.6617   -5.5047    0.0000 C   0  0
   -4.3771   -5.0955    0.0000 C   0  0
   -5.8049   -6.7476    0.0000 Cl  0  0
   -2.9488   -5.0895    0.0000 C   0  0
   -2.2328   -5.4993    0.0000 C   0  0
   -2.9519   -4.2645    0.0000 O   0  0
   -4.3755   -7.5735    0.0000 S   0  0
   -3.6611   -7.9862    0.0000 N   0  0
   -5.1792   -7.3542    0.0000 O   0  0
   -4.9667   -8.1542    0.0000 O   0  0
   -1.5198   -5.0839    0.0000 N   0  0
   -0.7749   -3.9809    0.0000 N   0  0
   -1.5502   -4.2625    0.0000 C   0  0
   -0.2673   -4.6313    0.0000 C   0  0
   -0.7300   -5.3134    0.0000 C   0  0
   -0.3705   -6.0530    0.0000 C   0  0
    0.4513   -6.1118    0.0000 C   0  0
    0.9125   -5.4248    0.0000 C   0  0
    0.5505   -4.6879    0.0000 C   0  0
   -2.2693   -3.8580    0.0000 C   0  0
   -2.2786   -3.0331    0.0000 C   0  0
   -1.5693   -2.6176    0.0000 C   0  0
   -1.5782   -1.7934    0.0000 C   0  0
   -2.2978   -1.3882    0.0000 C   0  0
   -3.0099   -1.8131    0.0000 C   0  0
   -2.9975   -2.6359    0.0000 C   0  0
  9 15  1  0
 15 19  1  0
  3  4  2  0
  5  8  1  0
 18 16  1  0
 16 17  2  0
 17 15  1  0
  8  9  1  0
 18 19  2  0
  4  5  1  0
 19 20  1  0
  8 10  2  0
 20 21  2  0
  2  3  1  0
 21 22  1  0
  3 11  1  0
 22 23  2  0
 23 18  1  0
  5  6  2  0
 17 24  1  0
 11 12  1  0
 24 25  1  0
  6  1  1  0
 25 26  2  0
 11 13  2  0
 26 27  1  0
  1  2  2  0
 27 28  2  0
 11 14  2  0
 28 29  1  0
  2  7  1  0
 29 30  2  0
 30 25  1  0
M  END