
          11280715112D 1   1.00000     0.00000     0

 31 34  0     0  0            999 V2000
   -0.6625   -0.3292    0.0000 N   0  0  3  0  0  0           0  0  0
   -1.0750    0.9333    0.0000 N   0  0  0  0  0  0           0  0  0
    0.0042    0.1458    0.0000 N   0  0  0  0  0  0           0  0  0
    2.9000   -1.5667    0.0000 C   0  0  0  0  0  0           0  0  0
   -1.3250    0.1458    0.0000 C   0  0  0  0  0  0           0  0  0
    2.4750   -0.3042    0.0000 N   0  0  0  0  0  0           0  0  0
    2.2250   -1.0917    0.0000 N   0  0  0  0  0  0           0  0  0
    3.3000   -0.2917    0.0000 N   0  0  0  0  0  0           0  0  0
   -0.2500    0.9333    0.0000 C   0  0  0  0  0  0           0  0  0
    3.5625   -1.0792    0.0000 N   0  0  0  0  0  0           0  0  0
    2.9042   -2.3917    0.0000 C   0  0  0  0  0  0           0  0  0
    2.1917   -2.8042    0.0000 C   0  0  0  0  0  0           0  0  0
    0.7625   -2.8042    0.0000 N   0  0  0  0  0  0           0  0  0
    1.4792   -2.3917    0.0000 C   0  0  0  0  0  0           0  0  0
   -0.6625   -1.1542    0.0000 C   0  0  0  0  0  0           0  0  0
    0.0500   -1.5667    0.0000 C   0  0  0  0  0  0           0  0  0
    0.0500   -2.3917    0.0000 C   0  0  0  0  0  0           0  0  0
    1.4792   -1.5667    0.0000 C   0  0  0  0  0  0           0  0  0
    0.7625   -1.1542    0.0000 C   0  0  0  0  0  0           0  0  0
   -2.1125   -0.1042    0.0000 C   0  0  0  0  0  0           0  0  0
    0.2375    1.5958    0.0000 C   0  0  0  0  0  0           0  0  0
    3.6167   -2.8042    0.0000 C   0  0  0  0  0  0           0  0  0
    2.1917   -3.6292    0.0000 C   0  0  0  0  0  0           0  0  0
   -2.7250    0.4458    0.0000 C   0  0  0  0  0  0           0  0  0
    1.0542    1.5208    0.0000 C   0  0  0  0  0  0           0  0  0
   -3.5125    0.1833    0.0000 C   0  0  0  0  0  0           0  0  0
    1.5417    2.1833    0.0000 C   0  0  0  0  0  0           0  0  0
    2.9125   -4.0417    0.0000 C   0  0  0  0  0  0           0  0  0
    3.6250   -3.6292    0.0000 C   0  0  0  0  0  0           0  0  0
   -4.1333    0.7333    0.0000 C   0  0  0  0  0  0           0  0  0
    2.3542    2.0958    0.0000 C   0  0  0  0  0  0           0  0  0
  2  5  2  0     0  0
  3  1  1  0     0  0
  4 11  1  0     0  0
  5  1  1  0     0  0
  6  7  2  0     0  0
  7  4  1  0     0  0
  8 10  1  0     0  0
  9  3  2  0     0  0
 10  4  2  0     0  0
 11 12  2  0     0  0
 12 14  1  0     0  0
 13 17  2  0     0  0
 14 18  2  0     0  0
 15  1  1  0     0  0
 16 15  1  0     0  0
 17 16  1  0     0  0
 18 19  1  0     0  0
 19 16  2  0     0  0
 20  5  1  0     0  0
 21  9  1  0     0  0
 22 11  1  0     0  0
 23 12  1  0     0  0
 24 20  1  0     0  0
 25 21  1  0     0  0
 26 24  1  0     0  0
 27 25  1  0     0  0
 28 23  2  0     0  0
 29 28  1  0     0  0
 30 26  1  0     0  0
 31 27  1  0     0  0
  9  2  1  0     0  0
 13 14  1  0     0  0
 22 29  2  0     0  0
  8  6  1  0     0  0
M  END