
          03140815512D 1   1.00000     0.00000     0

 28 32  0     1  0            999 V2000
   12.4427   -3.7999    0.0000 C   0  0  0  0  0  0           0  0  0
   13.0840   -3.1163    0.0000 C   0  0  3  0  0  0           0  0  0
   13.2472   -3.5749    0.0000 C   0  0  3  0  0  0           0  0  0
   13.7953   -3.3789    0.0000 C   0  0  0  0  0  0           0  0  0
   13.9999   -3.8777    0.0000 C   0  0  0  0  0  0           0  0  0
   14.5432   -3.1934    0.0000 C   0  0  3  0  0  0           0  0  0
   13.2403   -2.7266    0.0000 C   0  0  0  0  0  0           0  0  0
   13.8011   -2.0645    0.0000 C   0  0  3  0  0  0           0  0  0
   13.0795   -2.3209    0.0000 C   0  0  0  0  0  0           0  0  0
   14.5490   -2.3745    0.0000 C   0  0  0  0  0  0           0  0  0
   13.7958   -1.2375    0.0000 C   0  0  0  0  0  0           0  0  0
   14.5077   -0.8205    0.0000 N   0  0  0  0  0  0           0  0  0
   15.2247   -1.2285    0.0000 C   0  0  0  0  0  0           0  0  0
   15.9366   -0.8114    0.0000 C   0  0  0  0  0  0           0  0  0
   15.2300   -2.0534    0.0000 O   0  0  0  0  0  0           0  0  0
   16.6510   -1.2200    0.0000 C   0  0  0  0  0  0           0  0  0
   17.3623   -0.8037    0.0000 C   0  0  0  0  0  0           0  0  0
   17.3576    0.0222    0.0000 C   0  0  0  0  0  0           0  0  0
   16.6355    0.4299    0.0000 C   0  0  0  0  0  0           0  0  0
   15.9271    0.0113    0.0000 C   0  0  0  0  0  0           0  0  0
   16.6551   -2.0450    0.0000 Cl  0  0  0  0  0  0           0  0  0
   16.6273    1.2549    0.0000 O   0  0  0  0  0  0           0  0  0
   17.3377    1.6744    0.0000 C   0  0  1  0  0  0           0  0  0
   18.0594    1.2646    0.0000 C   0  0  0  0  0  0           0  0  0
   18.7676    1.6806    0.0000 N   0  0  0  0  0  0           0  0  0
   18.7638    2.5060    0.0000 C   0  0  0  0  0  0           0  0  0
   18.0454    2.9136    0.0000 C   0  0  0  0  0  0           0  0  0
   17.3309    2.4959    0.0000 C   0  0  0  0  0  0           0  0  0
 12 13  1  0     0  0
  2  4  1  0     0  0
 13 14  1  0     0  0
  3  5  1  0     0  0
 13 15  2  0     0  0
  4  6  1  0     0  0
 14 16  2  0     0  0
  5  6  1  0     0  0
 16 17  1  0     0  0
  7  8  1  0     0  0
 17 18  2  0     0  0
  3  7  1  0     0  0
 18 19  1  0     0  0
  2  9  1  0     0  0
 19 20  2  0     0  0
 20 14  1  0     0  0
  6 10  1  0     0  0
 16 21  1  0     0  0
 10  8  1  0     0  0
 19 22  1  0     0  0
  8  9  1  0     0  0
 23 22  1  6     0  0
 23 24  1  0     0  0
  8 11  1  0     0  0
  1  2  1  0     0  0
 11 12  1  0     0  0
  1  3  1  0     0  0
 23 28  1  0     0  0
 24 25  1  0     0  0
 25 26  1  0     0  0
 26 27  1  0     0  0
 27 28  1  0     0  0
M  END