
          11280714492D 1   1.00000     0.00000     0

 26 27  0     1  0            999 V2000
    4.5167   -5.1875    0.0000 C   0  0  0  0  0  0           0  0  0
    5.9500   -5.1792    0.0000 C   0  0  0  0  0  0           0  0  0
    5.2375   -4.7792    0.0000 C   0  0  2  0  0  0           0  0  0
    4.5167   -6.0042    0.0000 C   0  0  0  0  0  0           0  0  0
    3.6917   -5.1792    0.0000 N   0  3  0  0  0  0           0  0  0
    5.9417   -6.0125    0.0000 C   0  0  0  0  0  0           0  0  0
    5.2292   -6.4167    0.0000 N   0  0  0  0  0  0           0  0  0
    5.1667   -2.9875    0.0000 C   0  0  0  0  0  0           0  0  0
    3.7417   -2.9792    0.0000 C   0  0  3  0  0  0           0  0  0
    4.4625   -2.5667    0.0000 C   0  0  0  0  0  0           0  0  0
    6.6667   -4.7667    0.0000 C   0  0  0  0  0  0           0  0  0
    3.2792   -4.4625    0.0000 O   0  5  0  0  0  0           0  0  0
    3.2667   -5.8917    0.0000 O   0  0  0  0  0  0           0  0  0
    6.6667   -3.9417    0.0000 O   0  0  0  0  0  0           0  0  0
    3.0292   -2.5625    0.0000 F   0  0  0  0  0  0           0  0  0
    3.7417   -3.8042    0.0000 F   0  0  0  0  0  0           0  0  0
    3.5292   -2.1792    0.0000 F   0  0  0  0  0  0           0  0  0
    7.3792   -5.1792    0.0000 O   0  0  0  0  0  0           0  0  0
    6.6625   -6.4250    0.0000 C   0  0  0  0  0  0           0  0  0
    3.8042   -6.4167    0.0000 C   0  0  0  0  0  0           0  0  0
    5.8792   -2.5792    0.0000 C   0  0  0  0  0  0           0  0  0
    4.4625   -1.7542    0.0000 C   0  0  0  0  0  0           0  0  0
    8.0917   -4.7667    0.0000 C   0  0  0  0  0  0           0  0  0
    5.8792   -1.7542    0.0000 C   0  0  0  0  0  0           0  0  0
    5.1667   -1.3375    0.0000 C   0  0  0  0  0  0           0  0  0
    4.5167   -4.3667    0.0000 H   0  0  0  0  0  0           0  0  0
  2  3  1  0     0  0
  3  1  1  0     0  0
  4  1  2  0     0  0
  5  1  1  0     0  0
  6  7  2  0     0  0
  7  4  1  0     0  0
  8  3  1  0     0  0
  9 10  1  0     0  0
 10  8  1  0     0  0
 11  2  2  0     0  0
 12  5  1  0     0  0
 13  5  2  0     0  0
 14 11  1  0     0  0
 15  9  1  0     0  0
 16  9  1  0     0  0
 17  9  1  0     0  0
 18 11  1  0     0  0
 19  6  1  0     0  0
 20  4  1  0     0  0
 21  8  2  0     0  0
 22 10  2  0     0  0
 23 18  1  0     0  0
 24 21  1  0     0  0
 25 24  2  0     0  0
  3 26  1  6     0  0
  2  6  1  0     0  0
 25 22  1  0     0  0
M  CHG  2   5   1  12  -1
M  END