
          11280714522D 1   1.00000     0.00000     0

 56 61  0     0  0            999 V2000
    4.6750   -1.5750    0.0000 N   0  0  0  0  0  0           0  0  0
    4.5542   -0.7500    0.0000 C   0  0  3  0  0  0           0  0  0
    3.0625   -0.6292    0.0000 N   0  0  3  0  0  0           0  0  0
    4.1042   -2.1792    0.0000 C   0  0  0  0  0  0           0  0  0
    3.8375   -0.3250    0.0000 C   0  0  0  0  0  0           0  0  0
    3.2667   -2.1167    0.0000 C   0  0  0  0  0  0           0  0  0
    5.2417   -0.2917    0.0000 N   0  0  0  0  0  0           0  0  0
    2.8042   -1.4250    0.0000 C   0  0  0  0  0  0           0  0  0
    5.9792   -0.6542    0.0000 C   0  0  0  0  0  0           0  0  0
    4.4000   -2.9542    0.0000 C   0  0  0  0  0  0           0  0  0
    6.6667   -0.1917    0.0000 N   0  0  0  0  0  0           0  0  0
   12.7917  -12.2792    0.0000 N   0  0  3  0  0  0           0  0  0
    7.4375   -4.8667    0.0000 C   0  0  0  0  0  0           0  0  0
    8.8500   -6.5292    0.0000 C   0  0  0  0  0  0           0  0  0
    3.9042    0.4958    0.0000 O   0  0  0  0  0  0           0  0  0
    6.0375   -1.4750    0.0000 O   0  0  0  0  0  0           0  0  0
    7.7375   -5.6375    0.0000 N   0  0  0  0  0  0           0  0  0
    5.2042   -3.0792    0.0000 C   0  0  0  0  0  0           0  0  0
    7.4042   -0.5542    0.0000 C   0  0  0  0  0  0           0  0  0
    7.9542   -4.2250    0.0000 O   0  0  0  0  0  0           0  0  0
    9.6375   -6.2792    0.0000 O   0  0  0  0  0  0           0  0  0
   12.0417  -11.9417    0.0000 C   0  0  0  0  0  0           0  0  0
   11.9500  -11.1250    0.0000 C   0  0  0  0  0  0           0  0  0
    8.5500   -5.7625    0.0000 C   0  0  0  0  0  0           0  0  0
    8.6667   -7.3375    0.0000 N   0  0  0  0  0  0           0  0  0
    6.3250   -3.9667    0.0000 O   0  0  0  0  0  0           0  0  0
    2.4542   -0.0667    0.0000 C   0  0  0  0  0  0           0  0  0
    6.6167   -4.7417    0.0000 C   0  0  0  0  0  0           0  0  0
    5.5042   -3.8417    0.0000 C   0  0  0  0  0  0           0  0  0
    7.4542   -1.3792    0.0000 C   0  0  0  0  0  0           0  0  0
   11.2000  -10.7875    0.0000 C   0  0  0  0  0  0           0  0  0
    2.9042   -2.8542    0.0000 C   0  0  0  0  0  0           0  0  0
   11.1125   -9.9750    0.0000 C   0  0  0  0  0  0           0  0  0
    1.9875   -1.4792    0.0000 C   0  0  0  0  0  0           0  0  0
    8.2000   -1.7417    0.0000 C   0  0  0  0  0  0           0  0  0
    3.8792   -3.5917    0.0000 C   0  0  0  0  0  0           0  0  0
    9.5167   -8.4875    0.0000 C   0  0  0  0  0  0           0  0  0
   10.3625   -9.6417    0.0000 O   0  0  0  0  0  0           0  0  0
   12.8792  -13.1000    0.0000 C   0  0  0  0  0  0           0  0  0
   13.4417  -11.7917    0.0000 C   0  0  0  0  0  0           0  0  0
    4.1750   -4.3625    0.0000 C   0  0  0  0  0  0           0  0  0
   12.5167   -9.8250    0.0000 C   0  0  0  0  0  0           0  0  0
    8.8250   -0.4542    0.0000 C   0  0  0  0  0  0           0  0  0
    9.4167   -7.6667    0.0000 C   0  0  0  0  0  0           0  0  0
    8.0792   -0.0917    0.0000 C   0  0  0  0  0  0           0  0  0
   12.6125  -10.6417    0.0000 C   0  0  0  0  0  0           0  0  0
   10.2667   -8.8167    0.0000 C   0  0  0  0  0  0           0  0  0
    4.9875   -4.4917    0.0000 C   0  0  0  0  0  0           0  0  0
   11.7667   -9.4917    0.0000 C   0  0  0  0  0  0           0  0  0
    8.8792   -1.2792    0.0000 C   0  0  0  0  0  0           0  0  0
    8.2542   -2.5625    0.0000 C   0  0  0  0  0  0           0  0  0
    2.0792   -2.9125    0.0000 C   0  0  0  0  0  0           0  0  0
    1.6250   -2.2167    0.0000 C   0  0  0  0  0  0           0  0  0
   14.1917  -12.1292    0.0000 C   0  0  0  0  0  0           0  0  0
   13.6292  -13.4292    0.0000 C   0  0  0  0  0  0           0  0  0
   14.2917  -12.9500    0.0000 C   0  0  0  0  0  0           0  0  0
  2  1  1  0     0  0
  3  5  1  0     0  0
  4  1  2  0     0  0
  5  2  1  0     0  0
  6  4  1  0     0  0
  7  2  1  0     0  0
  8  6  1  0     0  0
  9  7  1  0     0  0
 10  4  1  0     0  0
 11  9  1  0     0  0
 12 22  1  0     0  0
 13 28  1  0     0  0
 14 24  1  0     0  0
 15  5  2  0     0  0
 16  9  2  0     0  0
 17 13  1  0     0  0
 18 10  1  0     0  0
 19 11  1  0     0  0
 20 13  2  0     0  0
 21 14  2  0     0  0
 22 23  1  0     0  0
 23 31  2  0     0  0
 24 17  1  0     0  0
 25 14  1  0     0  0
 26 29  1  0     0  0
 27  3  1  0     0  0
 28 26  1  0     0  0
 29 18  2  0     0  0
 30 19  2  0     0  0
 31 33  1  0     0  0
 32  6  2  0     0  0
 33 38  1  0     0  0
 34  8  2  0     0  0
 35 30  1  0     0  0
 36 10  2  0     0  0
 37 44  1  0     0  0
 38 47  1  0     0  0
 39 12  1  0     0  0
 40 12  1  0     0  0
 41 36  1  0     0  0
 42 49  1  0     0  0
 43 45  2  0     0  0
 44 25  1  0     0  0
 45 19  1  0     0  0
 46 42  2  0     0  0
 47 37  1  0     0  0
 48 41  2  0     0  0
 49 33  2  0     0  0
 50 43  1  0     0  0
 51 35  1  0     0  0
 52 32  1  0     0  0
 53 52  2  0     0  0
 54 40  1  0     0  0
 55 39  1  0     0  0
 56 54  1  0     0  0
  3  8  1  0     0  0
 48 29  1  0     0  0
 53 34  1  0     0  0
 50 35  2  0     0  0
 23 46  1  0     0  0
 55 56  1  0     0  0
M  END