
  CDK    9/16/09,10:6

 39 43  0  0  0  0  0  0  0  0999 V2000
    3.9618  -22.9511    0.0000 C   0  0  0  0  0  0  0  0  0  0  0  0
    4.6775  -22.5349    0.0000 C   0  0  0  0  0  0  0  0  0  0  0  0
    5.3944  -22.9492    0.0000 N   0  0  0  0  0  0  0  0  0  0  0  0
    5.3933  -23.7797    0.0000 C   0  0  0  0  0  0  0  0  0  0  0  0
    6.1059  -24.1898    0.0000 C   0  0  0  0  0  0  0  0  0  0  0  0
    6.8242  -23.7812    0.0000 O   0  0  0  0  0  0  0  0  0  0  0  0
    6.8251  -22.9538    0.0000 C   0  0  0  0  0  0  0  0  0  0  0  0
    6.1077  -22.5350    0.0000 C   0  0  0  0  0  0  0  0  0  0  0  0
   -1.7443  -25.4251    0.0000 N   0  0  0  0  0  0  0  0  0  0  0  0
   -1.0280  -25.0099    0.0000 C   0  0  0  0  0  0  0  0  0  0  0  0
   -0.3117  -25.4251    0.0000 N   0  0  0  0  0  0  0  0  0  0  0  0
   -1.0280  -24.1834    0.0000 O   0  0  0  0  0  0  0  0  0  0  0  0
    0.4046  -25.0099    0.0000 C   0  0  0  0  0  0  0  0  0  0  0  0
    1.8316  -24.1877    0.0000 C   0  0  0  0  0  0  0  0  0  0  0  0
    1.1104  -23.7766    0.0000 C   0  0  0  0  0  0  0  0  0  0  0  0
    0.4016  -24.1895    0.0000 C   0  0  0  0  0  0  0  0  0  0  0  0
    1.8312  -25.0150    0.0000 C   0  0  0  0  0  0  0  0  0  0  0  0
    1.1168  -25.4278    0.0000 C   0  0  0  0  0  0  0  0  0  0  0  0
    1.1166  -26.2495    0.0000 C   0  0  0  0  0  0  0  0  0  0  0  0
    1.8301  -26.6594    0.0000 C   0  0  0  0  0  0  0  0  0  0  0  0
    2.5453  -26.2456    0.0000 C   0  0  0  0  0  0  0  0  0  0  0  0
    2.5419  -25.4253    0.0000 C   0  0  0  0  0  0  0  0  0  0  0  0
   -2.4607  -25.0094    0.0000 C   0  0  0  0  0  0  0  0  0  0  0  0
    2.5428  -23.7746    0.0000 C   0  0  0  0  0  0  0  0  0  0  0  0
    3.2529  -24.1866    0.0000 C   0  0  0  0  0  0  0  0  0  0  0  0
    3.9634  -23.7743    0.0000 N   0  0  0  0  0  0  0  0  0  0  0  0
    3.2436  -22.5420    0.0000 C   0  0  0  0  0  0  0  0  0  0  0  0
    2.5359  -22.9566    0.0000 C   0  0  0  0  0  0  0  0  0  0  0  0
   -2.4538  -24.1838    0.0000 C   0  0  0  0  0  0  0  0  0  0  0  0
   -3.1693  -23.7681    0.0000 C   0  0  0  0  0  0  0  0  0  0  0  0
   -3.8886  -24.1806    0.0000 C   0  0  0  0  0  0  0  0  0  0  0  0
   -3.8878  -25.0132    0.0000 C   0  0  0  0  0  0  0  0  0  0  0  0
   -3.1717  -25.4251    0.0000 C   0  0  0  0  0  0  0  0  0  0  0  0
   -3.1688  -26.2474    0.0000 O   0  0  0  0  0  0  0  0  0  0  0  0
   -3.1670  -22.9457    0.0000 C   0  0  0  0  0  0  0  0  0  0  0  0
   -3.1729  -22.1193    0.0000 C   0  0  0  0  0  0  0  0  0  0  0  0
   -2.3447  -22.9439    0.0000 C   0  0  0  0  0  0  0  0  0  0  0  0
   -3.9894  -22.9517    0.0000 C   0  0  0  0  0  0  0  0  0  0  0  0
   -3.8795  -26.6611    0.0000 C   0  0  0  0  0  0  0  0  0  0  0  0
  9 10  1  0  0  0  0 
 19 20  2  0  0  0  0 
  3  4  1  0  0  0  0 
 20 21  1  0  0  0  0 
 10 11  1  0  0  0  0 
 21 22  2  0  0  0  0 
 22 17  1  0  0  0  0 
  1  2  1  0  0  0  0 
  9 23  1  0  0  0  0 
 10 12  2  0  0  0  0 
 14 24  1  0  0  0  0 
  3  8  1  0  0  0  0 
 24 25  2  0  0  0  0 
 11 13  1  0  0  0  0 
 25 26  1  0  0  0  0 
 26  1  2  0  0  0  0 
 13 18  2  0  0  0  0 
  1 27  1  0  0  0  0 
  4  5  1  0  0  0  0 
 27 28  2  0  0  0  0 
 28 24  1  0  0  0  0 
 17 14  2  0  0  0  0 
 23 29  2  0  0  0  0 
  5  6  1  0  0  0  0 
 29 30  1  0  0  0  0 
 14 15  1  0  0  0  0 
 30 31  2  0  0  0  0 
  6  7  1  0  0  0  0 
 31 32  1  0  0  0  0 
 15 16  2  0  0  0  0 
 32 33  2  0  0  0  0 
 33 23  1  0  0  0  0 
 16 13  1  0  0  0  0 
 33 34  1  0  0  0  0 
  7  8  1  0  0  0  0 
 30 35  1  0  0  0  0 
 35 36  1  0  0  0  0 
 17 18  1  0  0  0  0 
 35 37  1  0  0  0  0 
  2  3  1  0  0  0  0 
 35 38  1  0  0  0  0 
 18 19  1  0  0  0  0 
 34 39  1  0  0  0  0 
M  END