
  SciTegic01161211242D

 42 47  0  0  0  0            999 V2000
    0.6050  -24.1213    0.0000 C   0  0
    1.2909  -23.6633    0.0000 C   0  0
    2.0624  -23.9523    0.0000 N   0  0
    1.3213  -22.8422    0.0000 C   0  0
    2.1154  -22.6184    0.0000 N   0  0
    2.5681  -23.3040    0.0000 C   0  0
    3.3601  -23.0853    0.0000 S   0  0
    2.6275  -21.9760    0.0000 C   0  0
    3.3976  -22.2687    0.0000 C   0  0
    4.0340  -21.7486    0.0000 C   0  0
    3.9016  -20.9357    0.0000 C   0  0
    3.1272  -20.6457    0.0000 C   0  0
    2.4940  -21.1676    0.0000 C   0  0
   -0.8223  -24.1250    0.0000 C   0  0
   -0.8234  -24.9523    0.0000 C   0  0
   -0.1086  -25.3652    0.0000 C   0  0
    0.6078  -24.9519    0.0000 C   0  0
   -0.1104  -23.7122    0.0000 C   0  0
   -1.5382  -25.3643    0.0000 N   0  0
   -2.2524  -24.9512    0.0000 C   0  0
   -2.9672  -25.3631    0.0000 N   0  0
   -2.2517  -24.1262    0.0000 O   0  0
   -3.6813  -24.9501    0.0000 C   0  0
   -3.7626  -24.1268    0.0000 C   0  0
   -4.5695  -23.9546    0.0000 C   0  0
   -4.9826  -24.6688    0.0000 O   0  0
   -4.4310  -25.2822    0.0000 N   0  0
   -4.9044  -23.2007    0.0000 C   0  0
   -4.4190  -22.5336    0.0000 C   0  0
   -5.7333  -23.2000    0.0000 C   0  0
   -5.3250  -22.4833    0.0000 C   0  0
    4.5395  -20.4125    0.0000 O   0  0
    5.3115  -20.7033    0.0000 C   0  0
    5.9976  -20.2461    0.0000 C   0  0
    6.7371  -20.6118    0.0000 C   0  0
    7.4236  -20.1543    0.0000 N   0  0
    8.1616  -20.5250    0.0000 C   0  0
    8.8462  -20.0711    0.0000 C   0  0
    8.7974  -19.2472    0.0000 N   0  0
    8.0580  -18.8792    0.0000 C   0  0
    7.3673  -19.3351    0.0000 C   0  0
    9.4857  -18.7922    0.0000 C   0  0
  8  9  2  0
 19 20  1  0
  4  2  2  0
 20 21  1  0
  9 10  1  0
 20 22  2  0
  5  6  1  0
 21 23  1  0
 23 24  1  0
 10 11  2  0
  2  3  1  0
 11 12  1  0
 24 25  2  0
 25 26  1  0
 26 27  1  0
 27 23  2  0
 12 13  2  0
 25 28  1  0
 13  8  1  0
 28 29  1  0
  1  2  1  0
 28 30  1  0
  6  7  1  0
 28 31  1  0
 14 15  2  0
 11 32  1  0
  7  9  1  0
 32 33  1  0
 15 16  1  0
 33 34  1  0
  8  5  1  0
 34 35  1  0
 16 17  2  0
 35 36  1  0
 36 37  1  0
 17  1  1  0
  3  6  2  0
  1 18  2  0
 18 14  1  0
  5  4  1  0
 36 41  1  0
 37 38  1  0
 38 39  1  0
 39 40  1  0
 40 41  1  0
 15 19  1  0
 39 42  1  0
M  END