
          11280715512D 1   1.00000     0.00000     0

 37 40  0     0  0            999 V2000
    9.4861  -13.4250    0.0000 C   0  0  0  0  0  0           0  0  0
    9.4849  -14.2523    0.0000 C   0  0  0  0  0  0           0  0  0
   10.1997  -14.6652    0.0000 C   0  0  0  0  0  0           0  0  0
   10.1979  -13.0122    0.0000 C   0  0  0  0  0  0           0  0  0
   10.9181  -14.2494    0.0000 C   0  0  0  0  0  0           0  0  0
   10.9133  -13.4213    0.0000 C   0  0  0  0  0  0           0  0  0
   11.5604  -12.8954    0.0000 N   0  0  3  0  0  0           0  0  0
   11.5744  -14.7639    0.0000 C   0  0  0  0  0  0           0  0  0
   12.3726  -13.0697    0.0000 C   0  0  0  0  0  0           0  0  0
   12.3850  -14.5709    0.0000 N   0  0  0  0  0  0           0  0  0
   12.7374  -13.8161    0.0000 N   0  0  3  0  0  0           0  0  0
   12.8809  -12.4199    0.0000 O   0  0  0  0  0  0           0  0  0
   11.3979  -15.5698    0.0000 C   0  0  0  0  0  0           0  0  0
   13.5623  -13.8088    0.0000 C   0  0  0  0  0  0           0  0  0
   13.9812  -14.5195    0.0000 C   0  0  0  0  0  0           0  0  0
   14.8062  -14.5122    0.0000 N   0  0  0  0  0  0           0  0  0
   13.5751  -15.2376    0.0000 O   0  0  0  0  0  0           0  0  0
   11.3679  -12.0932    0.0000 C   0  0  0  0  0  0           0  0  0
   11.9664  -11.5254    0.0000 C   0  0  0  0  0  0           0  0  0
   11.7739  -10.7231    0.0000 C   0  0  3  0  0  0           0  0  0
   12.7574  -11.7597    0.0000 O   0  0  0  0  0  0           0  0  0
   11.5542   -9.9208    0.0000 C   0  0  0  0  0  0           0  0  0
   12.5729  -10.5179    0.0000 C   0  0  0  0  0  0           0  0  0
   10.9766  -10.9352    0.0000 C   0  0  0  0  0  0           0  0  0
   15.2250  -15.2229    0.0000 C   0  0  0  0  0  0           0  0  0
   14.8170  -15.9388    0.0000 C   0  0  0  0  0  0           0  0  0
   15.2351  -16.6491    0.0000 C   0  0  0  0  0  0           0  0  0
   16.0610  -16.6421    0.0000 C   0  0  0  0  0  0           0  0  0
   16.4669  -15.9190    0.0000 C   0  0  0  0  0  0           0  0  0
   16.0464  -15.2117    0.0000 C   0  0  0  0  0  0           0  0  0
   17.2918  -15.9087    0.0000 N   0  0  0  0  0  0           0  0  0
   17.6954  -15.1892    0.0000 C   0  0  0  0  0  0           0  0  0
   10.6122  -15.8147    0.0000 C   0  0  0  0  0  0           0  0  0
   10.4356  -16.6198    0.0000 C   0  0  0  0  0  0           0  0  0
   11.0456  -17.1765    0.0000 C   0  0  0  0  0  0           0  0  0
   11.8351  -16.9225    0.0000 C   0  0  0  0  0  0           0  0  0
   12.0080  -16.1180    0.0000 C   0  0  0  0  0  0           0  0  0
  7 18  1  0     0  0
  7  9  1  0     0  0
 18 19  1  0     0  0
  4  1  1  0     0  0
 19 20  1  0     0  0
  8 10  2  0     0  0
 19 21  2  0     0  0
 20 22  1  0     0  0
  9 11  1  0     0  0
 20 23  1  0     0  0
 10 11  1  0     0  0
 20 24  1  0     0  0
  2  3  1  0     0  0
 16 25  1  0     0  0
  9 12  2  0     0  0
 25 26  2  0     0  0
  5  6  1  0     0  0
 26 27  1  0     0  0
  8 13  1  0     0  0
 27 28  2  0     0  0
  3  5  2  0     0  0
 28 29  1  0     0  0
 11 14  1  0     0  0
 29 30  2  0     0  0
 30 25  1  0     0  0
  6  7  1  0     0  0
 29 31  1  0     0  0
 14 15  1  0     0  0
 31 32  1  0     0  0
  1  2  2  0     0  0
 13 33  2  0     0  0
 15 16  1  0     0  0
 33 34  1  0     0  0
  5  8  1  0     0  0
 34 35  2  0     0  0
 15 17  2  0     0  0
 35 36  1  0     0  0
  6  4  2  0     0  0
 36 37  2  0     0  0
 37 13  1  0     0  0
M  END