
  SciTegic04091415222D

 33 36  0  0  0  0            999 V2000
    4.3999   -5.5904    0.0000 C   0  0
    5.1163   -5.1771    0.0000 C   0  0
    5.1135   -4.3465    0.0000 C   0  0
    4.3981   -3.9373    0.0000 N   0  0
    3.6850   -5.1775    0.0000 N   0  0
    3.6817   -4.3532    0.0000 C   0  0
    2.8967   -4.1016    0.0000 C   0  0
    2.4147   -4.7705    0.0000 C   0  0
    2.9021   -5.4354    0.0000 N   0  0
    4.3997   -6.4155    0.0000 N   0  0
    3.6851   -6.8278    0.0000 C   0  0
    2.6378   -3.3194    0.0000 C   0  0
    2.3796   -2.5358    0.0000 N   0  0
    5.8265   -3.9313    0.0000 N   0  0
    6.5425   -4.3412    0.0000 C   0  0
    6.5423   -5.1638    0.0000 C   0  0
    7.2575   -5.5736    0.0000 C   0  0
    7.9714   -5.1582    0.0000 C   0  0
    7.9656   -4.3289    0.0000 C   0  0
    7.2498   -3.9230    0.0000 C   0  0
    8.6771   -3.9113    0.0000 N   0  0
    8.6880   -5.5671    0.0000 N   0  0
    8.6922   -6.3921    0.0000 C   0  0
    9.4003   -5.1510    0.0000 C   0  0
    9.4087   -6.8010    0.0000 C   0  0
    9.4130   -7.6261    0.0000 N   0  0
   10.1296   -8.0350    0.0000 C   0  0
    8.7006   -8.0422    0.0000 C   0  0
    8.6710   -3.0862    0.0000 C   0  0
    9.3825   -2.6686    0.0000 C   0  0
    7.9536   -2.6790    0.0000 O   0  0
    2.8618   -6.8304    0.0000 C   0  0
    3.2742   -7.5450    0.0000 C   0  0
  5  1  1  0
  1  2  2  0
  2  3  1  0
  3  4  2  0
  4  6  1  0
  5  6  1  0
  6  7  2  0
  7  8  1  0
  8  9  2  0
  9  5  1  0
  1 10  1  0
 10 11  1  0
 12 13  3  0
  7 12  1  0
  3 14  1  0
 14 15  1  0
 15 16  2  0
 16 17  1  0
 17 18  2  0
 18 19  1  0
 19 20  2  0
 20 15  1  0
 19 21  1  0
 18 22  1  0
 22 23  1  0
 22 24  1  0
 23 25  1  0
 25 26  1  0
 26 27  1  0
 26 28  1  0
 21 29  1  0
 29 30  1  0
 29 31  2  0
 32 11  1  0
 33 32  1  0
 11 33  1  0
M  END