
          11280715262D 1   1.00000     0.00000     0

 34 36  0     0  0            999 V2000
    3.2625   -4.0625    0.0000 C   0  0  0  0  0  0           0  0  0
    3.2625   -4.8875    0.0000 C   0  0  0  0  0  0           0  0  0
    4.6875   -4.0542    0.0000 C   0  0  0  0  0  0           0  0  0
    5.4000   -3.6417    0.0000 S   0  0  3  0  0  0           0  0  0
    2.5417   -3.6417    0.0000 C   0  0  0  0  0  0           0  0  0
    2.5417   -5.3042    0.0000 C   0  0  0  0  0  0           0  0  0
    3.9750   -3.6500    0.0000 C   0  0  0  0  0  0           0  0  0
    6.8167   -6.1167    0.0000 S   0  0  3  0  0  0           0  0  0
    3.9750   -5.3000    0.0000 C   0  0  0  0  0  0           0  0  0
    4.6875   -4.8875    0.0000 C   0  0  0  0  0  0           0  0  0
    1.8292   -4.0625    0.0000 C   0  0  0  0  0  0           0  0  0
    1.8292   -4.8875    0.0000 C   0  0  0  0  0  0           0  0  0
    6.1042   -6.5292    0.0000 C   0  0  0  0  0  0           0  0  0
    3.9750   -6.1250    0.0000 N   0  0  0  0  0  0           0  0  0
    6.1125   -3.2292    0.0000 O   0  5  0  0  0  0           0  0  0
    5.3917   -6.1250    0.0000 C   0  0  0  0  0  0           0  0  0
    6.1167   -4.0542    0.0000 O   0  0  0  0  0  0           0  0  0
    5.3917   -2.8167    0.0000 O   0  0  0  0  0  0           0  0  0
    7.4042   -5.5292    0.0000 C   0  0  0  0  0  0           0  0  0
    2.5417   -6.1292    0.0000 O   0  0  0  0  0  0           0  0  0
    2.5417   -2.8167    0.0000 O   0  0  0  0  0  0           0  0  0
    6.8167   -5.2917    0.0000 O   0  0  0  0  0  0           0  0  0
    7.5375   -6.5292    0.0000 O   0  0  0  0  0  0           0  0  0
    4.6875   -6.5375    0.0000 C   0  0  0  0  0  0           0  0  0
    3.9667   -2.8250    0.0000 N   0  0  0  0  0  0           0  0  0
    8.2000   -5.7417    0.0000 C   0  0  0  0  0  0           0  0  0
    1.1167   -5.3042    0.0000 C   0  0  0  0  0  0           0  0  0
    1.1167   -3.6500    0.0000 C   0  0  0  0  0  0           0  0  0
    6.9667   -2.7792    0.0000 Na  0  3  0  0  0  0           0  0  0
    6.1125   -7.3625    0.0000 C   0  0  0  0  0  0           0  0  0
    5.3917   -7.7750    0.0000 C   0  0  0  0  0  0           0  0  0
    4.6792   -7.3625    0.0000 C   0  0  0  0  0  0           0  0  0
    0.4042   -4.0667    0.0000 C   0  0  0  0  0  0           0  0  0
    0.4042   -4.8917    0.0000 C   0  0  0  0  0  0           0  0  0
  2  1  2  0     0  0
  3  7  2  0     0  0
  4  3  1  0     0  0
  5  1  1  0     0  0
  6  2  1  0     0  0
  7  1  1  0     0  0
  8 13  1  0     0  0
  9  2  1  0     0  0
 10  3  1  0     0  0
 11  5  1  0     0  0
 12 11  1  0     0  0
 13 16  2  0     0  0
 14  9  1  0     0  0
 15  4  1  0     0  0
 16 24  1  0     0  0
 17  4  2  0     0  0
 18  4  2  0     0  0
 19  8  1  0     0  0
 20  6  2  0     0  0
 21  5  2  0     0  0
 22  8  2  0     0  0
 23  8  2  0     0  0
 24 14  1  0     0  0
 25  7  1  0     0  0
 26 19  2  0     0  0
 27 12  2  0     0  0
 28 11  2  0     0  0
 30 31  2  0     0  0
 31 32  1  0     0  0
 32 24  2  0     0  0
 33 28  1  0     0  0
 34 33  2  0     0  0
  9 10  2  0     0  0
  6 12  1  0     0  0
 34 27  1  0     0  0
 13 30  1  0     0  0
M  CHG  2  15  -1  29   1
M  END