
  SciTegic12231509382D

 27 30  0  0  0  0            999 V2000
    0.2917    0.7475    0.0000 C   0  0
   -1.0028    1.5132    0.0000 C   0  0
    0.2917   -0.7475    0.0000 C   0  0
  -10.1332    3.6909    0.0000 C   0  0
    1.7138   -1.2033    0.0000 S   0  0
   -6.2216    1.4644    0.0000 N   0  0
    1.7138    1.2033    0.0000 C   0  0
    2.5889    0.0182    0.0000 C   0  0
   -2.3155    0.7475    0.0000 C   0  0
  -10.1413    5.1917    0.0000 C   0  0
   -0.9991    2.7132    0.0000 O   0  0
   -8.8299    2.9467    0.0000 C   0  0
   -1.0028   -1.5132    0.0000 C   0  0
  -11.1694    3.0857    0.0000 O   0  0
   -2.3155   -0.7475    0.0000 C   0  0
   -3.6217    1.4865    0.0000 C   0  0
  -11.4428    5.9375    0.0000 C   0  0
   -8.8448    5.9462    0.0000 C   0  0
   -8.8197    1.4467    0.0000 C   0  0
   -7.5360    3.7055    0.0000 C   0  0
   -4.9153    0.7255    0.0000 C   0  0
   -7.5156    0.7056    0.0000 C   0  0
   -6.2319    2.9644    0.0000 C   0  0
  -10.1513    8.1918    0.0000 C   0  0
   -8.8498    7.4462    0.0000 C   0  0
  -11.4478    7.4375    0.0000 C   0  0
  -10.1553    9.3918    0.0000 F   0  0
  1  2  1  0
  1  3  2  0
  3  5  1  0
  1  7  1  0
  5  8  1  0
  7  8  2  0
  2  9  1  0
  4 10  1  0
  2 11  2  0
  4 12  1  0
  3 13  1  0
  4 14  2  0
  9 15  1  0
 13 15  1  0
  9 16  1  0
 10 17  2  0
 10 18  1  0
 12 19  1  0
 12 20  1  0
  6 21  1  0
 16 21  1  0
  6 22  1  0
 19 22  1  0
  6 23  1  0
 20 23  1  0
 18 25  2  0
 24 25  1  0
 17 26  1  0
 24 26  2  0
 24 27  1  0
M  END