
  SciTegic12231509382D

 10 11  0  0  0  0            999 V2000
   27.9556   -7.3530    0.0000 C   0  0
   27.9544   -8.1804    0.0000 C   0  0
   28.6693   -8.5933    0.0000 C   0  0
   28.6675   -6.9403    0.0000 C   0  0
   29.3828   -7.3494    0.0000 C   0  0
   29.3836   -8.1762    0.0000 C   0  0
   30.0989   -8.5872    0.0000 C   0  0
   30.8139   -8.1725    0.0000 N   0  0
   30.8092   -7.3425    0.0000 C   0  0
   30.0933   -6.9353    0.0000 C   0  0
  1  2  2  0
  2  3  1  0
  3  6  2  0
  5  4  2  0
  4  1  1  0
  5  6  1  0
  6  7  1  0
  7  8  1  0
  8  9  1  0
  9 10  1  0
 10  5  1  0
M  END