
  SciTegic06051313522D

 23 25  0  0  0  0            999 V2000
    8.5557   -7.0774    0.0000 S   0  0
    9.2698   -7.4902    0.0000 N   0  0
    9.2698   -8.3161    0.0000 C   0  0
    9.9839   -8.7289    0.0000 C   0  0
    9.9839   -9.5548    0.0000 C   0  0
    9.2697   -9.9678    0.0000 C   0  0
    8.5557   -9.5548    0.0000 C   0  0
    8.5557   -8.7289    0.0000 N   0  0
   10.6981   -8.3161    0.0000 C   0  0
   11.4164   -8.7289    0.0000 N   0  0
   12.8447   -7.0774    0.0000 C   0  0
   13.5589   -7.4902    0.0000 N   0  0
   13.5589   -8.3161    0.0000 C   0  0
   12.8447   -8.7289    0.0000 C   0  0
   12.1305   -8.3161    0.0000 C   0  0
   12.1305   -7.4902    0.0000 N   0  0
   14.1734   -8.8697    0.0000 N   0  0
   13.0172   -9.5394    0.0000 C   0  0
   13.8391   -9.6218    0.0000 C   0  0
    9.9839   -7.0774    0.0000 C   0  0
    7.8402   -7.4898    0.0000 C   0  0
    7.9663   -6.4856    0.0000 O   0  0
    8.9631   -6.3564    0.0000 O   0  0
  1  2  1  0
  3  4  1  0
  4  5  2  0
  5  6  1  0
  6  7  2  0
  7  8  1  0
  3  8  2  0
 11 12  1  0
 12 13  2  0
 13 14  1  0
 14 15  2  0
 15 16  1  0
 11 16  2  0
 18 19  2  0
 17 19  1  0
 13 17  1  0
 14 18  1  0
 10 15  1  0
  9 10  1  0
  4  9  1  0
  2  3  1  0
  2 20  1  0
  1 21  1  0
  1 22  2  0
  1 23  2  0
M  END