
  SciTegic09251318272D

 14 15  0  0  0  0            999 V2000
    1.3376    0.0202    0.0000 C   0  0
    0.5126    0.0202    0.0000 C   0  0
    0.2576    0.8048    0.0000 C   0  0
    0.9251    1.2898    0.0000 C   0  0
    1.5925    0.8048    0.0000 O   0  0
    0.9251    2.1148    0.0000 O   0  0
   -0.5270    1.0598    0.0000 C   0  0
   -1.1401    0.5077    0.0000 N   0  0
   -0.9686   -0.2992    0.0000 C   0  0
   -1.5817   -0.8513    0.0000 C   0  0
   -1.4101   -1.6582    0.0000 C   0  0
   -0.6255   -1.9132    0.0000 C   0  0
   -0.0124   -1.3611    0.0000 C   0  0
   -0.1839   -0.5542    0.0000 C   0  0
  1  2  1  0
  1  5  1  0
  2  3  1  0
  3  4  1  0
  3  7  2  0
  4  5  1  0
  4  6  2  0
  7  8  1  0
  9  8  1  0
 10  9  2  0
 14  9  1  0
 10 11  1  0
 11 12  2  0
 12 13  1  0
 13 14  2  0
M  END