
  SciTegic01181116592D

 63 68  0  0  0  0            999 V2000
   15.8526  -18.8410    0.0000 C   0  0
   16.2738  -19.5531    0.0000 C   0  0
   15.8677  -20.2718    0.0000 C   0  0
   15.0406  -20.2796    0.0000 C   0  0
   14.6213  -19.5627    0.0000 C   0  0
   15.0298  -18.8469    0.0000 C   0  0
   14.6125  -18.1353    0.0000 N   0  0
   13.7916  -18.0540    0.0000 N   0  0
   13.6151  -17.2481    0.0000 C   0  0
   14.3271  -16.8312    0.0000 C   0  0
   14.9434  -17.3796    0.0000 C   0  0
   15.7639  -17.3812    0.0000 C   0  0
   16.1763  -16.6654    0.0000 C   0  0
   17.0006  -16.6657    0.0000 C   0  0
   17.4133  -17.3810    0.0000 C   0  0
   16.9959  -18.0976    0.0000 C   0  0
   16.1730  -18.0937    0.0000 C   0  0
   14.4084  -16.0103    0.0000 C   0  0
   12.8955  -16.8442    0.0000 C   0  0
   12.1859  -17.2651    0.0000 N   0  0
   12.8857  -16.0193    0.0000 O   0  0
   13.7963  -19.5671    0.0000 Cl  0  0
   16.2869  -20.9824    0.0000 Cl  0  0
   18.2383  -17.3828    0.0000 Cl  0  0
   -2.9112  -18.6725    0.0000 C   0  0
   -3.3324  -19.3846    0.0000 C   0  0
   -2.9263  -20.1033    0.0000 C   0  0
   -2.0992  -20.1111    0.0000 C   0  0
   -1.6799  -19.3942    0.0000 C   0  0
   -2.0884  -18.6784    0.0000 C   0  0
   -1.6711  -17.9668    0.0000 N   0  0
   -0.8501  -17.8855    0.0000 N   0  0
   -0.6737  -17.0796    0.0000 C   0  0
   -1.3857  -16.6627    0.0000 C   0  0
   -2.0020  -17.2111    0.0000 C   0  0
   -2.8225  -17.2127    0.0000 C   0  0
   -3.2349  -16.4969    0.0000 C   0  0
   -4.0592  -16.4972    0.0000 C   0  0
   -4.4719  -17.2125    0.0000 C   0  0
   -4.0544  -17.9291    0.0000 C   0  0
   -3.2316  -17.9252    0.0000 C   0  0
   -1.4670  -15.8418    0.0000 C   0  0
    0.0460  -16.6757    0.0000 C   0  0
    0.7555  -17.0966    0.0000 N   0  0
    0.0557  -15.8508    0.0000 O   0  0
   -0.8549  -19.3986    0.0000 Cl  0  0
   -3.3454  -20.8139    0.0000 Cl  0  0
   -5.2969  -17.2143    0.0000 Cl  0  0
    1.4748  -16.6925    0.0000 C   0  0
    2.1844  -17.1134    0.0000 C   0  0
    2.9036  -16.7094    0.0000 C   0  0
    3.6132  -17.1303    0.0000 C   0  0
    4.3325  -16.7262    0.0000 C   0  0
    5.0421  -17.1471    0.0000 C   0  0
    5.7613  -16.7431    0.0000 C   0  0
    6.4709  -17.1639    0.0000 N   0  0
    7.1902  -16.7599    0.0000 C   0  0
    7.8997  -17.1808    0.0000 C   0  0
    8.6190  -16.7767    0.0000 C   0  0
    9.3286  -17.1976    0.0000 C   0  0
   10.0479  -16.7936    0.0000 C   0  0
   10.7574  -17.2144    0.0000 C   0  0
   11.4767  -16.8104    0.0000 C   0  0
 31 32  1  0
 14 15  2  0
  3  4  2  0
 15 16  1  0
 16 17  2  0
 32 33  2  0
 33 34  1  0
 34 35  2  0
 35 31  1  0
 30 31  1  0
 17 12  1  0
 11 12  1  0
 36 37  2  0
  4  5  1  0
 37 38  1  0
 10 18  1  0
 38 39  2  0
  2  3  1  0
 39 40  1  0
  9 19  1  0
 40 41  2  0
 41 36  1  0
 35 36  1  0
  8  9  2  0
 34 42  1  0
 19 20  1  0
 33 43  1  0
  9 10  1  0
 43 44  1  0
 19 21  2  0
 43 45  2  0
 10 11  2  0
 29 46  1  0
  5 22  1  0
 27 47  1  0
 11  7  1  0
 39 48  1  0
  3 23  1  0
 44 49  1  0
  6  7  1  0
 49 50  1  0
 15 24  1  0
 50 51  1  0
  5  6  2  0
 51 52  1  0
  6  1  1  0
 52 53  1  0
 25 26  2  0
 53 54  1  0
 12 13  2  0
 54 55  1  0
 26 27  1  0
 55 56  1  0
  7  8  1  0
 56 57  1  0
 27 28  2  0
 57 58  1  0
 13 14  1  0
 58 59  1  0
 28 29  1  0
 59 60  1  0
  1  2  2  0
 60 61  1  0
 29 30  2  0
 61 62  1  0
 30 25  1  0
 62 63  1  0
 63 20  1  0
M  END