
          11290713132D 1   1.00000     0.00000     0

 35 38  0     0  0            999 V2000
   -0.8806    0.9334    0.0000 C   0  0  0  0  0  0           0  0  0
   -0.8818    0.1060    0.0000 C   0  0  0  0  0  0           0  0  0
   -0.1669   -0.3069    0.0000 C   0  0  0  0  0  0           0  0  0
   -0.1687    1.3461    0.0000 C   0  0  0  0  0  0           0  0  0
   -1.5966   -0.3059    0.0000 O   0  0  0  0  0  0           0  0  0
   -2.3107    0.1071    0.0000 C   0  0  0  0  0  0           0  0  0
   -3.0255   -0.3048    0.0000 C   0  0  0  0  0  0           0  0  0
   -3.7389    0.1105    0.0000 C   0  0  0  0  0  0           0  0  0
   -4.4532   -0.3008    0.0000 C   0  0  0  0  0  0           0  0  0
   -4.4543   -1.1267    0.0000 C   0  0  0  0  0  0           0  0  0
   -3.7351   -1.5396    0.0000 C   0  0  0  0  0  0           0  0  0
   -3.0237   -1.1259    0.0000 C   0  0  0  0  0  0           0  0  0
    1.3248   -0.1422    0.0000 N   0  0  0  0  0  0           0  0  0
    1.8057    0.5194    0.0000 C   0  0  0  0  0  0           0  0  0
    1.3250    1.1812    0.0000 C   0  0  0  0  0  0           0  0  0
    0.5471    0.9286    0.0000 C   0  0  0  0  0  0           0  0  0
    0.5469    0.1106    0.0000 C   0  0  0  0  0  0           0  0  0
    1.5800    1.9658    0.0000 C   0  0  0  0  0  0           0  0  0
    2.3870    2.1372    0.0000 C   0  0  3  0  0  0           0  0  0
    3.1792    2.3542    0.0000 C   0  0  0  0  0  0           0  0  0
    3.3883    3.1522    0.0000 O   0  0  0  0  0  0           0  0  0
    3.7657    1.7740    0.0000 O   0  0  0  0  0  0           0  0  0
    2.5818    1.3355    0.0000 N   0  0  0  0  0  0           0  0  0
    3.3734    1.1034    0.0000 C   0  0  0  0  0  0           0  0  0
    3.5682    0.3017    0.0000 C   0  0  0  0  0  0           0  0  0
    3.9703    1.6729    0.0000 O   0  0  0  0  0  0           0  0  0
    2.1961    2.9398    0.0000 C   0  0  0  0  0  0           0  0  0
    2.7957    3.5065    0.0000 O   0  0  0  0  0  0           0  0  0
    1.4056    3.1758    0.0000 O   0  0  0  0  0  0           0  0  0
    2.9693   -0.2637    0.0000 C   0  0  0  0  0  0           0  0  0
    3.1636   -1.0648    0.0000 C   0  0  0  0  0  0           0  0  0
    3.9559   -1.2976    0.0000 C   0  0  0  0  0  0           0  0  0
    4.5541   -0.7232    0.0000 C   0  0  0  0  0  0           0  0  0
    4.3568    0.0756    0.0000 C   0  0  0  0  0  0           0  0  0
    4.1518   -2.0990    0.0000 Cl  0  0  0  0  0  0           0  0  0
 15 16  1  0     0  0
 17 13  1  0     0  0
  7  8  2  0     0  0
 15 18  1  0     0  0
 16  4  1  0     0  0
 18 19  1  0     0  0
  8  9  1  0     0  0
 19 20  1  0     0  0
  4  1  2  0     0  0
 20 21  1  0     0  0
  9 10  2  0     0  0
 20 22  2  0     0  0
 10 11  1  0     0  0
 19 23  1  0     0  0
  2  5  1  0     0  0
 23 24  1  0     0  0
 11 12  2  0     0  0
 24 25  1  0     0  0
 12  7  1  0     0  0
 24 26  2  0     0  0
  2  3  2  0     0  0
 19 27  1  0     0  0
 16 17  2  0     0  0
 27 28  2  0     0  0
 27 29  1  0     0  0
  5  6  1  0     0  0
 25 30  2  0     0  0
 14 15  2  0     0  0
 30 31  1  0     0  0
  3 17  1  0     0  0
 31 32  2  0     0  0
  6  7  1  0     0  0
 32 33  1  0     0  0
  1  2  1  0     0  0
 33 34  2  0     0  0
 34 25  1  0     0  0
 13 14  1  0     0  0
 32 35  1  0     0  0
M  END