
  SciTegic04191617032D

 29 33  0  0  0  0            999 V2000
    0.0186    0.7828    0.0000 C   0  0
   -0.8574   -0.4287    0.0000 O   0  0
    0.0186   -1.6401    0.0000 C   0  0
    1.4351   -1.1556    0.0000 C   0  0
    1.4351    0.3168    0.0000 O   0  0
    0.7083   14.7020    0.0000 C   0  0
    2.1960   14.5536    0.0000 C   0  0
    2.8276   13.1714    0.0000 C   0  0
   -0.1839   13.4717    0.0000 C   0  0
    0.4496   12.1077    0.0000 C   0  0
    1.9372   11.9593    0.0000 C   0  0
    2.2496   10.4990    0.0000 C   0  0
    0.9512    9.7699    0.0000 N   0  0
   -0.1451   10.7378    0.0000 C   0  0
   -1.3164   10.4772    0.0000 O   0  0
   -1.6776   13.6150    0.0000 C   0  0
   -2.3737   12.6376    0.0000 N   0  0
   -2.1763   14.7065    0.0000 O   0  0
    0.7901    8.2778    0.0000 C   0  0
   -0.5819    7.6715    0.0000 C   0  0
   -0.7429    6.1802    0.0000 C   0  0
    0.4679    5.2953    0.0000 N   0  0
    1.8402    5.9014    0.0000 C   0  0
    2.0012    7.3927    0.0000 C   0  0
    0.3168    3.8022    0.0000 C   0  0
    1.5656    2.8889    0.0000 C   0  0
    1.3979    1.3979    0.0000 C   0  0
   -1.1742    1.6588    0.0000 C   0  0
   -1.0251    3.1871    0.0000 C   0  0
  1  2  1  0
  2  3  1  0
  3  4  1  0
  4  5  1  0
  5  1  1  0
  6  7  2  0
  7  8  1  0
  8 11  2  0
 10  9  2  0
  9  6  1  0
 10 11  1  0
 11 12  1  0
 12 13  1  0
 13 14  1  0
 14 10  1  0
 14 15  2  0
 16 17  1  0
 16 18  2  0
  9 16  1  0
 19 20  1  0
 19 24  1  0
 20 21  1  0
 21 22  1  0
 22 23  1  0
 23 24  1  0
 13 19  1  0
 22 25  1  0
 25 26  1  0
 25 29  1  0
 26 27  1  0
 27  1  1  0
  1 28  1  0
 28 29  1  0
M  END