
  SciTegic01161211252D

 21 24  0  0  0  0            999 V2000
    9.4013  -12.4649    0.0000 C   0  0
    9.4002  -13.2910    0.0000 C   0  0
   10.1139  -13.7032    0.0000 C   0  0
   10.1121  -12.0527    0.0000 C   0  0
   10.8265  -12.4613    0.0000 C   0  0
   10.8299  -13.2884    0.0000 C   0  0
   11.5440  -13.6969    0.0000 C   0  0
   11.5372  -12.0424    0.0000 C   0  0
   12.2560  -12.4554    0.0000 C   0  0  2  0  0  0
   12.2619  -13.2845    0.0000 C   0  0  1  0  0  0
   13.0522  -13.5351    0.0000 C   0  0
   13.5348  -12.8609    0.0000 C   0  0
   13.0426  -12.1937    0.0000 N   0  0
   12.2486  -11.6286    0.0000 H   0  0
   12.2569  -14.1041    0.0000 H   0  0
   13.4335  -11.4695    0.0000 C   0  0
   14.2570  -11.4462    0.0000 C   0  0
   10.1144  -14.5270    0.0000 O   0  0
   10.8282  -14.9385    0.0000 C   0  0
   14.9791  -11.8356    0.0000 C   0  0
   14.9559  -11.0121    0.0000 C   0  0
  4  1  1  0
  5  6  1  0
  2  3  1  0
 10 11  1  0
 11 12  1  0
 12 13  1  0
 13  9  1  0
  3  6  2  0
  9 14  1  6
  1  2  2  0
 10 15  1  6
  5  8  1  0
 13 16  1  0
  6  7  1  0
 16 17  1  0
  7 10  1  0
  3 18  1  0
  9  8  1  0
 18 19  1  0
 20 17  1  0
 21 20  1  0
 17 21  1  0
  9 10  1  0
  5  4  2  0
M  END