
  SciTegic01111613442D

 59 63  0  0  0  0            999 V2000
   -0.6300   -2.6500    0.0000 C   0  0
    3.2300   -0.3900    0.0000 C   0  0
    3.2300   -1.8800    0.0000 C   0  0
   -1.9300   -1.8800    0.0000 C   0  0
    0.6600   -0.3900    0.0000 C   0  0
    0.6600   -1.8700    0.0000 C   0  0
   -2.3800   -4.2600    0.0000 C   0  0  1  0  0  0
    4.1900    0.5300    0.0000 N   0  0
   -3.0100   -2.9400    0.0000 O   0  0
    1.9500    0.3100    0.0000 C   0  0
    1.9500   -2.6500    0.0000 C   0  0
   -0.6300    0.3100    0.0000 C   0  0
   -0.9200   -4.0700    0.0000 C   0  0
   -1.9300   -0.3900    0.0000 C   0  0
   -4.3000    2.7200    0.0000 C   0  0  1  0  0  0
    4.1900    2.1300    0.0000 C   0  0
   -3.1000    3.5700    0.0000 C   0  0  1  0  0  0
   -2.2100    5.6200    0.0000 C   0  0  1  0  0  0
   -3.5200    5.0300    0.0000 C   0  0  1  0  0  0
    4.5074   -2.6667    0.0000 C   0  0
   -3.7300    1.3600    0.0000 C   0  0  1  0  0  0
    5.7441   -4.9537    0.0000 N   0  0
   -0.7000    4.9800    0.0000 C   0  0  2  0  0  0
    4.4660   -4.1670    0.0000 N   0  0
    5.4300    2.9200    0.0000 C   0  0
   -4.8700   -4.7400    0.0000 O   0  0
   -5.7879    3.1064    0.0000 O   0  0
    8.3021   -6.5212    0.0000 N   0  0
   -5.8600   -3.2000    0.0000 C   0  0
   -6.1887    4.5527    0.0000 C   0  0
   -4.6200   -1.6300    0.0000 C   0  0
   -4.9900    0.0000    0.0000 C   0  0  2  0  0  0
    3.9200    5.5200    0.0000 C   0  0
   -0.1213   -4.9656    0.0000 O   0  0
    5.4300    4.5000    0.0000 C   0  0
    3.1522    2.7324    0.0000 O   0  0
    5.7049   -6.4533    0.0000 C   0  0
    7.0624   -4.2380    0.0000 C   0  0
    0.8100    5.4600    0.0000 C   0  0  2  0  0  0
    2.2200    4.6900    0.0000 C   0  0
   -7.3502    4.8541    0.0000 O   0  0
    1.9500    1.5100    0.0000 O   0  0
    1.9500   -3.8500    0.0000 O   0  0
   -0.6300    1.5100    0.0000 O   0  0
    8.3413   -5.0218    0.0000 C   0  0
    6.9839   -7.2370    0.0000 C   0  0
   -4.6058    5.5410    0.0000 O   0  0
   -0.7000    3.7800    0.0000 O   0  0
   -2.2267   -5.4502    0.0000 C   0  0
   -2.9674    0.2131    0.0000 C   0  0
   -1.9516    3.2220    0.0000 C   0  0
   -2.2100    6.8200    0.0000 C   0  0
   -6.5219    0.1638    0.0000 O   0  0
   -2.5544    1.1190    0.0000 C   0  0
    9.3253   -7.1482    0.0000 C   0  0
    6.5322    2.4455    0.0000 C   0  0
   -5.3472    5.4082    0.0000 C   0  0
    0.8100    6.6600    0.0000 C   0  0
   -7.0081    1.2608    0.0000 C   0  0
  2  3  1  0
  3 11  2  0
  4  1  1  0
  5  6  1  0
  6  1  2  0
  7 13  1  0
  8  2  1  0
  9  4  1  0
 10  5  1  0
 11  6  1  0
 12  5  2  0
 13  1  1  0
 14  4  2  0
 15 21  1  0
 16  8  1  0
 17 15  1  0
 18 19  1  0
 19 17  1  0
 20  3  1  0
 21 32  1  0
 22 24  1  0
 23 18  1  0
 24 20  2  0
 25 16  1  0
 26  7  1  0
 15 27  1  1
 28 45  1  0
 29 26  1  0
 30 27  1  0
 31 29  2  0
 32 31  1  0
 33 35  1  0
 34 13  2  0
 35 25  2  0
 36 16  2  0
 37 22  1  0
 38 22  1  0
 39 40  1  0
 40 33  2  0
 41 30  2  0
 42 10  1  0
 43 11  1  0
 44 12  1  0
 45 38  1  0
 46 37  1  0
 19 47  1  6
 23 48  1  6
  7 49  1  6
 50 14  1  0
 17 51  1  1
 18 52  1  6
 32 53  1  6
 21 54  1  6
 55 28  1  0
 56 25  1  0
 57 30  1  0
 39 58  1  1
 59 53  1  0
 12 14  1  0
  9  7  1  0
 10  2  2  0
 46 28  1  0
 39 23  1  0
M  END