
  SciTegic06051315212D

 27 29  0  0  0  0            999 V2000
   36.1531  -16.2035    0.0000 C   0  0
   36.1520  -17.0230    0.0000 C   0  0
   36.8600  -17.4320    0.0000 C   0  0
   37.5697  -17.0225    0.0000 C   0  0
   37.5668  -16.1999    0.0000 C   0  0
   36.8582  -15.7946    0.0000 C   0  0
   36.8564  -18.2465    0.0000 N   0  0
   36.1468  -18.6537    0.0000 C   0  0
   36.1447  -19.4673    0.0000 C   0  0
   36.8505  -19.8799    0.0000 N   0  0
   37.5601  -19.4727    0.0000 C   0  0
   37.5639  -18.6529    0.0000 C   0  0
   36.8472  -20.6971    0.0000 C   0  0
   36.8520  -14.9757    0.0000 N   0  3
   36.1431  -14.5692    0.0000 O   0  0
   37.5585  -14.5650    0.0000 O   0  5
   38.2780  -17.4300    0.0000 N   0  0
   38.9851  -17.0203    0.0000 C   0  0
   39.6934  -17.4278    0.0000 C   0  0
   38.9838  -16.2031    0.0000 O   0  0
   39.6901  -18.2434    0.0000 C   0  0
   40.3976  -18.6508    0.0000 C   0  0
   41.1056  -18.2411    0.0000 C   0  0
   41.1017  -17.4197    0.0000 C   0  0
   40.3936  -17.0160    0.0000 C   0  0
   40.3881  -16.1988    0.0000 Cl  0  0
   41.8073  -17.0075    0.0000 C   0  0
  1  2  2  0
  2  3  1  0
  3  4  2  0
  4  5  1  0
  5  6  2  0
  6  1  1  0
  7  8  1  0
  7 12  1  0
  8  9  1  0
  9 10  1  0
 10 11  1  0
 11 12  1  0
  3  7  1  0
 10 13  1  0
 14 15  2  0
 14 16  1  0
  6 14  1  0
  4 17  1  0
 17 18  1  0
 18 19  1  0
 18 20  2  0
 19 21  2  0
 21 22  1  0
 22 23  2  0
 23 24  1  0
 24 25  2  0
 25 19  1  0
 25 26  1  0
 24 27  1  0
M  CHG  2  14   1  16  -1
M  END