
  SciTegic04191613082D

 39 38  0  0  0  0            999 V2000
    1.2990   -0.7500    0.0000 C   0  0
    1.2990    0.7500    0.0000 C   0  0
    0.0000    1.5000    0.0000 C   0  0
   -1.2990    0.7500    0.0000 C   0  0
   -1.2990   -0.7500    0.0000 C   0  0
    0.0000   -1.5000    0.0000 N   0  3
   -2.5988   -1.5004    0.0000 C   0  0
   -3.8985   -2.2508    0.0000 C   0  0
   -5.1983   -3.0013    0.0000 C   0  0
   -6.4985   -2.2517    0.0000 C   0  0
   -7.7983   -3.0021    0.0000 C   0  0
   -9.0985   -2.2525    0.0000 C   0  0
    2.5988   -1.5004    0.0000 C   0  0
    3.8985   -2.2508    0.0000 C   0  0
    5.1983   -3.0012    0.0000 C   0  0
    6.4985   -2.2516    0.0000 C   0  0
    7.7983   -3.0020    0.0000 C   0  0
    9.0985   -2.2525    0.0000 C   0  0
    0.0000   -2.7000    0.0000 C   0  0
  -10.3982   -3.0029    0.0000 C   0  0
   10.3983   -3.0029    0.0000 C   0  0
  -11.6985   -2.2533    0.0000 C   0  0
   11.6985   -2.2533    0.0000 C   0  0
  -12.9982   -3.0038    0.0000 C   0  0
   12.9982   -3.0037    0.0000 C   0  0
  -14.2985   -2.2542    0.0000 C   0  0
   14.2985   -2.2541    0.0000 C   0  0
  -15.5982   -3.0046    0.0000 C   0  0
  -16.6378   -2.4053    0.0000 C   0  0
   15.5982   -3.0045    0.0000 C   0  0
   16.6378   -2.4052    0.0000 C   0  0
   20.6984   -0.3773    0.0000 C   0  0
   21.9984   -1.1273    0.0000 S   0  0
   19.6590   -0.9770    0.0000 F   0  0
   20.6984    0.8227    0.0000 F   0  0
   19.6593    0.2229    0.0000 F   0  0
   21.9984   -2.3273    0.0000 O   0  5
   23.0378   -0.5276    0.0000 O   0  0
   23.0376   -1.7275    0.0000 O   0  0
  1  2  2  0
  2  3  1  0
  3  4  2  0
  4  5  1  0
  5  6  2  0
  6  1  1  0
  5  7  1  0
  7  8  3  0
  8  9  1  0
  9 10  1  0
 10 11  1  0
 11 12  1  0
  1 13  1  0
 13 14  3  0
 14 15  1  0
 15 16  1  0
 16 17  1  0
 17 18  1  0
  6 19  1  0
 12 20  1  0
 18 21  1  0
 20 22  1  0
 21 23  1  0
 22 24  1  0
 23 25  1  0
 24 26  1  0
 25 27  1  0
 26 28  1  0
 28 29  1  0
 27 30  1  0
 30 31  1  0
 32 33  1  0
 32 34  1  0
 32 35  1  0
 32 36  1  0
 33 37  1  0
 33 38  2  0
 33 39  2  0
M  CHG  2   6   1  37  -1
M  END