
  SciTegic06051313552D

 37 40  0  0  0  0            999 V2000
   11.7859   -4.6596    0.0000 C   0  0
   11.7848   -5.4791    0.0000 C   0  0
   12.4928   -5.8881    0.0000 C   0  0
   12.4911   -4.2507    0.0000 C   0  0
   13.9834   -4.3999    0.0000 C   0  0
   13.1997   -4.6560    0.0000 C   0  0
   13.2022   -5.4813    0.0000 C   0  0
   13.9885   -5.7325    0.0000 N   0  0
   14.4693   -5.0617    0.0000 N   0  0
   14.2455   -6.5083    0.0000 C   0  0
   13.8271   -7.2094    0.0000 C   0  0
   13.0124   -7.1948    0.0000 C   0  0
   12.5934   -7.8956    0.0000 C   0  0
   12.9916   -8.6102    0.0000 C   0  0
   13.8129   -8.6197    0.0000 C   0  0
   14.2282   -7.9183    0.0000 C   0  0
   14.2135   -9.3320    0.0000 C   0  0
   13.7970  -10.0351    0.0000 N   0  0
   14.1976  -10.7473    0.0000 C   0  0
   14.4051   -3.6999    0.0000 N   0  0
   15.2222   -3.7151    0.0000 S   0  0
   15.7088   -4.3715    0.0000 C   0  0
   15.1947   -2.8914    0.0000 O   0  0
   16.0036   -3.4720    0.0000 O   0  0
   15.4637   -5.1531    0.0000 C   0  0
   16.1300   -5.6279    0.0000 C   0  0
   16.7867   -5.1396    0.0000 C   0  0
   16.5241   -4.3648    0.0000 S   0  0
   17.5669   -5.3829    0.0000 Cl  0  0
   12.4844   -3.4377    0.0000 O   0  0
   11.7734   -3.0349    0.0000 C   0  0
   15.0147  -10.7565    0.0000 O   0  0
   13.7811  -11.4504    0.0000 C   0  0
   11.0768   -5.8872    0.0000 F   0  0
   12.9639  -11.4412    0.0000 O   0  0
   13.7767  -12.2661    0.0000 C   0  0
   14.5691  -11.6594    0.0000 C   0  0
  1  2  2  0
  2  3  1  0
  3  7  2  0
  6  4  2  0
  4  1  1  0
  6  7  1  0
  5  6  1  0
  7  8  1  0
  8  9  1  0
  9  5  2  0
  8 10  1  0
 10 11  1  0
 11 12  2  0
 12 13  1  0
 13 14  2  0
 14 15  1  0
 15 16  2  0
 16 11  1  0
 15 17  1  0
 17 18  1  0
 18 19  1  0
  5 20  1  0
 20 21  1  0
 21 22  1  0
 21 23  2  0
 21 24  2  0
 25 26  1  0
 22 25  2  0
 26 27  2  0
 27 28  1  0
 28 22  1  0
 27 29  1  0
  4 30  1  0
 30 31  1  0
 19 32  2  0
 33 19  1  0
  2 34  1  0
 33 35  1  0
 33 36  1  0
 33 37  1  0
M  END