
          11280715082D 1   1.00000     0.00000     0

 32 34  0     0  0            999 V2000
    3.0875   -3.5292    0.0000 C   0  0  0  0  0  0           0  0  0
    3.8000   -2.2792    0.0000 N   0  0  3  0  0  0           0  0  0
    4.5167   -2.6917    0.0000 C   0  0  0  0  0  0           0  0  0
    3.0875   -2.7042    0.0000 C   0  0  0  0  0  0           0  0  0
    3.8042   -3.9417    0.0000 O   0  0  0  0  0  0           0  0  0
    3.4375   -4.8542    0.0000 C   0  0  3  0  0  0           0  0  0
    2.3750   -4.7667    0.0000 O   0  0  0  0  0  0           0  0  0
    2.3750   -3.9417    0.0000 C   0  0  0  0  0  0           0  0  0
    5.2292   -2.2792    0.0000 C   0  0  0  0  0  0           0  0  0
    4.5167   -3.5167    0.0000 O   0  0  0  0  0  0           0  0  0
    5.9417   -2.6917    0.0000 C   0  0  0  0  0  0           0  0  0
    5.2250   -1.4542    0.0000 C   0  0  0  0  0  0           0  0  0
    3.8000   -1.4542    0.0000 C   0  0  0  0  0  0           0  0  0
    2.3750   -2.2917    0.0000 C   0  0  0  0  0  0           0  0  0
    6.6542   -2.2792    0.0000 C   0  0  0  0  0  0           0  0  0
    5.9375   -1.0417    0.0000 C   0  0  0  0  0  0           0  0  0
    6.6542   -1.4542    0.0000 C   0  0  0  0  0  0           0  0  0
    2.3542    0.1833    0.0000 N   0  0  0  0  0  0           0  0  0
    8.0792   -1.4417    0.0000 N   0  0  0  0  0  0           0  0  0
    4.2625   -4.8542    0.0000 C   0  0  0  0  0  0           0  0  0
    3.2250   -5.6542    0.0000 C   0  0  0  0  0  0           0  0  0
    1.6625   -3.5292    0.0000 C   0  0  0  0  0  0           0  0  0
    3.0750   -1.0542    0.0000 C   0  0  0  0  0  0           0  0  0
    1.6625   -2.7042    0.0000 C   0  0  0  0  0  0           0  0  0
    3.0750   -0.2292    0.0000 C   0  0  0  0  0  0           0  0  0
    7.3667   -1.0292    0.0000 C   0  0  0  0  0  0           0  0  0
    2.4250   -5.8542    0.0000 C   0  0  0  0  0  0           0  0  0
    4.6750   -4.1417    0.0000 C   0  0  0  0  0  0           0  0  0
    2.2042   -6.6542    0.0000 C   0  0  0  0  0  0           0  0  0
    5.5000   -4.1417    0.0000 C   0  0  0  0  0  0           0  0  0
    1.4125   -6.8667    0.0000 C   0  0  0  0  0  0           0  0  0
    5.9125   -4.8542    0.0000 C   0  0  0  0  0  0           0  0  0
  2  4  1  0     0  0
  3  2  1  0     0  0
  4  1  1  0     0  0
  5  1  1  0     0  0
  6  5  1  0     0  0
  7  8  1  0     0  0
  8  1  2  0     0  0
  9  3  1  0     0  0
 10  3  2  0     0  0
 11  9  2  0     0  0
 12  9  1  0     0  0
 13  2  1  0     0  0
 14  4  2  0     0  0
 15 11  1  0     0  0
 16 12  2  0     0  0
 17 16  1  0     0  0
 18 25  1  0     0  0
 19 26  1  0     0  0
  6 20  1  0     0  0
  6 21  1  0     0  0
 22  8  1  0     0  0
 23 13  1  0     0  0
 24 22  2  0     0  0
 25 23  1  0     0  0
 26 17  1  0     0  0
 27 21  1  0     0  0
 28 20  1  0     0  0
 29 27  1  0     0  0
 30 28  1  0     0  0
 31 29  1  0     0  0
 32 30  1  0     0  0
  6  7  1  0     0  0
 24 14  1  0     0  0
 17 15  2  0     0  0
M  END