
  Mrv0541 04051115152D          

 26 28  0  0  0  0            999 V2000
   -4.1601    0.3815    0.0000 O   0  0  0  0  0  0  0  0  0  0  0  0
   -3.4456    0.7940    0.0000 C   0  0  0  0  0  0  0  0  0  0  0  0
   -3.4456    1.6190    0.0000 O   0  0  0  0  0  0  0  0  0  0  0  0
   -2.7311    0.3815    0.0000 C   0  0  0  0  0  0  0  0  0  0  0  0
   -2.7311   -0.4435    0.0000 C   0  0  0  0  0  0  0  0  0  0  0  0
   -2.0167    0.7940    0.0000 C   0  0  0  0  0  0  0  0  0  0  0  0
   -1.3022    0.3815    0.0000 C   0  0  0  0  0  0  0  0  0  0  0  0
   -1.3022   -0.4435    0.0000 C   0  0  0  0  0  0  0  0  0  0  0  0
   -2.0167   -0.8560    0.0000 C   0  0  0  0  0  0  0  0  0  0  0  0
   -0.5877   -0.8560    0.0000 C   0  0  0  0  0  0  0  0  0  0  0  0
   -0.5877   -1.6810    0.0000 C   0  0  0  0  0  0  0  0  0  0  0  0
    0.1267   -0.4435    0.0000 C   0  0  0  0  0  0  0  0  0  0  0  0
    0.1267    0.3815    0.0000 C   0  0  0  0  0  0  0  0  0  0  0  0
   -0.5877    0.7940    0.0000 C   0  0  0  0  0  0  0  0  0  0  0  0
    0.8412    0.7940    0.0000 C   0  0  0  0  0  0  0  0  0  0  0  0
    0.8412   -0.8560    0.0000 C   0  0  0  0  0  0  0  0  0  0  0  0
    1.5557   -0.4435    0.0000 C   0  0  0  0  0  0  0  0  0  0  0  0
    2.2702   -0.8560    0.0000 C   0  0  0  0  0  0  0  0  0  0  0  0
    2.8005   -1.4880    0.0000 C   0  0  0  0  0  0  0  0  0  0  0  0
    1.7399   -1.4880    0.0000 C   0  0  0  0  0  0  0  0  0  0  0  0
    2.9846   -0.4435    0.0000 C   0  0  0  0  0  0  0  0  0  0  0  0
    2.9846    0.3815    0.0000 C   0  0  0  0  0  0  0  0  0  0  0  0
    2.2702    0.7940    0.0000 C   0  0  0  0  0  0  0  0  0  0  0  0
    1.5557    0.3815    0.0000 C   0  0  0  0  0  0  0  0  0  0  0  0
    2.8005    1.4260    0.0000 C   0  0  0  0  0  0  0  0  0  0  0  0
    1.7399    1.4260    0.0000 C   0  0  0  0  0  0  0  0  0  0  0  0
  2  1  2  0  0  0  0
  4  2  1  0  0  0  0
  2  3  1  0  0  0  0
  4  6  2  0  0  0  0
  5  4  1  0  0  0  0
  5  9  2  0  0  0  0
  6  7  1  0  0  0  0
  7  8  2  0  0  0  0
  8 10  1  0  0  0  0
  8  9  1  0  0  0  0
 10 11  2  0  0  0  0
 12 10  1  0  0  0  0
 12 16  2  0  0  0  0
 13 12  1  0  0  0  0
 15 13  2  0  0  0  0
 13 14  1  0  0  0  0
 24 15  1  0  0  0  0
 16 17  1  0  0  0  0
 18 17  1  0  0  0  0
 24 17  2  0  0  0  0
 18 20  1  0  0  0  0
 18 21  1  0  0  0  0
 18 19  1  0  0  0  0
 21 22  1  0  0  0  0
 22 23  1  0  0  0  0
 23 25  1  0  0  0  0
 24 23  1  0  0  0  0
 23 26  1  0  0  0  0
M  END