
          11280715102D 1   1.00000     0.00000     0

 23 26  0     0  0            999 V2000
    3.5042   -3.2292    0.0000 N   0  0  3  0  0  0           0  0  0
    2.7917   -3.6417    0.0000 C   0  0  0  0  0  0           0  0  0
    4.2000   -3.6167    0.0000 C   0  0  0  0  0  0           0  0  0
    5.6250   -3.6667    0.0000 C   0  0  0  0  0  0           0  0  0
    4.9292   -3.2375    0.0000 C   0  0  0  0  0  0           0  0  0
    5.6000   -4.4917    0.0000 C   0  0  0  0  0  0           0  0  0
    6.3667   -4.7667    0.0000 N   0  0  3  0  0  0           0  0  0
    6.4125   -3.4417    0.0000 C   0  0  0  0  0  0           0  0  0
    6.8667   -4.1167    0.0000 C   0  0  0  0  0  0           0  0  0
    2.0667   -3.2375    0.0000 N   0  0  0  0  0  0           0  0  0
    4.1667   -4.4417    0.0000 C   0  0  0  0  0  0           0  0  0
    4.8667   -4.8792    0.0000 C   0  0  0  0  0  0           0  0  0
    2.7917   -4.4667    0.0000 O   0  0  0  0  0  0           0  0  0
    0.6417   -4.8917    0.0000 N   0  0  0  0  0  0           0  0  0
    3.4917   -2.4042    0.0000 C   0  0  0  0  0  0           0  0  0
    1.3625   -3.6542    0.0000 C   0  0  0  0  0  0           0  0  0
    4.9292   -2.4042    0.0000 C   0  0  0  0  0  0           0  0  0
    6.6000   -5.5542    0.0000 C   0  0  0  0  0  0           0  0  0
    1.3625   -4.4792    0.0000 C   0  0  0  0  0  0           0  0  0
    4.2125   -1.9917    0.0000 C   0  0  0  0  0  0           0  0  0
   -0.0708   -4.4792    0.0000 C   0  0  0  0  0  0           0  0  0
    0.6417   -3.2417    0.0000 C   0  0  0  0  0  0           0  0  0
   -0.0708   -3.6542    0.0000 C   0  0  0  0  0  0           0  0  0
  2  1  1  0     0  0
  3  1  1  0     0  0
  4  5  1  0     0  0
  5  3  2  0     0  0
  6 12  1  0     0  0
  7  6  1  0     0  0
  8  4  1  0     0  0
  9  8  2  0     0  0
 10  2  1  0     0  0
 11  3  1  0     0  0
 12 11  2  0     0  0
 13  2  2  0     0  0
 14 19  2  0     0  0
 15  1  1  0     0  0
 16 10  1  0     0  0
 17 20  1  0     0  0
 18  7  1  0     0  0
 19 16  1  0     0  0
 20 15  1  0     0  0
 21 23  2  0     0  0
 22 16  2  0     0  0
 23 22  1  0     0  0
 17  5  1  0     0  0
  6  4  2  0     0  0
  9  7  1  0     0  0
 14 21  1  0     0  0
M  END