
  SciTegic06221113272D

 55 60  0  0  0  0            999 V2000
   -3.0054    5.8929    0.0000 C   0  0
   -3.7199    5.4804    0.0000 C   0  0
   -3.7199    4.6554    0.0000 C   0  0
   -3.0054    4.2429    0.0000 C   0  0
   -2.2909    4.6554    0.0000 C   0  0
   -2.2909    5.4804    0.0000 C   0  0
   -1.5764    5.8929    0.0000 C   0  0  2  0  0  0
   -0.8619    5.4804    0.0000 C   0  0  1  0  0  0
   -0.8619    4.6554    0.0000 C   0  0
   -1.5764    4.2429    0.0000 C   0  0
   -1.5764    6.7179    0.0000 C   0  0
   -0.8620    7.1304    0.0000 C   0  0
   -0.1475    6.7179    0.0000 C   0  0  1  0  0  0
   -0.1474    5.8929    0.0000 C   0  0  1  0  0  0
    0.6371    5.6380    0.0000 C   0  0
    1.1221    6.3055    0.0000 C   0  0
    0.6371    6.9729    0.0000 C   0  0  2  0  0  0
    0.8921    7.7575    0.0000 O   0  0
    1.7171    7.7575    0.0000 C   0  0
    1.9306    8.5544    0.0000 C   0  0
   -0.1475    7.5429    0.0000 C   0  0
   -0.1474    5.0679    0.0000 H   0  0
   -0.8619    6.3054    0.0000 H   0  0
   -1.5764    5.0679    0.0000 H   0  0
   -4.4343    4.2429    0.0000 O   0  0
    2.2193    7.1030    0.0000 O   0  0
    2.7275    8.7679    0.0000 C   0  0
    3.3109    8.1845    0.0000 C   0  0
    4.1078    8.3981    0.0000 C   0  0
    4.3213    9.1950    0.0000 C   0  0
    3.7379    9.7784    0.0000 C   0  0
    2.9410    9.5648    0.0000 C   0  0
    5.1182    9.4085    0.0000 N   0  0
    5.3317   10.2054    0.0000 C   0  0
    5.7015    8.8251    0.0000 C   0  0
    6.4984    9.0387    0.0000 C   0  0
    7.0818    8.4553    0.0000 Cl  0  0
    6.1286   10.4189    0.0000 C   0  0
    6.3421   11.2158    0.0000 Cl  0  0
   -5.1488    4.6554    0.0000 C   0  0
   -5.8633    4.2429    0.0000 C   0  0
   -5.1488    5.4804    0.0000 O   0  0
   -6.5777    4.6554    0.0000 C   0  0
   -6.5777    5.4804    0.0000 C   0  0
   -7.2922    5.8929    0.0000 C   0  0
   -8.0067    5.4804    0.0000 C   0  0
   -8.0067    4.6553    0.0000 C   0  0
   -7.2922    4.2428    0.0000 C   0  0
   -8.7212    5.8929    0.0000 N   0  0
   -9.4356    5.4804    0.0000 C   0  0
   -8.7212    6.7179    0.0000 C   0  0
   -9.4356    7.1304    0.0000 C   0  0
   -9.4356    7.9554    0.0000 Cl  0  0
  -10.1501    5.8929    0.0000 C   0  0
  -10.8646    5.4804    0.0000 Cl  0  0
  1  2  1  0
  1  6  2  0
  2  3  2  0
  3  4  1  0
  4  5  2  0
 10  5  1  0
  5  6  1  0
  6  7  1  0
  8  9  1  0
  9 10  1  0
  7 11  1  0
  8  7  1  0
 14  8  1  0
 11 12  1  0
 12 13  1  0
 13 17  1  0
 13 14  1  0
 14 15  1  0
 15 16  1  0
 16 17  1  0
 17 18  1  1
 18 19  1  0
 19 20  1  0
 13 21  1  1
 14 22  1  6
  8 23  1  1
  7 24  1  6
  3 25  1  0
 19 26  2  0
 20 27  1  0
 27 28  1  0
 27 32  2  0
 28 29  2  0
 29 30  1  0
 30 31  2  0
 31 32  1  0
 30 33  1  0
 33 34  1  0
 33 35  1  0
 35 36  1  0
 36 37  1  0
 34 38  1  0
 38 39  1  0
 25 40  1  0
 40 41  1  0
 40 42  2  0
 41 43  1  0
 43 44  1  0
 43 48  2  0
 44 45  2  0
 45 46  1  0
 46 47  2  0
 47 48  1  0
 46 49  1  0
 49 50  1  0
 49 51  1  0
 51 52  1  0
 52 53  1  0
 50 54  1  0
 54 55  1  0
M  END