
  SciTegic01161211272D

 41 43  0  0  0  0            999 V2000
    2.8167   -4.0042    0.0000 S   0  0
   -0.0458   -5.6750    0.0000 S   0  0
    2.0667   -0.3000    0.0000 S   0  0
    4.2250   -0.7000    0.0000 S   0  0
   -2.8958   -3.1917    0.0000 S   0  0
    0.6667   -2.7750    0.0000 O   0  0
   -0.0458   -4.0167    0.0000 C   0  0
   -0.0458   -3.1917    0.0000 C   0  0
    1.3875   -4.0042    0.0000 C   0  0
   -0.7583   -4.4375    0.0000 C   0  0
    1.3792   -3.1875    0.0000 C   0  0
    2.8000   -1.5292    0.0000 C   0  0
    0.6750   -4.4292    0.0000 C   0  0
    3.5167   -1.9375    0.0000 C   0  0
    2.1042   -4.4250    0.0000 O   0  0
   -0.7583   -5.2625    0.0000 O   0  0
    2.7917   -0.7042    0.0000 O   0  0
    2.0917   -2.7750    0.0000 C   0  0
    4.2292   -1.5250    0.0000 O   0  0
   -0.7583   -2.7792    0.0000 C   0  0
   -1.4708   -3.1917    0.0000 C   0  0
   -1.4708   -4.0250    0.0000 C   0  0
    2.0917   -1.9500    0.0000 C   0  0
   -2.1833   -2.7792    0.0000 O   0  0
   -0.4500   -6.3875    0.0000 O   0  0
    3.2292   -4.7250    0.0000 O   0  0
    2.4667    0.4125    0.0000 O   0  0
    5.0500   -0.6875    0.0000 O   0  0
   -3.3125   -2.4792    0.0000 O   0  0
    4.2125    0.1250    0.0000 O   0  0
    3.3917   -0.7042    0.0000 O   0  0
    2.4000   -3.3000    0.0000 O   0  0
    0.1167   -4.9000    0.0000 O   0  0
    0.6750   -6.0750    0.0000 O   0  0
    1.3417    0.1000    0.0000 O   0  0
    1.6667   -1.0250    0.0000 O   0  0
    3.5250   -3.5875    0.0000 O   0  0
   -2.4833   -3.9042    0.0000 O   0  0
   -3.6083   -3.6125    0.0000 O   0  0
    3.5250   -2.7625    0.0000 C   0  0
    2.8125   -3.1792    0.0000 C   0  0
  2 16  1  0
  3 17  1  0
  4 19  1  0
  5 24  1  0
  6 11  1  0
  7 13  1  0
  8  7  1  0
  9 15  1  0
 10  7  2  0
 11  9  1  0
 12 23  2  0
 13  9  1  0
 14 40  2  0
 15  1  1  0
 16 10  1  0
 17 12  1  0
 11 18  1  0
 19 14  1  0
 20  8  2  0
 21 22  2  0
 22 10  1  0
 23 18  1  0
 24 21  1  0
 25  2  1  0
 26  1  1  0
 27  3  1  0
 28  4  1  0
 29  5  1  0
 30  4  2  0
 31  4  2  0
 32  1  2  0
 33  2  2  0
 34  2  2  0
 35  3  2  0
 36  3  2  0
 37  1  2  0
 38  5  2  0
 39  5  2  0
 40 41  1  0
 41 18  2  0
  6  8  1  0
 21 20  1  0
 12 14  1  0
M  END