
  SciTegic06271217572D

 23 24  0  0  0  0            999 V2000
    9.5125   -1.8250    0.0000 O   0  0
    9.1042   -1.1125    0.0000 S   0  0
    8.6913   -1.8224    0.0000 O   0  0
    9.8200   -0.7010    0.0000 C   0  0
    9.8200    0.1240    0.0000 C   0  0
   10.5317    0.5365    0.0000 C   0  0
   11.2475    0.1240    0.0000 C   0  0
   11.2475   -0.7010    0.0000 C   0  0
   10.5317   -1.1135    0.0000 C   0  0
   11.9634   -1.1135    0.0000 C   0  0
   11.9634   -1.9385    0.0000 O   0  0
   12.6751   -0.7010    0.0000 C   0  0
   13.3910   -1.1135    0.0000 S   0  0
   14.1068   -0.7010    0.0000 C   0  0
   14.1068    0.1240    0.0000 N   0  0
   14.8185    0.5365    0.0000 C   0  0
   15.5344    0.1240    0.0000 C   0  0
   15.5344   -0.7010    0.0000 C   0  0
   14.8185   -1.1135    0.0000 N   0  0
   16.2461   -1.1135    0.0000 O   0  0
   14.8185    1.3615    0.0000 C   0  0
    9.1041    0.5365    0.0000 Cl  0  0
    8.3911   -0.6998    0.0000 N   0  0
  3  2  2  0
  4  5  1  0
  5  6  2  0
  6  7  1  0
  7  8  2  0
  8  9  1  0
  4  9  2  0
 10 11  2  0
 10 12  1  0
 14 15  2  0
 15 16  1  0
 16 17  2  0
 17 18  1  0
 18 19  1  0
 14 19  1  0
 18 20  2  0
 16 21  1  0
 13 14  1  0
 12 13  1  0
  8 10  1  0
  5 22  1  0
  4  2  1  0
  2  1  2  0
  2 23  1  0
M  END