
          08180812492D 1   1.00000     0.00000     0

 30 33  0     0  0            999 V2000
   14.5736   -6.8208    0.0000 C   0  0  0  0  0  0           0  0  0
   14.5724   -7.6482    0.0000 C   0  0  0  0  0  0           0  0  0
   15.2872   -8.0610    0.0000 C   0  0  0  0  0  0           0  0  0
   16.0037   -7.6477    0.0000 C   0  0  0  0  0  0           0  0  0
   16.0008   -6.8172    0.0000 C   0  0  0  0  0  0           0  0  0
   15.2854   -6.4080    0.0000 C   0  0  0  0  0  0           0  0  0
   13.8577   -8.0598    0.0000 C   0  0  0  0  0  0           0  0  0
   13.1152   -7.7002    0.0000 N   0  0  3  0  0  0           0  0  0
   13.8570   -8.8851    0.0000 O   0  0  0  0  0  0           0  0  0
   16.7137   -6.4020    0.0000 O   0  0  0  0  0  0           0  0  0
   16.7106   -5.5770    0.0000 C   0  0  0  0  0  0           0  0  0
   17.4253   -5.1666    0.0000 C   0  0  0  0  0  0           0  0  0
   17.4225   -4.3424    0.0000 C   0  0  0  0  0  0           0  0  0
   16.7060   -3.9318    0.0000 C   0  0  0  0  0  0           0  0  0
   15.9907   -4.3514    0.0000 C   0  0  0  0  0  0           0  0  0
   15.9970   -5.1742    0.0000 C   0  0  0  0  0  0           0  0  0
   16.7188   -8.0591    0.0000 C   0  0  0  0  0  0           0  0  0
   17.4326   -7.6454    0.0000 N   0  0  0  0  0  0           0  0  0
   18.1477   -8.0568    0.0000 C   0  0  0  0  0  0           0  0  0
   12.4714   -8.2129    0.0000 C   0  0  0  0  0  0           0  0  0
   11.6652   -8.0288    0.0000 C   0  0  0  0  0  0           0  0  0
   13.1160   -6.8761    0.0000 C   0  0  0  0  0  0           0  0  0
   11.3050   -7.2880    0.0000 C   0  0  0  0  0  0           0  0  0
   12.4699   -6.3610    0.0000 C   0  0  0  0  0  0           0  0  0
   11.6651   -6.5470    0.0000 N   0  0  3  0  0  0           0  0  0
   11.1510   -5.9018    0.0000 C   0  0  3  0  0  0           0  0  0
   11.0258   -5.0828    0.0000 C   0  0  0  0  0  0           0  0  0
   10.3806   -5.5969    0.0000 C   0  0  0  0  0  0           0  0  0
   18.1320   -3.9264    0.0000 C   0  0  0  0  0  0           0  0  0
   18.8452   -3.5116    0.0000 N   0  0  0  0  0  0           0  0  0
 14 15  1  0     0  0
  3  4  2  0     0  0
 15 16  2  0     0  0
 16 11  1  0     0  0
  7  8  1  0     0  0
  4 17  1  0     0  0
 17 18  1  0     0  0
  7  9  2  0     0  0
 18 19  1  0     0  0
  4  5  1  0     0  0
  8 20  1  0     0  0
  5 10  1  0     0  0
 20 21  1  0     0  0
  2  3  1  0     0  0
  8 22  1  0     0  0
 10 11  1  0     0  0
 21 23  1  0     0  0
  5  6  2  0     0  0
 22 24  1  0     0  0
 11 12  2  0     0  0
 23 25  1  0     0  0
 24 25  1  0     0  0
  6  1  1  0     0  0
 25 26  1  0     0  0
 27 26  1  0     0  0
 28 27  1  0     0  0
 26 28  1  0     0  0
 12 13  1  0     0  0
  1  2  2  0     0  0
 13 14  2  0     0  0
  2  7  1  0     0  0
 29 30  3  0     0  0
 13 29  1  0     0  0
M  END