
          11280715012D 1   1.00000     0.00000     0

 28 30  0     0  0            999 V2000
    8.4167   -4.3792    0.0000 N   0  0  0  0  0  0           0  0  0
    4.7542   -3.1375    0.0000 C   0  0  0  0  0  0           0  0  0
    9.6417   -3.8292    0.0000 N   0  0  0  0  0  0           0  0  0
    9.2250   -4.5500    0.0000 C   0  0  0  0  0  0           0  0  0
    8.3292   -3.5542    0.0000 C   0  0  0  0  0  0           0  0  0
    4.7542   -2.3167    0.0000 N   0  0  0  0  0  0           0  0  0
    9.0875   -3.2167    0.0000 C   0  0  0  0  0  0           0  0  0
    1.9042   -2.3167    0.0000 C   0  0  0  0  0  0           0  0  0
    1.9042   -3.1375    0.0000 C   0  0  3  0  0  0           0  0  0
   -0.2375   -4.3792    0.0000 N   0  0  0  0  0  0           0  0  0
    4.0417   -3.5542    0.0000 N   0  0  0  0  0  0           0  0  0
    5.4792   -3.5542    0.0000 N   0  0  0  0  0  0           0  0  0
    1.1917   -3.5542    0.0000 C   0  0  0  0  0  0           0  0  0
    2.6250   -1.9042    0.0000 C   0  0  0  0  0  0           0  0  0
    1.2000   -1.9042    0.0000 C   0  0  0  0  0  0           0  0  0
    1.9125   -0.6667    0.0000 C   0  0  0  0  0  0           0  0  0
    1.1917   -1.0875    0.0000 C   0  0  0  0  0  0           0  0  0
    2.6250   -1.0792    0.0000 C   0  0  0  0  0  0           0  0  0
    1.9167    0.1583    0.0000 F   0  0  0  0  0  0           0  0  0
    3.3292   -3.1375    0.0000 C   0  0  0  0  0  0           0  0  0
    2.6167   -3.5542    0.0000 C   0  0  0  0  0  0           0  0  0
    7.6167   -3.1375    0.0000 C   0  0  0  0  0  0           0  0  0
    0.4792   -4.7875    0.0000 C   0  0  0  0  0  0           0  0  0
   -0.2375   -3.5542    0.0000 C   0  0  0  0  0  0           0  0  0
    1.1917   -4.3750    0.0000 C   0  0  0  0  0  0           0  0  0
    0.4792   -3.1375    0.0000 C   0  0  0  0  0  0           0  0  0
    6.1917   -3.1375    0.0000 C   0  0  0  0  0  0           0  0  0
    6.9042   -3.5542    0.0000 C   0  0  0  0  0  0           0  0  0
  2 12  1  0     0  0
  3  4  1  0     0  0
  4  1  2  0     0  0
  5  1  1  0     0  0
  6  2  2  0     0  0
  7  5  2  0     0  0
  8  9  1  0     0  0
  9 21  1  0     0  0
 10 24  2  0     0  0
 11  2  1  0     0  0
 12 27  1  0     0  0
 13  9  1  0     0  0
 14  8  2  0     0  0
 15  8  1  0     0  0
 16 17  1  0     0  0
 17 15  2  0     0  0
 18 14  1  0     0  0
 19 16  1  0     0  0
 20 11  1  0     0  0
 21 20  1  0     0  0
 22  5  1  0     0  0
 23 25  2  0     0  0
 24 26  1  0     0  0
 25 13  1  0     0  0
 26 13  2  0     0  0
 27 28  1  0     0  0
 28 22  1  0     0  0
  7  3  1  0     0  0
 23 10  1  0     0  0
 18 16  2  0     0  0
M  END