
  CDK    9/16/09,9:58

 17 19  0  0  0  0  0  0  0  0999 V2000
    1.9830   -4.7116    0.0000 C   0  0  0  0  0  0  0  0  0  0  0  0
    1.9818   -5.5393    0.0000 C   0  0  0  0  0  0  0  0  0  0  0  0
    2.6947   -5.9521    0.0000 C   0  0  0  0  0  0  0  0  0  0  0  0
    2.6927   -4.2988    0.0000 C   0  0  0  0  0  0  0  0  0  0  0  0
    3.4109   -4.7077    0.0000 C   0  0  0  0  0  0  0  0  0  0  0  0
    3.4114   -5.5346    0.0000 C   0  0  0  0  0  0  0  0  0  0  0  0
    4.1981   -5.7897    0.0000 N   0  0  0  0  0  0  0  0  0  0  0  0
    4.6839   -5.1203    0.0000 C   0  0  0  0  0  0  0  0  0  0  0  0
    4.1973   -4.4516    0.0000 N   0  0  0  0  0  0  0  0  0  0  0  0
    5.5089   -5.1197    0.0000 N   0  0  0  0  0  0  0  0  0  0  0  0
    5.9218   -5.8338    0.0000 C   0  0  0  0  0  0  0  0  0  0  0  0
    6.7468   -5.8333    0.0000 C   0  0  0  0  0  0  0  0  0  0  0  0
    7.1564   -6.5473    0.0000 C   0  0  0  0  0  0  0  0  0  0  0  0
    7.9806   -6.5471    0.0000 C   0  0  0  0  0  0  0  0  0  0  0  0
    8.3934   -5.8318    0.0000 C   0  0  0  0  0  0  0  0  0  0  0  0
    7.9760   -5.1152    0.0000 C   0  0  0  0  0  0  0  0  0  0  0  0
    7.1531   -5.1190    0.0000 C   0  0  0  0  0  0  0  0  0  0  0  0
  7  8  1  0  0  0  0 
  8  9  2  0  0  0  0 
  9  5  1  0  0  0  0 
  4  1  1  0  0  0  0 
  8 10  1  0  0  0  0 
  5  6  1  0  0  0  0 
 10 11  1  0  0  0  0 
 11 12  1  0  0  0  0 
  2  3  1  0  0  0  0 
 12 13  2  0  0  0  0 
  3  6  2  0  0  0  0 
 13 14  1  0  0  0  0 
  1  2  2  0  0  0  0 
 14 15  2  0  0  0  0 
  5  4  2  0  0  0  0 
 15 16  1  0  0  0  0 
  6  7  1  0  0  0  0 
 16 17  2  0  0  0  0 
 17 12  1  0  0  0  0 
M  END