
  SciTegic12171312552D

 64 72  0  0  0  0            999 V2000
    3.8968   -4.6532    0.0000 C   0  0
    5.1119   -5.3517    0.0000 C   0  0
   15.0969   -4.5843    0.0000 C   0  0
   12.6935   -6.0296    0.0000 C   0  0
   13.5012   -6.0155    0.0000 C   0  0
    6.7288   -5.3511    0.0000 C   0  0
   15.1198   -5.9842    0.0000 O   0  0
    3.8970   -3.2561    0.0000 C   0  0
    4.3028   -3.9565    0.0000 C   0  0
    3.9012   -6.0533    0.0000 O   0  0
   12.2793   -5.3360    0.0000 C   0  0
   13.8936   -5.3056    0.0000 C   0  0
   15.0627   -3.1894    0.0000 C   0  0
    4.3034   -5.3542    0.0000 C   0  0
    5.5157   -4.6481    0.0000 C   0  0
   14.7020   -5.2900    0.0000 C   0  0
   11.2075   -6.8544    0.0000 C   0  0
    3.0938   -4.6599    0.0000 C   0  0
   15.8753   -3.1711    0.0000 C   0  0
    8.5338   -7.2226    0.0000 C   0  0
    8.7455   -5.9250    0.0000 N   0  0
    5.5218   -6.0512    0.0000 C   0  0
   10.4891   -7.2194    0.0000 C   0  0
   11.4709   -5.3505    0.0000 C   0  0
    3.0877   -3.2582    0.0000 C   0  0
    9.1097   -6.6523    0.0000 N   0  0
    6.3235   -4.6471    0.0000 C   0  0
    9.9208   -6.6522    0.0000 N   0  0
    8.5372   -8.0315    0.0000 C   0  0
    6.3281   -6.0508    0.0000 C   0  0
    7.9428   -6.0511    0.0000 N   0  0
   10.4891   -8.0315    0.0000 C   0  0
    2.6857   -3.9666    0.0000 C   0  0
   14.6759   -3.8947    0.0000 C   0  0
    7.5373   -5.3497    0.0000 C   0  0
   11.0793   -6.0556    0.0000 N   0  0
   12.6662   -4.6262    0.0000 C   0  0
    7.8102   -6.8515    0.0000 C   0  0
   15.9026   -4.5711    0.0000 C   0  0
   16.2931   -3.8620    0.0000 C   0  0
    9.5099   -8.6664    0.0000 N   0  0
   13.4724   -4.6128    0.0000 C   0  0
   10.2843   -5.9331    0.0000 N   0  0
   11.1758  -12.3138    0.0000 C   0  0
   10.9311  -16.5789    0.0000 C   0  0
   11.7313  -16.4708    0.0000 C   0  0
   10.3784  -12.4193    0.0000 C   0  0
   10.4364  -15.9382    0.0000 C   0  0
   11.4242  -10.2424    0.0000 N   0  0
   11.5451  -15.0824    0.0000 C   0  0
    9.4501  -14.6612    0.0000 O   0  0
   10.1666   -9.9196    0.0000 C   0  0
   11.3680  -13.6980    0.0000 C   0  0
   12.0419  -15.7198    0.0000 C   0  0
   10.0697  -13.1658    0.0000 C   0  0
   10.2531  -14.5545    0.0000 C   0  0
   10.5608  -13.8068    0.0000 C   0  0
   10.2152  -10.7239    0.0000 C   0  0
   10.9953  -10.9227    0.0000 N   0  0
   11.6729  -12.9514    0.0000 C   0  0
   11.4881  -11.5682    0.0000 C   0  0
   10.9133   -9.6242    0.0000 N   0  0
   10.7450  -15.1938    0.0000 C   0  0
    9.4772   -9.4808    0.0000 C   0  0
 19 13  1  0
 17 36  1  0
 15  2  2  0
 16  7  2  0
 21 31  1  0
 12 16  1  0
  8 25  2  0
 38 20  2  0
 36 24  1  0
 25 33  1  0
 41 32  1  0
 31 38  1  0
 14 10  2  0
 14  1  1  0
 22 30  2  0
 43 28  2  0
 16  3  1  0
  3 39  2  0
 42 37  2  0
 27 15  1  0
 34  3  1  0
  2 22  1  0
 26 21  2  0
 35  6  1  0
 18  1  1  0
 24 11  1  0
  1  9  2  0
 23 17  2  0
 28 23  1  0
  6 27  2  0
 29 20  1  0
 29 41  1  0
  2 14  1  0
  5 12  2  0
  4  5  1  0
 30  6  1  0
 11  4  2  0
 12 42  1  0
 40 19  2  0
 32 23  1  0
 33 18  2  0
 13 34  2  0
  9  8  1  0
 20 26  1  0
 37 11  1  0
 36 43  1  0
 39 40  1  0
 31 35  1  0
 48 45  1  0
 56 51  2  0
 57 56  1  0
 61 44  1  0
 52 58  2  0
 44 47  2  0
 62 52  1  0
 59 49  1  0
 57 53  1  0
 59 61  1  0
 49 62  2  0
 46 54  1  0
 54 50  2  0
 55 57  2  0
 47 55  1  0
 53 60  2  0
 45 46  2  0
 50 63  1  0
 63 48  2  0
 60 44  1  0
 56 63  1  0
 58 59  1  0
 52 64  1  0
 64 41  1  0
M  END