
  Mrv0541 05211314572D          

 37 42  0  0  0  0            999 V2000
   10.4709    1.8389    0.0000 C   0  0  0  0  0  0  0  0  0  0  0  0
   10.4709    1.0139    0.0000 C   0  0  0  0  0  0  0  0  0  0  0  0
    9.7564    0.6014    0.0000 C   0  0  0  0  0  0  0  0  0  0  0  0
    9.0420    1.0139    0.0000 C   0  0  0  0  0  0  0  0  0  0  0  0
    9.7564    2.2514    0.0000 C   0  0  0  0  0  0  0  0  0  0  0  0
    9.0420    1.8389    0.0000 C   0  0  0  0  0  0  0  0  0  0  0  0
    8.3275    2.2514    0.0000 C   0  0  0  0  0  0  0  0  0  0  0  0
    9.7564    3.0764    0.0000 O   0  0  0  0  0  0  0  0  0  0  0  0
    9.0420    3.4889    0.0000 C   0  0  0  0  0  0  0  0  0  0  0  0
    8.3275    3.0764    0.0000 C   0  0  0  0  0  0  0  0  0  0  0  0
    7.6130    3.4889    0.0000 C   0  0  0  0  0  0  0  0  0  0  0  0
    7.6130    4.3139    0.0000 C   0  0  0  0  0  0  0  0  0  0  0  0
    8.3275    4.7264    0.0000 C   0  0  0  0  0  0  0  0  0  0  0  0
    9.0420    4.3139    0.0000 C   0  0  0  0  0  0  0  0  0  0  0  0
    7.6130    1.8389    0.0000 C   0  0  0  0  0  0  0  0  0  0  0  0
    7.6130    1.0139    0.0000 C   0  0  0  0  0  0  0  0  0  0  0  0
    6.8986    0.6014    0.0000 N   0  0  0  0  0  0  0  0  0  0  0  0
    6.1841    1.0139    0.0000 C   0  0  0  0  0  0  0  0  0  0  0  0
    6.8986   -0.2236    0.0000 C   0  0  0  0  0  0  0  0  0  0  0  0
    6.1841   -0.6361    0.0000 C   0  0  0  0  0  0  0  0  0  0  0  0
    6.1841   -1.4611    0.0000 C   0  0  0  0  0  0  0  0  0  0  0  0
    6.8986   -1.8736    0.0000 O   0  0  0  0  0  0  0  0  0  0  0  0
    5.4696   -1.8736    0.0000 N   0  0  0  0  0  0  0  0  0  0  0  0
    5.4696   -2.6986    0.0000 C   0  0  0  0  0  0  0  0  0  0  0  0
    4.7552   -3.1111    0.0000 C   0  0  0  0  0  0  0  0  0  0  0  0
    4.0407   -2.6986    0.0000 N   0  0  0  0  0  0  0  0  0  0  0  0
    4.0407   -1.8736    0.0000 C   0  0  0  0  0  0  0  0  0  0  0  0
    4.7552   -1.4611    0.0000 C   0  0  0  0  0  0  0  0  0  0  0  0
    3.3262   -3.1111    0.0000 C   0  0  0  0  0  0  0  0  0  0  0  0
    3.3262   -3.9361    0.0000 C   0  0  0  0  0  0  0  0  0  0  0  0
    2.6117   -4.3486    0.0000 C   0  0  0  0  0  0  0  0  0  0  0  0
    2.6117   -2.6986    0.0000 C   0  0  0  0  0  0  0  0  0  0  0  0
    1.8973   -3.1111    0.0000 C   0  0  0  0  0  0  0  0  0  0  0  0
    1.8973   -3.9361    0.0000 C   0  0  0  0  0  0  0  0  0  0  0  0
    1.1126   -4.1911    0.0000 N   0  0  0  0  0  0  0  0  0  0  0  0
    0.6277   -3.5236    0.0000 O   0  0  0  0  0  0  0  0  0  0  0  0
    1.1126   -2.8562    0.0000 N   0  0  0  0  0  0  0  0  0  0  0  0
  7 10  1  0  0  0  0
 17 18  1  0  0  0  0
  9  8  1  0  0  0  0
 17 19  1  0  0  0  0
  9 10  2  0  0  0  0
 19 20  1  0  0  0  0
  3  4  2  0  0  0  0
 20 21  1  0  0  0  0
  4  6  1  0  0  0  0
 21 22  2  0  0  0  0
  5  6  2  0  0  0  0
 21 23  1  0  0  0  0
 23 24  1  0  0  0  0
  1  2  2  0  0  0  0
  1  5  1  0  0  0  0
  9 14  1  0  0  0  0
 10 11  1  0  0  0  0
 23 28  1  0  0  0  0
 24 25  1  0  0  0  0
 25 26  1  0  0  0  0
 26 27  1  0  0  0  0
 27 28  1  0  0  0  0
 11 12  2  0  0  0  0
 26 29  1  0  0  0  0
 12 13  1  0  0  0  0
 29 30  1  0  0  0  0
 13 14  2  0  0  0  0
 30 31  2  0  0  0  0
 31 34  1  0  0  0  0
  2  3  1  0  0  0  0
 33 32  1  0  0  0  0
 32 29  2  0  0  0  0
 33 34  1  0  0  0  0
  7 15  1  0  0  0  0
  5  8  1  0  0  0  0
 15 16  1  0  0  0  0
  6  7  1  0  0  0  0
 16 17  1  0  0  0  0
 34 35  2  0  0  0  0
 35 36  1  0  0  0  0
 36 37  1  0  0  0  0
 37 33  2  0  0  0  0
M  END