
  SciTegic05281310212D

 46 47  0  0  0  0            999 V2000
    7.7229   -2.7820    0.0000 C   0  0  2  0  0  0
    8.7094   -2.5700    0.0000 C   0  0  2  0  0  0
    7.3898   -1.9902    0.0000 C   0  0  1  0  0  0
    6.9485   -4.1146    0.0000 S   0  0
    5.8538   -2.2498    0.0000 S   0  0
    9.1161   -1.1855    0.0000 S   0  0
    2.7041   -0.4586    0.0000 S   0  0
    9.3238   -2.8858    0.0000 C   0  0  2  0  0  0
    8.9993   -2.0811    0.0000 O   0  0
    8.0647   -2.3018    0.0000 C   0  0  1  0  0  0
    7.5455   -3.4959    0.0000 O   0  0
    8.4931   -1.7696    0.0000 O   0  0
    6.6759   -2.4965    0.0000 O   0  0
    4.4434    1.2936    0.0000 C   0  0
    6.2476    0.0779    0.0000 C   0  0
    5.4558    0.2942    0.0000 N   0  0
    9.8775   -0.7961    0.0000 O   0  0
    5.0275   -2.0032    0.0000 O   0  0
    6.3600   -4.7290    0.0000 O   0  0
    1.9124   -0.2380    0.0000 O   0  0
    8.7223   -0.4283    0.0000 O   0  0
    9.5141   -1.9513    0.0000 O   0  0
    7.1951   -4.9366    0.0000 O   0  0
    6.7148   -3.2882    0.0000 O   0  0
    6.0918   -1.4278    0.0000 O   0  0
    5.5986   -3.0676    0.0000 O   0  0
    2.4921   -1.2504    0.0000 O   0  0
    2.9204    0.3375    0.0000 O   0  0
    5.2352    1.0859    0.0000 C   0  0
    4.2314    2.0854    0.0000 N   0  0
    3.5045   -0.6663    0.0000 O   0  0
    6.8317    0.6620    0.0000 O   0  0
    3.8679    0.7095    0.0000 O   0  0
    4.0800   -0.0822    0.0000 C   0  0
    9.8819   -3.4959    0.0000 O   0  0
    7.2600   -0.9259    0.0000 O   0  0
    7.4806   -1.7177    0.0000 C   0  0
    4.8717   -0.2899    0.0000 C   0  0
    6.4682   -0.7139    0.0000 C   0  0
    4.8068    2.6694    0.0000 C   0  0
   10.6866   -3.3142    0.0000 C   0  0
    5.6072    2.4618    0.0000 C   0  0
    4.5948    3.4612    0.0000 C   0  0
    5.1789    4.0453    0.0000 C   0  0
    6.1827    3.0372    0.0000 C   0  0
    5.9750    3.8376    0.0000 C   0  0
  2  1  1  0
  3  1  1  0
  4 11  1  0
  5 13  1  0
  6 12  1  0
  7 31  1  0
  8  2  1  0
  9 10  1  0
 10  3  1  0
  1 11  1  1
  2 12  1  1
  3 13  1  6
 14 29  1  0
 15 39  1  0
 16 15  1  0
 17  6  1  0
 18  5  1  0
 19  4  1  0
 20  7  1  0
 21  6  2  0
 22  6  2  0
 23  4  2  0
 24  4  2  0
 25  5  2  0
 26  5  2  0
 27  7  2  0
 28  7  2  0
 29 16  1  0
 30 14  1  0
 31 34  1  0
 32 15  2  0
 33 14  2  0
 34 38  1  0
  8 35  1  6
 36 37  1  0
 10 37  1  1
 38 16  1  0
 39 36  1  0
 40 30  1  0
 41 35  1  0
 42 40  1  0
 43 40  1  0
 44 43  1  0
 45 42  1  0
 46 44  1  0
  9  8  1  0
 45 46  1  0
M  END