
  SciTegic01161211212D

 27 30  0  0  0  0            999 V2000
   -4.6292   -6.8167    0.0000 C   0  0
   -4.6292   -7.6417    0.0000 C   0  0
   -3.9171   -8.0500    0.0000 C   0  0
   -3.9171   -6.4000    0.0000 C   0  0
   -3.2051   -6.8167    0.0000 C   0  0  1  0  0  0
   -3.2041   -7.6417    0.0000 C   0  0
   -2.4930   -8.0510    0.0000 C   0  0
   -1.7785   -7.6398    0.0000 C   0  0
   -2.4951   -6.4010    0.0000 C   0  0  2  0  0  0
   -1.7799   -6.8195    0.0000 C   0  0  2  0  0  0
   -1.7720   -5.1651    0.0000 C   0  0
   -2.4943   -5.5746    0.0000 C   0  0
   -1.0568   -5.5836    0.0000 C   0  0  1  0  0  0
   -1.0649   -6.4130    0.0000 C   0  0  1  0  0  0
   -0.2786   -6.6772    0.0000 C   0  0
    0.2157   -6.0109    0.0000 C   0  0
   -0.2654   -5.3351    0.0000 C   0  0  2  0  0  0
   -5.3430   -8.0552    0.0000 O   0  0
   -3.2125   -5.9917    0.0000 C   0  0
   -1.0625   -4.7583    0.0000 C   0  0
   -0.0027   -4.5530    0.0000 C   0  0
    0.8059   -4.3894    0.0000 O   0  0
   -0.5487   -3.9345    0.0000 C   0  0
   -2.5000   -7.2250    0.0000 H   0  0
   -1.0708   -7.2375    0.0000 H   0  0
   -1.7875   -5.9917    0.0000 H   0  0
    0.5583   -5.3333    0.0000 O   0  0
 11 12  1  0
 13 14  1  0
  1  2  1  0
  1  4  1  0
  2  3  1  0
  5  9  1  0
  6  7  1  0
 14 15  1  0
 15 16  1  0
 16 17  1  0
 17 13  1  0
  7  8  1  0
  2 18  2  0
  8 10  1  0
  5 19  1  1
  9 10  1  0
 13 20  1  1
  3  6  2  0
 17 21  1  1
  5  4  1  0
 21 22  2  0
  5  6  1  0
 21 23  1  0
  9 24  1  6
  9 12  1  0
 14 25  1  6
 10 14  1  0
 10 26  1  1
 13 11  1  0
 17 27  1  0
M  END