
  SciTegic01181116592D

 20 22  0  0  0  0            999 V2000
   -4.8264   -4.0375    0.0000 C   0  0
   -4.8276   -4.8648    0.0000 C   0  0
   -4.1128   -5.2777    0.0000 C   0  0
   -4.1146   -3.6247    0.0000 C   0  0
   -3.3992   -4.0338    0.0000 C   0  0
   -3.3984   -4.8607    0.0000 C   0  0
   -2.6831   -5.2716    0.0000 N   0  0
   -1.9681   -4.8569    0.0000 C   0  0
   -1.9729   -4.0269    0.0000 C   0  0
   -2.6888   -3.6197    0.0000 N   0  0
   -1.2609   -3.6101    0.0000 C   0  0
   -0.5440   -4.0182    0.0000 N   0  0
   -1.2659   -2.7851    0.0000 O   0  0
    0.1680   -3.6014    0.0000 C   0  0
    0.8850   -4.0095    0.0000 C   0  0
    0.8856   -4.8344    0.0000 C   0  0
    1.6017   -5.2425    0.0000 C   0  0
    2.3146   -4.8256    0.0000 C   0  0
    2.3069   -3.9964    0.0000 C   0  0
    1.5903   -3.5920    0.0000 C   0  0
  9 10  2  0
 10  5  1  0
  9 11  1  0
  2  3  1  0
 11 12  1  0
  5  6  1  0
 11 13  2  0
  3  6  2  0
 12 14  1  0
  6  7  1  0
 14 15  1  0
  1  2  2  0
 15 16  2  0
  7  8  2  0
 16 17  1  0
  5  4  2  0
 17 18  2  0
  8  9  1  0
 18 19  1  0
  4  1  1  0
 19 20  2  0
 20 15  1  0
M  END