
  SciTegic12121614132D

 27 29  0  0  0  0            999 V2000
   -2.6111    0.7486    0.0000 C   0  0
   -2.6111   -0.7486    0.0000 C   0  0
   -1.2964   -1.4973    0.0000 C   0  0
   -1.2964    1.4973    0.0000 C   0  0
    0.0000    0.7486    0.0000 C   0  0
    0.0000   -0.7486    0.0000 C   0  0
    1.2964   -1.4973    0.0000 N   0  0
    2.5929   -0.7486    0.0000 C   0  0
    2.5929    0.7486    0.0000 C   0  0
    1.2964    1.4973    0.0000 C   0  0
    3.6321    1.3486    0.0000 C   0  0
    1.2964   -2.6973    0.0000 C   0  0
    3.6321   -1.3486    0.0000 O   0  0
   -3.9091    1.5019    0.0000 N   0  0
   -3.9067    3.0027    0.0000 S   0  0
   -5.2049    3.7560    0.0000 C   0  0
   -6.5055    3.0088    0.0000 C   0  0
   -7.8029    3.7617    0.0000 C   0  0
   -7.7996    5.2617    0.0000 C   0  0
   -6.4990    6.0088    0.0000 C   0  0
   -5.2016    5.2560    0.0000 C   0  0
   -2.8664    3.6008    0.0000 O   0  0
   -2.8685    2.4010    0.0000 O   0  0
   -3.9017    6.0062    0.0000 O   0  0
   -3.9008    7.2062    0.0000 C   0  0
   -9.0977    6.0149    0.0000 C   0  0
  -10.1357    6.6172    0.0000 N   0  0
  1  2  2  0
  2  3  1  0
  3  6  2  0
  5  4  2  0
  4  1  1  0
  5  6  1  0
  5 10  1  0
  6  7  1  0
  7  8  1  0
  8  9  1  0
  9 10  2  0
  9 11  1  0
  7 12  1  0
  8 13  2  0
  1 14  1  0
 14 15  1  0
 15 16  1  0
 16 17  2  0
 17 18  1  0
 18 19  2  0
 19 20  1  0
 20 21  2  0
 21 16  1  0
 15 22  2  0
 15 23  2  0
 21 24  1  0
 24 25  1  0
 19 26  1  0
 26 27  3  0
M  END