
  SciTegic09081514182D

 40 42  0  0  0  0            999 V2000
   -1.2928    2.6973    0.0000 O   0  0
    1.2964    1.4973    0.0000 C   0  0
    0.0000   -0.7486    0.0000 C   0  0
   -6.5121    1.4924    0.0000 C   0  0
  -13.0109    0.7319    0.0000 C   0  0
  -10.4109    0.7361    0.0000 C   0  0
   -1.2964   -1.4973    0.0000 N   0  0
   -5.1852   -3.7608    0.0000 C   0  0
   -3.9122    1.4966    0.0000 C   0  0
   -9.1121    1.4882    0.0000 C   0  0
   -2.6111    0.7486    0.0000 C   0  0
  -16.9145    2.9756    0.0000 C   0  0
   -2.5835   -5.2544    0.0000 C   0  0
    1.2964   -1.4973    0.0000 C   0  0
  -10.6739    2.0858    0.0000 C   0  0
    1.2964   -2.6973    0.0000 F   0  0
   -1.2964    1.4973    0.0000 C   0  0
  -14.3121    1.4798    0.0000 C   0  0
   -3.9141    2.6966    0.0000 O   0  0
  -15.6133    2.2277    0.0000 C   0  0
   -2.6111   -0.7486    0.0000 C   0  0
   -3.8880   -3.0076    0.0000 C   0  0
    2.5929    0.7486    0.0000 C   0  0
  -11.7121    1.4840    0.0000 N   0  3
   -1.2907   -2.9981    0.0000 C   0  0
    2.5929   -0.7486    0.0000 C   0  0
   -2.5870   -3.7544    0.0000 C   0  0
    0.0000    0.7486    0.0000 C   0  0
   -5.1815   -5.2608    0.0000 C   0  0
   -3.8807   -6.0076    0.0000 C   0  0
   -5.2109    0.7445    0.0000 N   0  0
   -7.8109    0.7403    0.0000 C   0  0
  -11.7140    2.6840    0.0000 C   0  0
  -18.2132    2.2235    0.0000 O   0  0
  -19.5144    2.9714    0.0000 C   0  0
  -20.8659    2.3506    0.0000 C   0  0
  -21.8695    3.4654    0.0000 C   0  0
  -21.1193    4.7644    0.0000 O   0  0
  -19.6521    4.4523    0.0000 N   0  0
    5.0929   -0.6216    0.0000 Br  0  5
  7 21  1  0
 30 13  2  0
 31  4  1  0
  9 31  1  0
  8 29  2  0
 13 27  1  0
 28  2  2  0
 20 12  1  0
 18 20  3  0
 14 16  1  0
 14  3  2  0
 11  9  1  0
  5 18  1  0
 26 14  1  0
 17  1  2  0
 32 10  1  0
 29 30  1  0
 24  5  1  0
  4 32  1  0
 27 22  2  0
 22  8  1  0
  7 25  1  0
 28 17  1  0
 11 17  1  0
 24 33  1  0
  6 24  1  0
  2 23  1  0
 25 27  1  0
  3  7  1  0
 10  6  1  0
 24 15  1  0
 23 26  2  0
  9 19  2  0
 21 11  2  0
 28  3  1  0
 12 34  1  0
 34 35  1  0
 35 36  1  0
 36 37  1  0
 37 38  1  0
 38 39  1  0
 39 35  2  0
M  CHG  2  24   1  40  -1
M  END