
  Mrv0541 05211314572D          

107111  0  0  0  0            999 V2000
    5.1244   -1.2210    0.0000 C   0  0  0  0  0  0  0  0  0  0  0  0
    5.1814   -0.3980    0.0000 N   0  0  0  0  0  0  0  0  0  0  0  0
    4.4971    0.0629    0.0000 C   0  0  0  0  0  0  0  0  0  0  0  0
    3.7559   -0.2992    0.0000 C   0  0  0  0  0  0  0  0  0  0  0  0
    3.0716    0.1617    0.0000 C   0  0  0  0  0  0  0  0  0  0  0  0
    2.3303   -0.2005    0.0000 C   0  0  0  0  0  0  0  0  0  0  0  0
    1.6461    0.2604    0.0000 C   0  0  0  0  0  0  0  0  0  0  0  0
    0.9048   -0.1017    0.0000 C   0  0  0  0  0  0  0  0  0  0  0  0
    0.2206    0.3592    0.0000 C   0  0  0  0  0  0  0  0  0  0  0  0
   -0.5207   -0.0030    0.0000 C   0  0  0  0  0  0  0  0  0  0  0  0
   -1.2050    0.4579    0.0000 N   0  0  0  0  0  0  0  0  0  0  0  0
   -1.1479    1.2810    0.0000 C   0  0  0  0  0  0  0  0  0  0  0  0
   -1.9462    0.0958    0.0000 C   0  0  0  0  0  0  0  0  0  0  0  0
   -2.6305    0.5567    0.0000 C   0  0  0  0  0  0  0  0  0  0  0  0
   -3.3718    0.1946    0.0000 C   0  0  0  0  0  0  0  0  0  0  0  0
   -4.0560    0.6555    0.0000 C   0  0  0  0  0  0  0  0  0  0  0  0
   -4.7973    0.2933    0.0000 C   0  0  0  0  0  0  0  0  0  0  0  0
   -5.4815    0.7542    0.0000 C   0  0  0  0  0  0  0  0  0  0  0  0
   -6.2228    0.3921    0.0000 N   0  0  0  0  0  0  0  0  0  0  0  0
   -6.9071    0.8530    0.0000 C   0  0  0  0  0  0  0  0  0  0  0  0
   -7.6483    0.4909    0.0000 C   0  0  0  0  0  0  0  0  0  0  0  0
   -7.7054   -0.3322    0.0000 O   0  0  0  0  0  0  0  0  0  0  0  0
   -8.3326    0.9518    0.0000 N   0  0  0  0  0  0  0  0  0  0  0  0
   -9.0447    0.5352    0.0000 C   0  0  0  0  0  0  0  0  0  0  0  0
   -8.9172   -0.2798    0.0000 C   0  0  0  0  0  0  0  0  0  0  0  0
   -9.5593   -0.7978    0.0000 C   0  0  0  0  0  0  0  0  0  0  0  0
  -10.3289   -0.5008    0.0000 C   0  0  0  0  0  0  0  0  0  0  0  0
  -10.4565    0.3143    0.0000 C   0  0  0  0  0  0  0  0  0  0  0  0
   -9.8144    0.8323    0.0000 C   0  0  0  0  0  0  0  0  0  0  0  0
  -10.0620    1.6193    0.0000 N   0  0  0  0  0  0  0  0  0  0  0  0
   -9.6011    2.3035    0.0000 C   0  0  0  0  0  0  0  0  0  0  0  0
  -10.0176    3.0157    0.0000 O   0  0  0  0  0  0  0  0  0  0  0  0
   -8.7788    2.3698    0.0000 C   0  0  0  0  0  0  0  0  0  0  0  0
   -8.5400    3.1595    0.0000 C   0  0  0  0  0  0  0  0  0  0  0  0
   -7.7368    3.3476    0.0000 C   0  0  0  0  0  0  0  0  0  0  0  0
   -7.1722    2.7460    0.0000 C   0  0  0  0  0  0  0  0  0  0  0  0
   -7.4110    1.9563    0.0000 N   0  0  0  0  0  0  0  0  0  0  0  0
   -8.2142    1.7682    0.0000 C   0  0  0  0  0  0  0  0  0  0  0  0
   -6.2798   -0.4309    0.0000 C   0  0  0  0  0  0  0  0  0  0  0  0
   -5.5956   -0.8918    0.0000 C   0  0  0  0  0  0  0  0  0  0  0  0
   -4.8543   -0.5297    0.0000 O   0  0  0  0  0  0  0  0  0  0  0  0
   -5.6526   -1.7148    0.0000 N   0  0  0  0  0  0  0  0  0  0  0  0
   -4.9358   -2.1233    0.0000 C   0  0  0  0  0  0  0  0  0  0  0  0
   -4.2937   -1.6053    0.0000 C   0  0  0  0  0  0  0  0  0  0  0  0
   -3.5241   -1.9024    0.0000 C   0  0  0  0  0  0  0  0  0  0  0  0
   -3.3965   -2.7175    0.0000 C   0  0  0  0  0  0  0  0  0  0  0  0
   -4.0386   -3.2355    0.0000 C   0  0  0  0  0  0  0  0  0  0  0  0
   -4.8083   -2.9384    0.0000 C   0  0  0  0  0  0  0  0  0  0  0  0
   -5.3660   -3.5463    0.0000 N   0  0  0  0  0  0  0  0  0  0  0  0
   -6.1890   -3.4893    0.0000 C   0  0  0  0  0  0  0  0  0  0  0  0
   -6.5975   -4.2061    0.0000 O   0  0  0  0  0  0  0  0  0  0  0  0
   -6.6576   -2.8103    0.0000 C   0  0  0  0  0  0  0  0  0  0  0  0
   -7.4609   -2.9984    0.0000 C   0  0  0  0  0  0  0  0  0  0  0  0
   -8.0254   -2.3968    0.0000 C   0  0  0  0  0  0  0  0  0  0  0  0
   -7.7867   -1.6071    0.0000 C   0  0  0  0  0  0  0  0  0  0  0  0
   -6.9834   -1.4190    0.0000 N   0  0  0  0  0  0  0  0  0  0  0  0
   -6.4189   -2.0206    0.0000 C   0  0  0  0  0  0  0  0  0  0  0  0
    5.9227   -0.0359    0.0000 C   0  0  0  0  0  0  0  0  0  0  0  0
    6.6069   -0.4968    0.0000 C   0  0  0  0  0  0  0  0  0  0  0  0
    7.3482   -0.1346    0.0000 C   0  0  0  0  0  0  0  0  0  0  0  0
    8.0324   -0.5955    0.0000 C   0  0  0  0  0  0  0  0  0  0  0  0
    8.7737   -0.2334    0.0000 C   0  0  0  0  0  0  0  0  0  0  0  0
    9.4580   -0.6943    0.0000 C   0  0  0  0  0  0  0  0  0  0  0  0
   10.1992   -0.3322    0.0000 N   0  0  0  0  0  0  0  0  0  0  0  0
   10.8835   -0.7931    0.0000 C   0  0  0  0  0  0  0  0  0  0  0  0
   11.6248   -0.4309    0.0000 C   0  0  0  0  0  0  0  0  0  0  0  0
   12.3090   -0.8918    0.0000 O   0  0  0  0  0  0  0  0  0  0  0  0
   11.6818    0.3921    0.0000 N   0  0  0  0  0  0  0  0  0  0  0  0
   10.9650    0.8006    0.0000 C   0  0  0  0  0  0  0  0  0  0  0  0
   10.3229    0.2826    0.0000 C   0  0  0  0  0  0  0  0  0  0  0  0
    9.5532    0.5797    0.0000 C   0  0  0  0  0  0  0  0  0  0  0  0
    9.4257    1.3947    0.0000 C   0  0  0  0  0  0  0  0  0  0  0  0
   10.0678    1.9127    0.0000 C   0  0  0  0  0  0  0  0  0  0  0  0
   10.8374    1.6157    0.0000 C   0  0  0  0  0  0  0  0  0  0  0  0
   11.3952    2.2236    0.0000 N   0  0  0  0  0  0  0  0  0  0  0  0
   12.2182    2.1665    0.0000 C   0  0  0  0  0  0  0  0  0  0  0  0
   12.6267    2.8833    0.0000 O   0  0  0  0  0  0  0  0  0  0  0  0
   12.6868    1.4875    0.0000 C   0  0  0  0  0  0  0  0  0  0  0  0
   13.4900    1.6756    0.0000 C   0  0  0  0  0  0  0  0  0  0  0  0
   14.0546    1.0740    0.0000 C   0  0  0  0  0  0  0  0  0  0  0  0
   13.8158    0.2843    0.0000 C   0  0  0  0  0  0  0  0  0  0  0  0
   13.0126    0.0962    0.0000 N   0  0  0  0  0  0  0  0  0  0  0  0
   12.4480    0.6978    0.0000 C   0  0  0  0  0  0  0  0  0  0  0  0
   17.0010    1.0717    0.0000 O   0  0  0  0  0  0  0  0  0  0  0  0
   17.4135    0.3572    0.0000 C   0  0  0  0  0  0  0  0  0  0  0  0
   18.2385    0.3572    0.0000 O   0  0  0  0  0  0  0  0  0  0  0  0
   17.0010   -0.3572    0.0000 C   0  0  0  0  0  0  0  0  0  0  0  0
   17.4135   -1.0717    0.0000 O   0  0  0  0  0  0  0  0  0  0  0  0
   16.1760   -0.3572    0.0000 O   0  0  0  0  0  0  0  0  0  0  0  0
   21.1849    1.0717    0.0000 O   0  0  0  0  0  0  0  0  0  0  0  0
   21.5974    0.3572    0.0000 C   0  0  0  0  0  0  0  0  0  0  0  0
   22.4224    0.3572    0.0000 O   0  0  0  0  0  0  0  0  0  0  0  0
   21.1849   -0.3572    0.0000 C   0  0  0  0  0  0  0  0  0  0  0  0
   21.5974   -1.0717    0.0000 O   0  0  0  0  0  0  0  0  0  0  0  0
   20.3599   -0.3572    0.0000 O   0  0  0  0  0  0  0  0  0  0  0  0
   -0.2062   -5.8561    0.0000 O   0  0  0  0  0  0  0  0  0  0  0  0
    0.2063   -6.5705    0.0000 C   0  0  0  0  0  0  0  0  0  0  0  0
    1.0313   -6.5705    0.0000 O   0  0  0  0  0  0  0  0  0  0  0  0
   -0.2062   -7.2850    0.0000 C   0  0  0  0  0  0  0  0  0  0  0  0
    0.2063   -7.9995    0.0000 O   0  0  0  0  0  0  0  0  0  0  0  0
   -1.0312   -7.2850    0.0000 O   0  0  0  0  0  0  0  0  0  0  0  0
    3.9777   -5.8561    0.0000 O   0  0  0  0  0  0  0  0  0  0  0  0
    4.3902   -6.5705    0.0000 C   0  0  0  0  0  0  0  0  0  0  0  0
    5.2152   -6.5705    0.0000 O   0  0  0  0  0  0  0  0  0  0  0  0
    3.9777   -7.2850    0.0000 C   0  0  0  0  0  0  0  0  0  0  0  0
    4.3902   -7.9995    0.0000 O   0  0  0  0  0  0  0  0  0  0  0  0
    3.1527   -7.2850    0.0000 O   0  0  0  0  0  0  0  0  0  0  0  0
  1  2  1  0  0  0  0
  2  3  1  0  0  0  0
  3  4  1  0  0  0  0
  4  5  1  0  0  0  0
  5  6  1  0  0  0  0
  6  7  1  0  0  0  0
  7  8  1  0  0  0  0
  8  9  1  0  0  0  0
  9 10  1  0  0  0  0
 10 11  1  0  0  0  0
 11 12  1  0  0  0  0
 11 13  1  0  0  0  0
 13 14  1  0  0  0  0
 14 15  1  0  0  0  0
 15 16  1  0  0  0  0
 16 17  1  0  0  0  0
 17 18  1  0  0  0  0
 18 19  1  0  0  0  0
 19 20  1  0  0  0  0
 20 21  1  0  0  0  0
 21 22  2  0  0  0  0
 21 23  1  0  0  0  0
 23 24  1  0  0  0  0
 24 25  2  0  0  0  0
 25 26  1  0  0  0  0
 26 27  2  0  0  0  0
 27 28  1  0  0  0  0
 28 29  2  0  0  0  0
 29 24  1  0  0  0  0
 29 30  1  0  0  0  0
 30 31  1  0  0  0  0
 31 32  2  0  0  0  0
 31 33  1  0  0  0  0
 33 34  2  0  0  0  0
 34 35  1  0  0  0  0
 35 36  2  0  0  0  0
 36 37  1  0  0  0  0
 37 38  2  0  0  0  0
 38 23  1  0  0  0  0
 38 33  1  0  0  0  0
 19 39  1  0  0  0  0
 39 40  1  0  0  0  0
 40 41  2  0  0  0  0
 40 42  1  0  0  0  0
 42 43  1  0  0  0  0
 43 44  2  0  0  0  0
 44 45  1  0  0  0  0
 45 46  2  0  0  0  0
 46 47  1  0  0  0  0
 47 48  2  0  0  0  0
 48 43  1  0  0  0  0
 48 49  1  0  0  0  0
 49 50  1  0  0  0  0
 50 51  2  0  0  0  0
 50 52  1  0  0  0  0
 52 53  2  0  0  0  0
 53 54  1  0  0  0  0
 54 55  2  0  0  0  0
 55 56  1  0  0  0  0
 56 57  2  0  0  0  0
 57 42  1  0  0  0  0
 57 52  1  0  0  0  0
  2 58  1  0  0  0  0
 58 59  1  0  0  0  0
 59 60  1  0  0  0  0
 60 61  1  0  0  0  0
 61 62  1  0  0  0  0
 62 63  1  0  0  0  0
 63 64  1  0  0  0  0
 64 65  1  0  0  0  0
 65 66  1  0  0  0  0
 66 67  2  0  0  0  0
 66 68  1  0  0  0  0
 68 69  1  0  0  0  0
 69 70  2  0  0  0  0
 70 71  1  0  0  0  0
 71 72  2  0  0  0  0
 72 73  1  0  0  0  0
 73 74  2  0  0  0  0
 74 69  1  0  0  0  0
 74 75  1  0  0  0  0
 75 76  1  0  0  0  0
 76 77  2  0  0  0  0
 76 78  1  0  0  0  0
 78 79  2  0  0  0  0
 79 80  1  0  0  0  0
 80 81  2  0  0  0  0
 81 82  1  0  0  0  0
 82 83  2  0  0  0  0
 83 68  1  0  0  0  0
 83 78  1  0  0  0  0
 84 85  1  0  0  0  0
 85 86  2  0  0  0  0
 85 87  1  0  0  0  0
 87 88  2  0  0  0  0
 87 89  1  0  0  0  0
 90 91  1  0  0  0  0
 91 92  2  0  0  0  0
 91 93  1  0  0  0  0
 93 94  2  0  0  0  0
 93 95  1  0  0  0  0
 96 97  1  0  0  0  0
 97 98  2  0  0  0  0
 97 99  1  0  0  0  0
 99100  2  0  0  0  0
 99101  1  0  0  0  0
102103  1  0  0  0  0
103104  2  0  0  0  0
103105  1  0  0  0  0
105106  2  0  0  0  0
105107  1  0  0  0  0
M  END