
  SciTegic12231509382D

 14 15  0  0  0  0            999 V2000
    2.2140   -0.1610    0.0000 N   0  0
    3.5263   -3.2284    0.0000 N   0  0
    1.4330   -1.2479    0.0000 C   0  0
    1.4330   -0.4186    0.0000 C   0  0
    2.2140   -1.4894    0.0000 C   0  0
    2.7051   -0.8292    0.0000 C   0  0
    0.7165   -1.6504    0.0000 C   0  0
    0.7165    0.0000    0.0000 C   0  0
    2.4635   -2.2784    0.0000 C   0  0
    0.0000   -1.2479    0.0000 C   0  0
    0.0000   -0.4186    0.0000 C   0  0
    3.2767   -2.4474    0.0000 C   0  0
    4.3475   -3.4136    0.0000 C   0  0
    2.9788   -3.8483    0.0000 C   0  0
  1  4  1  0
  1  6  1  0
  2 12  1  0
  2 13  1  0
  2 14  1  0
  3  4  1  0
  3  5  1  0
  3  7  2  0
  4  8  2  0
  5  6  2  0
  5  9  1  0
  7 10  1  0
  8 11  1  0
  9 12  1  0
 10 11  2  0
M  END