
  CDK    9/16/09,9:47

 35 37  0  0  0  0  0  0  0  0999 V2000
   17.4315   -8.1339    0.0000 N   0  0  0  0  0  0  0  0  0  0  0  0
   16.8561   -7.5417    0.0000 C   0  0  0  0  0  0  0  0  0  0  0  0
   16.1147   -7.9099    0.0000 C   0  0  0  0  0  0  0  0  0  0  0  0
   16.8378   -6.7113    0.0000 C   0  0  0  0  0  0  0  0  0  0  0  0
   17.5419   -6.2826    0.0000 C   0  0  0  0  0  0  0  0  0  0  0  0
   18.1388   -7.7072    0.0000 C   0  0  0  0  0  0  0  0  0  0  0  0
   18.8600   -8.1097    0.0000 C   0  0  0  0  0  0  0  0  0  0  0  0
   19.5742   -7.6823    0.0000 C   0  0  0  0  0  0  0  0  0  0  0  0
   20.2944   -8.0816    0.0000 C   0  0  0  0  0  0  0  0  0  0  0  0
   21.0021   -7.6554    0.0000 C   0  0  0  0  0  0  0  0  0  0  0  0
   21.7212   -8.0543    0.0000 C   0  0  0  0  0  0  0  0  0  0  0  0
   22.4342   -7.6314    0.0000 C   0  0  0  0  0  0  0  0  0  0  0  0
   23.1520   -8.0282    0.0000 O   0  0  0  0  0  0  0  0  0  0  0  0
   22.4187   -6.8040    0.0000 O   0  0  0  0  0  0  0  0  0  0  0  0
   19.5545   -6.8600    0.0000 O   0  0  0  0  0  0  0  0  0  0  0  0
   20.9822   -6.8284    0.0000 O   0  0  0  0  0  0  0  0  0  0  0  0
   15.3847   -7.5250    0.0000 C   0  0  0  0  0  0  0  0  0  0  0  0
   14.6625   -7.9149    0.0000 N   0  0  0  0  0  0  0  0  0  0  0  0
   15.3531   -6.7045    0.0000 O   0  0  0  0  0  0  0  0  0  0  0  0
   13.9631   -7.4833    0.0000 C   0  0  0  0  0  0  0  0  0  0  0  0
   13.2338   -7.8726    0.0000 C   0  0  0  0  0  0  0  0  0  0  0  0
   12.5373   -7.4335    0.0000 C   0  0  0  0  0  0  0  0  0  0  0  0
   11.8125   -7.8197    0.0000 C   0  0  0  0  0  0  0  0  0  0  0  0
   11.7865   -8.6458    0.0000 C   0  0  0  0  0  0  0  0  0  0  0  0
   12.4888   -9.0817    0.0000 C   0  0  0  0  0  0  0  0  0  0  0  0
   13.2129   -8.6897    0.0000 C   0  0  0  0  0  0  0  0  0  0  0  0
   13.9883   -6.6586    0.0000 C   0  0  0  0  0  0  0  0  0  0  0  0
   13.2864   -6.2267    0.0000 O   0  0  0  0  0  0  0  0  0  0  0  0
   17.0407   -8.8655    0.0000 C   0  0  0  0  0  0  0  0  0  0  0  0
   16.2288   -8.7194    0.0000 C   0  0  0  0  0  0  0  0  0  0  0  0
   15.6992   -9.3461    0.0000 C   0  0  0  0  0  0  0  0  0  0  0  0
   15.9763  -10.1225    0.0000 C   0  0  0  0  0  0  0  0  0  0  0  0
   16.7883  -10.2686    0.0000 C   0  0  0  0  0  0  0  0  0  0  0  0
   17.3231   -9.6383    0.0000 C   0  0  0  0  0  0  0  0  0  0  0  0
   16.1141   -6.3152    0.0000 C   0  0  0  0  0  0  0  0  0  0  0  0
 12 14  2  0  0  0  0 
  8 15  1  1  0  0  0 
 10 16  1  1  0  0  0 
  3 17  1  0  0  0  0 
 17 18  1  0  0  0  0 
 17 19  2  0  0  0  0 
 18 20  1  0  0  0  0 
 29  1  1  0  0  0  0 
  1  2  1  0  0  0  0 
  2  3  2  0  0  0  0 
  3 30  1  0  0  0  0 
  2  4  1  0  0  0  0 
  4  5  1  0  0  0  0 
  1  6  1  0  0  0  0 
 20 21  1  0  0  0  0 
 21 22  2  0  0  0  0 
 22 23  1  0  0  0  0 
 23 24  2  0  0  0  0 
 24 25  1  0  0  0  0 
 25 26  2  0  0  0  0 
 26 21  1  0  0  0  0 
 20 27  1  1  0  0  0 
 27 28  1  0  0  0  0 
 29 30  2  0  0  0  0 
  6  7  1  0  0  0  0 
  7  8  1  0  0  0  0 
  8  9  1  0  0  0  0 
  9 10  1  0  0  0  0 
 10 11  1  0  0  0  0 
 11 12  1  0  0  0  0 
 29 34  1  0  0  0  0 
 30 31  1  0  0  0  0 
 31 32  1  0  0  0  0 
 32 33  1  0  0  0  0 
 33 34  1  0  0  0  0 
 12 13  1  0  0  0  0 
  4 35  1  0  0  0  0 
M  END