
          11280715222D 1   1.00000     0.00000     0

 36 37  0     1  0            999 V2000
   -3.2750    1.6083    0.0000 P   0  0  3  0  0  0           0  0  0
    0.5792   -1.7792    0.0000 C   0  0  0  0  0  0           0  0  0
    1.3000   -1.3667    0.0000 N   0  0  0  0  0  0           0  0  0
    2.7292   -1.3667    0.0000 C   0  0  0  0  0  0           0  0  0
   -0.1333   -1.3667    0.0000 C   0  0  1  0  0  0           0  0  0
   -0.8458   -1.7792    0.0000 N   0  0  0  0  0  0           0  0  0
    2.0042   -1.7792    0.0000 C   0  0  2  0  0  0           0  0  0
    3.4417   -1.7792    0.0000 N   0  0  0  0  0  0           0  0  0
   -1.5583   -1.3667    0.0000 C   0  0  0  0  0  0           0  0  0
   -2.4833    1.8208    0.0000 O   0  0  0  0  0  0           0  0  0
    2.7292   -3.8417    0.0000 C   0  0  0  0  0  0           0  0  0
   -3.8583    2.1958    0.0000 O   0  0  0  0  0  0           0  0  0
    0.5792   -2.6042    0.0000 O   0  0  0  0  0  0           0  0  0
   -0.1333   -0.5417    0.0000 C   0  0  0  0  0  0           0  0  0
    2.7292   -0.5417    0.0000 O   0  0  0  0  0  0           0  0  0
   -1.5583   -0.5417    0.0000 O   0  0  0  0  0  0           0  0  0
    2.0042   -4.2542    0.0000 O   0  0  0  0  0  0           0  0  0
    2.0042   -2.6042    0.0000 C   0  0  0  0  0  0           0  0  0
   -3.4875    0.8083    0.0000 O   0  0  0  0  0  0           0  0  0
   -4.0833    1.3958    0.0000 O   0  0  0  0  0  0           0  0  0
    2.7292   -3.0167    0.0000 C   0  0  0  0  0  0           0  0  0
   -1.8958    1.2375    0.0000 C   0  0  0  0  0  0           0  0  0
   -0.7208    0.0500    0.0000 C   0  0  0  0  0  0           0  0  0
    4.1542   -1.3667    0.0000 C   0  0  0  0  0  0           0  0  0
    3.4417   -4.2542    0.0000 O   0  0  0  0  0  0           0  0  0
   -0.5000    0.8583    0.0000 C   0  0  0  0  0  0           0  0  0
   -1.5208   -0.1542    0.0000 C   0  0  0  0  0  0           0  0  0
   -2.1125    0.4250    0.0000 C   0  0  0  0  0  0           0  0  0
   -1.0875    1.4500    0.0000 C   0  0  0  0  0  0           0  0  0
    4.8667   -1.7792    0.0000 C   0  0  0  0  0  0           0  0  0
   -2.2708   -1.7792    0.0000 C   0  0  0  0  0  0           0  0  0
    4.8667   -2.6042    0.0000 C   0  0  0  0  0  0           0  0  0
    5.5792   -1.3667    0.0000 C   0  0  0  0  0  0           0  0  0
    6.2917   -1.7750    0.0000 C   0  0  0  0  0  0           0  0  0
    5.5792   -3.0167    0.0000 C   0  0  0  0  0  0           0  0  0
    6.3000   -2.6042    0.0000 C   0  0  0  0  0  0           0  0  0
  2  5  1  0     0  0
  3  2  1  0     0  0
  4  7  1  0     0  0
  5 14  1  1     0  0
  6  5  1  0     0  0
  7  3  1  0     0  0
  8  4  1  0     0  0
  9  6  1  0     0  0
 10  1  1  0     0  0
 11 21  1  0     0  0
 12  1  2  0     0  0
 13  2  2  0     0  0
 14 23  1  0     0  0
 15  4  2  0     0  0
 16  9  2  0     0  0
 17 11  2  0     0  0
  7 18  1  6     0  0
 19  1  1  0     0  0
 20  1  1  0     0  0
 21 18  1  0     0  0
 22 10  1  0     0  0
 23 26  2  0     0  0
 24  8  1  0     0  0
 25 11  1  0     0  0
 26 29  1  0     0  0
 27 28  2  0     0  0
 28 22  1  0     0  0
 29 22  2  0     0  0
 30 24  1  0     0  0
 31  9  1  0     0  0
 32 30  2  0     0  0
 33 30  1  0     0  0
 34 33  2  0     0  0
 35 32  1  0     0  0
 36 34  1  0     0  0
 23 27  1  0     0  0
 36 35  2  0     0  0
M  END