
  SciTegic01181116592D

 18 20  0  0  0  0            999 V2000
   -5.5718  -25.8267    0.0000 C   0  0
   -5.5729  -26.6541    0.0000 C   0  0
   -4.8582  -27.0669    0.0000 C   0  0
   -4.8600  -25.4141    0.0000 C   0  0
   -4.1446  -25.8231    0.0000 C   0  0
   -4.1439  -26.6499    0.0000 C   0  0
   -3.4287  -27.0608    0.0000 N   0  0
   -2.7137  -26.6461    0.0000 C   0  0
   -2.7185  -25.8162    0.0000 C   0  0
   -3.4343  -25.4090    0.0000 N   0  0
   -2.0066  -25.3994    0.0000 C   0  0
   -1.2897  -25.8075    0.0000 N   0  0
   -2.0116  -24.5745    0.0000 O   0  0
   -0.5777  -25.3907    0.0000 C   0  0
    0.1771  -25.7196    0.0000 C   0  0
    0.7253  -25.1033    0.0000 C   0  0
    0.3085  -24.3914    0.0000 C   0  0
   -0.4974  -24.5679    0.0000 C   0  0
  8  9  1  0
  4  1  1  0
  9 10  2  0
 10  5  1  0
  9 11  1  0
  2  3  1  0
 11 12  1  0
  5  6  1  0
 11 13  2  0
  3  6  2  0
 12 14  1  0
 14 15  1  0
  6  7  1  0
  1  2  2  0
  7  8  2  0
  5  4  2  0
 15 16  1  0
 16 17  1  0
 17 18  1  0
 18 14  1  0
M  END