
          11280715132D 1   1.00000     0.00000     0

 32 35  0     0  0            999 V2000
    7.8750   -3.3042    0.0000 C   0  0  0  0  0  0           0  0  0
    7.1625   -2.8917    0.0000 C   0  0  0  0  0  0           0  0  0
    2.4000   -2.1667    0.0000 C   0  0  0  0  0  0           0  0  0
    3.1125   -1.7542    0.0000 C   0  0  0  0  0  0           0  0  0
    2.4000   -3.0000    0.0000 C   0  0  0  0  0  0           0  0  0
    3.1167   -3.4125    0.0000 N   0  0  3  0  0  0           0  0  0
    3.9417   -1.8750    0.0000 N   0  0  0  0  0  0           0  0  0
    7.8750   -4.1292    0.0000 C   0  0  0  0  0  0           0  0  0
    4.4792   -4.3375    0.0000 N   0  0  3  0  0  0           0  0  0
    7.1625   -2.0667    0.0000 N   0  0  3  0  0  0           0  0  0
    2.9792   -0.9417    0.0000 O   0  0  0  0  0  0           0  0  0
    8.5875   -4.5417    0.0000 N   0  0  0  0  0  0           0  0  0
    6.4417   -3.3042    0.0000 O   0  0  0  0  0  0           0  0  0
    4.3000   -1.1417    0.0000 C   0  0  0  0  0  0           0  0  0
    3.8542   -3.0417    0.0000 C   0  0  0  0  0  0           0  0  0
    3.0542   -4.2292    0.0000 C   0  0  0  0  0  0           0  0  0
    3.7125   -0.5667    0.0000 C   0  0  0  0  0  0           0  0  0
    7.1625   -4.5500    0.0000 N   0  0  0  0  0  0           0  0  0
    4.5375   -3.5125    0.0000 C   0  0  0  0  0  0           0  0  0
    3.7375   -4.6917    0.0000 C   0  0  0  0  0  0           0  0  0
    8.5875   -2.8917    0.0000 C   0  0  0  0  0  0           0  0  0
    1.6792   -1.7542    0.0000 C   0  0  0  0  0  0           0  0  0
    5.1542   -4.8000    0.0000 C   0  0  0  0  0  0           0  0  0
    5.8667   -4.3792    0.0000 C   0  0  0  0  0  0           0  0  0
    1.6792   -3.4125    0.0000 C   0  0  0  0  0  0           0  0  0
    9.3042   -4.1292    0.0000 C   0  0  0  0  0  0           0  0  0
    6.4500   -4.9667    0.0000 C   0  0  0  0  0  0           0  0  0
    7.8750   -1.6542    0.0000 C   0  0  0  0  0  0           0  0  0
    6.4417   -1.6542    0.0000 C   0  0  0  0  0  0           0  0  0
    9.3042   -3.3042    0.0000 C   0  0  0  0  0  0           0  0  0
    0.9667   -2.1667    0.0000 C   0  0  0  0  0  0           0  0  0
    0.9667   -3.0000    0.0000 C   0  0  0  0  0  0           0  0  0
  2  1  1  0     0  0
  3  5  1  0     0  0
  4  3  1  0     0  0
  5  6  1  0     0  0
  6 16  1  0     0  0
  7  4  2  0     0  0
  8  1  2  0     0  0
  9 23  1  0     0  0
 10  2  1  0     0  0
 11  4  1  0     0  0
 12  8  1  0     0  0
 13  2  2  0     0  0
 14  7  1  0     0  0
 15 19  1  0     0  0
 16 20  1  0     0  0
 17 11  1  0     0  0
 18  8  1  0     0  0
 19  9  1  0     0  0
 20  9  1  0     0  0
 21  1  1  0     0  0
 22  3  2  0     0  0
 23 24  1  0     0  0
 24 27  1  0     0  0
 25  5  2  0     0  0
 26 30  1  0     0  0
 27 18  1  0     0  0
 28 10  1  0     0  0
 29 10  1  0     0  0
 30 21  2  0     0  0
 31 32  2  0     0  0
 32 25  1  0     0  0
 26 12  2  0     0  0
  6 15  1  0     0  0
 31 22  1  0     0  0
 14 17  2  0     0  0
M  END