
          11280714512D 1   1.00000     0.00000     0

 18 18  0     0  0            999 V2000
    5.9042   -4.5167    0.0000 C   0  0  0  0  0  0           0  0  0
    5.1917   -4.9292    0.0000 O   0  0  0  0  0  0           0  0  0
    5.1875   -3.2792    0.0000 N   0  0  0  0  0  0           0  0  0
    2.3292   -3.2917    0.0000 O   0  0  0  0  0  0           0  0  0
    3.7542   -3.2917    0.0000 C   0  0  3  0  0  0           0  0  0
    3.0417   -3.7042    0.0000 C   0  0  0  0  0  0           0  0  0
    6.6167   -4.9292    0.0000 O   0  0  0  0  0  0           0  0  0
    1.6167   -3.7125    0.0000 C   0  0  0  0  0  0           0  0  0
    5.9042   -3.6917    0.0000 C   0  0  0  0  0  0           0  0  0
    3.7542   -2.4667    0.0000 O   0  0  0  0  0  0           0  0  0
    4.4750   -3.7000    0.0000 C   0  0  0  0  0  0           0  0  0
    6.6250   -5.7542    0.0000 C   0  0  0  0  0  0           0  0  0
    0.9000   -3.3000    0.0000 C   0  0  0  0  0  0           0  0  0
    1.6167   -4.5417    0.0000 C   0  0  0  0  0  0           0  0  0
    5.9125   -6.1667    0.0000 C   0  0  0  0  0  0           0  0  0
    0.9000   -4.9542    0.0000 C   0  0  0  0  0  0           0  0  0
    0.1875   -3.7125    0.0000 C   0  0  0  0  0  0           0  0  0
    0.1875   -4.5417    0.0000 C   0  0  0  0  0  0           0  0  0
  2  1  2  0     0  0
  3  9  1  0     0  0
  4  6  1  0     0  0
  5 11  1  0     0  0
  6  5  1  0     0  0
  7  1  1  0     0  0
  8  4  1  0     0  0
  9  1  1  0     0  0
 10  5  1  0     0  0
 11  3  1  0     0  0
 12  7  1  0     0  0
 13  8  2  0     0  0
 14  8  1  0     0  0
 15 12  1  0     0  0
 16 14  2  0     0  0
 17 13  1  0     0  0
 18 16  1  0     0  0
 17 18  2  0     0  0
M  END