
          11280715352D 1   1.00000     0.00000     0

 28 31  0     1  0            999 V2000
    5.1042   -3.6792    0.0000 C   0  0  1  0  0  0           0  0  0
    5.1042   -2.8542    0.0000 C   0  0  0  0  0  0           0  0  0
    5.8167   -4.0792    0.0000 C   0  0  2  0  0  0           0  0  0
    6.5292   -1.2042    0.0000 N   0  0  3  0  0  0           0  0  0
    5.8167   -4.9042    0.0000 C   0  0  2  0  0  0           0  0  0
    4.3917   -4.0792    0.0000 C   0  0  2  0  0  0           0  0  0
    5.8167   -2.4417    0.0000 C   0  0  0  0  0  0           0  0  0
    4.3917   -4.9042    0.0000 C   0  0  1  0  0  0           0  0  0
    7.0917   -4.4917    0.0000 O   0  0  0  0  0  0           0  0  0
    5.1042   -5.3167    0.0000 C   0  0  0  0  0  0           0  0  0
    5.8167   -1.6167    0.0000 C   0  0  1  0  0  0           0  0  0
    6.6042   -5.1667    0.0000 C   0  0  0  0  0  0           0  0  0
    6.6042   -3.8292    0.0000 C   0  0  1  0  0  0           0  0  0
    6.5292   -0.3792    0.0000 C   0  0  2  0  0  0           0  0  0
    7.2542   -1.6167    0.0000 C   0  0  0  0  0  0           0  0  0
    3.6917   -3.6792    0.0000 C   0  0  0  0  0  0           0  0  0
    3.6792   -5.3167    0.0000 C   0  0  0  0  0  0           0  0  0
    5.1167   -0.3792    0.0000 C   0  0  0  0  0  0           0  0  0
    5.1167   -1.2042    0.0000 C   0  0  0  0  0  0           0  0  0
    5.8167    0.0333    0.0000 C   0  0  0  0  0  0           0  0  0
    6.8667   -3.0417    0.0000 C   0  0  0  0  0  0           0  0  0
    7.2542    0.0333    0.0000 C   0  0  0  0  0  0           0  0  0
    2.9792   -4.0792    0.0000 C   0  0  0  0  0  0           0  0  0
    2.9667   -4.9042    0.0000 C   0  0  0  0  0  0           0  0  0
    4.3792   -5.7292    0.0000 H   0  0  0  0  0  0           0  0  0
    5.8167   -5.7292    0.0000 H   0  0  0  0  0  0           0  0  0
    5.8167   -3.2542    0.0000 H   0  0  0  0  0  0           0  0  0
    4.3917   -3.2542    0.0000 H   0  0  0  0  0  0           0  0  0
  1  2  1  1     0  0
  3  1  1  0     0  0
  4 11  1  0     0  0
  5  3  1  0     0  0
  6  1  1  0     0  0
  7  2  2  0     0  0
  8  6  1  0     0  0
  9 13  1  0     0  0
 10  8  1  0     0  0
 11  7  1  1     0  0
 12  5  1  0     0  0
 13  3  1  0     0  0
 14  4  1  0     0  0
 15  4  1  0     0  0
 16  6  1  0     0  0
 17  8  1  0     0  0
 18 19  1  0     0  0
 19 11  1  0     0  0
 20 18  1  0     0  0
 13 21  1  6     0  0
 14 22  1  6     0  0
 23 16  1  0     0  0
 24 23  1  0     0  0
  8 25  1  6     0  0
  5 26  1  6     0  0
  3 27  1  6     0  0
  6 28  1  1     0  0
  5 10  1  0     0  0
 12  9  1  0     0  0
 17 24  1  0     0  0
 14 20  1  0     0  0
M  END