
  SciTegic01091216402D

  7  7  0  0  0  0            999 V2000
    0.4234   -3.4021    0.0000 C   0  0
    0.4222   -4.2290    0.0000 N   0  0
    1.1365   -4.6417    0.0000 C   0  0
    1.8526   -4.2285    0.0000 C   0  0
    1.8497   -3.3985    0.0000 N   0  0
    1.1347   -2.9896    0.0000 C   0  0
    1.1323   -2.1651    0.0000 N   0  0
  3  4  2  0
  4  5  1  0
  2  3  1  0
  5  6  2  0
  6  1  1  0
  1  2  2  0
  6  7  1  0
M  END