
  CDK    9/16/09,9:46

 51 57  0  0  0  0  0  0  0  0999 V2000
    6.2770  -25.0835    0.0000 O   0  0  0  0  0  0  0  0  0  0  0  0
    5.4520  -25.0770    0.0000 C   0  0  0  0  0  0  0  0  0  0  0  0
    5.0503  -24.3593    0.0000 C   0  0  0  0  0  0  0  0  0  0  0  0
    4.2261  -24.3524    0.0000 C   0  0  0  0  0  0  0  0  0  0  0  0
    3.8070  -25.0641    0.0000 C   0  0  0  0  0  0  0  0  0  0  0  0
    4.2182  -25.7842    0.0000 C   0  0  0  0  0  0  0  0  0  0  0  0
    5.0411  -25.7876    0.0000 C   0  0  0  0  0  0  0  0  0  0  0  0
    2.9820  -25.0547    0.0000 N   0  0  0  0  0  0  0  0  0  0  0  0
    2.5755  -24.3357    0.0000 C   0  0  0  0  0  0  0  0  0  0  0  0
    1.7541  -24.3283    0.0000 C   0  0  0  0  0  0  0  0  0  0  0  0
    1.3330  -25.0382    0.0000 N   0  0  0  0  0  0  0  0  0  0  0  0
    1.7395  -25.7572    0.0000 C   0  0  0  0  0  0  0  0  0  0  0  0
    2.5671  -25.7663    0.0000 C   0  0  0  0  0  0  0  0  0  0  0  0
    0.5122  -25.0315    0.0000 C   0  0  0  0  0  0  0  0  0  0  0  0
    0.1078  -24.3112    0.0000 C   0  0  0  0  0  0  0  0  0  0  0  0
   -0.7164  -24.3022    0.0000 C   0  0  0  0  0  0  0  0  0  0  0  0
   -1.1372  -25.0129    0.0000 C   0  0  0  0  0  0  0  0  0  0  0  0
   -0.7277  -25.7340    0.0000 C   0  0  0  0  0  0  0  0  0  0  0  0
    0.0951  -25.7394    0.0000 C   0  0  0  0  0  0  0  0  0  0  0  0
   -1.9637  -25.0103    0.0000 N   0  0  0  0  0  0  0  0  0  0  0  0
   -2.4426  -24.3385    0.0000 C   0  0  0  0  0  0  0  0  0  0  0  0
   -3.2291  -24.5858    0.0000 N   0  0  0  0  0  0  0  0  0  0  0  0
   -3.2370  -25.4113    0.0000 N   0  0  0  0  0  0  0  0  0  0  0  0
   -2.4547  -25.6733    0.0000 C   0  0  0  0  0  0  0  0  0  0  0  0
   -2.1805  -23.5562    0.0000 O   0  0  0  0  0  0  0  0  0  0  0  0
   -3.9549  -24.1935    0.0000 C   0  0  0  0  0  0  0  0  0  0  0  0
   -3.9781  -23.3689    0.0000 C   0  0  0  0  0  0  0  0  0  0  0  0
   -4.7039  -22.9766    0.0000 C   0  0  0  0  0  0  0  0  0  0  0  0
   -4.6575  -24.6260    0.0000 C   0  0  0  0  0  0  0  0  0  0  0  0
   -5.3833  -24.2337    0.0000 C   0  0  0  0  0  0  0  0  0  0  0  0
   -4.6342  -25.4507    0.0000 O   0  0  0  0  0  0  0  0  0  0  0  0
    6.6838  -25.8013    0.0000 C   0  0  0  0  0  0  0  0  0  0  0  0
    7.7204  -26.8413    0.0000 C   0  0  0  0  0  0  0  0  0  0  0  0
    8.5454  -26.8413    0.0000 C   0  0  0  0  0  0  0  0  0  0  0  0
    8.8022  -26.0572    0.0000 O   0  0  0  0  0  0  0  0  0  0  0  0
    8.1329  -25.5705    0.0000 C   0  0  0  0  0  0  0  0  0  0  0  0
    7.4679  -26.0572    0.0000 C   0  0  0  0  0  0  0  0  0  0  0  0
    7.8360  -28.0791    0.0000 C   0  0  0  0  0  0  0  0  0  0  0  0
    7.8349  -28.9065    0.0000 C   0  0  0  0  0  0  0  0  0  0  0  0
    8.5497  -29.3193    0.0000 C   0  0  0  0  0  0  0  0  0  0  0  0
    9.2661  -28.9060    0.0000 C   0  0  0  0  0  0  0  0  0  0  0  0
    9.2633  -28.0755    0.0000 C   0  0  0  0  0  0  0  0  0  0  0  0
    8.5479  -27.6663    0.0000 C   0  0  0  0  0  0  0  0  0  0  0  0
    8.5495  -30.1443    0.0000 F   0  0  0  0  0  0  0  0  0  0  0  0
    7.1215  -27.6668    0.0000 F   0  0  0  0  0  0  0  0  0  0  0  0
    9.2587  -26.4267    0.0000 C   0  0  0  0  0  0  0  0  0  0  0  0
    9.2562  -25.6017    0.0000 N   0  0  0  0  0  0  0  0  0  0  0  0
    9.9219  -25.1183    0.0000 C   0  0  0  0  0  0  0  0  0  0  0  0
    9.6646  -24.3345    0.0000 N   0  0  0  0  0  0  0  0  0  0  0  0
    8.8396  -24.3369    0.0000 C   0  0  0  0  0  0  0  0  0  0  0  0
    8.5871  -25.1223    0.0000 N   0  0  0  0  0  0  0  0  0  0  0  0
 17 20  1  0  0  0  0 
 10 11  1  0  0  0  0 
 21 25  2  0  0  0  0 
 11 12  1  0  0  0  0 
 22 26  1  0  0  0  0 
 12 13  1  0  0  0  0 
 26 27  1  6  0  0  0 
  5  8  1  0  0  0  0 
 27 28  1  0  0  0  0 
  6  7  2  0  0  0  0 
 26 29  1  0  0  0  0 
  7  2  1  0  0  0  0 
 29 30  1  0  0  0  0 
 14 15  2  0  0  0  0 
 29 31  1  1  0  0  0 
  8  9  1  0  0  0  0 
  1 32  1  0  0  0  0 
 33 34  1  0  0  0  0 
 15 16  1  0  0  0  0 
  3  4  1  0  0  0  0 
 16 17  2  0  0  0  0 
 17 18  1  0  0  0  0 
 34 35  1  0  0  0  0 
 35 36  1  0  0  0  0 
 36 37  1  0  0  0  0 
 37 33  1  0  0  0  0 
  4  5  2  0  0  0  0 
 18 19  2  0  0  0  0 
 38 39  2  0  0  0  0 
 19 14  1  0  0  0  0 
 39 40  1  0  0  0  0 
 11 14  1  0  0  0  0 
 40 41  2  0  0  0  0 
 20 21  1  0  0  0  0 
 41 42  1  0  0  0  0 
  2  3  2  0  0  0  0 
 42 43  2  0  0  0  0 
 43 38  1  0  0  0  0 
 43 34  1  0  0  0  0 
  5  6  1  0  0  0  0 
 40 44  1  0  0  0  0 
  1  2  1  0  0  0  0 
 38 45  1  0  0  0  0 
  8 13  1  0  0  0  0 
 34 46  1  6  0  0  0 
  9 10  1  0  0  0  0 
 46 47  1  0  0  0  0 
 47 48  1  0  0  0  0 
 21 22  1  0  0  0  0 
 22 23  1  0  0  0  0 
 23 24  2  0  0  0  0 
 24 20  1  0  0  0  0 
 48 49  2  0  0  0  0 
 49 50  1  0  0  0  0 
 50 51  2  0  0  0  0 
 51 47  1  0  0  0  0 
 37 32  1  0  0  0  0 
M  END