
          08180812482D 1   1.00000     0.00000     0

105108  0     1  0            999 V2000
   -3.1487   -0.2888    0.0000 C   0  0  1  0  0  0           0  0  0
   -2.4343    0.1237    0.0000 C   0  0  0  0  0  0           0  0  0
   -3.8632    0.1237    0.0000 N   0  0  0  0  0  0           0  0  0
   -4.5776   -0.2888    0.0000 C   0  0  0  0  0  0           0  0  0
   -5.2922    0.1237    0.0000 C   0  0  0  0  0  0           0  0  0
   -4.5776   -1.1137    0.0000 O   0  0  0  0  0  0           0  0  0
   -3.1487   -1.1137    0.0000 C   0  0  0  0  0  0           0  0  0
   -2.4343   -1.5262    0.0000 C   0  0  0  0  0  0           0  0  0
   -2.4366   -2.3523    0.0000 C   0  0  0  0  0  0           0  0  0
   -1.7229   -2.7647    0.0000 C   0  0  0  0  0  0           0  0  0
   -1.0075   -2.3522    0.0000 C   0  0  0  0  0  0           0  0  0
   -1.0101   -1.5229    0.0000 C   0  0  0  0  0  0           0  0  0
   -1.7198   -0.2888    0.0000 N   0  0  0  0  0  0           0  0  0
   -2.4343    0.9487    0.0000 O   0  0  0  0  0  0           0  0  0
   -1.7198   -1.1137    0.0000 C   0  0  0  0  0  0           0  0  0
   -1.0053    0.1237    0.0000 C   0  0  2  0  0  0           0  0  0
   -0.2908   -0.2888    0.0000 C   0  0  0  0  0  0           0  0  0
   -1.0053    0.9487    0.0000 C   0  0  1  0  0  0           0  0  0
   -0.2908    1.3612    0.0000 O   0  0  0  0  0  0           0  0  0
   -1.7198    1.3612    0.0000 C   0  0  0  0  0  0           0  0  0
   -0.2908   -1.1137    0.0000 O   0  0  0  0  0  0           0  0  0
    0.4236    0.1237    0.0000 N   0  0  0  0  0  0           0  0  0
    1.1381   -0.2888    0.0000 C   0  0  0  0  0  0           0  0  0
    1.8525    0.1237    0.0000 C   0  0  0  0  0  0           0  0  0
    2.5671   -0.2888    0.0000 N   0  0  0  0  0  0           0  0  0
    1.8525    0.9487    0.0000 O   0  0  0  0  0  0           0  0  0
    3.2815    0.1237    0.0000 C   0  0  2  0  0  0           0  0  0
    3.9960   -0.2888    0.0000 C   0  0  0  0  0  0           0  0  0
    3.2815    0.9487    0.0000 C   0  0  0  0  0  0           0  0  0
    3.9960    1.3612    0.0000 C   0  0  3  0  0  0           0  0  0
    3.9960    2.1862    0.0000 C   0  0  0  0  0  0           0  0  0
    4.7104    0.9487    0.0000 C   0  0  0  0  0  0           0  0  0
    3.9960   -1.1137    0.0000 O   0  0  0  0  0  0           0  0  0
    4.7104    0.1237    0.0000 N   0  0  0  0  0  0           0  0  0
    5.4249   -0.2888    0.0000 C   0  0  0  0  0  0           0  0  0
    6.1393    0.1237    0.0000 C   0  0  0  0  0  0           0  0  0
    6.8539   -0.2888    0.0000 N   0  0  0  0  0  0           0  0  0
    6.1393    0.9487    0.0000 O   0  0  0  0  0  0           0  0  0
    7.5683    0.1237    0.0000 C   0  0  0  0  0  0           0  0  0
    8.2828   -0.2888    0.0000 C   0  0  0  0  0  0           0  0  0
    8.2794   -1.1148    0.0000 C   0  0  0  0  0  0           0  0  0
    8.9930   -1.5272    0.0000 C   0  0  0  0  0  0           0  0  0
    9.7085   -1.1147    0.0000 C   0  0  0  0  0  0           0  0  0
    9.7058   -0.2855    0.0000 C   0  0  0  0  0  0           0  0  0
    8.9916    0.1233    0.0000 C   0  0  0  0  0  0           0  0  0
   10.4235   -1.5262    0.0000 N   0  0  0  0  0  0           0  0  0
   11.1374   -1.1128    0.0000 N   0  0  0  0  0  0           0  0  0
   11.8524   -1.5244    0.0000 C   0  0  0  0  0  0           0  0  0
   11.8508   -2.3480    0.0000 C   0  0  0  0  0  0           0  0  0
   12.5650   -2.7595    0.0000 C   0  0  0  0  0  0           0  0  0
   13.2799   -2.3460    0.0000 C   0  0  0  0  0  0           0  0  0
   13.2761   -1.5167    0.0000 C   0  0  0  0  0  0           0  0  0
   12.5613   -1.1089    0.0000 C   0  0  0  0  0  0           0  0  0
   13.9954   -2.7566    0.0000 C   0  0  0  0  0  0           0  0  0
   13.9976   -3.5816    0.0000 O   0  0  0  0  0  0           0  0  0
   14.7089   -2.3421    0.0000 N   0  0  0  0  0  0           0  0  0
   15.4244   -2.7527    0.0000 C   0  0  0  0  0  0           0  0  0
   16.1378   -2.3384    0.0000 C   0  0  0  0  0  0           0  0  0
   16.8533   -2.7490    0.0000 N   0  0  0  0  0  0           0  0  0
   16.1356   -1.5134    0.0000 O   0  0  0  0  0  0           0  0  0
   17.5667   -2.3345    0.0000 C   0  0  2  0  0  0           0  0  0
   18.2822   -2.7452    0.0000 C   0  0  0  0  0  0           0  0  0
   17.5645   -1.5095    0.0000 C   0  0  0  0  0  0           0  0  0
   18.2779   -1.0952    0.0000 C   0  0  0  0  0  0           0  0  0
   18.9897   -1.5064    0.0000 C   0  0  0  0  0  0           0  0  0
   19.7026   -1.0927    0.0000 C   0  0  0  0  0  0           0  0  0
   19.7009   -0.2669    0.0000 C   0  0  0  0  0  0           0  0  0
   18.9804    0.1437    0.0000 C   0  0  0  0  0  0           0  0  0
   18.2705   -0.2725    0.0000 C   0  0  0  0  0  0           0  0  0
   20.4138    0.1485    0.0000 O   0  0  0  0  0  0           0  0  0
   20.4105    0.9735    0.0000 P   0  0  3  0  0  0           0  0  0
   20.4050    1.8012    0.0000 O   0  0  0  0  0  0           0  0  0
   21.2354    0.9779    0.0000 O   0  0  0  0  0  0           0  0  0
   19.5855    0.9665    0.0000 O   0  0  0  0  0  0           0  0  0
   18.2844   -3.5702    0.0000 O   0  0  0  0  0  0           0  0  0
   18.9957   -2.3308    0.0000 N   0  0  0  0  0  0           0  0  0
   19.7112   -2.7413    0.0000 C   0  0  2  0  0  0           0  0  0
   20.4246   -2.3269    0.0000 C   0  0  0  0  0  0           0  0  0
   21.1401   -2.7376    0.0000 N   0  0  0  0  0  0           0  0  0
   20.4224   -1.5019    0.0000 O   0  0  0  0  0  0           0  0  0
   19.7134   -3.5663    0.0000 C   0  0  0  0  0  0           0  0  0
   20.4290   -3.9769    0.0000 C   0  0  0  0  0  0           0  0  0
   20.4312   -4.8019    0.0000 C   0  0  0  0  0  0           0  0  0
   19.7178   -5.2163    0.0000 O   0  0  0  0  0  0           0  0  0
   21.1467   -5.2126    0.0000 O   0  0  0  0  0  0           0  0  0
   21.8535   -2.3232    0.0000 C   0  0  2  0  0  0           0  0  0
   22.5690   -2.7337    0.0000 C   0  0  0  0  0  0           0  0  0
   21.8513   -1.4982    0.0000 C   0  0  1  0  0  0           0  0  0
   22.5647   -1.0837    0.0000 O   0  0  0  0  0  0           0  0  0
   21.1357   -1.0876    0.0000 C   0  0  0  0  0  0           0  0  0
   22.5712   -3.5587    0.0000 O   0  0  0  0  0  0           0  0  0
   23.2825   -2.3193    0.0000 N   0  0  0  0  0  0           0  0  0
   23.9980   -2.7300    0.0000 C   0  0  2  0  0  0           0  0  0
   24.7114   -2.3156    0.0000 C   0  0  0  0  0  0           0  0  0
   25.4269   -2.7261    0.0000 N   0  0  0  0  0  0           0  0  0
   24.7092   -1.4906    0.0000 O   0  0  0  0  0  0           0  0  0
   24.0002   -3.5550    0.0000 C   0  0  0  0  0  0           0  0  0
   24.7158   -3.9656    0.0000 C   0  0  3  0  0  0           0  0  0
   24.7180   -4.7905    0.0000 C   0  0  0  0  0  0           0  0  0
   25.4291   -3.5511    0.0000 C   0  0  0  0  0  0           0  0  0
   -0.2925   -2.7638    0.0000 O   0  0  0  0  0  0           0  0  0
   -0.2925   -4.4138    0.0000 O   0  0  0  0  0  0           0  0  0
    0.5325   -3.5888    0.0000 O   0  0  0  0  0  0           0  0  0
   -1.1175   -3.5888    0.0000 O   0  0  0  0  0  0           0  0  0
   -0.2925   -3.5888    0.0000 P   0  0  3  0  0  0           0  0  0
 12 15  2  0     0  0
 49 50  1  0     0  0
 24 25  1  0     0  0
 50 51  2  0     0  0
 15  8  1  0     0  0
 51 52  1  0     0  0
 24 26  2  0     0  0
 52 53  2  0     0  0
 53 48  1  0     0  0
  1  2  1  0     0  0
 51 54  1  0     0  0
 25 27  1  0     0  0
 54 55  2  0     0  0
  2 13  1  0     0  0
 54 56  1  0     0  0
 27 28  1  0     0  0
 56 57  1  0     0  0
  1  7  1  6     0  0
 57 58  1  0     0  0
 27 29  1  1     0  0
 58 59  1  0     0  0
  2 14  2  0     0  0
 58 60  2  0     0  0
 29 30  1  0     0  0
 59 61  1  0     0  0
  3  4  1  0     0  0
 61 62  1  0     0  0
 30 31  1  0     0  0
 61 63  1  1     0  0
  7  8  1  0     0  0
 63 64  1  0     0  0
 30 32  1  0     0  0
 64 65  2  0     0  0
 16 13  1  1     0  0
 65 66  1  0     0  0
 28 33  2  0     0  0
 66 67  2  0     0  0
 67 68  1  0     0  0
 28 34  1  0     0  0
 68 69  2  0     0  0
 69 64  1  0     0  0
 16 17  1  0     0  0
 67 70  1  0     0  0
 34 35  1  0     0  0
 70 71  1  0     0  0
  8  9  2  0     0  0
 71 72  2  0     0  0
 35 36  1  0     0  0
 71 73  1  0     0  0
 16 18  1  0     0  0
 71 74  1  0     0  0
 36 37  1  0     0  0
 62 75  2  0     0  0
  4  5  1  0     0  0
 62 76  1  0     0  0
 36 38  2  0     0  0
 76 77  1  0     0  0
 18 19  1  6     0  0
 77 78  1  0     0  0
 37 39  1  0     0  0
 78 79  1  0     0  0
  9 10  1  0     0  0
 78 80  2  0     0  0
 39 40  1  0     0  0
 77 81  1  6     0  0
 18 20  1  0     0  0
 81 82  1  0     0  0
 40 41  2  0     0  0
 82 83  1  0     0  0
  1  3  1  0     0  0
 83 84  1  0     0  0
 41 42  1  0     0  0
 83 85  2  0     0  0
 17 21  2  0     0  0
 86 79  1  1     0  0
 42 43  2  0     0  0
 86 87  1  0     0  0
 10 11  2  0     0  0
 86 88  1  0     0  0
 43 44  1  0     0  0
 88 89  1  6     0  0
 17 22  1  0     0  0
 88 90  1  0     0  0
 44 45  2  0     0  0
 87 91  2  0     0  0
 45 40  1  0     0  0
 87 92  1  0     0  0
  4  6  2  0     0  0
 92 93  1  0     0  0
 43 46  1  0     0  0
 93 94  1  0     0  0
 22 23  1  0     0  0
 94 95  1  0     0  0
 46 47  2  0     0  0
 94 96  2  0     0  0
 11 12  1  0     0  0
 93 97  1  6     0  0
 47 48  1  0     0  0
 97 98  1  0     0  0
 23 24  1  0     0  0
 98 99  1  0     0  0
 48 49  2  0     0  0
 98100  1  0     0  0
 11101  1  0     0  0
101105  1  0     0  0
105102  2  0     0  0
105104  1  0     0  0
105103  1  0     0  0
M  END