
          11280714562D 1   1.00000     0.00000     0

 54 58  0     1  0            999 V2000
    3.6292   -6.2417    0.0000 C   0  0  0  0  0  0           0  0  0
    8.3250   -5.2167    0.0000 C   0  0  0  0  0  0           0  0  0
   11.1542   -3.6167    0.0000 C   0  0  0  0  0  0           0  0  0
    0.7917   -7.8167    0.0000 C   0  0  0  0  0  0           0  0  0
    2.9167   -6.6375    0.0000 N   0  0  3  0  0  0           0  0  0
    9.0292   -4.8125    0.0000 N   0  0  3  0  0  0           0  0  0
    1.5042   -7.4250    0.0000 N   0  0  3  0  0  0           0  0  0
   10.4417   -4.0167    0.0000 N   0  0  3  0  0  0           0  0  0
   16.1292   -4.7667    0.0000 C   0  0  0  0  0  0           0  0  0
   -4.1875   -6.6417    0.0000 C   0  0  0  0  0  0           0  0  0
    0.0792   -7.4250    0.0000 N   0  0  0  0  0  0           0  0  0
   11.8667   -4.0042    0.0000 N   0  0  0  0  0  0           0  0  0
    7.6125   -4.8250    0.0000 O   0  0  0  0  0  0           0  0  0
    4.3375   -6.6375    0.0000 O   0  0  0  0  0  0           0  0  0
   -3.4708   -6.2417    0.0000 N   0  0  0  0  0  0           0  0  0
   15.4167   -5.1667    0.0000 N   0  0  0  0  0  0           0  0  0
   16.1167   -3.9792    0.0000 N   0  0  0  0  0  0           0  0  0
   -4.1750   -7.4292    0.0000 N   0  0  0  0  0  0           0  0  0
    8.3292   -6.0000    0.0000 O   0  0  0  0  0  0           0  0  0
    3.6292   -5.4542    0.0000 O   0  0  0  0  0  0           0  0  0
    2.2042   -6.2417    0.0000 C   0  0  0  0  0  0           0  0  0
    9.0167   -4.0250    0.0000 C   0  0  0  0  0  0           0  0  0
    2.9167   -7.4250    0.0000 C   0  0  0  0  0  0           0  0  0
    9.7417   -5.2042    0.0000 C   0  0  0  0  0  0           0  0  0
    9.7292   -3.6292    0.0000 C   0  0  0  0  0  0           0  0  0
    1.5042   -6.6375    0.0000 C   0  0  0  0  0  0           0  0  0
   10.4500   -4.8042    0.0000 C   0  0  0  0  0  0           0  0  0
    2.2042   -7.8125    0.0000 C   0  0  0  0  0  0           0  0  0
    0.7917   -8.6042    0.0000 O   0  0  0  0  0  0           0  0  0
   11.1417   -2.8292    0.0000 O   0  0  0  0  0  0           0  0  0
   -4.8958   -6.2500    0.0000 N   0  0  0  0  0  0           0  0  0
   16.8375   -5.1542    0.0000 N   0  0  0  0  0  0           0  0  0
   14.7042   -4.7792    0.0000 C   0  0  0  0  0  0           0  0  0
   -2.7583   -6.6375    0.0000 C   0  0  0  0  0  0           0  0  0
   -0.6333   -7.8167    0.0000 C   0  0  0  0  0  0           0  0  0
   12.5750   -3.6042    0.0000 C   0  0  0  0  0  0           0  0  0
   -1.3458   -7.4250    0.0000 C   0  0  0  0  0  0           0  0  0
   13.2792   -4.0042    0.0000 C   0  0  0  0  0  0           0  0  0
    6.9042   -5.2250    0.0000 C   0  0  1  0  0  0           0  0  0
    5.0417   -6.2417    0.0000 C   0  0  2  0  0  0           0  0  0
   14.0000   -5.1792    0.0000 C   0  0  0  0  0  0           0  0  0
   -2.0500   -6.2417    0.0000 C   0  0  0  0  0  0           0  0  0
   14.7000   -3.9875    0.0000 C   0  0  0  0  0  0           0  0  0
   -2.7583   -7.4292    0.0000 C   0  0  0  0  0  0           0  0  0
   13.9875   -3.5917    0.0000 C   0  0  0  0  0  0           0  0  0
   13.2792   -4.7875    0.0000 C   0  0  0  0  0  0           0  0  0
   -1.3458   -6.6375    0.0000 C   0  0  0  0  0  0           0  0  0
   -2.0458   -7.8167    0.0000 C   0  0  0  0  0  0           0  0  0
    6.5125   -6.6250    0.0000 C   0  0  0  0  0  0           0  0  0
    5.4417   -4.8417    0.0000 C   0  0  0  0  0  0           0  0  0
    7.0042   -6.0042    0.0000 C   0  0  0  0  0  0           0  0  0
    6.2542   -4.7417    0.0000 C   0  0  0  0  0  0           0  0  0
    5.6917   -6.7292    0.0000 C   0  0  0  0  0  0           0  0  0
    4.9417   -5.4667    0.0000 C   0  0  0  0  0  0           0  0  0
  2 13  1  0     0  0
  3  8  1  0     0  0
  4  7  1  0     0  0
  5  1  1  0     0  0
  6  2  1  0     0  0
  7 28  1  0     0  0
  8 27  1  0     0  0
  9 16  1  0     0  0
 10 15  1  0     0  0
 11  4  1  0     0  0
 12  3  1  0     0  0
 39 13  1  1     0  0
 14  1  1  0     0  0
 15 34  1  0     0  0
 16 33  1  0     0  0
 17  9  2  0     0  0
 18 10  2  0     0  0
 19  2  2  0     0  0
 20  1  2  0     0  0
 21  5  1  0     0  0
 22  6  1  0     0  0
 23  5  1  0     0  0
 24  6  1  0     0  0
 25 22  1  0     0  0
 26 21  1  0     0  0
 27 24  1  0     0  0
 28 23  1  0     0  0
 29  4  2  0     0  0
 30  3  2  0     0  0
 31 10  1  0     0  0
 32  9  1  0     0  0
 33 41  2  0     0  0
 34 44  1  0     0  0
 35 11  1  0     0  0
 36 12  1  0     0  0
 37 35  1  0     0  0
 38 36  1  0     0  0
 39 52  1  0     0  0
 40 14  1  1     0  0
 41 46  1  0     0  0
 42 47  1  0     0  0
 43 45  2  0     0  0
 44 48  2  0     0  0
 45 38  1  0     0  0
 46 38  2  0     0  0
 47 37  2  0     0  0
 48 37  1  0     0  0
 49 53  1  0     0  0
 50 54  1  0     0  0
 51 49  1  0     0  0
 52 50  1  0     0  0
 53 40  1  0     0  0
 54 40  1  0     0  0
  7 26  1  0     0  0
 51 39  1  0     0  0
 34 42  2  0     0  0
  8 25  1  0     0  0
 33 43  1  0     0  0
M  END