
          11280715162D 1   1.00000     0.00000     0

 28 31  0     0  0            999 V2000
   -2.9958   -2.5667    0.0000 C   0  0  0  0  0  0           0  0  0
   -3.5458   -3.1667    0.0000 N   0  0  3  0  0  0           0  0  0
   -4.2833   -2.8250    0.0000 N   0  0  0  0  0  0           0  0  0
   -3.3958   -1.8417    0.0000 C   0  0  0  0  0  0           0  0  0
   -4.1875   -2.0042    0.0000 C   0  0  0  0  0  0           0  0  0
   -2.1875   -2.6542    0.0000 N   0  0  0  0  0  0           0  0  0
   -1.7083   -1.9917    0.0000 C   0  0  0  0  0  0           0  0  0
   -0.9000   -2.0917    0.0000 N   0  0  0  0  0  0           0  0  0
   -0.2958   -1.5417    0.0000 C   0  0  3  0  0  0           0  0  0
    0.5167   -1.4292    0.0000 C   0  0  0  0  0  0           0  0  0
   -4.7833   -1.4417    0.0000 C   0  0  3  0  0  0           0  0  0
   -3.3875   -3.9792    0.0000 C   0  0  0  0  0  0           0  0  0
   -1.9250   -1.1917    0.0000 O   0  0  0  0  0  0           0  0  0
    0.6667   -0.6167    0.0000 C   0  0  0  0  0  0           0  0  0
   -0.6583   -0.8042    0.0000 C   0  0  0  0  0  0           0  0  0
   -0.0583   -0.2292    0.0000 C   0  0  0  0  0  0           0  0  0
    1.1500   -1.9625    0.0000 C   0  0  0  0  0  0           0  0  0
   -4.6083   -0.6417    0.0000 C   0  0  0  0  0  0           0  0  0
   -5.5583   -1.6917    0.0000 C   0  0  0  0  0  0           0  0  0
   -5.4875   -1.0292    0.0000 C   0  0  0  0  0  0           0  0  0
   -3.9958   -4.5167    0.0000 C   0  0  0  0  0  0           0  0  0
   -2.6208   -4.2417    0.0000 C   0  0  0  0  0  0           0  0  0
    1.4417   -0.3292    0.0000 C   0  0  0  0  0  0           0  0  0
    1.9292   -1.6875    0.0000 C   0  0  0  0  0  0           0  0  0
    2.0667   -0.8667    0.0000 C   0  0  0  0  0  0           0  0  0
   -3.8458   -5.3292    0.0000 C   0  0  0  0  0  0           0  0  0
   -2.4583   -5.0500    0.0000 C   0  0  0  0  0  0           0  0  0
   -3.0708   -5.5917    0.0000 C   0  0  0  0  0  0           0  0  0
  2  1  1  0     0  0
  3  2  1  0     0  0
  4  1  2  0     0  0
  5  4  1  0     0  0
  6  1  1  0     0  0
  7  6  1  0     0  0
  8  7  1  0     0  0
  9  8  1  0     0  0
 10  9  1  0     0  0
 11  5  1  0     0  0
 12  2  1  0     0  0
 13  7  2  0     0  0
 14 10  1  0     0  0
 15  9  1  0     0  0
 16 15  1  0     0  0
 17 10  2  0     0  0
 18 11  1  0     0  0
 19 11  1  0     0  0
 20 11  1  0     0  0
 21 12  2  0     0  0
 22 12  1  0     0  0
 23 14  2  0     0  0
 24 17  1  0     0  0
 25 24  2  0     0  0
 26 21  1  0     0  0
 27 22  2  0     0  0
 28 27  1  0     0  0
  5  3  2  0     0  0
 26 28  2  0     0  0
 14 16  1  0     0  0
 25 23  1  0     0  0
M  END