
          11280714542D 1   1.00000     0.00000     0

 30 31  0     0  0            999 V2000
   13.2542   -2.9375    0.0000 C   0  0  0  0  0  0           0  0  0
   12.8417   -3.6542    0.0000 C   0  0  0  0  0  0           0  0  0
    1.7917   -4.6667    0.0000 N   0  0  3  0  0  0           0  0  0
    8.9417   -2.1917    0.0000 C   0  0  0  0  0  0           0  0  0
    8.2250   -2.6125    0.0000 C   0  0  0  0  0  0           0  0  0
   12.8417   -2.2167    0.0000 O   0  0  0  0  0  0           0  0  0
   13.2542   -4.3792    0.0000 O   0  0  0  0  0  0           0  0  0
    8.9417   -1.3667    0.0000 O   0  0  0  0  0  0           0  0  0
    2.5042   -5.0792    0.0000 C   0  0  0  0  0  0           0  0  0
    8.2250   -3.4417    0.0000 C   0  0  0  0  0  0           0  0  0
    7.5042   -2.2000    0.0000 C   0  0  0  0  0  0           0  0  0
    6.0792   -3.8500    0.0000 O   0  0  0  0  0  0           0  0  0
    6.7917   -3.4375    0.0000 C   0  0  0  0  0  0           0  0  0
   14.0875   -2.9375    0.0000 O   0  0  0  0  0  0           0  0  0
   12.0125   -3.6542    0.0000 O   0  0  0  0  0  0           0  0  0
    3.2250   -4.6667    0.0000 C   0  0  0  0  0  0           0  0  0
    4.6542   -3.8500    0.0000 C   0  0  0  0  0  0           0  0  0
    5.3667   -3.4375    0.0000 C   0  0  0  0  0  0           0  0  0
    7.5125   -3.8500    0.0000 C   0  0  0  0  0  0           0  0  0
    6.7917   -2.6167    0.0000 C   0  0  0  0  0  0           0  0  0
    3.9375   -5.0792    0.0000 C   0  0  0  0  0  0           0  0  0
    3.2250   -3.8500    0.0000 C   0  0  0  0  0  0           0  0  0
    3.9375   -3.4292    0.0000 C   0  0  0  0  0  0           0  0  0
    4.6542   -4.6750    0.0000 C   0  0  0  0  0  0           0  0  0
    1.7917   -3.8417    0.0000 C   0  0  0  0  0  0           0  0  0
    1.0792   -5.0792    0.0000 C   0  0  0  0  0  0           0  0  0
    9.6542   -2.6042    0.0000 C   0  0  0  0  0  0           0  0  0
    0.3750   -4.6667    0.0000 C   0  0  0  0  0  0           0  0  0
    1.0792   -3.4292    0.0000 C   0  0  0  0  0  0           0  0  0
    0.3750   -3.8417    0.0000 C   0  0  0  0  0  0           0  0  0
  2  1  1  0     0  0
  4  5  1  0     0  0
  5 11  1  0     0  0
  6  1  2  0     0  0
  7  2  2  0     0  0
  8  4  2  0     0  0
  9  3  1  0     0  0
 10 19  1  0     0  0
 11 20  2  0     0  0
 12 18  1  0     0  0
 13 12  1  0     0  0
 14  1  1  0     0  0
 15  2  1  0     0  0
 16  9  1  0     0  0
 17 23  1  0     0  0
 18 17  1  0     0  0
 19 13  2  0     0  0
 20 13  1  0     0  0
 21 16  2  0     0  0
 22 16  1  0     0  0
 23 22  2  0     0  0
 24 21  1  0     0  0
 25  3  1  0     0  0
 26  3  1  0     0  0
 27  4  1  0     0  0
 28 26  1  0     0  0
 29 25  1  0     0  0
 30 28  1  0     0  0
 30 29  1  0     0  0
 17 24  2  0     0  0
  5 10  2  0     0  0
M  END