
  SciTegic04091416292D

 18 20  0  0  0  0            999 V2000
   16.1533  -17.3976    0.0000 C   0  0
   16.3845  -18.1839    0.0000 C   0  0
   17.1794  -18.3755    0.0000 C   0  0
   16.7137  -16.8057    0.0000 C   0  0
   17.5081  -16.9936    0.0000 C   0  0
   17.7460  -17.7816    0.0000 C   0  0
   18.1841  -16.5239    0.0000 N   0  0
   18.8398  -17.0215    0.0000 C   0  0
   18.5717  -17.7994    0.0000 C   0  0
   19.1083  -18.4172    0.0000 C   0  0
   19.9159  -18.2628    0.0000 N   0  0
   20.1840  -17.4849    0.0000 C   0  0
   19.6446  -16.8614    0.0000 C   0  0
   20.4509  -18.8804    0.0000 C   0  0
   20.1836  -19.6527    0.0000 N   0  0
   21.2534  -18.7259    0.0000 O   0  0
   15.8204  -18.7765    0.0000 Br  0  0
   19.3811  -19.8072    0.0000 C   0  0
  1  2  2  0
  2  3  1  0
  3  6  2  0
  5  4  2  0
  4  1  1  0
  5  6  1  0
  6  9  1  0
  8  7  1  0
  7  5  1  0
  8  9  2  0
  8 13  1  0
  9 10  1  0
 10 11  1  0
 11 12  1  0
 12 13  1  0
 11 14  1  0
 14 15  1  0
 14 16  2  0
  2 17  1  0
 15 18  1  0
M  END