
  SciTegic02011310442D

 33 37  0  0  0  0            999 V2000
    3.1415  -13.6488    0.0000 N   0  0
    3.8579  -13.2355    0.0000 C   0  0
    3.8551  -12.4049    0.0000 N   0  0
    3.1397  -11.9958    0.0000 C   0  0
    2.4266  -13.2360    0.0000 N   0  0
    2.4278  -12.4070    0.0000 C   0  0
    1.6399  -12.1497    0.0000 C   0  0
    1.1516  -12.8196    0.0000 C   0  0
    1.6378  -13.4909    0.0000 C   0  0
    4.5731  -13.6469    0.0000 S   0  0
    5.2869  -13.2333    0.0000 C   0  0
    3.1379  -11.1708    0.0000 N   0  0
    3.8514  -10.7567    0.0000 C   0  0
    5.9987  -13.6451    0.0000 C   0  0
    6.7120  -13.2322    0.0000 C   0  0
    6.7112  -12.4062    0.0000 C   0  0
    5.9910  -11.9950    0.0000 C   0  0
    5.2806  -12.4104    0.0000 C   0  0
    4.6036  -11.0918    0.0000 C   0  0
    5.1543  -10.4776    0.0000 C   0  0
    4.7402   -9.7639    0.0000 N   0  0
    3.9336   -9.9374    0.0000 N   0  0
    5.9750  -10.5620    0.0000 C   0  0
    7.4244  -11.9917    0.0000 N   0  0
    8.1401  -12.4021    0.0000 C   0  0
    8.8534  -11.9875    0.0000 C   0  0
    9.5691  -12.3979    0.0000 N   0  0
    8.1426  -13.2271    0.0000 O   0  0
    9.6549  -13.2160    0.0000 C   0  0
   10.4624  -13.3852    0.0000 C   0  0  1  0  0  0
   10.8729  -12.6694    0.0000 C   0  0
   10.3190  -12.0580    0.0000 C   0  0
   10.8002  -14.1380    0.0000 O   0  0
  5  1  1  0
  1  2  2  0
  2  3  1  0
  3  4  2  0
  4  6  1  0
  5  6  1  0
  6  7  2  0
  7  8  1  0
  8  9  2  0
  9  5  1  0
  2 10  1  0
 10 11  1  0
  4 12  1  0
 12 13  1  0
 11 14  2  0
 14 15  1  0
 15 16  2  0
 16 17  1  0
 17 18  2  0
 18 11  1  0
 13 19  1  0
 19 20  2  0
 20 21  1  0
 21 22  1  0
 22 13  2  0
 20 23  1  0
 16 24  1  0
 24 25  1  0
 25 26  1  0
 26 27  1  0
 25 28  2  0
 27 29  1  0
 29 30  1  0
 30 31  1  0
 31 32  1  0
 32 27  1  0
 30 33  1  1
M  END