
  CDK    9/16/09,9:20

 43 46  0  0  0  0  0  0  0  0999 V2000
    2.0667   -8.0542    0.0000 C   0  0  0  0  0  0  0  0  0  0  0  0
    2.0667   -8.8792    0.0000 C   0  0  0  0  0  0  0  0  0  0  0  0
    2.7787   -9.2875    0.0000 C   0  0  0  0  0  0  0  0  0  0  0  0
    2.7787   -7.6375    0.0000 C   0  0  0  0  0  0  0  0  0  0  0  0
    3.4907   -8.0542    0.0000 C   0  0  0  0  0  0  0  0  0  0  0  0
    3.4918   -8.8792    0.0000 C   0  0  0  0  0  0  0  0  0  0  0  0
    4.2028   -9.2885    0.0000 C   0  0  0  0  0  0  0  0  0  0  0  0
    4.9174   -8.8773    0.0000 C   0  0  0  0  0  0  0  0  0  0  0  0
    4.2007   -7.6385    0.0000 C   0  0  0  0  0  0  0  0  0  0  0  0
    4.9182   -8.0530    0.0000 C   0  0  0  0  0  0  0  0  0  0  0  0
    4.9170   -6.3986    0.0000 C   0  0  0  0  0  0  0  0  0  0  0  0
    4.1970   -6.8121    0.0000 C   0  0  0  0  0  0  0  0  0  0  0  0
    5.6345   -6.8131    0.0000 C   0  0  0  0  0  0  0  0  0  0  0  0
    5.6314   -7.6426    0.0000 C   0  0  0  0  0  0  0  0  0  0  0  0
    6.4193   -7.9019    0.0000 C   0  0  0  0  0  0  0  0  0  0  0  0
    6.9095   -7.2326    0.0000 C   0  0  0  0  0  0  0  0  0  0  0  0
    6.4244   -6.5598    0.0000 C   0  0  0  0  0  0  0  0  0  0  0  0
    5.6292   -5.9875    0.0000 C   0  0  0  0  0  0  0  0  0  0  0  0
    5.6250   -8.4667    0.0000 C   0  0  0  0  0  0  0  0  0  0  0  0
    6.8379   -5.8469    0.0000 C   0  0  0  0  0  0  0  0  0  0  0  0
    7.6629   -5.8485    0.0000 C   0  0  0  0  0  0  0  0  0  0  0  0
    8.0740   -6.5638    0.0000 C   0  0  0  0  0  0  0  0  0  0  0  0
    8.8990   -6.5655    0.0000 C   0  0  0  0  0  0  0  0  0  0  0  0
    3.4820   -6.4004    0.0000 O   0  0  0  0  0  0  0  0  0  0  0  0
    6.6713   -8.6875    0.0000 O   0  0  0  0  0  0  0  0  0  0  0  0
    5.6313   -9.2908    0.0000 O   0  0  0  0  0  0  0  0  0  0  0  0
    1.3528   -9.2927    0.0000 O   0  0  0  0  0  0  0  0  0  0  0  0
    2.3583  -10.0000    0.0000 C   0  0  0  0  0  0  0  0  0  0  0  0
    3.1833  -10.0000    0.0000 C   0  0  0  0  0  0  0  0  0  0  0  0
    3.4833   -7.2292    0.0000 C   0  0  0  0  0  0  0  0  0  0  0  0
    3.4875   -9.7000    0.0000 H   0  0  0  0  0  0  0  0  0  0  0  0
    4.9180   -5.5736    0.0000 O   0  0  0  0  0  0  0  0  0  0  0  0
    4.2041   -5.1602    0.0000 C   0  0  0  0  0  0  0  0  0  0  0  0
    4.2023   -4.3372    0.0000 O   0  0  0  0  0  0  0  0  0  0  0  0
    3.4862   -5.5738    0.0000 C   0  0  0  0  0  0  0  0  0  0  0  0
    6.4268   -5.1316    0.0000 C   0  0  0  0  0  0  0  0  0  0  0  0
    7.2167   -6.7708    0.0000 H   0  0  0  0  0  0  0  0  0  0  0  0
    7.6601   -7.2775    0.0000 O   0  0  0  0  0  0  0  0  0  0  0  0
    9.3101   -7.2807    0.0000 C   0  0  0  0  0  0  0  0  0  0  0  0
   10.1351   -7.2824    0.0000 C   0  0  0  0  0  0  0  0  0  0  0  0
    8.8961   -7.9944    0.0000 C   0  0  0  0  0  0  0  0  0  0  0  0
    8.0734   -7.9949    0.0000 O   0  0  0  0  0  0  0  0  0  0  0  0
    9.3094   -8.7119    0.0000 O   0  0  0  0  0  0  0  0  0  0  0  0
 17 20  1  0  0  0  0 
  3  6  1  0  0  0  0 
 20 21  1  0  0  0  0 
  5  4  1  0  0  0  0 
 21 22  1  0  0  0  0 
  5  6  1  0  0  0  0 
 22 23  1  0  0  0  0 
 12 24  2  0  0  0  0 
  9 12  1  0  0  0  0 
 15 25  2  0  0  0  0 
 10 14  1  0  0  0  0 
  8 26  2  0  0  0  0 
 13 11  1  0  0  0  0 
  2 27  2  0  0  0  0 
 11 12  1  0  0  0  0 
  3 28  1  0  0  0  0 
 13 14  1  0  0  0  0 
  3 29  1  0  0  0  0 
  1  2  1  0  0  0  0 
  5 30  1  1  0  0  0 
  1  4  1  0  0  0  0 
  6 31  1  6  0  0  0 
  2  3  1  0  0  0  0 
 11 32  1  1  0  0  0 
  5  9  1  0  0  0  0 
 32 33  1  0  0  0  0 
  6  7  1  0  0  0  0 
 14 15  1  0  0  0  0 
 33 34  2  0  0  0  0 
 33 35  1  0  0  0  0 
 15 16  1  0  0  0  0 
 20 36  1  6  0  0  0 
 16 17  1  0  0  0  0 
 17 37  1  6  0  0  0 
 17 13  1  0  0  0  0 
 22 38  2  0  0  0  0 
  7  8  1  0  0  0  0 
 23 39  1  0  0  0  0 
 13 18  1  1  0  0  0 
 39 40  1  0  0  0  0 
  8 10  1  0  0  0  0 
 39 41  1  0  0  0  0 
 14 19  1  6  0  0  0 
  9 10  2  0  0  0  0 
 41 42  1  0  0  0  0 
 41 43  2  0  0  0  0 
M  END