
  SciTegic11201309402D

 29 32  0  0  0  0            999 V2000
   -0.7693   -0.6932    0.0000 C   0  0  2  0  0  0
   -0.5178    0.7135    0.0000 C   0  0
   -1.4095    0.8251    0.0000 C   0  0
    1.3867   -0.3529    0.0000 C   0  0  1  0  0  0
    1.6670   -1.1288    0.0000 C   0  0
    2.4792   -1.2740    0.0000 C   0  0
    3.0110   -0.6433    0.0000 C   0  0
    1.1064    0.4230    0.0000 C   0  0
   -2.1035   -0.7365    0.0000 C   0  0
   -1.8742    0.0560    0.0000 C   0  0  2  0  0  0
   -2.3805    0.7073    0.0000 C   0  0
   -2.0696    1.4715    0.0000 C   0  0
   -1.4206   -1.1995    0.0000 C   0  0
   -1.0496    0.0828    0.0000 C   0  0  1  0  0  0
    0.0428   -0.8384    0.0000 C   0  0  1  0  0  0
    0.5746   -0.2077    0.0000 C   0  0  2  0  0  0
    0.2943    0.5683    0.0000 C   0  0  1  0  0  0
    0.8261    1.1990    0.0000 O   0  0
   -0.9465    1.5080    0.0000 O   0  0
    3.8231   -0.7885    0.0000 O   0  0
    2.7307    0.1326    0.0000 C   0  0
    1.9186    0.2778    0.0000 C   0  0
    1.1352   -1.7595    0.0000 C   0  0
    0.3231   -1.6143    0.0000 C   0  0
   -3.1978    0.5944    0.0000 O   0  0
   -2.5760    2.1228    0.0000 O   0  0
    1.2192    0.5568    0.0000 H   0  0
   -0.6018   -1.6029    0.0000 H   0  0
   -0.5297   -1.6641    0.0000 H   0  0
  1 13  1  0
 14  1  1  0
  1 15  1  0
 14  2  1  0
 17  2  1  0
 14  3  1  6
  3 19  2  0
  4  5  1  0
  4  8  1  6
 16  4  1  0
 22  4  1  0
  5  6  2  0
 23  5  1  0
  7  6  1  0
  7 20  2  0
  7 21  1  0
  9 10  1  0
  9 13  1  0
 10 11  1  6
 14 10  1  0
 11 12  1  0
 11 25  2  0
 12 26  1  0
 15 16  1  0
 15 24  1  0
 16 17  1  0
 17 18  1  6
 21 22  1  0
 23 24  1  0
 16 27  1  1
 15 28  1  6
  1 29  1  1
M  END