
  SciTegic01161211252D

 31 35  0  0  0  0            999 V2000
   -5.2637  -14.8603    0.0000 C   0  0
   -5.2649  -15.6880    0.0000 C   0  0
   -4.5519  -16.1008    0.0000 C   0  0
   -4.5539  -14.4474    0.0000 C   0  0
   -5.9785  -14.4483    0.0000 F   0  0
   -4.5578  -13.6223    0.0000 C   0  0
   -3.8357  -14.8563    0.0000 C   0  0
   -3.8351  -15.6880    0.0000 C   0  0
   -3.0439  -15.9444    0.0000 N   0  0
   -2.5555  -15.2713    0.0000 C   0  0
   -3.0448  -14.5988    0.0000 N   0  0
   -1.7304  -15.2707    0.0000 C   0  0
   -1.3221  -15.9863    0.0000 C   0  0
   -0.4978  -15.9861    0.0000 C   0  0
   -0.0849  -15.2708    0.0000 C   0  0
   -0.5024  -14.5541    0.0000 C   0  0
   -1.3254  -14.5579    0.0000 C   0  0
   -1.7419  -13.8458    0.0000 C   0  0
    0.7401  -15.2691    0.0000 O   0  0
    1.1541  -15.9828    0.0000 C   0  0
    1.9792  -15.9812    0.0000 C   0  0
    2.3931  -16.6948    0.0000 C   0  0
    3.2182  -16.6931    0.0000 N   0  0
    3.7074  -17.3569    0.0000 C   0  0
    3.7046  -16.0221    0.0000 C   0  0
    4.4899  -16.2753    0.0000 C   0  0
    4.4875  -17.0972    0.0000 C   0  0
    5.1940  -17.5080    0.0000 N   0  0
    5.9077  -17.1014    0.0000 C   0  0
    5.9101  -16.2795    0.0000 C   0  0
    5.1990  -15.8642    0.0000 C   0  0
 14 15  2  0
  3  8  2  0
 15 16  1  0
  1  2  2  0
 16 17  2  0
 17 12  1  0
  7  4  2  0
 17 18  1  0
  4  1  1  0
 15 19  1  0
 19 20  1  0
  8  9  1  0
 20 21  1  0
  9 10  1  0
 21 22  1  0
 10 11  2  0
 22 23  1  0
 23 24  1  0
 11  7  1  0
  1  5  1  0
 24 27  1  0
 26 25  1  0
 25 23  1  0
 26 27  1  0
 10 12  1  0
  2  3  1  0
 12 13  2  0
  4  6  1  0
 13 14  1  0
  7  8  1  0
 26 31  1  0
 27 28  1  0
 28 29  1  0
 29 30  1  0
 30 31  1  0
M  END