
  SciTegic06051313522D

 19 21  0  0  0  0            999 V2000
   -0.4124  -13.7175    0.0000 C   0  0
    0.3049  -13.3080    0.0000 C   0  0
    0.3021  -12.4854    0.0000 C   0  0
   -0.4107  -12.0801    0.0000 C   0  0
    1.0083  -12.0741    0.0000 N   0  0
    1.7175  -12.4800    0.0000 C   0  0
   -1.1159  -13.3085    0.0000 C   0  0
   -1.1171  -12.4874    0.0000 C   0  0
   -1.8967  -12.2325    0.0000 N   0  0
   -2.3788  -12.8961    0.0000 O   0  0
   -1.8947  -13.5610    0.0000 N   0  0
    1.7172  -13.2949    0.0000 C   0  0
    2.4257  -13.7007    0.0000 C   0  0
    3.1328  -13.2894    0.0000 C   0  0
    3.1271  -12.4680    0.0000 C   0  0
    2.4181  -12.0659    0.0000 C   0  0
   -0.4089  -11.2629    0.0000 N   0  0
    3.8318  -12.0543    0.0000 F   0  0
    2.4283  -14.5179    0.0000 Cl  0  0
  7  1  1  0
  1  2  2  0
  2  3  1  0
  3  4  2  0
  4  8  1  0
  3  5  1  0
  5  6  1  0
  7  8  1  0
  8  9  2  0
  9 10  1  0
 10 11  1  0
 11  7  2  0
  6 12  2  0
 12 13  1  0
 13 14  2  0
 14 15  1  0
 15 16  2  0
 16  6  1  0
  4 17  1  0
 15 18  1  0
 13 19  1  0
M  END