
  SciTegic11201309402D

 73 77  0  0  1  0            999 V2000
    4.2848   -5.5763    0.0000 C   0  0
    5.0976   -5.4494    0.0000 C   0  0
    5.2252   -4.6462    0.0000 C   0  0  2  0  0  0
    4.5043   -4.2423    0.0000 N   0  0
    3.9160   -4.8417    0.0000 C   0  0
    5.9691   -4.2896    0.0000 C   0  0
    6.0261   -3.4656    0.0000 O   0  0
    7.4398   -4.3897    0.0000 C   0  0  2  0  0  0
    8.1226   -4.8528    0.0000 C   0  0
    7.4968   -3.5658    0.0000 C   0  0
    8.2407   -3.2049    0.0000 C   0  0
    8.3019   -2.3811    0.0000 C   0  0
    8.9236   -3.6680    0.0000 C   0  0
    8.0615   -5.6768    0.0000 O   0  0
    9.4996   -4.9605    0.0000 C   0  0
   10.2436   -4.6038    0.0000 C   0  0
   10.3005   -3.7799    0.0000 O   0  0
   -0.8374   -1.7466    0.0000 C   0  0
   -0.8374   -2.5781    0.0000 C   0  0  1  0  0  0
   -0.1260   -2.9897    0.0000 N   0  0
    0.5908   -2.5749    0.0000 C   0  0
    0.5908   -1.7544    0.0000 C   0  0
   -0.1038   -1.3257    0.0000 N   0  0
   -1.5515   -1.3351    0.0000 O   0  0
   -0.0961   -0.4544    0.0000 C   0  0  2  0  0  0
    0.6460   -0.1033    0.0000 C   0  0
   -0.8103   -0.0429    0.0000 C   0  0
   -0.8103    0.7941    0.0000 C   0  0
   -0.0754    1.2203    0.0000 C   0  0
   -0.0758    2.0328    0.0000 C   0  0
   -0.7848    2.4390    0.0000 C   0  0
   -1.5005    2.0343    0.0000 C   0  0
   -1.5005    1.2056    0.0000 C   0  0
   -1.5515   -2.9938    0.0000 C   0  0
   -2.2657   -2.5781    0.0000 C   0  0
   -2.2659   -1.7544    0.0000 C   0  0
   -2.9788   -1.3389    0.0000 C   0  0
   -3.6905   -1.7545    0.0000 C   0  0
   -3.6905   -2.5775    0.0000 C   0  0
   -2.9789   -2.9931    0.0000 C   0  0
    0.7631    0.7113    0.0000 O   0  0
   -0.1519   -3.8485    0.0000 C   0  0
   -0.8661   -4.2642    0.0000 O   0  0
    0.5504   -4.1551    0.0000 C   0  0  1  0  0  0
    1.9938   -0.2421    0.0000 C   0  0  2  0  0  0
    2.6308   -0.7841    0.0000 C   0  0
    2.0646    0.5732    0.0000 C   0  0
    2.8180    0.9225    0.0000 C   0  0
    2.8888    1.7464    0.0000 C   0  0
    2.2145    2.2212    0.0000 O   0  0
    4.0587   -0.8150    0.0000 C   0  0  1  0  0  0
    4.7729   -0.4034    0.0000 C   0  0
    5.4770   -0.8085    0.0000 C   0  0
    5.4770   -1.6254    0.0000 O   0  0
    1.0707   -3.5542    0.0000 C   0  0
    1.7830   -3.9067    0.0000 S   0  0
    2.3109   -3.3133    0.0000 S   0  0
    3.0512   -3.6125    0.0000 C   0  0
    3.6241   -3.1166    0.0000 C   0  0  2  0  0  0
    4.3906   -3.4234    0.0000 C   0  0
    5.0391   -2.9155    0.0000 O   0  0
    4.1371   -1.6986    0.0000 C   0  0
    4.9120   -1.9849    0.0000 O   0  0
    2.5290   -1.6009    0.0000 O   0  0
    6.6793   -4.7095    0.0000 N   0  0
    8.8462   -4.4567    0.0000 N   0  0
   10.9376   -5.0143    0.0000 N   0  0
    1.2717   -0.6410    0.0000 N   0  0
    0.7405   -4.9082    0.0000 N   0  0
    3.6535    2.1442    0.0000 N   0  0
    3.3537   -0.3865    0.0000 N   0  0
    6.2176   -0.3759    0.0000 N   0  0
    3.5657   -2.2937    0.0000 N   0  0
  8  9  1  0
  8 10  1  1
 10 11  1  0
 11 12  1  0
 11 13  1  0
  9 14  2  0
 15 16  1  0
 16 17  2  0
 18 19  1  0
 18 23  1  0
 19 20  1  0
 20 21  1  0
 21 22  1  0
 22 23  1  0
 18 24  2  0
 23 25  1  0
 25 26  1  0
 25 27  1  1
 27 28  1  0
 28 29  2  0
 29 30  1  0
 30 31  2  0
 31 32  1  0
 32 33  2  0
 33 28  1  0
 19 34  1  1
 34 35  1  0
 35 36  2  0
 36 37  1  0
 37 38  2  0
 38 39  1  0
 39 40  2  0
 40 35  1  0
 26 41  2  0
 20 42  1  0
 42 43  2  0
 42 44  1  0
 45 46  1  0
 45 47  1  1
 47 48  1  0
 48 49  1  0
 49 50  2  0
 51 52  1  1
 52 53  1  0
 53 54  2  0
 44 55  1  0
 55 56  1  0
 56 57  1  0
 57 58  1  0
 59 58  1  0
 59 60  1  1
 60  4  1  0
 60 61  2  0
 51 62  1  0
 62 63  2  0
 46 64  2  0
  1  2  1  0
  2  3  1  0
  3  4  1  0
  4  5  1  0
  5  1  1  0
  3  6  1  6
  6  7  2  0
  9 66  1  0
 66 15  1  0
 44 69  1  1
  6 65  1  0
 65  8  1  0
 49 70  1  0
 16 67  1  0
 46 71  1  0
 71 51  1  0
 53 72  1  0
 26 68  1  0
 68 45  1  0
 59 73  1  0
 62 73  1  0
M  STY  8   1 SUP   2 SUP   3 SUP   4 SUP   5 SUP   6 SUP   7 SUP   8 SUP
M  STY  1   9 SUP
M  SLB  8   1   1   2   2   3   3   4   4   5   5   6   6   7   7   8   8
M  SLB  1   9   9
M  SDS EXP  8   1   2   3   4   5   6   7   8
M  SAL   1  1  66
M  SBL   1  2  64  65
M  SMT   1 N
M  SAL   2  1  69
M  SBL   2  1  66
M  SMT   2 N
M  SAL   3  1  65
M  SBL   3  2  67  68
M  SMT   3 N
M  SAL   4  1  70
M  SBL   4  1  69
M  SMT   4 N
M  SAL   5  1  67
M  SBL   5  1  70
M  SMT   5 N
M  SAL   6  1  71
M  SBL   6  2  71  72
M  SMT   6 N
M  SAL   7  1  72
M  SBL   7  1  73
M  SMT   7 N
M  SAL   8  1  68
M  SBL   8  2  74  75
M  SMT   8 N
M  SAL   9  1  73
M  SBL   9  2  76  77
M  SMT   9 N
M  END