
          11280715372D 1   1.00000     0.00000     0

 30 32  0     1  0            999 V2000
    5.6250   -7.9417    0.0000 N   0  0  3  0  0  0           0  0  0
    6.4292   -7.7625    0.0000 C   0  0  0  0  0  0           0  0  0
    4.9792   -6.6042    0.0000 C   0  0  0  0  0  0           0  0  0
    4.9792   -7.4292    0.0000 C   0  0  0  0  0  0           0  0  0
    6.7917   -7.0125    0.0000 C   0  0  1  0  0  0           0  0  0
    4.2667   -5.3625    0.0000 C   0  0  3  0  0  0           0  0  0
    6.4292   -6.2667    0.0000 C   0  0  1  0  0  0           0  0  0
    4.2667   -6.1875    0.0000 C   0  0  0  0  0  0           0  0  0
    5.6250   -6.0875    0.0000 C   0  0  0  0  0  0           0  0  0
    5.4417   -8.7625    0.0000 C   0  0  0  0  0  0           0  0  0
    6.9917   -5.6667    0.0000 C   0  0  0  0  0  0           0  0  0
    6.9417   -8.4250    0.0000 O   0  0  0  0  0  0           0  0  0
    4.9792   -4.9500    0.0000 F   0  0  0  0  0  0           0  0  0
    3.5500   -4.9542    0.0000 F   0  0  0  0  0  0           0  0  0
    5.0625   -5.5792    0.0000 F   0  0  0  0  0  0           0  0  0
    7.8000   -5.8542    0.0000 C   0  0  0  0  0  0           0  0  0
    6.7500   -4.8792    0.0000 C   0  0  0  0  0  0           0  0  0
    7.6167   -7.0042    0.0000 O   0  0  0  0  0  0           0  0  0
    4.6542   -9.0042    0.0000 C   0  0  0  0  0  0           0  0  0
    4.4750   -9.8125    0.0000 N   0  0  3  0  0  0           0  0  0
    8.1125   -4.4542    0.0000 C   0  0  0  0  0  0           0  0  0
    4.2667   -7.8417    0.0000 C   0  0  0  0  0  0           0  0  0
    8.3625   -5.2417    0.0000 C   0  0  0  0  0  0           0  0  0
    7.3125   -4.2667    0.0000 C   0  0  0  0  0  0           0  0  0
    3.5417   -6.6042    0.0000 C   0  0  0  0  0  0           0  0  0
    8.6667   -3.8375    0.0000 O   0  0  0  0  0  0           0  0  0
    3.5417   -7.4292    0.0000 C   0  0  0  0  0  0           0  0  0
    3.6917  -10.0625    0.0000 C   0  0  0  0  0  0           0  0  0
    5.0792  -10.3667    0.0000 C   0  0  0  0  0  0           0  0  0
    8.4167   -3.0500    0.0000 C   0  0  0  0  0  0           0  0  0
  2  1  1  0     0  0
  3  4  1  0     0  0
  4  1  1  0     0  0
  5  2  1  0     0  0
  6  8  1  0     0  0
  7  5  1  0     0  0
  8  3  2  0     0  0
  9  3  1  0     0  0
 10  1  1  0     0  0
  7 11  1  1     0  0
 12  2  2  0     0  0
 13  6  1  0     0  0
 14  6  1  0     0  0
 15  6  1  0     0  0
 16 11  2  0     0  0
 17 11  1  0     0  0
  5 18  1  1     0  0
 19 10  1  0     0  0
 20 19  1  0     0  0
 21 24  1  0     0  0
 22  4  2  0     0  0
 23 16  1  0     0  0
 24 17  2  0     0  0
 25 27  2  0     0  0
 26 21  1  0     0  0
 27 22  1  0     0  0
 28 20  1  0     0  0
 29 20  1  0     0  0
 30 26  1  0     0  0
  9  7  1  0     0  0
 25  8  1  0     0  0
 21 23  2  0     0  0
M  END