
  CDK    9/16/09,10:2

 21 23  0  0  0  0  0  0  0  0999 V2000
    8.5189    2.2615    0.0000 C   0  0  0  0  0  0  0  0  0  0  0  0
    8.1015    1.5498    0.0000 C   0  0  0  0  0  0  0  0  0  0  0  0
    8.5089    0.8346    0.0000 C   0  0  0  0  0  0  0  0  0  0  0  0
    9.3337    0.8298    0.0000 C   0  0  0  0  0  0  0  0  0  0  0  0
    9.7493    1.5461    0.0000 C   0  0  0  0  0  0  0  0  0  0  0  0
    9.3395    2.2584    0.0000 C   0  0  0  0  0  0  0  0  0  0  0  0
    9.7393    0.1128    0.0000 C   0  0  0  0  0  0  0  0  0  0  0  0
    9.4911   -0.6755    0.0000 N   0  0  0  0  0  0  0  0  0  0  0  0
   10.1640   -1.1552    0.0000 N   0  0  0  0  0  0  0  0  0  0  0  0
   10.8282   -0.6633    0.0000 S   0  0  0  0  0  0  0  0  0  0  0  0
   10.5656    0.1202    0.0000 C   0  0  0  0  0  0  0  0  0  0  0  0
   11.0411    0.7907    0.0000 C   0  0  0  0  0  0  0  0  0  0  0  0
   11.8684    0.7718    0.0000 C   0  0  0  0  0  0  0  0  0  0  0  0
   12.2968    1.4776    0.0000 C   0  0  0  0  0  0  0  0  0  0  0  0
   11.8989    2.2030    0.0000 C   0  0  0  0  0  0  0  0  0  0  0  0
   11.0683    2.2180    0.0000 C   0  0  0  0  0  0  0  0  0  0  0  0
   10.6437    1.5115    0.0000 C   0  0  0  0  0  0  0  0  0  0  0  0
    8.0916    0.1214    0.0000 O   0  0  0  0  0  0  0  0  0  0  0  0
    8.1096    2.9793    0.0000 O   0  0  0  0  0  0  0  0  0  0  0  0
    9.7545    2.9731    0.0000 Cl  0  0  0  0  0  0  0  0  0  0  0  0
   12.3262    2.9103    0.0000 C   0  0  0  0  0  0  0  0  0  0  0  0
 10 11  1  0  0  0  0 
 11  7  2  0  0  0  0 
  4  7  1  0  0  0  0 
  5  6  2  0  0  0  0 
  6  1  1  0  0  0  0 
 12 13  2  0  0  0  0 
  7  8  1  0  0  0  0 
 13 14  1  0  0  0  0 
  1  2  2  0  0  0  0 
 14 15  2  0  0  0  0 
  3  4  2  0  0  0  0 
 15 16  1  0  0  0  0 
 16 17  2  0  0  0  0 
 17 12  1  0  0  0  0 
 11 12  1  0  0  0  0 
  4  5  1  0  0  0  0 
  3 18  1  0  0  0  0 
  2  3  1  0  0  0  0 
  1 19  1  0  0  0  0 
  8  9  2  0  0  0  0 
  6 20  1  0  0  0  0 
  9 10  1  0  0  0  0 
 15 21  1  0  0  0  0 
M  END