
  SciTegic04091416462D

 15 16  0  0  0  0            999 V2000
   19.0624  -17.9535    0.0000 C   0  0
   16.2310  -17.1362    0.0000 C   0  0
   16.2298  -17.9558    0.0000 C   0  0
   16.9379  -18.3647    0.0000 C   0  0
   17.6475  -17.9553    0.0000 C   0  0
   17.6447  -17.1326    0.0000 C   0  0
   16.9361  -16.7274    0.0000 N   0  0
   18.3559  -18.3628    0.0000 N   0  0
   19.0617  -17.1359    0.0000 O   0  0
   19.7003  -18.4596    0.0000 C   0  0
   19.6666  -19.2764    0.0000 S   0  0
   20.4339  -19.5601    0.0000 C   0  0
   20.9398  -18.9168    0.0000 N   0  0
   20.4834  -18.2378    0.0000 C   0  0
   20.7648  -17.4706    0.0000 C   0  0
  2  3  2  0
  3  4  1  0
  4  5  2  0
  5  6  1  0
  6  7  2  0
  7  2  1  0
  5  8  1  0
  8  1  1  0
  1  9  2  0
 11 12  1  0
 10 11  1  0
 12 13  2  0
 13 14  1  0
 14 10  2  0
  1 10  1  0
 14 15  1  0
M  END