
          11280715102D 1   1.00000     0.00000     0

 27 30  0     0  0            999 V2000
    2.3542   -2.8667    0.0000 C   0  0  0  0  0  0           0  0  0
    2.3542   -2.0417    0.0000 N   0  0  3  0  0  0           0  0  0
    4.4917   -0.8042    0.0000 N   0  0  3  0  0  0           0  0  0
    3.0667   -1.6292    0.0000 C   0  0  3  0  0  0           0  0  0
    1.6417   -1.6292    0.0000 C   0  0  0  0  0  0           0  0  0
    3.0667   -3.2792    0.0000 O   0  0  0  0  0  0           0  0  0
    3.7792   -2.0417    0.0000 C   0  0  0  0  0  0           0  0  0
    3.0667   -0.8042    0.0000 C   0  0  0  0  0  0           0  0  0
    1.6417   -3.2792    0.0000 C   0  0  3  0  0  0           0  0  0
    3.7792   -0.3917    0.0000 C   0  0  0  0  0  0           0  0  0
    4.4917   -1.6292    0.0000 C   0  0  0  0  0  0           0  0  0
    5.2042   -0.3917    0.0000 C   0  0  0  0  0  0           0  0  0
    1.6417   -0.8042    0.0000 C   0  0  0  0  0  0           0  0  0
    0.9292   -2.0500    0.0000 C   0  0  0  0  0  0           0  0  0
    0.2125   -0.8125    0.0000 C   0  0  0  0  0  0           0  0  0
    0.2167   -1.6417    0.0000 C   0  0  0  0  0  0           0  0  0
    0.9292   -0.3917    0.0000 C   0  0  0  0  0  0           0  0  0
   -0.5083   -0.4000    0.0000 Br  0  0  0  0  0  0           0  0  0
    5.9167   -0.8125    0.0000 C   0  0  0  0  0  0           0  0  0
    0.6375   -3.8667    0.0000 C   0  0  0  0  0  0           0  0  0
    1.4292   -4.0792    0.0000 C   0  0  0  0  0  0           0  0  0
    0.8500   -3.0667    0.0000 C   0  0  0  0  0  0           0  0  0
    5.9167   -1.6375    0.0000 C   0  0  0  0  0  0           0  0  0
    6.6292   -0.4000    0.0000 C   0  0  0  0  0  0           0  0  0
    7.3417   -0.8125    0.0000 C   0  0  0  0  0  0           0  0  0
    6.6292   -2.0500    0.0000 C   0  0  0  0  0  0           0  0  0
    7.3417   -1.6417    0.0000 C   0  0  0  0  0  0           0  0  0
  2  1  1  0     0  0
  3 10  1  0     0  0
  4  2  1  0     0  0
  5  2  1  0     0  0
  6  1  2  0     0  0
  7  4  1  0     0  0
  8  4  1  0     0  0
  9  1  1  0     0  0
 10  8  1  0     0  0
 11  7  1  0     0  0
 12  3  1  0     0  0
 13  5  2  0     0  0
 14  5  1  0     0  0
 15 16  1  0     0  0
 16 14  2  0     0  0
 17 13  1  0     0  0
 18 15  1  0     0  0
 19 12  1  0     0  0
 20 22  1  0     0  0
 21  9  1  0     0  0
 22  9  1  0     0  0
 23 19  2  0     0  0
 24 19  1  0     0  0
 25 24  2  0     0  0
 26 23  1  0     0  0
 27 25  1  0     0  0
 20 21  1  0     0  0
 15 17  2  0     0  0
  3 11  1  0     0  0
 27 26  2  0     0  0
M  END