
  SciTegic09081514192D

 31 34  0  0  0  0            999 V2000
   15.8092   10.7810    0.0000 C   0  0
   16.8061    9.6602    0.0000 C   0  0
   16.3338    8.2365    0.0000 C   0  0
   14.8647    7.9336    0.0000 C   0  0
   13.8677    9.0544    0.0000 C   0  0
   14.3401   10.4781    0.0000 C   0  0
   12.3984    8.7490    0.0000 N   0  0
   11.3997    9.8682    0.0000 C   0  0
    9.9311    9.5630    0.0000 C   0  0
    9.4611    8.1385    0.0000 N   0  0
   10.4598    7.0192    0.0000 C   0  0
   11.9284    7.3245    0.0000 C   0  0
   13.3450   11.6016    0.0000 O   0  0
   13.7244   12.7401    0.0000 C   0  0
    7.9923    7.8301    0.0000 C   0  0
    7.5241    6.4042    0.0000 C   0  0
    6.0553    6.0958    0.0000 C   0  0
    5.5870    4.6698    0.0000 N   0  0
    4.1182    4.3614    0.0000 C   0  0
    3.6500    2.9355    0.0000 C   0  0
    3.3178    5.2555    0.0000 O   0  0
    2.1812    2.6271    0.0000 C   0  0
    1.7138    1.2033    0.0000 C   0  0
    1.7138   -1.2033    0.0000 N   0  0
    2.5889    0.0182    0.0000 C   0  0
    0.2917   -0.7475    0.0000 C   0  0
    0.2917    0.7475    0.0000 C   0  0
   -1.0028    1.5132    0.0000 C   0  0
   -2.3155    0.7475    0.0000 C   0  0
   -2.3155   -0.7475    0.0000 C   0  0
   -1.0028   -1.5132    0.0000 C   0  0
  1  2  2  0
  2  3  1  0
  3  4  2  0
  4  5  1  0
  5  6  2  0
  6  1  1  0
  7  8  1  0
  7 12  1  0
  8  9  1  0
  9 10  1  0
 10 11  1  0
 11 12  1  0
  5  7  1  0
  6 13  1  0
 13 14  1  0
 10 15  1  0
 15 16  1  0
 16 17  1  0
 17 18  1  0
 18 19  1  0
 19 20  1  0
 19 21  2  0
 20 22  1  0
 22 23  1  0
 23 27  1  0
 26 24  1  0
 24 25  1  0
 25 23  2  0
 26 27  2  0
 27 28  1  0
 28 29  2  0
 29 30  1  0
 30 31  2  0
 31 26  1  0
M  END