
  SciTegic12171313052D

 41 46  0  0  0  0            999 V2000
   19.3371   -5.0286    0.0000 C   0  0
   20.0497   -5.4411    0.0000 C   0  0
   20.7592   -5.0326    0.0000 C   0  0
   20.7625   -4.2098    0.0000 N   0  0
   20.0500   -3.7973    0.0000 C   0  0
   19.3342   -4.2075    0.0000 C   0  0
   21.4781   -3.7992    0.0000 C   0  0
   22.1915   -4.2135    0.0000 C   0  0
   22.1873   -5.0377    0.0000 C   0  0
   22.8967   -5.4520    0.0000 C   0  0
   23.6146   -5.0448    0.0000 N   0  0
   23.6188   -4.2188    0.0000 C   0  0
   22.9049   -3.8000    0.0000 C   0  0
   18.6560   -5.4941    0.0000 N   0  0
   17.8431   -6.5531    0.0000 N   0  0
   18.6347   -6.3207    0.0000 C   0  0
   17.3775   -5.8719    0.0000 C   0  0
   17.8823   -5.2195    0.0000 C   0  0
   17.5695   -4.4583    0.0000 C   0  0
   16.7523   -4.3482    0.0000 C   0  0
   16.2487   -5.0055    0.0000 C   0  0
   16.5643   -5.7642    0.0000 C   0  0
   24.3265   -5.4619    0.0000 C   0  0
   25.0436   -5.0539    0.0000 C   0  0
   25.7537   -5.4755    0.0000 C   0  0
   26.4703   -5.0682    0.0000 C   0  0
   26.4760   -4.2423    0.0000 N   0  0
   25.7591   -3.8254    0.0000 C   0  0
   25.0454   -4.2351    0.0000 C   0  0
   19.2888   -6.8236    0.0000 O   0  0
   21.4802   -2.9741    0.0000 O   0  0
   27.1820   -5.4856    0.0000 N   0  0
   15.4349   -4.8988    0.0000 F   0  0
   17.5658   -7.3301    0.0000 C   0  0
   16.7540   -7.4760    0.0000 C   0  0
   16.4766   -8.2522    0.0000 C   0  0
   17.0111   -8.8819    0.0000 C   0  0
   17.8264   -8.7302    0.0000 C   0  0
   18.1001   -7.9541    0.0000 C   0  0
   18.3629   -9.3570    0.0000 F   0  0
   16.7348   -9.6593    0.0000 F   0  0
  1  2  1  0
  1  6  1  0
  2  3  1  0
  3  4  1  0
  4  5  1  0
  5  6  1  0
  4  7  1  0
  7  8  1  0
  8  9  1  0
  8 13  1  0
  9 10  1  0
 10 11  1  0
 11 12  1  0
 12 13  1  0
  1 14  1  0
 14 18  1  0
 17 15  1  0
 15 16  1  0
 16 14  1  0
 17 18  2  0
 18 19  1  0
 19 20  2  0
 20 21  1  0
 21 22  2  0
 22 17  1  0
 11 23  1  0
 23 24  1  0
 24 25  2  0
 25 26  1  0
 26 27  2  0
 27 28  1  0
 28 29  2  0
 29 24  1  0
 16 30  2  0
  7 31  2  0
 26 32  1  0
 21 33  1  0
 15 34  1  0
 34 35  2  0
 35 36  1  0
 36 37  2  0
 37 38  1  0
 38 39  2  0
 39 34  1  0
 38 40  1  0
 37 41  1  0
M  END