
          08180812472D 1   1.00000     0.00000     0

 29 32  0     1  0            999 V2000
   17.1197   -5.4769    0.0000 C   0  0  0  0  0  0           0  0  0
   16.3868   -5.1374    0.0000 N   0  0  3  0  0  0           0  0  0
   16.9702   -4.7300    0.0000 C   0  0  0  0  0  0           0  0  0
   15.5652   -5.4887    0.0000 C   0  0  0  0  0  0           0  0  0
   16.5237   -4.1206    0.0000 C   0  0  0  0  0  0           0  0  0
   16.2471   -4.4047    0.0000 C   0  0  3  0  0  0           0  0  0
   15.4603   -4.7493    0.0000 C   0  0  2  0  0  0           0  0  0
   16.2841   -3.5275    0.0000 C   0  0  0  0  0  0           0  0  0
   15.0386   -4.0336    0.0000 O   0  0  0  0  0  0           0  0  0
   14.8691   -5.3306    0.0000 C   0  0  0  0  0  0           0  0  0
   14.2137   -4.0407    0.0000 C   0  0  0  0  0  0           0  0  0
   14.2823   -5.9128    0.0000 C   0  0  0  0  0  0           0  0  0
   13.6967   -6.4938    0.0000 C   0  0  2  0  0  0           0  0  0
   13.1090   -7.0725    0.0000 O   0  0  0  0  0  0           0  0  0
   14.2766   -7.0807    0.0000 C   0  0  0  0  0  0           0  0  0
   13.1165   -5.9073    0.0000 C   0  0  3  0  0  0           0  0  0
   15.6574   -3.8136    0.0000 H   0  0  0  0  0  0           0  0  0
   14.0574   -7.8737    0.0000 C   0  0  0  0  0  0           0  0  0
   14.6364   -8.4602    0.0000 C   0  0  0  0  0  0           0  0  0
   15.4356   -8.2516    0.0000 C   0  0  0  0  0  0           0  0  0
   15.6524   -7.4511    0.0000 C   0  0  0  0  0  0           0  0  0
   15.0717   -6.8681    0.0000 C   0  0  0  0  0  0           0  0  0
   12.3520   -6.2230    0.0000 C   0  0  0  0  0  0           0  0  0
   11.5935   -5.9040    0.0000 C   0  0  0  0  0  0           0  0  0
   13.4369   -5.1520    0.0000 C   0  0  0  0  0  0           0  0  0
   13.1246   -4.3862    0.0000 C   0  0  0  0  0  0           0  0  0
   12.3659   -4.0671    0.0000 C   0  0  0  0  0  0           0  0  0
   11.6001   -4.3796    0.0000 C   0  0  0  0  0  0           0  0  0
   11.2809   -5.1381    0.0000 C   0  0  0  0  0  0           0  0  0
 13 14  1  1     0  0
  4  7  1  0     0  0
 13 15  1  0     0  0
  5  8  1  0     0  0
 13 16  1  0     0  0
  6  7  1  0     0  0
  6 17  1  0     0  0
  6  8  1  0     0  0
 15 18  2  0     0  0
 18 19  1  0     0  0
  7  9  1  1     0  0
 19 20  2  0     0  0
  1  2  1  0     0  0
 20 21  1  0     0  0
  7 10  1  0     0  0
 21 22  2  0     0  0
 22 15  1  0     0  0
  1  3  1  0     0  0
  9 11  1  0     0  0
  2  4  1  0     0  0
 10 12  3  0     0  0
  2  5  1  0     0  0
 12 13  1  0     0  0
  3  6  1  0     0  0
 16 23  1  0     0  0
 23 24  1  0     0  0
 16 25  1  0     0  0
 25 26  1  0     0  0
 26 27  1  0     0  0
 27 28  1  0     0  0
 28 29  1  0     0  0
 29 24  1  0     0  0
M  END