
  SciTegic01181116592D

 22 24  0  0  0  0            999 V2000
    3.4170   -9.6349    0.0000 C   0  0
    3.4158  -10.4618    0.0000 C   0  0
    4.1302  -10.8744    0.0000 C   0  0
    4.1284   -9.2225    0.0000 C   0  0
    4.8432   -9.6313    0.0000 C   0  0
    4.8440  -10.4576    0.0000 C   0  0
    5.5588  -10.8683    0.0000 N   0  0
    6.2734  -10.4538    0.0000 C   0  0
    6.2687   -9.6244    0.0000 C   0  0
    5.5533   -9.2174    0.0000 N   0  0
    6.9801   -9.2078    0.0000 C   0  0
    7.6966   -9.6157    0.0000 N   0  0
    6.9751   -8.3834    0.0000 O   0  0
    8.4080   -9.1991    0.0000 C   0  0
    9.1258   -9.6125    0.0000 C   0  0
    9.8368   -9.1966    0.0000 C   0  0
    9.8322   -8.3713    0.0000 C   0  0
    9.1107   -7.9637    0.0000 C   0  0
    8.4027   -8.3819    0.0000 C   0  0
    9.1034   -7.1365    0.0000 N   0  3
    8.3855   -6.7310    0.0000 O   0  0
    9.8134   -6.7173    0.0000 O   0  5
  9 11  1  0
  2  3  1  0
 11 12  1  0
  5  6  1  0
 11 13  2  0
  3  6  2  0
 12 14  1  0
  6  7  1  0
 14 15  2  0
  1  2  2  0
 15 16  1  0
  7  8  2  0
 16 17  2  0
  5  4  2  0
 17 18  1  0
  8  9  1  0
 18 19  2  0
 19 14  1  0
  4  1  1  0
  9 10  2  0
 10  5  1  0
 20 21  2  0
 20 22  1  0
 18 20  1  0
M  CHG  2  20   1  22  -1
M  END