
  SciTegic01161211232D

 21 20  0  0  0  0            999 V2000
    6.3475   -1.7600    0.0000 C   0  0
    5.6326   -2.1720    0.0000 C   0  0
    4.9219   -1.7600    0.0000 C   0  0
    4.2070   -2.1720    0.0000 C   0  0
    3.4922   -1.7600    0.0000 C   0  0
    2.7815   -2.1720    0.0000 C   0  0
    2.0666   -1.7600    0.0000 C   0  0
    1.3518   -2.1720    0.0000 C   0  0
    0.6369   -1.7600    0.0000 C   0  0
   -0.0738   -2.1720    0.0000 C   0  0
   -0.7887   -1.7600    0.0000 C   0  0
   -1.4994   -2.1720    0.0000 C   0  0
   -2.2142   -1.7600    0.0000 C   0  0
   -2.2142   -0.9362    0.0000 C   0  0
   -2.9291   -0.5243    0.0000 C   0  0
   -2.9291    0.2996    0.0000 C   0  0
   -3.6398    0.7115    0.0000 C   0  0
   -3.6398    1.5354    0.0000 C   0  0
    6.3475   -0.9362    0.0000 O   0  0
    7.0623   -2.1720    0.0000 O   0  0
    0.6369   -0.9362    0.0000 O   0  0
  1  2  1  0
  2  3  1  0
  3  4  1  0
  4  5  1  0
  5  6  1  0
  6  7  1  0
  7  8  1  0
  8  9  1  0
  9 10  1  0
 10 11  2  0
 11 12  1  0
 12 13  2  0
 13 14  1  0
 14 15  1  0
 15 16  1  0
 16 17  1  0
 17 18  1  0
  1 19  2  0
  1 20  1  0
  9 21  1  0
M  END