
  SciTegic01161211252D

 43 45  0  0  0  0            999 V2000
    1.2500    0.5583    0.0000 P   0  0
    1.9292    0.5583    0.0000 N   0  0
    2.5750    0.0500    0.0000 C   0  0
    2.5292   -0.7750    0.0000 C   0  0
    4.4417   -1.2042    0.0000 C   0  0
    3.2292   -1.2167    0.0000 N   0  0
    0.6375    0.2583    0.0000 C   0  0
    0.0667    0.7083    0.0000 N   0  0
   -0.6000    0.3583    0.0000 C   0  0
    3.8167   -0.7875    0.0000 C   0  0  1  0  0  0
    5.1042   -0.8500    0.0000 N   0  0
   -1.8125    0.3500    0.0000 N   0  0
    1.2417   -0.1292    0.0000 O   0  0
   -2.2208   -0.3750    0.0000 C   0  0
    1.2417    1.2458    0.0000 O   0  0
   -1.2208    0.7750    0.0000 C   0  0  1  0  0  0
    8.3292   -2.0917    0.0000 C   0  0
    1.8000   -1.1500    0.0000 O   0  0
    4.4375   -1.9542    0.0000 O   0  0
    3.8167   -0.0292    0.0000 C   0  0
   -0.5958   -0.3917    0.0000 O   0  0
   -1.6208   -0.9417    0.0000 O   0  0
    8.3042   -1.3375    0.0000 O   0  0
    5.7417   -1.2500    0.0000 C   0  0
    7.6625   -2.4542    0.0000 C   0  0
    2.2292    1.3250    0.0000 C   0  0
    3.2667    0.4958    0.0000 C   0  0
    7.0167   -2.0500    0.0000 C   0  0
    4.4667    0.3458    0.0000 C   0  0
    9.0042   -2.4500    0.0000 O   0  0
    6.4042   -0.9000    0.0000 C   0  0
    5.7167   -2.0000    0.0000 C   0  0
    7.0417   -1.2875    0.0000 C   0  0
    6.3542   -2.4000    0.0000 C   0  0
    3.0542    1.2708    0.0000 C   0  0
   -3.0125   -0.6000    0.0000 C   0  0
   -1.2208    1.5375    0.0000 C   0  0
    5.1167   -0.0292    0.0000 C   0  0
    4.4667    1.0958    0.0000 C   0  0
    9.6417   -2.0542    0.0000 C   0  0
    5.7667    0.3458    0.0000 C   0  0
    5.1167    1.4708    0.0000 C   0  0
    5.7667    1.0958    0.0000 C   0  0
  2  1  1  0
  3  2  1  0
  4  3  1  0
  5 10  1  0
  6  4  1  0
  7  1  1  0
  8  7  1  0
  9  8  1  0
 10  6  1  0
 11  5  1  0
 12 16  1  0
 13  1  1  0
 14 12  1  0
 15  1  2  0
 16  9  1  0
 17 25  1  0
 18  4  2  0
 19  5  2  0
 10 20  1  1
 21  9  2  0
 22 14  2  0
 23 17  2  0
 24 11  1  0
 25 28  1  0
 26  2  1  0
 27  3  1  0
 28 34  2  0
 29 20  1  0
 30 17  1  0
 31 24  1  0
 32 24  2  0
 33 31  2  0
 34 32  1  0
 35 26  1  0
 36 14  1  0
 16 37  1  1
 38 29  1  0
 39 29  2  0
 40 30  1  0
 41 38  2  0
 42 39  1  0
 43 42  2  0
 35 27  1  0
 43 41  1  0
 28 33  1  0
M  END