
  SciTegic12211612532D

 14 15  0  0  0  0            999 V2000
    2.5951   -3.0039    0.0000 N   0  0
    3.8056   -3.8679    0.0000 C   0  0
    3.3372   -5.2929    0.0000 C   0  0
    1.8372   -5.2877    0.0000 C   0  0
    1.3786   -3.8595    0.0000 C   0  0
    2.5973   -1.5031    0.0000 C   0  0
    1.2990   -0.7500    0.0000 C   0  0
    1.2990    0.7500    0.0000 C   0  0
    0.0000    1.5000    0.0000 C   0  0
   -1.2990    0.7500    0.0000 C   0  0
   -1.2990   -0.7500    0.0000 C   0  0
    0.0000   -1.5000    0.0000 C   0  0
    3.6375   -0.9049    0.0000 O   0  0
    0.0000    2.7000    0.0000 F   0  0
  1  2  1  0
  2  3  1  0
  3  4  2  0
  4  5  1  0
  1  5  1  0
  6  7  1  0
  7  8  1  0
  8  9  2  0
  9 10  1  0
 10 11  2  0
 11 12  1  0
  7 12  2  0
  6 13  2  0
  9 14  1  0
  1  6  1  0
M  END