
  SciTegic07091215302D

 20 21  0  0  0  0            999 V2000
  -12.6528   -6.8269    0.0000 C   0  0
  -13.3673   -7.2394    0.0000 C   0  0
  -13.3673   -8.0644    0.0000 C   0  0
  -12.6528   -8.4769    0.0000 C   0  0
  -11.9383   -8.0644    0.0000 C   0  0
  -11.9383   -7.2394    0.0000 C   0  0
  -11.2238   -6.8269    0.0000 C   0  0  2  0  0  0
  -10.5093   -7.2394    0.0000 C   0  0
  -10.5094   -8.0644    0.0000 C   0  0
   -9.7949   -8.4769    0.0000 C   0  0
   -9.0804   -8.0644    0.0000 C   0  0
   -9.0804   -7.2394    0.0000 C   0  0
   -9.7949   -6.8269    0.0000 C   0  0
  -11.2238   -6.0019    0.0000 O   0  0
  -11.9383   -5.5894    0.0000 C   0  0
  -11.9383   -4.7644    0.0000 C   0  0
  -12.6528   -4.3519    0.0000 N   0  0
  -12.6528   -3.5269    0.0000 C   0  0
  -13.3672   -4.7644    0.0000 C   0  0
   -8.3659   -8.4769    0.0000 C   0  0
  1  2  1  0
  1  6  2  0
  2  3  2  0
  3  4  1  0
  4  5  2  0
  5  6  1  0
  6  7  1  0
  7  8  1  0
  8  9  1  0
  8 13  2  0
  9 10  2  0
 10 11  1  0
 11 12  2  0
 12 13  1  0
  7 14  1  1
 14 15  1  0
 15 16  1  0
 16 17  1  0
 17 18  1  0
 17 19  1  0
 11 20  1  0
M  END