
  SciTegic02271514512D

 23 25  0  0  0  0            999 V2000
    8.9767   -7.5735    0.0000 C   0  0
    8.9767   -8.3907    0.0000 C   0  0
    9.6820   -8.7951    0.0000 C   0  0
   10.3873   -8.3907    0.0000 C   0  0
   10.3873   -7.5735    0.0000 C   0  0
    9.6820   -7.1607    0.0000 C   0  0
    8.2706   -8.8008    0.0000 C   0  0
    7.5620   -8.3915    0.0000 C   0  0
    6.8553   -8.8004    0.0000 C   0  0
    6.8561   -9.6185    0.0000 C   0  0
    7.5694  -10.0259    0.0000 C   0  0
    8.2731   -9.6146    0.0000 C   0  0
    9.6820   -6.3436    0.0000 O   0  0
   11.0962   -7.1669    0.0000 S   0  0
   11.8027   -7.5776    0.0000 C   0  0
   11.0944   -8.8003    0.0000 O   0  0
   11.7987   -8.3958    0.0000 C   0  0
   12.5044   -8.8064    0.0000 C   0  0
   13.2143   -8.3999    0.0000 C   0  0
   13.2141   -7.5784    0.0000 C   0  0
   12.5078   -7.1715    0.0000 C   0  0
   12.5051   -6.3569    0.0000 C   0  0
   12.5051   -5.5398    0.0000 N   0  0
  1  2  1  0
  1  6  1  0
  2  3  1  0
  3  4  1  0
  4  5  1  0
  5  6  2  0
  7  8  2  0
  8  9  1  0
  9 10  2  0
 10 11  1  0
 11 12  2  0
 12  7  1  0
  2  7  1  0
  6 13  1  0
  5 14  1  0
 14 15  1  0
  4 16  2  0
 15 17  2  0
 17 18  1  0
 18 19  2  0
 19 20  1  0
 20 21  2  0
 21 15  1  0
 22 23  3  0
 21 22  1  0
M  END