
          11280715472D 1   1.00000     0.00000     0

 24 26  0     0  0            999 V2000
    1.9542    2.2333    0.0000 N   0  0  3  0  0  0           0  0  0
    1.9542    1.4083    0.0000 C   0  0  0  0  0  0           0  0  0
    1.2417    2.6500    0.0000 C   0  0  0  0  0  0           0  0  0
   -0.9000   -2.7125    0.0000 N   0  0  0  0  0  0           0  0  0
    0.5250    2.2333    0.0000 C   0  0  0  0  0  0           0  0  0
    1.2417    1.0000    0.0000 C   0  0  0  0  0  0           0  0  0
   -0.1875    1.0000    0.0000 O   0  0  0  0  0  0           0  0  0
    2.6750    2.6500    0.0000 C   0  0  3  0  0  0           0  0  0
    0.5250    1.4125    0.0000 C   0  0  3  0  0  0           0  0  0
   -0.1875    0.1750    0.0000 C   0  0  0  0  0  0           0  0  0
   -0.1833   -2.3000    0.0000 C   0  0  0  0  0  0           0  0  0
   -0.1833   -1.4750    0.0000 C   0  0  0  0  0  0           0  0  0
   -1.6083   -2.3000    0.0000 C   0  0  0  0  0  0           0  0  0
   -0.8958   -0.2375    0.0000 C   0  0  0  0  0  0           0  0  0
    0.5292   -0.2292    0.0000 C   0  0  0  0  0  0           0  0  0
    0.5375   -1.0625    0.0000 C   0  0  0  0  0  0           0  0  0
   -0.9000   -1.0625    0.0000 C   0  0  0  0  0  0           0  0  0
    2.6750    3.4833    0.0000 C   0  0  0  0  0  0           0  0  0
    3.3875    2.2333    0.0000 C   0  0  0  0  0  0           0  0  0
   -1.6000   -1.4750    0.0000 C   0  0  0  0  0  0           0  0  0
   -2.3125   -2.7042    0.0000 C   0  0  0  0  0  0           0  0  0
   -2.3125   -1.0625    0.0000 C   0  0  0  0  0  0           0  0  0
   -3.0250   -2.2917    0.0000 C   0  0  0  0  0  0           0  0  0
   -3.0250   -1.4667    0.0000 C   0  0  0  0  0  0           0  0  0
  2  1  1  0     0  0
  3  1  1  0     0  0
  4 11  1  0     0  0
  5  3  1  0     0  0
  6  2  1  0     0  0
  7  9  1  0     0  0
  8  1  1  0     0  0
  9  5  1  0     0  0
 10  7  1  0     0  0
 11 12  1  0     0  0
 12 16  2  0     0  0
 13  4  1  0     0  0
 14 10  1  0     0  0
 15 10  2  0     0  0
 16 15  1  0     0  0
 17 14  2  0     0  0
 18  8  1  0     0  0
 19  8  1  0     0  0
 20 13  2  0     0  0
 21 13  1  0     0  0
 22 20  1  0     0  0
 23 21  2  0     0  0
 24 23  1  0     0  0
  9  6  1  0     0  0
 12 17  1  0     0  0
 24 22  2  0     0  0
M  END