
  SciTegic12191611282D

110110  0  0  0  0            999 V2000
   -5.4587   -1.3757    0.0000 N   0  0
   -6.4989   -0.7775    0.0000 C   0  0  2  0  0  0
   -7.5412    1.3216    0.0000 O   0  0
   -6.5010    0.7234    0.0000 C   0  0
   -7.7972   -1.5305    0.0000 C   0  0
  -10.4047    2.9594    0.0000 N   0  0
  -11.7073    3.7049    0.0000 C   0  0
  -11.7114    4.9049    0.0000 N   0  0
  -13.0047    2.9505    0.0000 N   0  0
   -5.2027    1.4764    0.0000 N   0  0
   -5.2048    2.9772    0.0000 C   0  0  2  0  0  0
   -3.9115    4.9316    0.0000 O   0  0
   -3.9074    3.7317    0.0000 C   0  0
   -6.5073    3.7227    0.0000 C   0  0
   -7.8048    2.9683    0.0000 C   0  0
   -9.1073    3.7138    0.0000 C   0  0
   -2.6048    2.9861    0.0000 N   0  0
   -1.3074    3.7406    0.0000 C   0  0  2  0  0  0
   -0.0007    1.7950    0.0000 O   0  0
   -0.0049    2.9950    0.0000 C   0  0
   -1.3095    5.2414    0.0000 C   0  0
   -0.2714    5.8435    0.0000 C   0  0
   -2.3497    5.8396    0.0000 C   0  0
    1.2926    3.7495    0.0000 N   0  0
    2.5951    3.0040    0.0000 C   0  0  2  0  0  0
    4.9336    3.1587    0.0000 O   0  0
    3.8934    3.7569    0.0000 C   0  0
    2.5973    1.5031    0.0000 C   0  0
    3.9020   -0.7462    0.0000 C   0  0
    3.8977    0.7538    0.0000 C   0  0
    5.1945    1.5075    0.0000 C   0  0
    6.4957    0.7612    0.0000 C   0  0
    6.5001   -0.7388    0.0000 C   0  0
    5.2032   -1.4925    0.0000 C   0  0
    7.5410   -1.3358    0.0000 O   0  0
    3.8913    5.2578    0.0000 N   0  0
    5.1895    6.0108    0.0000 C   0  0  2  0  0  0
    4.1472    8.1098    0.0000 O   0  0
    5.1874    7.5116    0.0000 C   0  0
    6.4921    5.2653    0.0000 C   0  0  1  0  0  0
    6.4963    4.0653    0.0000 C   0  0
    7.7895    6.0198    0.0000 C   0  0
    8.8310    5.4237    0.0000 C   0  0
    6.4857    8.2647    0.0000 N   0  0
    6.4836    9.7655    0.0000 C   0  0  2  0  0  0
    4.1448    9.9164    0.0000 O   0  0
    5.1841   10.5164    0.0000 C   0  0
    7.7818   10.5186    0.0000 C   0  0
    5.1836   12.0172    0.0000 N   0  0
    3.9716   12.8792    0.0000 C   0  0  2  0  0  0
    2.3040   11.2359    0.0000 O   0  0
    2.5486   12.4107    0.0000 C   0  0
    4.4377   14.3049    0.0000 C   0  0
    6.3987   12.8749    0.0000 C   0  0
    5.9377   14.3023    0.0000 C   0  0
    1.4287   13.4099    0.0000 N   0  0
    0.0031   12.9406    0.0000 C   0  0  2  0  0  0
   -1.4460   11.0980    0.0000 O   0  0
   -0.3058   11.4719    0.0000 C   0  0
   -1.1167   13.9399    0.0000 C   0  0
   -3.6630   14.4676    0.0000 C   0  0
   -2.5423   13.4705    0.0000 C   0  0
   -2.8455   12.0015    0.0000 C   0  0
   -4.2694   11.5295    0.0000 C   0  0
   -5.3900   12.5266    0.0000 C   0  0
   -5.0868   13.9956    0.0000 C   0  0
    0.5880   10.6712    0.0000 O   0  0
    9.0835    9.7716    0.0000 C   0  0
   10.4345   10.3935    0.0000 N   0  0
   11.4389    9.2793    0.0000 C   0  0
   10.6897    7.9799    0.0000 N   0  0
    9.2223    8.2908    0.0000 C   0  0
   -7.7951   -3.0313    0.0000 C   0  0
   -8.8331   -3.6334    0.0000 O   0  0
   -6.7549   -3.6296    0.0000 O   0  0
  -14.3072    3.6960    0.0000 C   0  0
  -15.6046    2.9415    0.0000 N   0  0
  -14.3114    4.8960    0.0000 O   0  0
  -16.9072    3.6871    0.0000 C   0  0
  -18.2046    2.9326    0.0000 C   0  0
  -19.5072    3.6782    0.0000 C   0  0
  -20.8046    2.9237    0.0000 C   0  0
  -22.1071    3.6692    0.0000 N   0  0
  -23.4045    2.9148    0.0000 C   0  0
  -24.7071    3.6603    0.0000 C   0  0
  -23.4004    1.7148    0.0000 O   0  0
  -26.0045    2.9059    0.0000 C   0  0
  -24.7112    4.8603    0.0000 T   0  0
   14.1921    4.9666    0.0000 C   0  0
   12.8921    5.7166    0.0000 C   0  0
   12.8921    6.9166    0.0000 O   0  0
   11.8526    5.1170    0.0000 O   0  0
   15.2315    5.5663    0.0000 F   0  0
   15.2312    4.3665    0.0000 F   0  0
   14.1921    3.7666    0.0000 F   0  0
   20.5920    4.9666    0.0000 C   0  0
   19.2920    5.7166    0.0000 C   0  0
   19.2920    6.9166    0.0000 O   0  0
   18.2526    5.1170    0.0000 O   0  0
   21.6314    5.5663    0.0000 F   0  0
   21.6312    4.3665    0.0000 F   0  0
   20.5920    3.7666    0.0000 F   0  0
   26.9920    4.9666    0.0000 C   0  0
   25.6920    5.7166    0.0000 C   0  0
   25.6920    6.9166    0.0000 O   0  0
   24.6526    5.1170    0.0000 O   0  0
   28.0314    5.5663    0.0000 F   0  0
   28.0311    4.3665    0.0000 F   0  0
   26.9920    3.7666    0.0000 F   0  0
  -27.0460    3.5020    0.0000 T   0  0
  4 10  1  0
 13 17  1  0
 20 24  1  0
 27 36  1  0
 39 44  1  0
 47 49  1  0
 52 56  1  0
 59 67  1  0
  2  1  1  1
  2  4  1  0
  4  3  2  0
  2  5  1  0
  6  7  1  0
  7  8  1  0
  7  9  2  0
 11 10  1  1
 11 13  1  0
 13 12  2  0
 11 14  1  0
 14 15  1  0
 15 16  1  0
 16  6  1  0
 18 17  1  1
 18 20  1  0
 20 19  2  0
 18 21  1  0
 21 22  1  0
 21 23  1  0
 25 24  1  6
 25 27  1  0
 27 26  2  0
 25 28  1  0
 28 30  1  0
 29 30  2  0
 30 31  1  0
 31 32  2  0
 32 33  1  0
 33 34  2  0
 34 29  1  0
 33 35  1  0
 37 36  1  6
 37 39  1  0
 39 38  2  0
 37 40  1  0
 40 41  1  6
 40 42  1  0
 42 43  1  0
 45 44  1  6
 45 47  1  0
 47 46  2  0
 45 48  1  0
 49 50  1  0
 50 52  1  6
 52 51  2  0
 50 53  1  0
 54 55  1  0
 55 53  1  0
 54 49  1  0
 56 57  1  0
 57 59  1  0
 59 58  2  0
 57 60  1  6
 60 62  1  0
 61 62  2  0
 62 63  1  0
 63 64  2  0
 64 65  1  0
 65 66  2  0
 66 61  1  0
 48 68  1  0
 68 69  1  0
 69 70  1  0
 70 71  2  0
 71 72  1  0
 72 68  2  0
  5 73  1  0
 73 74  2  0
 73 75  1  0
  9 76  1  0
 76 77  1  0
 76 78  2  0
 77 79  1  0
 79 80  1  0
 80 81  1  0
 81 82  1  0
 82 83  1  0
 83 84  1  0
 84 85  1  0
 84 86  2  0
 85 87  1  0
 85 88  1  0
 89 90  1  0
 90 91  1  0
 90 92  2  0
 89 93  1  0
 89 94  1  0
 89 95  1  0
 96 97  1  0
 97 98  1  0
 97 99  2  0
 96100  1  0
 96101  1  0
 96102  1  0
103104  1  0
104105  1  0
104106  2  0
103107  1  0
103108  1  0
103109  1  0
 87110  1  0
M  END