
  SciTegic02011310462D

 36 39  0  0  0  0            999 V2000
   26.4024   -7.9437    0.0000 C   0  0
   25.6897   -8.3638    0.0000 C   0  0
   25.6981   -9.1892    0.0000 N   0  0
   26.4185   -9.5955    0.0000 C   0  0
   27.1319   -9.1704    0.0000 C   0  0
   27.1200   -8.3464    0.0000 C   0  0
   26.4283  -10.4205    0.0000 C   0  0
   27.1477  -10.8244    0.0000 N   0  0
   27.1575  -11.6493    0.0000 O   0  0
   27.8521   -9.5728    0.0000 O   0  0
   17.8146   -7.2713    0.0000 C   0  0
   17.8163   -8.0986    0.0000 C   0  0
   18.5323   -8.5092    0.0000 C   0  0
   18.5251   -6.8563    0.0000 C   0  0
   19.2419   -7.2630    0.0000 C   0  0
   19.2480   -8.0914    0.0000 C   0  0
   19.9644   -8.4982    0.0000 C   0  0
   20.6795   -8.0809    0.0000 N   0  0
   20.6734   -7.2525    0.0000 C   0  0
   19.9523   -6.8412    0.0000 C   0  0
   19.9688   -9.3209    0.0000 C   0  0
   19.2551   -9.7370    0.0000 C   0  0
   19.2597  -10.5612    0.0000 C   0  0
   19.9771  -10.9703    0.0000 C   0  0
   20.6915  -10.5491    0.0000 C   0  0
   20.6834   -9.7262    0.0000 C   0  0
   17.0988   -6.8613    0.0000 O   0  0
   17.0960   -6.0363    0.0000 C   0  0
   17.1028   -8.5129    0.0000 O   0  0
   16.3873   -8.1021    0.0000 C   0  0
   21.4044   -8.4747    0.0000 C   0  0
   22.1079   -8.0439    0.0000 C   0  0
   22.8329   -8.4378    0.0000 C   0  0
   23.5364   -8.0069    0.0000 C   0  0
   24.2612   -8.4008    0.0000 C   0  0
   24.9648   -7.9700    0.0000 C   0  0
  1  2  2  0
  2  3  1  0
  3  4  2  0
  4  5  1  0
  5  6  2  0
  6  1  1  0
  4  7  1  0
  7  8  2  0
  8  9  1  0
  5 10  1  0
 11 12  2  0
 12 13  1  0
 13 16  2  0
 15 14  2  0
 14 11  1  0
 15 16  1  0
 15 20  1  0
 16 17  1  0
 17 18  1  0
 18 19  1  0
 19 20  1  0
 21 22  2  0
 22 23  1  0
 23 24  2  0
 24 25  1  0
 25 26  2  0
 26 21  1  0
 17 21  1  0
 11 27  1  0
 27 28  1  0
 12 29  1  0
 29 30  1  0
 18 31  1  0
 31 32  1  0
 32 33  1  0
 33 34  1  0
 34 35  1  0
 35 36  1  0
 36  2  1  0
M  END