
          11280715072D 1   1.00000     0.00000     0

 40 43  0     0  0            999 V2000
    7.4375    1.2208    0.0000 C   0  0  0  0  0  0           0  0  0
    0.3125    0.2958    0.0000 C   0  0  0  0  0  0           0  0  0
    8.1375    1.6583    0.0000 C   0  0  0  0  0  0           0  0  0
   -0.3958   -0.1292    0.0000 C   0  0  0  0  0  0           0  0  0
    7.4667    0.3875    0.0000 C   0  0  0  0  0  0           0  0  0
    1.0375   -0.1042    0.0000 C   0  0  0  0  0  0           0  0  0
    8.8625    1.2708    0.0000 C   0  0  0  0  0  0           0  0  0
   -0.3833   -0.9542    0.0000 C   0  0  0  0  0  0           0  0  0
    8.2042    0.0083    0.0000 C   0  0  0  0  0  0           0  0  0
    1.0417   -0.9375    0.0000 C   0  0  0  0  0  0           0  0  0
    0.3375   -1.3542    0.0000 C   0  0  0  0  0  0           0  0  0
    8.9000    0.4458    0.0000 C   0  0  0  0  0  0           0  0  0
    6.7042    1.6083    0.0000 C   0  0  0  0  0  0           0  0  0
    0.2917    1.1208    0.0000 C   0  0  0  0  0  0           0  0  0
    0.1750   -2.1667    0.0000 O   0  0  0  0  0  0           0  0  0
    9.6917    0.2250    0.0000 O   0  0  0  0  0  0           0  0  0
    9.6375    1.5583    0.0000 C   0  0  0  0  0  0           0  0  0
   -0.9875   -1.5125    0.0000 C   0  0  0  0  0  0           0  0  0
   10.1417    0.9125    0.0000 C   0  0  0  0  0  0           0  0  0
   -0.6458   -2.2625    0.0000 C   0  0  0  0  0  0           0  0  0
    6.6792    2.4250    0.0000 O   0  0  0  0  0  0           0  0  0
   -0.4250    1.5208    0.0000 O   0  0  0  0  0  0           0  0  0
   -1.1125    0.2750    0.0000 O   0  0  0  0  0  0           0  0  0
    8.1000    2.4833    0.0000 O   0  0  0  0  0  0           0  0  0
    6.7542   -0.0250    0.0000 O   0  0  0  0  0  0           0  0  0
    1.7417    0.3125    0.0000 O   0  0  0  0  0  0           0  0  0
    1.7625   -1.3417    0.0000 O   0  0  0  0  0  0           0  0  0
    8.2375   -0.8167    0.0000 O   0  0  0  0  0  0           0  0  0
    1.0042    1.5458    0.0000 C   0  0  0  0  0  0           0  0  0
    6.0042    1.1625    0.0000 C   0  0  0  0  0  0           0  0  0
    2.4667   -0.0917    0.0000 C   0  0  0  0  0  0           0  0  0
    6.0292    0.3708    0.0000 C   0  0  0  0  0  0           0  0  0
    8.8000    2.9208    0.0000 C   0  0  0  0  0  0           0  0  0
   -1.8250   -0.1500    0.0000 C   0  0  0  0  0  0           0  0  0
    8.9667   -1.1917    0.0000 C   0  0  0  0  0  0           0  0  0
    1.7667   -2.1667    0.0000 C   0  0  0  0  0  0           0  0  0
    5.3250   -0.0500    0.0000 C   0  0  0  0  0  0           0  0  0
    3.1750    0.3333    0.0000 C   0  0  0  0  0  0           0  0  0
    3.8917   -0.0667    0.0000 C   0  0  0  0  0  0           0  0  0
    4.6042    0.3583    0.0000 C   0  0  0  0  0  0           0  0  0
  2  6  1  0     0  0
  3  1  2  0     0  0
  4  2  2  0     0  0
  5  1  1  0     0  0
  6 26  1  0     0  0
  7  3  1  0     0  0
  8 11  2  0     0  0
  9  5  2  0     0  0
 10  6  2  0     0  0
 11 10  1  0     0  0
 12  9  1  0     0  0
 13  1  1  0     0  0
 14  2  1  0     0  0
 15 11  1  0     0  0
 16 12  1  0     0  0
 17  7  1  0     0  0
 18  8  1  0     0  0
 19 17  2  0     0  0
 20 15  1  0     0  0
 21 13  2  0     0  0
 22 14  2  0     0  0
 23  4  1  0     0  0
 24  3  1  0     0  0
 25  5  1  0     0  0
 26 31  1  0     0  0
 27 10  1  0     0  0
 28  9  1  0     0  0
 29 14  1  0     0  0
 30 13  1  0     0  0
 31 38  1  0     0  0
 32 25  1  0     0  0
 33 24  1  0     0  0
 34 23  1  0     0  0
 35 28  1  0     0  0
 36 27  1  0     0  0
 37 32  1  0     0  0
 38 39  1  0     0  0
 39 40  1  0     0  0
 40 37  1  0     0  0
 12  7  2  0     0  0
 16 19  1  0     0  0
  8  4  1  0     0  0
 20 18  2  0     0  0
M  END