
          11280714512D 1   1.00000     0.00000     0

 30 34  0     1  0            999 V2000
    7.0000   -6.4500    0.0000 C   0  0  1  0  0  0           0  0  0
    7.0042   -5.2542    0.0000 N   0  0  3  0  0  0           0  0  0
    6.9917   -7.0417    0.0000 C   0  0  2  0  0  0           0  0  0
    6.4792   -5.5542    0.0000 C   0  0  2  0  0  0           0  0  0
    5.9667   -5.2542    0.0000 C   0  0  0  0  0  0           0  0  0
    6.4792   -6.1500    0.0000 C   0  0  0  0  0  0           0  0  0
    5.9667   -4.6542    0.0000 C   0  0  0  0  0  0           0  0  0
    7.5167   -6.1542    0.0000 C   0  0  1  0  0  0           0  0  0
    5.4542   -5.5542    0.0000 C   0  0  0  0  0  0           0  0  0
    6.4667   -7.3417    0.0000 C   0  0  0  0  0  0           0  0  0
    7.5250   -5.5542    0.0000 C   0  0  0  0  0  0           0  0  0
    4.9375   -5.2542    0.0000 C   0  0  0  0  0  0           0  0  0
    4.9292   -4.6542    0.0000 C   0  0  0  0  0  0           0  0  0
    5.4542   -4.3542    0.0000 C   0  0  0  0  0  0           0  0  0
    4.4167   -5.5542    0.0000 O   0  0  0  0  0  0           0  0  0
    7.0042   -4.6542    0.0000 C   0  0  0  0  0  0           0  0  0
    4.4167   -4.3542    0.0000 O   0  0  0  0  0  0           0  0  0
    7.5042   -7.3500    0.0000 C   0  0  1  0  0  0           0  0  0
    3.6917   -4.9667    0.0000 C   0  0  0  0  0  0           0  0  0
    6.4792   -4.3542    0.0000 C   0  0  0  0  0  0           0  0  0
    6.4625   -7.9417    0.0000 O   0  0  0  0  0  0           0  0  0
    8.0292   -6.4542    0.0000 C   0  0  0  0  0  0           0  0  0
    8.0250   -7.0542    0.0000 C   0  0  0  0  0  0           0  0  0
    5.9542   -7.0292    0.0000 O   0  0  0  0  0  0           0  0  0
    7.8000   -7.8667    0.0000 O   0  0  0  0  0  0           0  0  0
    5.3667   -7.1875    0.0000 C   0  0  0  0  0  0           0  0  0
    5.9625   -5.8500    0.0000 H   0  0  0  0  0  0           0  0  0
    7.2000   -7.8667    0.0000 H   0  0  0  0  0  0           0  0  0
    8.0375   -5.8542    0.0000 H   0  0  0  0  0  0           0  0  0
    6.4792   -6.7417    0.0000 H   0  0  0  0  0  0           0  0  0
  2 11  1  0     0  0
  3  1  1  0     0  0
  4  6  1  0     0  0
  5  4  1  0     0  0
  6  1  1  0     0  0
  7  5  2  0     0  0
  8  1  1  0     0  0
  9  5  1  0     0  0
  3 10  1  1     0  0
 11  8  1  0     0  0
 12  9  2  0     0  0
 13 12  1  0     0  0
 14  7  1  0     0  0
 15 12  1  0     0  0
 16  2  1  0     0  0
 17 13  1  0     0  0
 18  3  1  0     0  0
 19 15  1  0     0  0
 20 16  1  0     0  0
 21 10  2  0     0  0
 22  8  1  0     0  0
 23 22  1  0     0  0
 24 10  1  0     0  0
 18 25  1  1     0  0
 26 24  1  0     0  0
  4 27  1  6     0  0
 18 28  1  6     0  0
  8 29  1  6     0  0
  1 30  1  6     0  0
  4  2  1  0     0  0
 23 18  1  0     0  0
 20  7  1  0     0  0
 13 14  2  0     0  0
 17 19  1  0     0  0
M  END