
  SciTegic12231509382D

 21 21  0  0  0  0            999 V2000
    2.0387   -7.2005    0.0000 N   0  3
    1.3591   -6.7812    0.0000 C   0  0
    1.3591   -6.0149    0.0000 C   0  0
   -4.2943   -6.0389    0.0000 C   0  0
   -3.6292   -5.5956    0.0000 O   0  0
   -2.9303   -6.0389    0.0000 C   0  0
   -4.0340   -6.8535    0.0000 C   0  0
   -3.1905   -6.8535    0.0000 C   0  0
    2.7472   -6.8197    0.0000 O   0  5
    2.0580   -7.9813    0.0000 O   0  0
   -5.0172   -5.5956    0.0000 C   0  0
    2.0725   -5.5956    0.0000 N   0  0
    0.6121   -5.5956    0.0000 N   0  0
   -5.7257   -6.0389    0.0000 N   0  0
   -1.5037   -6.0149    0.0000 S   0  0
   -2.2218   -5.5956    0.0000 C   0  0
   -0.0819   -6.0149    0.0000 C   0  0
   -0.8097   -5.5956    0.0000 C   0  0
   -5.7257   -6.8535    0.0000 C   0  0
   -6.4438   -5.5956    0.0000 C   0  0
    2.7665   -6.0149    0.0000 C   0  0
  2  1  1  0
  3  2  2  3
  4  5  1  0
  5  6  1  0
  6 16  1  0
  7  8  1  0
  8  6  2  0
  9  1  1  0
 10  1  2  0
 11  4  1  0
 12  3  1  0
 13  3  1  0
 14 11  1  0
 15 18  1  0
 16 15  1  0
 17 13  1  0
 18 17  1  0
 19 14  1  0
 20 14  1  0
 21 12  1  0
  7  4  2  0
M  CHG  2   1   1   9  -1
M  END