
  SciTegic01161211222D

 91 99  0  0  0  0            999 V2000
    3.6877   -2.9555    0.0000 N   0  0
   -1.3560    0.7047    0.0000 C   0  0
   -1.3432   -0.1232    0.0000 C   0  0
   -0.6253   -0.5298    0.0000 C   0  0
    0.0878   -0.1070    0.0000 C   0  0
    0.0796    0.7208    0.0000 C   0  0
   -0.6461    1.1305    0.0000 C   0  0
   -2.0756    1.1040    0.0000 O   0  0
    0.7903    1.1424    0.0000 C   0  0
   -0.6145   -1.3548    0.0000 C   0  0
    0.8094   -0.5108    0.0000 C   0  0
    0.8155   -1.3358    0.0000 C   0  0  1  0  0  0
    1.5372   -1.7441    0.0000 C   0  0
    0.1046   -1.7568    0.0000 N   0  0
    1.5433   -2.5689    0.0000 O   0  0
    2.2481   -1.3230    0.0000 N   0  0
    2.9605   -1.7283    0.0000 C   0  0  1  0  0  0
    3.6680   -1.3086    0.0000 C   0  0
    2.2343   -0.4983    0.0000 C   0  0
    2.9475   -0.0802    0.0000 C   0  0
    3.6647   -0.4849    0.0000 C   0  0
    4.3699   -0.0706    0.0000 C   0  0
    4.3648    0.7527    0.0000 C   0  0
    3.6443    1.1588    0.0000 C   0  0
    2.9394    0.7406    0.0000 C   0  0
    2.9677   -2.5533    0.0000 C   0  0
    2.2596   -2.9714    0.0000 O   0  0
    3.7219   -2.1657    0.0000 H   0  0
   12.2760   -2.9355    0.0000 C   0  0
   11.5572   -2.5246    0.0000 C   0  0
   10.8447   -2.9398    0.0000 C   0  0
   10.8468   -3.7671    0.0000 C   0  0
   11.5633   -4.1820    0.0000 C   0  0
   12.2840   -3.7679    0.0000 C   0  0
   12.9885   -2.5238    0.0000 O   0  0
   11.5656   -5.0067    0.0000 C   0  0
   10.1294   -2.5286    0.0000 C   0  0
   10.1334   -4.1806    0.0000 C   0  0
    9.4181   -3.7695    0.0000 C   0  0  1  0  0  0
    8.7007   -4.1808    0.0000 C   0  0
    9.4163   -2.9449    0.0000 N   0  0
    7.9854   -3.7696    0.0000 O   0  0
    8.7025   -5.0054    0.0000 N   0  0
    7.9877   -5.4181    0.0000 C   0  0  1  0  0  0
    7.9902   -6.2390    0.0000 C   0  0
    9.4192   -5.4138    0.0000 C   0  0
    9.4149   -6.2428    0.0000 C   0  0
    8.7029   -6.6520    0.0000 C   0  0
    8.7011   -7.4785    0.0000 C   0  0
    9.4144   -7.8896    0.0000 C   0  0
   10.1292   -7.4783    0.0000 C   0  0
   10.1253   -6.6540    0.0000 C   0  0
    7.2742   -5.0039    0.0000 C   0  0
    7.2760   -4.1793    0.0000 O   0  0
    6.5590   -5.4144    0.0000 N   0  0
    7.9906   -4.5194    0.0000 H   0  0
    2.9938   -6.6717    0.0000 N   0  0
    2.1019  -12.8394    0.0000 C   0  0
    2.8287  -12.4427    0.0000 C   0  0
    2.8544  -11.6180    0.0000 C   0  0
    2.1484  -11.1836    0.0000 C   0  0
    1.4195  -11.5762    0.0000 C   0  0
    1.3946  -12.4092    0.0000 C   0  0
    2.0835  -13.6620    0.0000 O   0  0
    0.7155  -11.1434    0.0000 C   0  0
    3.5796  -11.2245    0.0000 C   0  0
    2.1698  -10.3570    0.0000 C   0  0
    2.8971   -9.9676    0.0000 C   0  0  1  0  0  0
    2.9226   -9.1388    0.0000 C   0  0
    3.6006  -10.4009    0.0000 N   0  0
    3.6498   -8.7496    0.0000 O   0  0
    2.2190   -8.7057    0.0000 N   0  0
    2.2462   -7.8864    0.0000 C   0  0  1  0  0  0
    1.5454   -7.4557    0.0000 C   0  0
    1.4955   -9.1018    0.0000 C   0  0
    0.7935   -8.6651    0.0000 C   0  0
    0.8179   -7.8420    0.0000 C   0  0
    0.1229   -7.4106    0.0000 C   0  0
   -0.6034   -7.7984    0.0000 C   0  0
   -0.6274   -8.6250    0.0000 C   0  0
    0.0708   -9.0544    0.0000 C   0  0
    2.9729   -7.4961    0.0000 C   0  0
    3.6726   -7.9282    0.0000 O   0  0
    2.2789   -7.0090    0.0000 H   0  0
    4.4135   -5.0138    0.0000 N   0  0
    4.4089   -4.1889    0.0000 C   0  0
    3.7014   -5.4303    0.0000 C   0  0
    5.1302   -5.4224    0.0000 C   0  0
    3.6922   -3.7804    0.0000 C   0  0
    5.8423   -5.0059    0.0000 C   0  0
    3.7059   -6.2552    0.0000 C   0  0
 32 33  2  0
 33 34  1  0
 29 35  1  0
 33 36  1  0
 31 37  1  0
 32 38  1  0
 39 38  1  1
 39 40  1  0
 39 41  1  0
 40 42  2  0
 40 43  1  0
 43 44  1  0
 43 46  1  0
 44 45  1  0
 45 48  1  0
 47 46  1  0
 47 48  2  0
 48 49  1  0
 49 50  2  0
 50 51  1  0
 51 52  2  0
 52 47  1  0
 44 53  1  0
 53 54  2  0
 53 55  1  0
 44 56  1  6
 26 27  2  0
 26  1  1  0
 17 28  1  6
  2  3  1  0
  2  7  2  0
  3  4  2  0
  4  5  1  0
  5  6  2  0
  6  7  1  0
  2  8  1  0
  6  9  1  0
  4 10  1  0
  5 11  1  0
 12 11  1  1
 12 13  1  0
 12 14  1  0
 13 15  2  0
 13 16  1  0
 16 17  1  0
 16 19  1  0
 17 18  1  0
 18 21  1  0
 20 19  1  0
 20 21  2  0
 21 22  1  0
 22 23  2  0
 23 24  1  0
 58 59  1  0
 58 63  2  0
 59 60  2  0
 60 61  1  0
 61 62  2  0
 62 63  1  0
 58 64  1  0
 62 65  1  0
 60 66  1  0
 61 67  1  0
 68 67  1  1
 68 69  1  0
 68 70  1  0
 69 71  2  0
 69 72  1  0
 72 73  1  0
 72 75  1  0
 73 74  1  0
 74 77  1  0
 76 75  1  0
 76 77  2  0
 77 78  1  0
 78 79  2  0
 79 80  1  0
 80 81  2  0
 81 76  1  0
 73 82  1  0
 82 83  2  0
 82 57  1  0
 73 84  1  6
 24 25  2  0
 25 20  1  0
 85 86  1  0
 17 26  1  0
 85 87  1  0
 29 30  1  0
 85 88  1  0
 29 34  2  0
 86 89  1  0
 89  1  1  0
 30 31  2  0
 88 90  1  0
 90 55  1  0
 31 32  1  0
 87 91  1  0
 91 57  1  0
M  END