
          05080814032D 1   1.00000     0.00000     0

 31 34  0     0  0            999 V2000
   15.6574   -6.7167    0.0000 N   0  0  3  0  0  0           0  0  0
   13.5153   -7.9607    0.0000 N   0  0  0  0  0  0           0  0  0
   13.5153   -8.7902    0.0000 S   0  0  3  0  0  0           0  0  0
   14.2297   -9.2027    0.0000 N   0  0  3  0  0  0           0  0  0
   14.9487   -8.7902    0.0000 C   0  0  0  0  0  0           0  0  0
   14.9487   -7.9607    0.0000 C   0  0  0  0  0  0           0  0  0
   14.2297   -7.5436    0.0000 C   0  0  0  0  0  0           0  0  0
   12.7178   -8.5748    0.0000 O   0  0  0  0  0  0           0  0  0
   13.5107   -9.6152    0.0000 O   0  0  0  0  0  0           0  0  0
   14.2286   -6.7186    0.0000 C   0  0  0  0  0  0           0  0  0
   14.9424   -6.3052    0.0000 N   0  0  0  0  0  0           0  0  0
   13.5135   -6.3072    0.0000 O   0  0  0  0  0  0           0  0  0
   14.2266  -10.0240    0.0000 C   0  0  0  0  0  0           0  0  0
   15.6625   -9.2037    0.0000 C   0  0  0  0  0  0           0  0  0
   13.5105  -10.4339    0.0000 C   0  0  0  0  0  0           0  0  0
   12.8004  -10.0171    0.0000 C   0  0  0  0  0  0           0  0  0
   12.0849  -10.4262    0.0000 C   0  0  0  0  0  0           0  0  0
   12.0813  -11.2520    0.0000 C   0  0  0  0  0  0           0  0  0
   12.7991  -11.6670    0.0000 C   0  0  0  0  0  0           0  0  0
   13.5118  -11.2556    0.0000 C   0  0  0  0  0  0           0  0  0
   15.6564  -10.0287    0.0000 C   0  0  0  0  0  0           0  0  0
   16.3695  -10.4421    0.0000 C   0  0  0  0  0  0           0  0  0
   17.0854  -10.0306    0.0000 C   0  0  0  0  0  0           0  0  0
   17.0839   -9.2014    0.0000 C   0  0  0  0  0  0           0  0  0
   16.3703   -8.7918    0.0000 C   0  0  0  0  0  0           0  0  0
   17.7998  -10.4431    0.0000 Cl  0  0  0  0  0  0           0  0  0
   15.6547   -7.5400    0.0000 C   0  0  0  0  0  0           0  0  0
   16.3656   -7.9514    0.0000 C   0  0  0  0  0  0           0  0  0
   17.0819   -7.5415    0.0000 C   0  0  0  0  0  0           0  0  0
   17.0828   -6.7156    0.0000 C   0  0  0  0  0  0           0  0  0
   16.3673   -6.2996    0.0000 C   0  0  0  0  0  0           0  0  0
 15 16  2  0     0  0
  2  3  1  0     0  0
 16 17  1  0     0  0
  3  9  2  0     0  0
 17 18  2  0     0  0
  2  7  2  0     0  0
 18 19  1  0     0  0
  7 10  1  0     0  0
 19 20  2  0     0  0
 20 15  1  0     0  0
  3  4  1  0     0  0
 14 21  2  0     0  0
 10 11  1  0     0  0
 21 22  1  0     0  0
  4  5  1  0     0  0
 22 23  2  0     0  0
 10 12  2  0     0  0
 23 24  1  0     0  0
  5  6  2  0     0  0
 24 25  2  0     0  0
 25 14  1  0     0  0
  4 13  1  0     0  0
 23 26  1  0     0  0
 11  1  1  0     0  0
  1 27  1  0     0  0
  6  7  1  0     0  0
  5 14  1  0     0  0
 13 15  1  0     0  0
  3  8  2  0     0  0
  1 31  1  0     0  0
 27 28  1  0     0  0
 28 29  1  0     0  0
 29 30  1  0     0  0
 30 31  1  0     0  0
M  END