
          11280714462D 1   1.00000     0.00000     0

 23 24  0     0  0            999 V2000
    3.2292   -2.4042    0.0000 C   0  0  0  0  0  0           0  0  0
    3.2292   -3.0042    0.0000 N   0  0  3  0  0  0           0  0  0
    2.7042   -2.1042    0.0000 C   0  0  0  0  0  0           0  0  0
    2.9292   -3.9417    0.0000 N   0  0  0  0  0  0           0  0  0
    2.7417   -3.3542    0.0000 C   0  0  0  0  0  0           0  0  0
    2.7042   -1.4917    0.0000 C   0  0  0  0  0  0           0  0  0
    3.7167   -3.3667    0.0000 C   0  0  0  0  0  0           0  0  0
    3.5250   -3.9417    0.0000 C   0  0  0  0  0  0           0  0  0
    3.7542   -2.1000    0.0000 C   0  0  0  0  0  0           0  0  0
    3.2250   -1.1875    0.0000 O   0  0  0  0  0  0           0  0  0
    5.3667   -1.7417    0.0000 N   0  0  0  0  0  0           0  0  0
    4.3292   -1.3292    0.0000 C   0  0  3  0  0  0           0  0  0
    3.7500   -1.4875    0.0000 C   0  0  0  0  0  0           0  0  0
    4.7625   -1.7417    0.0000 C   0  0  0  0  0  0           0  0  0
    2.1792   -2.4042    0.0000 C   0  0  0  0  0  0           0  0  0
    4.4792   -0.7417    0.0000 O   0  0  0  0  0  0           0  0  0
    5.7167   -2.2292    0.0000 C   0  0  3  0  0  0           0  0  0
    2.1792   -1.1917    0.0000 C   0  0  0  0  0  0           0  0  0
    4.1750   -1.6750    0.0000 C   0  0  0  0  0  0           0  0  0
    5.4792   -2.7792    0.0000 C   0  0  0  0  0  0           0  0  0
    6.3167   -2.1667    0.0000 C   0  0  0  0  0  0           0  0  0
    1.6542   -2.1042    0.0000 C   0  0  0  0  0  0           0  0  0
    1.6542   -1.5000    0.0000 C   0  0  0  0  0  0           0  0  0
  2  1  1  0     0  0
  3  1  1  0     0  0
  4  5  2  0     0  0
  5  2  1  0     0  0
  6  3  1  0     0  0
  7  2  1  0     0  0
  8  7  2  0     0  0
  9  1  2  0     0  0
 10  6  1  0     0  0
 11 14  1  0     0  0
 12 13  1  0     0  0
 13 10  1  0     0  0
 14 12  1  0     0  0
 15  3  2  0     0  0
 16 12  1  0     0  0
 17 11  1  0     0  0
 18  6  2  0     0  0
 19  9  1  0     0  0
 20 17  1  0     0  0
 21 17  1  0     0  0
 22 15  1  0     0  0
 23 22  2  0     0  0
  8  4  1  0     0  0
 23 18  1  0     0  0
M  END