
  SciTegic10311316302D

 20 23  0  0  0  0            999 V2000
   15.2432   -3.7990    0.0000 C   0  0
   15.2421   -4.6264    0.0000 C   0  0
   15.9575   -5.0373    0.0000 C   0  0
   15.9557   -3.3841    0.0000 C   0  0
   16.6718   -3.7953    0.0000 C   0  0
   16.6766   -4.6218    0.0000 C   0  0
   17.4644   -4.8714    0.0000 N   0  0
   17.9481   -4.1991    0.0000 C   0  0
   17.4566   -3.5325    0.0000 C   0  0
   17.7057   -2.7462    0.0000 C   0  0
   18.5118   -2.5708    0.0000 C   0  0
   19.1282   -3.1150    0.0000 N   0  0
   18.8444   -1.8092    0.0000 N   0  0
   19.6655   -1.8901    0.0000 C   0  0
   19.8398   -2.6945    0.0000 C   0  0
   20.6227   -2.9422    0.0000 C   0  0
   21.2320   -2.3905    0.0000 C   0  0
   21.0489   -1.5839    0.0000 C   0  0
   20.2663   -1.3400    0.0000 C   0  0
   18.7731   -4.1943    0.0000 C   0  0
  1  2  2  0
  2  3  1  0
  3  6  2  0
  5  4  2  0
  4  1  1  0
  5  6  1  0
  6  7  1  0
  7  8  1  0
  8  9  2  0
  9  5  1  0
  9 10  1  0
 10 11  1  0
 11 12  2  0
 12 15  1  0
 14 13  1  0
 13 11  1  0
 14 15  2  0
 15 16  1  0
 16 17  2  0
 17 18  1  0
 18 19  2  0
 19 14  1  0
  8 20  1  0
M  END