
  SciTegic10191216002D

 29 32  0  0  0  0            999 V2000
   10.1111  -17.7500    0.0000 C   0  0
   10.1099  -18.5773    0.0000 C   0  0
   10.8247  -18.9902    0.0000 C   0  0
   11.5412  -18.5769    0.0000 C   0  0
   11.5383  -17.7463    0.0000 C   0  0
   10.8229  -17.3372    0.0000 C   0  0
   10.8273  -19.8142    0.0000 C   0  0
   10.8213  -21.4632    0.0000 C   0  0
   11.5377  -21.0521    0.0000 N   0  0
   11.5416  -20.2245    0.0000 C   0  0
   10.1088  -21.0467    0.0000 C   0  0
   10.1120  -20.2274    0.0000 C   0  0
    9.4052  -19.8167    0.0000 C   0  0
    8.6947  -20.2243    0.0000 N   0  0
    8.6954  -21.0467    0.0000 C   0  0
    9.4028  -21.4536    0.0000 C   0  0
    7.9815  -21.4601    0.0000 O   0  0
    7.2665  -21.0485    0.0000 C   0  0
    6.5525  -21.4619    0.0000 C   0  0
    5.8425  -21.0477    0.0000 C   0  0
    5.1307  -21.4576    0.0000 C   0  0
    5.1275  -22.2829    0.0000 N   0  0
    5.8423  -22.6967    0.0000 C   0  0
    6.5604  -22.2852    0.0000 C   0  0
    4.4120  -22.6936    0.0000 C   0  0
    3.6985  -22.2793    0.0000 C   0  0
    4.4099  -23.5186    0.0000 C   0  0
   10.8205  -16.5122    0.0000 O   0  0
   11.5337  -16.0976    0.0000 C   0  0
 13 14  2  0
  1  2  2  0
 14 15  1  0
  3  4  2  0
 15 16  2  0
 16 11  1  0
 15 17  1  0
  4  5  1  0
 17 18  1  0
  7 10  1  0
 18 19  1  0
 19 20  1  0
 11  8  1  0
  8  9  1  0
  9 10  1  0
  7  3  1  0
  2  3  1  0
 19 24  1  0
 20 21  1  0
 21 22  1  0
 22 23  1  0
 23 24  1  0
  5  6  2  0
 22 25  1  0
 11 12  2  0
 25 26  1  0
  6  1  1  0
 25 27  1  0
 12 13  1  0
  6 28  1  0
  7 12  1  0
 28 29  1  0
M  END