
          11280715262D 1   1.00000     0.00000     0

 18 19  0     0  0            999 V2000
    8.3167   -2.6667    0.0000 C   0  0  3  0  0  0           0  0  0
    1.8417   -2.3167    0.0000 N   0  0  0  0  0  0           0  0  0
    6.1667   -2.2542    0.0000 C   0  0  0  0  0  0           0  0  0
    9.0292   -3.0792    0.0000 C   0  0  0  0  0  0           0  0  0
    8.3042   -3.4917    0.0000 C   0  0  0  0  0  0           0  0  0
    6.8792   -2.6667    0.0000 N   0  0  0  0  0  0           0  0  0
    1.7042   -3.6292    0.0000 N   0  0  0  0  0  0           0  0  0
    1.2917   -2.9167    0.0000 C   0  0  0  0  0  0           0  0  0
    7.6042   -2.2542    0.0000 C   0  0  3  0  0  0           0  0  0
    2.5917   -2.6542    0.0000 C   0  0  0  0  0  0           0  0  0
    2.5042   -3.4667    0.0000 C   0  0  0  0  0  0           0  0  0
    6.1667   -1.4292    0.0000 O   0  0  0  0  0  0           0  0  0
    5.4542   -2.6542    0.0000 O   0  0  0  0  0  0           0  0  0
    9.0292   -2.2542    0.0000 C   0  0  0  0  0  0           0  0  0
    3.3167   -2.2417    0.0000 C   0  0  0  0  0  0           0  0  0
    7.6042   -1.4292    0.0000 C   0  0  0  0  0  0           0  0  0
    4.7417   -2.2417    0.0000 C   0  0  0  0  0  0           0  0  0
    4.0292   -2.6542    0.0000 C   0  0  0  0  0  0           0  0  0
  2 10  1  0     0  0
  3  6  1  0     0  0
  4  1  1  0     0  0
  5  1  1  0     0  0
  6  9  1  0     0  0
  7 11  1  0     0  0
  8  2  2  0     0  0
  9  1  1  0     0  0
 10 15  1  0     0  0
 11 10  2  0     0  0
 12  3  2  0     0  0
 13  3  1  0     0  0
 14  1  1  0     0  0
 15 18  1  0     0  0
 16  9  1  0     0  0
 17 13  1  0     0  0
 18 17  1  0     0  0
  4  5  1  0     0  0
  7  8  1  0     0  0
M  END