
  SciTegic10311316242D

 20 23  0  0  0  0            999 V2000
    3.7194   -8.3246    0.0000 C   0  0
    3.7183   -9.1520    0.0000 C   0  0
    4.4331   -9.5648    0.0000 C   0  0
    4.4313   -7.9118    0.0000 N   0  0
    5.1467   -8.3210    0.0000 C   0  0
    5.1474   -9.1478    0.0000 C   0  0
    5.8628   -9.5588    0.0000 N   0  0
    6.5778   -9.1440    0.0000 C   0  0
    6.5730   -8.3140    0.0000 N   0  0
    5.8571   -7.9068    0.0000 C   0  0
    7.2939   -9.5537    0.0000 N   0  0
    5.8528   -7.0818    0.0000 N   0  0
    6.4247   -6.4913    0.0000 C   0  0
    5.2635   -6.4875    0.0000 C   0  0
    5.8294   -5.9075    0.0000 C   0  0
    5.8202   -5.0826    0.0000 N   0  0
    6.5301   -4.6622    0.0000 C   0  0
    3.0073   -9.5658    0.0000 C   0  0
    2.1823   -9.5652    0.0000 C   0  0
    2.5942  -10.2800    0.0000 C   0  0
  1  2  2  0
  2  3  1  0
  3  6  2  0
  5  4  2  0
  4  1  1  0
  5  6  1  0
  6  7  1  0
  7  8  2  0
  8  9  1  0
  9 10  2  0
 10  5  1  0
  8 11  1  0
 10 12  1  0
 12 13  1  0
 12 14  1  0
 13 15  1  0
 14 15  1  0
 15 16  1  0
 16 17  1  0
 19 18  1  0
 20 19  1  0
 18 20  1  0
  2 18  1  0
M  END