
  SciTegic11201309402D

 23 26  0  0  1  0            999 V2000
   10.6258  -28.5695    0.0000 C   0  0
   10.6320  -27.2334    0.0000 C   0  0  2  0  0  0
   10.1466  -27.8995    0.0000 C   0  0
   11.4177  -27.4934    0.0000 C   0  0  1  0  0  0
   11.4117  -28.3185    0.0000 N   0  0
   12.1945  -28.5792    0.0000 C   0  0
   12.6844  -27.9152    0.0000 C   0  0
   12.2042  -27.2442    0.0000 C   0  0
   10.3797  -26.4479    0.0000 C   0  0
    9.5733  -26.2737    0.0000 O   0  0
    9.3211  -25.4882    0.0000 C   0  0
    8.5147  -25.3139    0.0000 C   0  0
    9.8752  -24.8770    0.0000 O   0  0
    7.1862  -25.4518    0.0000 N   0  0
    7.8993  -25.8666    0.0000 N   0  0
    7.3605  -24.6454    0.0000 C   0  0
    8.1801  -24.5626    0.0000 C   0  0
    8.5165  -23.8128    0.0000 C   0  0
    8.0345  -23.1451    0.0000 C   0  0
    7.2122  -23.2322    0.0000 C   0  0
    6.8795  -23.9822    0.0000 C   0  0
    6.4314  -25.7849    0.0000 C   0  0
   11.4241  -26.4934    0.0000 H   0  0
  9 10  1  0
  4  2  1  0
 10 11  1  0
  2  3  1  0
 11 12  1  0
  3  1  1  0
 11 13  2  0
 12 17  1  0
  5  6  1  0
  6  7  1  0
 16 14  1  0
 14 15  1  0
 15 12  2  0
  7  8  1  0
  4  8  1  0
 16 17  2  0
  4  5  1  0
 17 18  1  0
 18 19  2  0
  1  5  1  0
 19 20  1  0
  2  9  1  1
 20 21  2  0
 21 16  1  0
 14 22  1  0
  4 23  1  1
M  END