
  CDK    9/16/09,10:2

 21 23  0  0  0  0  0  0  0  0999 V2000
    1.0111   -7.2875    0.0000 N   0  0  0  0  0  0  0  0  0  0  0  0
    1.0099   -8.1148    0.0000 C   0  0  0  0  0  0  0  0  0  0  0  0
    1.7247   -8.5277    0.0000 N   0  0  0  0  0  0  0  0  0  0  0  0
    1.7229   -6.8747    0.0000 C   0  0  0  0  0  0  0  0  0  0  0  0
    2.4383   -7.2838    0.0000 C   0  0  0  0  0  0  0  0  0  0  0  0
    2.4386   -8.1103    0.0000 C   0  0  0  0  0  0  0  0  0  0  0  0
    3.2247   -8.3654    0.0000 N   0  0  0  0  0  0  0  0  0  0  0  0
    3.7103   -7.6966    0.0000 C   0  0  0  0  0  0  0  0  0  0  0  0
    3.2242   -7.0283    0.0000 N   0  0  0  0  0  0  0  0  0  0  0  0
    1.7205   -6.0497    0.0000 N   0  0  0  0  0  0  0  0  0  0  0  0
    3.4798   -9.1500    0.0000 C   0  0  0  0  0  0  0  0  0  0  0  0
    2.9955   -9.8169    0.0000 C   0  0  0  0  0  0  0  0  0  0  0  0
    3.4807  -10.4842    0.0000 C   0  0  0  0  0  0  0  0  0  0  0  0
    4.2653  -10.2291    0.0000 C   0  0  0  0  0  0  0  0  0  0  0  0
    4.2649   -9.4041    0.0000 O   0  0  0  0  0  0  0  0  0  0  0  0
    4.9329  -10.7137    0.0000 C   0  0  0  0  0  0  0  0  0  0  0  0
    3.2259  -11.2689    0.0000 O   0  0  0  0  0  0  0  0  0  0  0  0
    2.1705   -9.8172    0.0000 O   0  0  0  0  0  0  0  0  0  0  0  0
    4.8469  -11.5343    0.0000 O   0  0  0  0  0  0  0  0  0  0  0  0
    4.5353   -7.6963    0.0000 N   0  0  0  0  0  0  0  0  0  0  0  0
    4.9481   -8.4107    0.0000 C   0  0  0  0  0  0  0  0  0  0  0  0
  4 10  1  0  0  0  0 
  5  6  1  0  0  0  0 
 11  7  1  6  0  0  0 
 11 12  1  0  0  0  0 
  2  3  1  0  0  0  0 
  3  6  2  0  0  0  0 
  1  2  2  0  0  0  0 
 12 13  1  0  0  0  0 
 13 14  1  0  0  0  0 
 14 15  1  0  0  0  0 
 15 11  1  0  0  0  0 
  5  4  2  0  0  0  0 
 14 16  1  6  0  0  0 
  6  7  1  0  0  0  0 
 13 17  1  1  0  0  0 
  7  8  1  0  0  0  0 
 12 18  1  1  0  0  0 
  8  9  2  0  0  0  0 
 16 19  1  0  0  0  0 
  9  5  1  0  0  0  0 
  8 20  1  0  0  0  0 
  4  1  1  0  0  0  0 
 20 21  1  0  0  0  0 
M  END