
          11280715202D 1   1.00000     0.00000     0

 50 50  0     1  0            999 V2000
    8.5042   -0.0667    0.0000 C   0  0  1  0  0  0           0  0  0
    9.2167    0.3458    0.0000 C   0  0  0  0  0  0           0  0  0
    7.7917    0.3375    0.0000 N   0  0  0  0  0  0           0  0  0
    7.0792   -0.0750    0.0000 C   0  0  0  0  0  0           0  0  0
    4.9292    0.3333    0.0000 C   0  0  0  0  0  0           0  0  0
    9.9292   -0.0667    0.0000 O   0  0  0  0  0  0           0  0  0
    9.2167   -2.1292    0.0000 C   0  0  0  0  0  0           0  0  0
    8.5042   -0.8917    0.0000 C   0  0  0  0  0  0           0  0  0
    5.6417   -0.0792    0.0000 N   0  0  0  0  0  0           0  0  0
    9.2167    1.1708    0.0000 O   0  0  0  0  0  0           0  0  0
    9.2167   -1.3042    0.0000 O   0  0  0  0  0  0           0  0  0
    7.0792   -0.9000    0.0000 O   0  0  0  0  0  0           0  0  0
    4.9292    1.1583    0.0000 O   0  0  0  0  0  0           0  0  0
    9.9292   -2.5417    0.0000 O   0  0  0  0  0  0           0  0  0
    6.3625    0.3375    0.0000 C   0  0  0  0  0  0           0  0  0
   10.6417    0.3500    0.0000 C   0  0  0  0  0  0           0  0  0
   10.6417    1.1750    0.0000 C   0  0  0  0  0  0           0  0  0
    4.2167   -0.0792    0.0000 C   0  0  0  0  0  0           0  0  0
    8.5000   -2.5417    0.0000 C   0  0  0  0  0  0           0  0  0
   11.3542    1.5958    0.0000 C   0  0  0  0  0  0           0  0  0
    9.9250    1.5833    0.0000 C   0  0  0  0  0  0           0  0  0
    7.7875   -2.1292    0.0000 C   0  0  0  0  0  0           0  0  0
    3.5042    0.3333    0.0000 C   0  0  0  0  0  0           0  0  0
   -3.6208    0.3083    0.0000 C   0  0  0  0  0  0           0  0  0
   -0.7625   -2.1542    0.0000 C   0  0  0  0  0  0           0  0  0
   -2.9083   -0.0917    0.0000 C   0  0  0  0  0  0           0  0  0
   -0.0500   -2.5667    0.0000 C   0  0  0  0  0  0           0  0  0
    5.6500   -2.5500    0.0000 C   0  0  0  0  0  0           0  0  0
    6.3625   -2.1375    0.0000 C   0  0  0  0  0  0           0  0  0
    7.0750   -2.5417    0.0000 C   0  0  0  0  0  0           0  0  0
    0.6625   -2.1542    0.0000 C   0  0  0  0  0  0           0  0  0
    1.3750   -2.5625    0.0000 C   0  0  0  0  0  0           0  0  0
    2.0875   -2.1500    0.0000 C   0  0  0  0  0  0           0  0  0
    2.8000   -2.5542    0.0000 C   0  0  0  0  0  0           0  0  0
   -2.1958    0.3125    0.0000 C   0  0  0  0  0  0           0  0  0
   -1.4833   -0.0917    0.0000 C   0  0  0  0  0  0           0  0  0
   -0.7708    0.3208    0.0000 C   0  0  0  0  0  0           0  0  0
   -0.0583   -0.0917    0.0000 C   0  0  0  0  0  0           0  0  0
    0.6542    0.3208    0.0000 C   0  0  0  0  0  0           0  0  0
    1.3667   -0.0875    0.0000 C   0  0  0  0  0  0           0  0  0
    2.0792    0.3250    0.0000 C   0  0  0  0  0  0           0  0  0
    2.7917   -0.0792    0.0000 C   0  0  0  0  0  0           0  0  0
    3.5125   -2.1417    0.0000 C   0  0  0  0  0  0           0  0  0
    4.2250   -2.5542    0.0000 C   0  0  0  0  0  0           0  0  0
    4.9375   -2.1417    0.0000 C   0  0  0  0  0  0           0  0  0
   -4.3333   -0.1042    0.0000 C   0  0  0  0  0  0           0  0  0
   -1.4750   -2.5667    0.0000 C   0  0  0  0  0  0           0  0  0
    9.9167    2.4083    0.0000 C   0  0  0  0  0  0           0  0  0
   11.3500    2.4208    0.0000 C   0  0  0  0  0  0           0  0  0
   10.6292    2.8333    0.0000 C   0  0  0  0  0  0           0  0  0
  2  1  1  0     0  0
  3  1  1  0     0  0
  4  3  1  0     0  0
  5  9  1  0     0  0
  6  2  1  0     0  0
  7 11  1  0     0  0
  1  8  1  6     0  0
  9 15  1  0     0  0
 10  2  2  0     0  0
 11  8  1  0     0  0
 12  4  2  0     0  0
 13  5  2  0     0  0
 14  7  2  0     0  0
 15  4  1  0     0  0
 16  6  1  0     0  0
 17 16  1  0     0  0
 18  5  1  0     0  0
 19  7  1  0     0  0
 20 17  2  0     0  0
 21 17  1  0     0  0
 22 19  1  0     0  0
 23 18  1  0     0  0
 24 26  1  0     0  0
 25 27  1  0     0  0
 26 35  1  0     0  0
 27 31  1  0     0  0
 28 29  1  0     0  0
 29 30  1  0     0  0
 30 22  1  0     0  0
 31 32  1  0     0  0
 32 33  1  0     0  0
 33 34  1  0     0  0
 34 43  1  0     0  0
 35 36  1  0     0  0
 36 37  1  0     0  0
 37 38  1  0     0  0
 38 39  1  0     0  0
 39 40  1  0     0  0
 40 41  1  0     0  0
 41 42  1  0     0  0
 42 23  1  0     0  0
 43 44  1  0     0  0
 44 45  1  0     0  0
 45 28  1  0     0  0
 46 24  1  0     0  0
 47 25  1  0     0  0
 48 21  2  0     0  0
 49 20  1  0     0  0
 50 48  1  0     0  0
 49 50  2  0     0  0
M  END