
          11280714542D 1   1.00000     0.00000     0

 25 27  0     0  0            999 V2000
   -3.3083   -3.0292    0.0000 N   0  0  3  0  0  0           0  0  0
    3.8417   -0.5542    0.0000 C   0  0  0  0  0  0           0  0  0
    3.8417    0.2708    0.0000 N   0  0  0  0  0  0           0  0  0
    3.1250   -0.9667    0.0000 C   0  0  0  0  0  0           0  0  0
   -2.5875   -3.4417    0.0000 C   0  0  0  0  0  0           0  0  0
    3.1250   -1.8000    0.0000 C   0  0  0  0  0  0           0  0  0
    2.4042   -0.5542    0.0000 C   0  0  0  0  0  0           0  0  0
    0.9792   -2.2042    0.0000 O   0  0  0  0  0  0           0  0  0
    1.6917   -1.7917    0.0000 C   0  0  0  0  0  0           0  0  0
   -1.8750   -3.0292    0.0000 C   0  0  0  0  0  0           0  0  0
   -0.4458   -2.2042    0.0000 C   0  0  0  0  0  0           0  0  0
    4.5542    0.6833    0.0000 O   0  0  0  0  0  0           0  0  0
    0.2667   -1.7917    0.0000 C   0  0  0  0  0  0           0  0  0
    1.6917   -0.9750    0.0000 C   0  0  0  0  0  0           0  0  0
    2.4125   -2.2042    0.0000 C   0  0  0  0  0  0           0  0  0
   -1.8750   -2.2042    0.0000 C   0  0  0  0  0  0           0  0  0
   -1.1625   -3.4417    0.0000 C   0  0  0  0  0  0           0  0  0
   -0.4458   -3.0292    0.0000 C   0  0  0  0  0  0           0  0  0
   -1.1625   -1.7917    0.0000 C   0  0  0  0  0  0           0  0  0
   -4.0208   -3.4375    0.0000 C   0  0  0  0  0  0           0  0  0
   -3.3083   -2.2042    0.0000 C   0  0  0  0  0  0           0  0  0
    4.5542   -0.9667    0.0000 C   0  0  0  0  0  0           0  0  0
   -4.0208   -1.7875    0.0000 C   0  0  0  0  0  0           0  0  0
   -4.7250   -3.0292    0.0000 C   0  0  0  0  0  0           0  0  0
   -4.7250   -2.2042    0.0000 C   0  0  0  0  0  0           0  0  0
  2  4  1  0     0  0
  3  2  2  0     0  0
  4  6  2  0     0  0
  5  1  1  0     0  0
  6 15  1  0     0  0
  7 14  2  0     0  0
  8 13  1  0     0  0
  9  8  1  0     0  0
 10  5  1  0     0  0
 11 18  2  0     0  0
 12  3  1  0     0  0
 13 11  1  0     0  0
 14  9  1  0     0  0
 15  9  2  0     0  0
 16 10  1  0     0  0
 17 10  2  0     0  0
 18 17  1  0     0  0
 19 16  2  0     0  0
 20  1  1  0     0  0
 21  1  1  0     0  0
 22  2  1  0     0  0
 23 21  1  0     0  0
 24 20  1  0     0  0
 25 23  1  0     0  0
 24 25  1  0     0  0
 19 11  1  0     0  0
  4  7  1  0     0  0
M  END