
          11280715372D 1   1.00000     0.00000     0

 41 45  0     1  0            999 V2000
    4.8792   -2.3125    0.0000 C   0  0  0  0  0  0           0  0  0
    6.9667   -2.3250    0.0000 N   0  0  3  0  0  0           0  0  0
    4.2292   -3.0292    0.0000 N   0  0  0  0  0  0           0  0  0
    4.8167   -2.9125    0.0000 C   0  0  0  0  0  0           0  0  0
    6.4042   -6.2125    0.0000 N   0  0  3  0  0  0           0  0  0
    6.9667   -2.9250    0.0000 C   0  0  0  0  0  0           0  0  0
    4.3417   -2.0667    0.0000 C   0  0  0  0  0  0           0  0  0
    5.9167   -3.5167    0.0000 C   0  0  0  0  0  0           0  0  0
    8.0167   -2.3292    0.0000 C   0  0  0  0  0  0           0  0  0
    7.4917   -2.0250    0.0000 C   0  0  0  0  0  0           0  0  0
    6.4292   -4.4167    0.0000 N   0  0  3  0  0  0           0  0  0
    5.9167   -2.9167    0.0000 N   0  0  0  0  0  0           0  0  0
    3.9292   -2.5125    0.0000 C   0  0  0  0  0  0           0  0  0
    6.4167   -5.6125    0.0000 C   0  0  3  0  0  0           0  0  0
    5.4042   -2.0125    0.0000 C   0  0  0  0  0  0           0  0  0
    5.9292   -2.3167    0.0000 C   0  0  1  0  0  0           0  0  0
    6.4417   -2.0250    0.0000 C   0  0  0  0  0  0           0  0  0
    6.9417   -5.3125    0.0000 C   0  0  0  0  0  0           0  0  0
    5.9042   -5.3000    0.0000 C   0  0  0  0  0  0           0  0  0
    6.4417   -3.8167    0.0000 C   0  0  0  0  0  0           0  0  0
    8.5292   -2.0250    0.0000 C   0  0  0  0  0  0           0  0  0
    6.5417   -3.3375    0.0000 O   0  0  0  0  0  0           0  0  0
    5.3917   -3.8125    0.0000 O   0  0  0  0  0  0           0  0  0
    6.9417   -4.7167    0.0000 C   0  0  0  0  0  0           0  0  0
    5.9167   -4.7125    0.0000 C   0  0  0  0  0  0           0  0  0
    8.5292   -1.4250    0.0000 O   0  0  0  0  0  0           0  0  0
    5.8792   -6.5000    0.0000 C   0  0  0  0  0  0           0  0  0
    6.9292   -6.5125    0.0000 C   0  0  0  0  0  0           0  0  0
    8.0167   -2.9375    0.0000 C   0  0  0  0  0  0           0  0  0
    7.3792   -3.3375    0.0000 C   0  0  0  0  0  0           0  0  0
    4.1542   -1.5000    0.0000 C   0  0  0  0  0  0           0  0  0
    3.3542   -2.3875    0.0000 C   0  0  0  0  0  0           0  0  0
    9.0667   -2.3250    0.0000 C   0  0  0  0  0  0           0  0  0
    9.0417   -1.1125    0.0000 C   0  0  0  0  0  0           0  0  0
    6.9167   -7.1125    0.0000 C   0  0  0  0  0  0           0  0  0
    5.8792   -7.1000    0.0000 C   0  0  0  0  0  0           0  0  0
    8.5292   -3.2375    0.0000 C   0  0  0  0  0  0           0  0  0
    3.5792   -1.3750    0.0000 C   0  0  0  0  0  0           0  0  0
    3.1792   -1.8167    0.0000 C   0  0  0  0  0  0           0  0  0
    9.0167   -2.9000    0.0000 C   0  0  0  0  0  0           0  0  0
    6.3917   -7.4042    0.0000 C   0  0  0  0  0  0           0  0  0
  2 17  1  0     0  0
  3  4  1  0     0  0
  4  1  2  0     0  0
  5 14  1  0     0  0
  6  2  1  0     0  0
  7  1  1  0     0  0
  8 12  1  0     0  0
  9 10  1  0     0  0
 10  2  1  0     0  0
 11 20  1  0     0  0
 16 12  1  1     0  0
 13  7  2  0     0  0
 14 19  1  0     0  0
 15  1  1  0     0  0
 16 15  1  0     0  0
 17 16  1  0     0  0
 18 24  1  0     0  0
 19 25  1  0     0  0
 20  8  1  0     0  0
 21  9  1  0     0  0
 22  6  2  0     0  0
 23  8  2  0     0  0
 24 11  1  0     0  0
 25 11  1  0     0  0
 26 21  1  0     0  0
 27  5  1  0     0  0
 28  5  1  0     0  0
 29  9  2  0     0  0
 30  6  1  0     0  0
 31  7  1  0     0  0
 32 13  1  0     0  0
 33 21  2  0     0  0
 34 26  1  0     0  0
 35 28  1  0     0  0
 36 27  1  0     0  0
 37 29  1  0     0  0
 38 31  2  0     0  0
 39 38  1  0     0  0
 40 37  2  0     0  0
 41 35  1  0     0  0
 13  3  1  0     0  0
 39 32  2  0     0  0
 18 14  1  0     0  0
 40 33  1  0     0  0
 36 41  1  0     0  0
M  END