
          11280715352D 1   1.00000     0.00000     0

 33 36  0     0  0            999 V2000
    1.8292   -1.7042    0.0000 N   0  0  0  0  0  0           0  0  0
    1.8375   -2.5292    0.0000 S   0  0  3  0  0  0           0  0  0
    1.1167   -0.4750    0.0000 N   0  0  3  0  0  0           0  0  0
    1.1167   -1.3000    0.0000 C   0  0  0  0  0  0           0  0  0
    0.4000   -0.0542    0.0000 N   0  0  0  0  0  0           0  0  0
    0.4000    0.7708    0.0000 C   0  0  0  0  0  0           0  0  0
    1.8167    0.7708    0.0000 C   0  0  3  0  0  0           0  0  0
    1.8250   -0.0542    0.0000 C   0  0  0  0  0  0           0  0  0
    1.8292   -3.3542    0.0000 C   0  0  0  0  0  0           0  0  0
    0.4042   -1.7125    0.0000 N   0  0  3  0  0  0           0  0  0
    2.6292   -2.7417    0.0000 O   0  0  0  0  0  0           0  0  0
    1.1167   -2.9417    0.0000 O   0  0  0  0  0  0           0  0  0
   -0.1833    1.3500    0.0000 C   0  0  0  0  0  0           0  0  0
    2.4042    1.3583    0.0000 C   0  0  0  0  0  0           0  0  0
    1.1125   -3.7625    0.0000 C   0  0  0  0  0  0           0  0  0
    2.5375   -3.7667    0.0000 C   0  0  0  0  0  0           0  0  0
    0.0292    2.1500    0.0000 C   0  0  0  0  0  0           0  0  0
   -0.9750    1.1375    0.0000 C   0  0  0  0  0  0           0  0  0
   -1.3500    2.5208    0.0000 C   0  0  0  0  0  0           0  0  0
    1.8167   -5.0000    0.0000 C   0  0  0  0  0  0           0  0  0
   -0.5500    2.7333    0.0000 C   0  0  0  0  0  0           0  0  0
    1.1042   -4.5792    0.0000 C   0  0  0  0  0  0           0  0  0
   -1.5625    1.7208    0.0000 C   0  0  0  0  0  0           0  0  0
    2.5375   -4.5875    0.0000 C   0  0  0  0  0  0           0  0  0
   -1.9333    3.1083    0.0000 Cl  0  0  0  0  0  0           0  0  0
    1.8125   -5.8292    0.0000 Cl  0  0  0  0  0  0           0  0  0
   -0.3125   -1.3042    0.0000 C   0  0  0  0  0  0           0  0  0
    0.4042   -2.5375    0.0000 C   0  0  0  0  0  0           0  0  0
    2.1875    2.1458    0.0000 C   0  0  0  0  0  0           0  0  0
    3.2000    1.1375    0.0000 C   0  0  0  0  0  0           0  0  0
    3.7792    1.7208    0.0000 C   0  0  0  0  0  0           0  0  0
    2.7667    2.7333    0.0000 C   0  0  0  0  0  0           0  0  0
    3.5667    2.5208    0.0000 C   0  0  0  0  0  0           0  0  0
  2  1  1  0     0  0
  3  4  1  0     0  0
  4  1  2  0     0  0
  5  3  1  0     0  0
  6  5  2  0     0  0
  7  8  1  0     0  0
  8  3  1  0     0  0
  9  2  1  0     0  0
 10  4  1  0     0  0
 11  2  2  0     0  0
 12  2  2  0     0  0
 13  6  1  0     0  0
 14  7  1  0     0  0
 15  9  2  0     0  0
 16  9  1  0     0  0
 17 13  2  0     0  0
 18 13  1  0     0  0
 19 23  1  0     0  0
 20 24  1  0     0  0
 21 17  1  0     0  0
 22 15  1  0     0  0
 23 18  2  0     0  0
 24 16  2  0     0  0
 25 19  1  0     0  0
 26 20  1  0     0  0
 27 10  1  0     0  0
 28 10  1  0     0  0
 29 14  1  0     0  0
 30 14  2  0     0  0
 31 30  1  0     0  0
 32 29  2  0     0  0
 33 31  2  0     0  0
  6  7  1  0     0  0
 20 22  2  0     0  0
 19 21  2  0     0  0
 33 32  1  0     0  0
M  END