
  SciTegic03291108502D

 26 29  0  0  0  0            999 V2000
   -0.0483   -0.6961    0.0000 S   0  0
    1.4508    1.6214    0.0000 S   0  0
   -2.1722    2.5511    0.0000 S   0  0
   -2.9791    2.7226    0.0000 O   0  0
   -2.3437    1.7441    0.0000 O   0  0
    1.4508   -0.8536    0.0000 N   0  0
    2.1652    0.3839    0.0000 N   0  0
    2.2515    2.8543    0.0000 N   0  0
    2.9189    1.6983    0.0000 N   0  0
    3.0584    3.0259    0.0000 N   0  0
    3.4709    2.3114    0.0000 N   0  0
    0.7363    0.3839    0.0000 C   0  0
   -0.0483    0.6388    0.0000 C   0  0
    0.7363   -0.4411    0.0000 C   0  0
    1.4508    0.7964    0.0000 C   0  0
   -0.3033    1.4234    0.0000 C   0  0
   -0.5333   -0.0286    0.0000 C   0  0
   -1.1102    1.5950    0.0000 C   0  0
   -1.3652    2.3796    0.0000 C   0  0
    2.1652    2.0339    0.0000 C   0  0
    0.2488    2.0365    0.0000 C   0  0
    2.1652   -0.4411    0.0000 C   0  0
   -0.8132    2.9927    0.0000 C   0  0
   -0.0062    2.8211    0.0000 C   0  0
   -2.0006    3.3581    0.0000 C   0  0
    1.6384    3.4064    0.0000 C   0  0
  1 14  1  0
  1 17  1  0
  2 15  1  0
  2 20  1  0
  3  4  2  0
  3  5  2  0
  3 19  1  0
  3 25  1  0
  6 14  1  0
  6 22  2  0
  7 15  2  0
  7 22  1  0
  8 10  1  0
  8 20  1  0
  8 26  1  0
  9 11  1  0
  9 20  2  0
 10 11  2  0
 12 13  1  0
 12 14  2  0
 12 15  1  0
 13 16  1  0
 13 17  2  0
 16 18  1  0
 16 21  2  0
 18 19  2  0
 19 23  1  0
 21 24  1  0
 23 24  2  0
M  END