
          02060813472D 1   1.00000     0.00000     0

 74 76  0     1  0            999 V2000
    4.8065  -16.7226    0.0000 C   0  0  0  0  0  0           0  0  0
    4.0895  -16.3037    0.0000 S   0  0  0  0  0  0           0  0  0
    3.3692  -16.7083    0.0000 S   0  0  0  0  0  0           0  0  0
    2.6562  -16.2950    0.0000 C   0  0  0  0  0  0           0  0  0
    2.6649  -15.4681    0.0000 C   0  0  0  0  0  0           0  0  0
    1.9509  -15.0451    0.0000 C   0  0  0  0  0  0           0  0  0
    1.9633  -14.2202    0.0000 N   0  0  0  0  0  0           0  0  0
    1.2336  -15.4496    0.0000 O   0  0  0  0  0  0           0  0  0
    1.2466  -13.7993    0.0000 C   0  0  2  0  0  0           0  0  0
    1.2509  -12.9744    0.0000 C   0  0  0  0  0  0           0  0  0
    0.5323  -14.2072    0.0000 C   0  0  0  0  0  0           0  0  0
   -0.1723  -13.7825    0.0000 C   0  0  0  0  0  0           0  0  0
   -0.1671  -12.9590    0.0000 C   0  0  0  0  0  0           0  0  0
   -0.8781  -12.5425    0.0000 C   0  0  0  0  0  0           0  0  0
   -1.6029  -12.9478    0.0000 C   0  0  0  0  0  0           0  0  0
   -1.6072  -13.7835    0.0000 C   0  0  0  0  0  0           0  0  0
   -0.8939  -14.1937    0.0000 C   0  0  0  0  0  0           0  0  0
   -2.3115  -12.5362    0.0000 O   0  0  0  0  0  0           0  0  0
    1.9784  -12.5699    0.0000 N   0  0  0  0  0  0           0  0  0
    0.5443  -12.5609    0.0000 O   0  0  0  0  0  0           0  0  0
    2.6883  -12.5512    0.0000 C   0  0  2  0  0  0           0  0  0
    3.4005  -12.5528    0.0000 C   0  0  0  0  0  0           0  0  0
    4.1167  -13.0014    0.0000 N   0  0  0  0  0  0           0  0  0
    3.4113  -11.7557    0.0000 O   0  0  0  0  0  0           0  0  0
    4.8388  -12.5970    0.0000 C   0  0  2  0  0  0           0  0  0
    5.5488  -13.0157    0.0000 C   0  0  0  0  0  0           0  0  0
    4.8433  -11.7700    0.0000 C   0  0  0  0  0  0           0  0  0
    5.5617  -11.3656    0.0000 C   0  0  0  0  0  0           0  0  0
    5.5714  -10.5405    0.0000 C   0  0  0  0  0  0           0  0  0
    6.2920  -10.1286    0.0000 N   0  0  0  0  0  0           0  0  0
    4.8615  -10.1217    0.0000 O   0  0  0  0  0  0           0  0  0
    6.2692  -12.6091    0.0000 O   0  0  0  0  0  0           0  0  0
    5.5445  -13.8386    0.0000 N   0  0  0  0  0  0           0  0  0
    6.2542  -14.2603    0.0000 C   0  0  2  0  0  0           0  0  0
    6.2498  -15.0852    0.0000 C   0  0  0  0  0  0           0  0  0
    6.9687  -13.8576    0.0000 C   0  0  0  0  0  0           0  0  0
    7.6843  -14.2784    0.0000 C   0  0  0  0  0  0           0  0  0
    8.4061  -13.8666    0.0000 N   0  0  0  0  0  0           0  0  0
    7.6758  -15.1013    0.0000 O   0  0  0  0  0  0           0  0  0
    5.5315  -15.4898    0.0000 N   0  0  0  0  0  0           0  0  0
    6.9600  -15.5017    0.0000 O   0  0  0  0  0  0           0  0  0
    5.5167  -16.3262    0.0000 C   0  0  2  0  0  0           0  0  0
    6.2329  -16.7397    0.0000 C   0  0  0  0  0  0           0  0  0
    6.9459  -16.3349    0.0000 O   0  0  0  0  0  0           0  0  0
    2.6840  -13.4107    0.0000 C   0  0  2  0  0  0           0  0  0
    2.6918  -11.7256    0.0000 H   0  0  0  0  0  0           0  0  0
    3.3607  -13.8711    0.0000 C   0  0  0  0  0  0           0  0  0
    3.3834  -14.8042    0.0000 C   0  0  0  0  0  0           0  0  0
    2.0696  -13.7116    0.0000 C   0  0  0  0  0  0           0  0  0
    6.2236  -17.5652    0.0000 N   0  0  0  0  0  0           0  0  0
    6.5249  -18.6873    0.0000 C   0  0  0  0  0  0           0  0  0
    6.9368  -17.9750    0.0000 C   0  0  3  0  0  0           0  0  0
    7.6533  -18.3847    0.0000 C   0  0  0  0  0  0           0  0  0
    7.6533  -19.2107    0.0000 N   0  0  0  0  0  0           0  0  0
    8.3697  -17.9750    0.0000 O   0  0  0  0  0  0           0  0  0
    8.3697  -19.6267    0.0000 C   0  0  2  0  0  0           0  0  0
    8.3697  -20.4464    0.0000 C   0  0  0  0  0  0           0  0  0
    9.0820  -19.2107    0.0000 C   0  0  0  0  0  0           0  0  0
    7.6533  -20.8624    0.0000 O   0  0  0  0  0  0           0  0  0
   -3.0280  -12.9446    0.0000 C   0  0  0  0  0  0           0  0  0
   -3.7398  -12.5273    0.0000 C   0  0  0  0  0  0           0  0  0
    7.3507  -17.2585    0.0000 C   0  0  0  0  0  0           0  0  0
    9.4866  -18.4940    0.0000 C   0  0  3  0  0  0           0  0  0
   10.3123  -18.4839    0.0000 C   0  0  0  0  0  0           0  0  0
    9.0695  -17.7806    0.0000 C   0  0  0  0  0  0           0  0  0
    9.0826  -20.8631    0.0000 N   0  0  3  0  0  0           0  0  0
    9.0807  -21.6849    0.0000 C   0  0  2  0  0  0           0  0  0
    9.7905  -22.1014    0.0000 C   0  0  0  0  0  0           0  0  0
   10.5055  -21.6899    0.0000 C   0  0  0  0  0  0           0  0  0
   10.5045  -20.8618    0.0000 C   0  0  0  0  0  0           0  0  0
    9.7906  -20.4453    0.0000 C   0  0  0  0  0  0           0  0  0
    8.3640  -22.0950    0.0000 C   0  0  0  0  0  0           0  0  0
    7.6479  -21.6794    0.0000 O   0  0  0  0  0  0           0  0  0
    8.3614  -22.9209    0.0000 N   0  0  0  0  0  0           0  0  0
 42  1  1  0     0  0
  1  2  1  0     0  0
  2  3  1  0     0  0
  3  4  1  0     0  0
  4  5  1  0     0  0
  5  6  1  0     0  0
  6  7  1  0     0  0
  6  8  2  0     0  0
  7  9  1  0     0  0
  9 10  1  0     0  0
  9 11  1  1     0  0
 11 12  1  0     0  0
 12 13  2  0     0  0
 13 14  1  0     0  0
 14 15  2  0     0  0
 15 16  1  0     0  0
 16 17  2  0     0  0
 17 12  1  0     0  0
 15 18  1  0     0  0
 10 19  1  0     0  0
 10 20  2  0     0  0
 19 21  1  0     0  0
 21 22  1  0     0  0
 22 23  1  0     0  0
 22 24  2  0     0  0
 23 25  1  0     0  0
 25 26  1  0     0  0
 25 27  1  1     0  0
 27 28  1  0     0  0
 28 29  1  0     0  0
 29 30  1  0     0  0
 29 31  2  0     0  0
 26 32  2  0     0  0
 26 33  1  0     0  0
 33 34  1  0     0  0
 34 35  1  0     0  0
 34 36  1  1     0  0
 36 37  1  0     0  0
 37 38  1  0     0  0
 37 39  2  0     0  0
 35 40  1  0     0  0
 35 41  2  0     0  0
 40 42  1  0     0  0
 42 43  1  6     0  0
 43 44  2  0     0  0
 21 45  1  0     0  0
 21 46  1  1     0  0
 45 47  1  0     0  0
 47 48  1  0     0  0
 45 49  1  6     0  0
 43 50  1  0     0  0
 50 52  1  0     0  0
 51 52  1  0     0  0
 52 53  1  0     0  0
 53 54  1  0     0  0
 53 55  2  0     0  0
 54 56  1  0     0  0
 56 57  1  0     0  0
 56 58  1  1     0  0
 57 59  2  0     0  0
 18 60  1  0     0  0
 60 61  1  0     0  0
 52 62  1  0     0  0
 58 63  1  0     0  0
 63 64  1  0     0  0
 63 65  1  0     0  0
 57 66  1  0     0  0
 66 67  1  0     0  0
 66 71  1  0     0  0
 67 68  1  0     0  0
 68 69  1  0     0  0
 69 70  1  0     0  0
 70 71  1  0     0  0
 67 72  1  6     0  0
 72 73  2  0     0  0
 72 74  1  0     0  0
M  END