
          11280714482D 1   1.00000     0.00000     0

 50 55  0     0  0            999 V2000
    8.1792    0.9708    0.0000 C   0  0  0  0  0  0           0  0  0
    8.8792    2.2375    0.0000 C   0  0  0  0  0  0           0  0  0
    8.8875    1.3958    0.0000 C   0  0  0  0  0  0           0  0  0
    8.1917    0.1125    0.0000 C   0  0  0  0  0  0           0  0  0
    8.1542    2.6500    0.0000 O   0  0  0  0  0  0           0  0  0
    8.9125   -0.2917    0.0000 C   0  0  0  0  0  0           0  0  0
    7.4625    2.2208    0.0000 C   0  0  0  0  0  0           0  0  0
    7.4667    1.3708    0.0000 C   0  0  0  0  0  0           0  0  0
    9.5792    2.6708    0.0000 C   0  0  0  0  0  0           0  0  0
    9.6000    0.9833    0.0000 C   0  0  0  0  0  0           0  0  0
    8.9250   -1.1375    0.0000 C   0  0  0  0  0  0           0  0  0
    9.7042   -0.0667    0.0000 C   0  0  0  0  0  0           0  0  0
    3.2125   -3.0375    0.0000 N   0  0  3  0  0  0           0  0  0
    8.2375   -2.4167    0.0000 C   0  0  0  0  0  0           0  0  0
    8.2167   -1.5667    0.0000 C   0  0  0  0  0  0           0  0  0
    7.4917   -0.3250    0.0000 C   0  0  0  0  0  0           0  0  0
    2.4917   -2.6417    0.0000 C   0  0  0  0  0  0           0  0  0
    6.7417    2.6333    0.0000 C   0  0  0  0  0  0           0  0  0
   10.2917    1.4125    0.0000 C   0  0  0  0  0  0           0  0  0
   10.2792    2.2583    0.0000 C   0  0  0  0  0  0           0  0  0
    6.7542    0.9333    0.0000 C   0  0  0  0  0  0           0  0  0
    2.4792   -1.8125    0.0000 N   0  0  0  0  0  0           0  0  0
    3.2250   -3.8625    0.0000 C   0  0  0  0  0  0           0  0  0
    7.5042   -1.1667    0.0000 C   0  0  0  0  0  0           0  0  0
    9.9500    0.4833    0.0000 O   0  0  0  0  0  0           0  0  0
    8.9542   -2.8292    0.0000 O   0  0  0  0  0  0           0  0  0
    3.9292   -2.5875    0.0000 C   0  0  0  0  0  0           0  0  0
    7.5375   -2.8542    0.0000 N   0  0  0  0  0  0           0  0  0
   11.0000    2.6708    0.0000 O   0  0  0  0  0  0           0  0  0
    6.0375    2.2083    0.0000 C   0  0  0  0  0  0           0  0  0
    2.5042   -4.3167    0.0000 C   0  0  0  0  0  0           0  0  0
    5.3667   -2.5292    0.0000 N   0  0  3  0  0  0           0  0  0
   10.2792   -0.6625    0.0000 O   0  0  0  0  0  0           0  0  0
    6.0417    1.3500    0.0000 C   0  0  0  0  0  0           0  0  0
    4.6542   -2.9750    0.0000 C   0  0  0  0  0  0           0  0  0
    1.0792   -5.2042    0.0000 C   0  0  0  0  0  0           0  0  0
    2.5167   -5.1500    0.0000 C   0  0  0  0  0  0           0  0  0
    1.7875   -3.9292    0.0000 C   0  0  0  0  0  0           0  0  0
    1.8000   -5.5917    0.0000 C   0  0  0  0  0  0           0  0  0
    1.0667   -4.3667    0.0000 C   0  0  0  0  0  0           0  0  0
    6.8042   -2.4667    0.0000 C   0  0  0  0  0  0           0  0  0
    5.3125    2.6083    0.0000 O   0  0  0  0  0  0           0  0  0
    0.3625   -5.6417    0.0000 O   0  0  0  0  0  0           0  0  0
    1.7792   -3.0917    0.0000 C   0  0  0  0  0  0           0  0  0
    1.7625   -1.4250    0.0000 C   0  0  0  0  0  0           0  0  0
    6.0875   -2.9167    0.0000 C   0  0  0  0  0  0           0  0  0
    5.3625   -1.6917    0.0000 C   0  0  0  0  0  0           0  0  0
    0.3667   -6.4792    0.0000 C   0  0  0  0  0  0           0  0  0
    1.0542   -2.7125    0.0000 C   0  0  0  0  0  0           0  0  0
    1.0417   -1.8667    0.0000 C   0  0  0  0  0  0           0  0  0
  2  3  1  0     0  0
  3  1  2  0     0  0
  4  1  1  0     0  0
  5  7  1  0     0  0
  6  4  2  0     0  0
  7  8  2  0     0  0
  8  1  1  0     0  0
  9  2  2  0     0  0
 10  3  1  0     0  0
 11  6  1  0     0  0
 12  6  1  0     0  0
 13 27  1  0     0  0
 14 15  1  0     0  0
 15 24  1  0     0  0
 16  4  1  0     0  0
 17 13  1  0     0  0
 18  7  1  0     0  0
 19 10  2  0     0  0
 20 19  1  0     0  0
 21  8  1  0     0  0
 22 17  2  0     0  0
 23 13  1  0     0  0
 24 16  2  0     0  0
 25 12  2  0     0  0
 26 14  2  0     0  0
 27 35  1  0     0  0
 28 14  1  0     0  0
 29 20  2  0     0  0
 30 34  1  0     0  0
 31 23  1  0     0  0
 32 46  1  0     0  0
 33 12  1  0     0  0
 34 21  2  0     0  0
 35 32  1  0     0  0
 36 40  2  0     0  0
 37 31  1  0     0  0
 38 31  2  0     0  0
 39 37  2  0     0  0
 40 38  1  0     0  0
 41 28  1  0     0  0
 42 30  1  0     0  0
 43 36  1  0     0  0
 44 17  1  0     0  0
 45 22  1  0     0  0
 46 41  1  0     0  0
 47 32  1  0     0  0
 48 43  1  0     0  0
 49 44  2  0     0  0
 50 49  1  0     0  0
  2  5  1  0     0  0
 18 30  2  0     0  0
 15 11  2  0     0  0
 20  9  1  0     0  0
 36 39  1  0     0  0
 45 50  2  0     0  0
M  END