
  SciTegic04021211102D

 26 28  0  0  0  0            999 V2000
    1.3120  -21.8674    0.0000 C   0  0
    0.9021  -22.5861    0.0000 C   0  0
    0.0766  -22.5893    0.0000 C   0  0
   -0.3399  -21.8747    0.0000 C   0  0
    0.0751  -21.1553    0.0000 C   0  0
    0.8992  -21.1556    0.0000 C   0  0
    1.3179  -23.2986    0.0000 C   0  0
   -0.3330  -23.3055    0.0000 S   0  0
   -1.1580  -23.3088    0.0000 C   0  0
   -1.5658  -24.0267    0.0000 C   0  0
   -2.3922  -22.5985    0.0000 C   0  0
   -1.5693  -22.5984    0.0000 C   0  0
   -3.6099  -23.4951    0.0000 N   0  0
   -2.8062  -23.3170    0.0000 C   0  0
   -2.3891  -24.0274    0.0000 N   0  0
   -2.9371  -24.6429    0.0000 C   0  0
   -3.6910  -24.3107    0.0000 N   0  0
   -2.7618  -25.4490    0.0000 C   0  0
    2.1428  -23.2949    0.0000 N   0  0
    2.5586  -24.0074    0.0000 C   0  0
    3.3836  -24.0036    0.0000 N   0  0
    2.1494  -24.7238    0.0000 O   0  0
    3.7997  -24.7162    0.0000 C   0  0
    4.6193  -24.7328    0.0000 C   0  0
   -3.3723  -26.0039    0.0000 C   0  0
   -1.9760  -25.7003    0.0000 C   0  0
 12  9  1  0
 14 15  1  0
  6  1  1  0
  1  2  2  0
  2  7  1  0
  3  4  2  0
  3  8  1  0
 13 14  2  0
 15 16  1  0
 16 17  2  0
 17 13  1  0
 16 18  1  0
  8  9  1  0
  7 19  1  0
  4  5  1  0
 19 20  1  0
  9 10  2  0
 20 21  1  0
 10 15  1  0
 20 22  2  0
  2  3  1  0
 21 23  1  0
 14 11  1  0
 23 24  1  0
  5  6  2  0
 18 25  1  0
 11 12  2  0
 18 26  1  0
M  END