
  SciTegic04091414352D

 51 55  0  0  0  0            999 V2000
    0.8240  -10.6771    0.0000 C   0  0
    0.8229  -11.4966    0.0000 C   0  0
    1.5309  -11.9056    0.0000 C   0  0
    1.5291  -10.2682    0.0000 C   0  0
    2.2378  -10.6735    0.0000 C   0  0
    2.2380  -11.4967    0.0000 C   0  0
    3.0210  -11.7509    0.0000 S   0  0
    3.5047  -11.0847    0.0000 C   0  0
    3.0206  -10.4190    0.0000 N   0  0
    4.3202  -11.0847    0.0000 C   0  0
    4.8008  -11.7456    0.0000 C   0  0
    5.5779  -11.4928    0.0000 N   0  0
    5.5776  -10.6755    0.0000 C   0  0
    4.8003  -10.4234    0.0000 S   0  0
    6.2386  -10.1949    0.0000 C   0  0
    6.1528   -9.3822    0.0000 C   0  0
    4.5486  -12.5229    0.0000 O   0  0
    3.2729   -9.6417    0.0000 C   0  0
    6.2392  -11.9729    0.0000 C   0  0
    6.1541  -12.7856    0.0000 C   0  0
    6.8148   -8.9031    0.0000 N   0  3
    6.7295   -8.0912    0.0000 C   0  0
    5.9822   -7.7583    0.0000 C   0  0
    5.3194   -8.2436    0.0000 C   0  0
    5.4080   -9.0538    0.0000 C   0  0
    7.5610   -9.2362    0.0000 C   0  0
    8.2226   -8.7564    0.0000 C   0  0
    8.9688   -9.0895    0.0000 C   0  0
    9.6304   -8.6098    0.0000 C   0  0
   10.3766   -8.9428    0.0000 C   0  0
   11.0382   -8.4631    0.0000 C   0  0
   11.7844   -8.7962    0.0000 N   0  0
   12.4460   -8.3164    0.0000 C   0  0
   13.1922   -8.6495    0.0000 C   0  0
   12.3613   -7.5037    0.0000 O   0  0
   13.8538   -8.1698    0.0000 C   0  0
   14.6000   -8.5028    0.0000 C   0  0
   15.2616   -8.0231    0.0000 C   0  0
   16.0078   -8.3562    0.0000 C   0  0  2  0  0  0
   16.1749   -9.1533    0.0000 S   0  0
   16.9875   -9.2395    0.0000 C   0  0
   16.7137   -7.9460    0.0000 C   0  0  2  0  0  0
   17.3178   -8.4917    0.0000 C   0  0  1  0  0  0
   18.0236   -8.0858    0.0000 N   0  0
   17.8557   -7.2891    0.0000 C   0  0
   17.0461   -7.2028    0.0000 N   0  0
   18.4034   -6.6827    0.0000 O   0  0
   16.1292   -7.3630    0.0000 H   0  0
   17.8915   -9.0675    0.0000 H   0  0
    0.1162  -10.2687    0.0000 F   0  0
    9.5999  -10.7638    0.0000 Cl  0  5
  1  2  2  0
  2  3  1  0
  3  6  2  0
  5  4  2  0
  4  1  1  0
  5  6  1  0
  6  7  1  0
  7  8  1  0
  8  9  1  0
  9  5  1  0
 10 11  1  0
 11 12  1  0
 12 13  1  0
 13 14  1  0
 14 10  1  0
  8 10  2  0
 13 15  2  0
 15 16  1  0
 11 17  2  0
  9 18  1  0
 12 19  1  0
 19 20  1  0
 16 21  2  0
 21 22  1  0
 22 23  2  0
 23 24  1  0
 24 25  2  0
 25 16  1  0
 21 26  1  0
 26 27  1  0
 27 28  1  0
 28 29  1  0
 29 30  1  0
 30 31  1  0
 31 32  1  0
 32 33  1  0
 33 34  1  0
 33 35  2  0
 34 36  1  0
 36 37  1  0
 37 38  1  0
 39 38  1  1
 39 40  1  0
 40 41  1  0
 41 43  1  0
 42 39  1  0
 42 43  1  0
 43 44  1  0
 44 45  1  0
 45 46  1  0
 46 42  1  0
 45 47  2  0
 42 48  1  6
 43 49  1  6
  1 50  1  0
M  CHG  2  21   1  51  -1
M  END