
  SciTegic01161211242D

 45 46  0  0  0  0            999 V2000
    8.3873    6.6926    0.0000 C   0  0
   10.2188    3.1710    0.0000 N   0  0
    6.9910    7.2429    0.0000 C   0  0
    2.2987    3.5009    0.0000 C   0  0
    3.5900   -2.1568    0.0000 C   0  0
    3.1497   -0.7220    0.0000 N   0  0
    8.6058    5.2086    0.0000 C   0  0
    2.5244    2.0171    0.0000 N   0  0
   10.0003    4.6558    0.0000 C   0  0
    1.6852   -0.3846    0.0000 C   0  0  1  0  0  0
    1.3514    1.0778    0.0000 C   0  0  1  0  0  0
    9.5633    7.6238    0.0000 C   0  0
    9.0444    2.2378    0.0000 C   0  0
    5.8157    6.3096    0.0000 C   0  0
    3.4701    4.4390    0.0000 C   0  0
    6.8142    8.4298    0.0000 O   0  0
    1.1809    3.9373    0.0000 O   0  0
    2.7723   -3.0350    0.0000 O   0  0
   -0.7500   -1.5574    0.0000 N   0  0
    9.2652    0.7542    0.0000 C   0  0
    5.0525   -2.4938    0.0000 C   0  0
   11.1762    5.5870    0.0000 C   0  0
    7.9774   -3.1613    0.0000 N   0  0
   10.9577    7.0710    0.0000 C   0  0
    3.2466    5.9223    0.0000 C   0  0
    4.8665    3.8911    0.0000 C   0  0
    4.4194    6.8576    0.0000 C   0  0
    6.0393    4.8263    0.0000 C   0  0
    0.7500   -1.5574    0.0000 C   0  0
   11.6141    2.6203    0.0000 C   0  0
    9.3886    8.8110    0.0000 O   0  0
   19.3349    2.4238    0.0000 Cl  0  0
   16.8349    2.4238    0.0000 Cl  0  0
   14.3349    2.4238    0.0000 Cl  0  0
   11.8349    1.1367    0.0000 C   0  0
   10.6605    0.2036    0.0000 C   0  0
   -1.6852   -0.3847    0.0000 C   0  0
    6.9571   -4.2609    0.0000 C   0  0
    7.5353   -1.7280    0.0000 C   0  0
    0.0000    1.7286    0.0000 C   0  0
    8.1597    1.2209    0.0000 C   0  0
    9.4697   -0.4283    0.0000 C   0  0
    5.4947   -3.9271    0.0000 C   0  0
    6.0729   -1.3942    0.0000 C   0  0
   -1.3515    1.0777    0.0000 C   0  0
  1  3  1  0
  5  6  1  0
  1  7  1  0
  4  8  1  0
  2  9  1  0
  7  9  2  0
 10  6  1  6
 11  8  1  1
 10 11  1  0
  1 12  2  0
  2 13  1  0
  3 14  1  0
  4 15  1  0
  3 16  2  0
  4 17  2  0
  5 18  2  0
 13 20  1  0
  5 21  1  0
  9 22  1  0
 12 24  1  0
 22 24  2  0
 15 25  2  0
 15 26  1  0
 14 27  2  0
 25 27  1  0
 14 28  1  0
 26 28  2  0
 10 29  1  0
 19 29  1  0
  2 30  1  0
 12 31  1  0
 30 35  1  0
 20 36  1  0
 35 36  1  0
 19 37  1  0
 23 38  1  0
 23 39  2  0
 11 40  1  0
 20 41  1  0
 20 42  1  0
 21 43  1  0
 38 43  2  0
 21 44  2  0
 39 44  1  0
 37 45  1  0
 40 45  1  0
M  END