
          11280715382D 1   1.00000     0.00000     0

 44 45  0     0  0            999 V2000
   -1.9333   -5.1917    0.0000 C   0  0  0  0  0  0           0  0  0
   11.4542  -12.1000    0.0000 C   0  0  0  0  0  0           0  0  0
   -2.2333   -5.7125    0.0000 C   0  0  0  0  0  0           0  0  0
   11.7750  -12.6042    0.0000 C   0  0  0  0  0  0           0  0  0
   -1.0333   -5.7167    0.0000 N   0  0  0  0  0  0           0  0  0
   10.5292  -11.6167    0.0000 N   0  0  0  0  0  0           0  0  0
    6.8500   -9.6917    0.0000 N   0  0  0  0  0  0           0  0  0
    2.5667   -7.7917    0.0000 N   0  0  0  0  0  0           0  0  0
   -1.9333   -6.2292    0.0000 O   0  0  0  0  0  0           0  0  0
   11.4917  -13.1375    0.0000 O   0  0  0  0  0  0           0  0  0
   10.8542  -12.1167    0.0000 C   0  0  0  0  0  0           0  0  0
   -1.3333   -5.1917    0.0000 C   0  0  0  0  0  0           0  0  0
   11.7292  -11.5667    0.0000 C   0  0  0  0  0  0           0  0  0
   -2.2333   -4.6750    0.0000 C   0  0  0  0  0  0           0  0  0
   -2.8333   -5.7167    0.0000 C   0  0  0  0  0  0           0  0  0
   12.3750  -12.5792    0.0000 C   0  0  0  0  0  0           0  0  0
    3.1625   -7.7667    0.0000 C   0  0  0  0  0  0           0  0  0
    6.2500   -9.7167    0.0000 C   0  0  0  0  0  0           0  0  0
    2.2667   -7.2750    0.0000 C   0  0  0  0  0  0           0  0  0
    7.1667  -10.2000    0.0000 C   0  0  0  0  0  0           0  0  0
    9.9292  -11.6417    0.0000 C   0  0  0  0  0  0           0  0  0
   -0.4333   -5.7167    0.0000 C   0  0  0  0  0  0           0  0  0
   -2.2250   -6.7500    0.0000 C   0  0  0  0  0  0           0  0  0
   11.8125  -13.6417    0.0000 C   0  0  0  0  0  0           0  0  0
    3.4875   -8.2750    0.0000 C   0  0  0  0  0  0           0  0  0
    7.7667  -10.1750    0.0000 C   0  0  0  0  0  0           0  0  0
    9.6125  -11.1375    0.0000 C   0  0  0  0  0  0           0  0  0
    5.9292   -9.2125    0.0000 C   0  0  0  0  0  0           0  0  0
    1.6667   -7.2750    0.0000 C   0  0  0  0  0  0           0  0  0
   -0.1333   -6.2292    0.0000 C   0  0  0  0  0  0           0  0  0
    5.0042   -8.7292    0.0000 C   0  0  0  0  0  0           0  0  0
    5.3292   -9.2375    0.0000 C   0  0  0  0  0  0           0  0  0
    1.3667   -6.7542    0.0000 C   0  0  0  0  0  0           0  0  0
    0.4667   -6.2292    0.0000 C   0  0  0  0  0  0           0  0  0
    0.7667   -6.7542    0.0000 C   0  0  0  0  0  0           0  0  0
    4.0792   -8.2500    0.0000 C   0  0  0  0  0  0           0  0  0
    4.4042   -8.7542    0.0000 C   0  0  0  0  0  0           0  0  0
    8.0917  -10.6792    0.0000 C   0  0  0  0  0  0           0  0  0
    8.6917  -10.6542    0.0000 C   0  0  0  0  0  0           0  0  0
    9.0125  -11.1625    0.0000 C   0  0  0  0  0  0           0  0  0
   12.3292  -11.5417    0.0000 C   0  0  0  0  0  0           0  0  0
   -2.8333   -4.6750    0.0000 C   0  0  0  0  0  0           0  0  0
   -3.1333   -5.1917    0.0000 C   0  0  0  0  0  0           0  0  0
   12.6542  -12.0542    0.0000 C   0  0  0  0  0  0           0  0  0
  2 11  1  0     0  0
  3  1  1  0     0  0
  4  2  2  0     0  0
  5 12  1  0     0  0
  6 21  1  0     0  0
  7 18  1  0     0  0
  8 19  1  0     0  0
  9  3  1  0     0  0
 10  4  1  0     0  0
 11  6  1  0     0  0
 12  1  1  0     0  0
 13  2  1  0     0  0
 14  1  2  0     0  0
 15  3  2  0     0  0
 16  4  1  0     0  0
 17  8  1  0     0  0
 18 28  1  0     0  0
 19 29  1  0     0  0
 20  7  1  0     0  0
 21 27  1  0     0  0
 22  5  1  0     0  0
 23  9  1  0     0  0
 24 10  1  0     0  0
 25 17  1  0     0  0
 26 20  1  0     0  0
 27 40  1  0     0  0
 28 32  1  0     0  0
 29 33  1  0     0  0
 30 22  1  0     0  0
 31 37  1  0     0  0
 32 31  1  0     0  0
 33 35  1  0     0  0
 34 30  1  0     0  0
 35 34  1  0     0  0
 36 25  1  0     0  0
 37 36  1  0     0  0
 38 26  1  0     0  0
 39 38  1  0     0  0
 40 39  1  0     0  0
 41 13  2  0     0  0
 42 14  1  0     0  0
 43 42  2  0     0  0
 44 41  1  0     0  0
 15 43  1  0     0  0
 16 44  2  0     0  0
M  END