
  SciTegic01161211252D

 51 50  0  0  0  0            999 V2000
    1.0221  -12.5953    0.0000 N   0  0
    1.7366  -12.1828    0.0000 C   0  0  1  0  0  0
    2.4511  -12.5953    0.0000 C   0  0
    1.7366  -11.3577    0.0000 C   0  0
    1.0221  -10.9452    0.0000 C   0  0
    1.0221  -10.1202    0.0000 C   0  0
    1.7366   -9.7077    0.0000 C   0  0
    1.7366   -8.8827    0.0000 N   0  0
    2.4511  -13.4203    0.0000 O   0  0
    3.1655  -12.1828    0.0000 N   0  0
    3.8800  -12.5953    0.0000 C   0  0
    4.5946  -12.1828    0.0000 C   0  0
    5.3090  -12.5953    0.0000 C   0  0
    6.0235  -12.1828    0.0000 C   0  0
    6.7380  -12.5953    0.0000 C   0  0
    7.4524  -12.1828    0.0000 C   0  0
    8.1670  -12.5953    0.0000 N   0  0
    7.4524  -11.3577    0.0000 O   0  0
    8.8815  -12.1828    0.0000 C   0  0  1  0  0  0
    9.5960  -12.5953    0.0000 C   0  0
    8.8815  -11.3577    0.0000 C   0  0
    9.5960  -10.9452    0.0000 C   0  0
    9.5960  -10.1202    0.0000 C   0  0
    8.8815   -9.7077    0.0000 N   0  0
    8.8815   -8.8827    0.0000 C   0  0
    8.1670   -8.4702    0.0000 N   0  0
    9.5960   -8.4702    0.0000 N   0  0
    9.5960  -13.4203    0.0000 O   0  0
   10.3104  -12.1828    0.0000 N   0  0
   11.0249  -12.5953    0.0000 C   0  0  1  0  0  0
   11.7395  -12.1828    0.0000 C   0  0
   11.0249  -13.4203    0.0000 C   0  0
   11.7395  -13.8328    0.0000 C   0  0
   11.7395  -14.6578    0.0000 C   0  0
   12.4539  -15.0703    0.0000 N   0  0
   12.4539  -15.8953    0.0000 C   0  0
   13.1684  -16.3079    0.0000 N   0  0
   11.7395  -16.3079    0.0000 N   0  0
   12.4539  -12.5953    0.0000 N   0  0
   11.7395  -11.3577    0.0000 O   0  0
    0.3076  -12.1828    0.0000 C   0  0
   -0.4069  -12.5953    0.0000 C   0  0
    0.3076  -11.3577    0.0000 O   0  0
   -0.4069  -13.4203    0.0000 C   0  0
    0.3076  -13.8328    0.0000 C   0  0
    0.3076  -14.6578    0.0000 C   0  0
    1.0221  -15.0703    0.0000 C   0  0
    1.0221  -15.8953    0.0000 N   0  0
    1.7366  -16.3079    0.0000 C   0  0
    1.7366  -17.1329    0.0000 O   0  0
    2.4511  -15.8953    0.0000 C   0  0
 25 26  2  0
  6  7  1  0
 25 27  1  0
 13 14  1  0
 20 28  2  0
  2  4  1  6
 20 29  1  0
 14 15  1  0
 29 30  1  0
  7  8  1  0
 30 31  1  0
 15 16  1  0
 30 32  1  1
 32 33  1  0
 16 17  1  0
 33 34  1  0
  3  9  2  0
 34 35  1  0
 16 18  2  0
 35 36  1  0
  4  5  1  0
 36 37  1  0
 17 19  1  0
 36 38  2  0
  3 10  1  0
 31 39  1  0
 19 20  1  0
 31 40  2  0
  2  3  1  0
  1 41  1  0
 19 21  1  6
 41 42  1  0
 10 11  1  0
 41 43  2  0
 21 22  1  0
 42 44  1  0
  5  6  1  0
 44 45  1  0
 22 23  1  0
 45 46  1  0
 11 12  1  0
 46 47  1  0
 23 24  1  0
 47 48  1  0
  1  2  1  0
 48 49  1  0
 24 25  1  0
 49 50  2  0
 12 13  1  0
 49 51  1  0
M  END