
          11280715042D 1   1.00000     0.00000     0

 49 53  0     1  0            999 V2000
   -1.8500    0.7583    0.0000 C   0  0  0  0  0  0           0  0  0
   -1.8500   -0.0667    0.0000 N   0  0  3  0  0  0           0  0  0
   -1.1333    2.0000    0.0000 N   0  0  3  0  0  0           0  0  0
    5.2875   -1.7500    0.0000 C   0  0  0  0  0  0           0  0  0
   -1.8458    2.4125    0.0000 C   0  0  0  0  0  0           0  0  0
    3.1417   -1.3292    0.0000 C   0  0  0  0  0  0           0  0  0
    6.0042   -1.3417    0.0000 C   0  0  0  0  0  0           0  0  0
    4.5750   -1.3375    0.0000 N   0  0  3  0  0  0           0  0  0
   -2.5625    1.1750    0.0000 C   0  0  3  0  0  0           0  0  0
    2.4250   -2.5625    0.0000 C   0  0  0  0  0  0           0  0  0
    3.8542   -1.7417    0.0000 C   0  0  0  0  0  0           0  0  0
    2.4292   -1.7375    0.0000 C   0  0  2  0  0  0           0  0  0
   -2.5625    2.0000    0.0000 C   0  0  0  0  0  0           0  0  0
   -1.1333   -0.4792    0.0000 C   0  0  3  0  0  0           0  0  0
    0.2875   -1.3125    0.0000 N   0  0  3  0  0  0           0  0  0
    3.1292   -2.9667    0.0000 C   0  0  0  0  0  0           0  0  0
   -1.1375    2.8333    0.0000 C   0  0  0  0  0  0           0  0  0
   -0.3208    2.0083    0.0000 C   0  0  0  0  0  0           0  0  0
    3.1292   -3.7917    0.0000 C   0  0  0  0  0  0           0  0  0
    3.1500   -0.5042    0.0000 N   0  0  0  0  0  0           0  0  0
   -0.3125    2.8333    0.0000 C   0  0  3  0  0  0           0  0  0
    1.7167   -1.3167    0.0000 C   0  0  0  0  0  0           0  0  0
    6.7125   -1.7625    0.0000 C   0  0  0  0  0  0           0  0  0
    6.0042   -0.5167    0.0000 C   0  0  0  0  0  0           0  0  0
   -1.1333    1.1708    0.0000 O   0  0  0  0  0  0           0  0  0
   -1.1375   -1.3042    0.0000 C   0  0  0  0  0  0           0  0  0
   -0.4208   -0.0667    0.0000 C   0  0  0  0  0  0           0  0  0
    2.4167   -4.2042    0.0000 C   0  0  0  0  0  0           0  0  0
    5.2792   -2.5750    0.0000 O   0  0  0  0  0  0           0  0  0
   -1.8458    3.2375    0.0000 O   0  0  0  0  0  0           0  0  0
    6.7167   -0.1125    0.0000 C   0  0  0  0  0  0           0  0  0
    7.4292   -1.3542    0.0000 C   0  0  0  0  0  0           0  0  0
    7.4292   -0.5292    0.0000 C   0  0  0  0  0  0           0  0  0
    1.7042   -2.9667    0.0000 C   0  0  0  0  0  0           0  0  0
    1.0000   -1.7292    0.0000 C   0  0  0  0  0  0           0  0  0
    1.7000   -3.7917    0.0000 C   0  0  0  0  0  0           0  0  0
   -0.4333   -1.7167    0.0000 C   0  0  0  0  0  0           0  0  0
    0.2917   -0.4875    0.0000 C   0  0  0  0  0  0           0  0  0
   -2.5625   -0.4750    0.0000 C   0  0  0  0  0  0           0  0  0
    3.8417   -4.2042    0.0000 Cl  0  0  0  0  0  0           0  0  0
    2.4125   -5.0292    0.0000 Cl  0  0  0  0  0  0           0  0  0
    8.1417   -1.7667    0.0000 Cl  0  0  0  0  0  0           0  0  0
    6.7167    0.7125    0.0000 Cl  0  0  0  0  0  0           0  0  0
    0.2667    3.4208    0.0000 O   0  0  0  0  0  0           0  0  0
    3.8667   -0.0917    0.0000 O   0  0  0  0  0  0           0  0  0
    4.5792   -0.5125    0.0000 C   0  0  0  0  0  0           0  0  0
   -3.2708    0.7583    0.0000 C   0  0  0  0  0  0           0  0  0
   -3.2708   -0.0667    0.0000 C   0  0  0  0  0  0           0  0  0
    4.5792    0.3083    0.0000 C   0  0  0  0  0  0           0  0  0
  2  1  1  0     0  0
  3  5  1  0     0  0
  4  8  1  0     0  0
  5 13  1  0     0  0
  6 12  1  0     0  0
  7  4  1  0     0  0
  8 11  1  0     0  0
  9  1  1  0     0  0
 12 10  1  6     0  0
 11  6  1  0     0  0
 12 22  1  0     0  0
  9 13  1  0     0  0
 14  2  1  0     0  0
 15 38  1  0     0  0
 16 10  1  0     0  0
 17  3  1  0     0  0
 18  3  1  0     0  0
 19 16  2  0     0  0
 20  6  2  0     0  0
 21 18  1  0     0  0
 22 35  1  0     0  0
 23  7  2  0     0  0
 24  7  1  0     0  0
 25  1  2  0     0  0
 26 14  1  0     0  0
 27 14  1  0     0  0
 28 36  2  0     0  0
 29  4  2  0     0  0
 30  5  2  0     0  0
 31 24  2  0     0  0
 32 23  1  0     0  0
 33 31  1  0     0  0
 34 10  2  0     0  0
 35 15  1  0     0  0
 36 34  1  0     0  0
 37 26  1  0     0  0
 38 27  1  0     0  0
 39  2  1  0     0  0
 40 19  1  0     0  0
 41 28  1  0     0  0
 42 32  1  0     0  0
 43 31  1  0     0  0
 44 21  1  0     0  0
 45 20  1  0     0  0
 46  8  1  0     0  0
 47  9  1  0     0  0
 48 47  1  0     0  0
 49 45  1  0     0  0
 39 48  1  0     0  0
 37 15  1  0     0  0
 17 21  1  0     0  0
 19 28  1  0     0  0
 32 33  2  0     0  0
M  END