
  SciTegic01161211242D

 46 48  0  0  0  0            999 V2000
    8.5750   -4.5250    0.0000 N   0  3
    3.5792   -4.9542    0.0000 C   0  0
    5.7208   -4.5292    0.0000 C   0  0
    0.0083   -6.2042    0.0000 C   0  0
    4.2917   -4.5375    0.0000 N   0  0
    5.0083   -4.9458    0.0000 C   0  0  1  0  0  0
    6.4375   -4.9375    0.0000 N   0  0
    2.8667   -4.5458    0.0000 N   0  0
   -0.7042   -5.7917    0.0000 O   0  0
    0.7250   -5.7917    0.0000 C   0  0
    3.5833   -5.7792    0.0000 O   0  0
    9.2875   -4.1167    0.0000 C   0  0
    5.7167   -3.7042    0.0000 O   0  0
    0.0083   -7.0292    0.0000 O   0  0
    7.8625   -4.9375    0.0000 C   0  0
    5.0125   -5.7708    0.0000 C   0  0
    7.1500   -4.5250    0.0000 C   0  0  2  0  0  0
   10.0000   -4.5292    0.0000 C   0  0
    9.2792   -5.7625    0.0000 C   0  0
    0.7250   -4.9625    0.0000 C   0  0
    1.4375   -6.2042    0.0000 C   0  0
    2.1542   -4.9625    0.0000 C   0  0
    9.2750   -6.5875    0.0000 C   0  0
    8.5667   -5.3458    0.0000 C   0  0
    5.7292   -6.1792    0.0000 C   0  0
    9.9958   -5.3542    0.0000 C   0  0
    8.5750   -3.7000    0.0000 C   0  0
    7.1625   -7.0000    0.0000 C   0  0
   10.7083   -5.7708    0.0000 C   0  0
    1.4333   -4.5500    0.0000 C   0  0
    2.1542   -5.7917    0.0000 C   0  0
    5.7333   -7.0042    0.0000 C   0  0
    6.4375   -5.7625    0.0000 C   0  0
    7.1542   -6.1708    0.0000 C   0  0
    6.4458   -7.4125    0.0000 C   0  0
    7.8792   -7.4042    0.0000 O   0  0
   10.7042   -6.5958    0.0000 O   0  0
   -1.4208   -6.2000    0.0000 C   0  0
    7.8583   -3.2875    0.0000 C   0  0
   11.4250   -4.5333    0.0000 C   0  0
   10.7125   -4.1208    0.0000 C   0  0
    7.1417   -3.7000    0.0000 C   0  0
   11.4250   -5.3625    0.0000 C   0  0
   -2.1333   -5.7875    0.0000 C   0  0
   -1.4208   -7.0250    0.0000 C   0  0
    9.2292   -2.6542    0.0000 I   0  5
  2  5  1  0
  3  7  1  0
  4 10  1  0
  5  6  1  0
  6  3  1  0
 17  7  1  1
  8  2  1  0
  9  4  1  0
 10 21  1  0
 11  2  2  0
 12  1  1  0
 13  3  2  0
 14  4  2  0
 15  1  1  0
  6 16  1  6
 17 15  1  0
 18 12  1  0
 19 24  1  0
 20 30  1  0
 21 31  2  0
 22  8  1  0
 23 19  2  0
 24  1  1  0
 25 16  1  0
 26 18  2  0
 27  1  1  0
 28 34  1  0
 29 26  1  0
 30 22  2  0
 31 22  1  0
 32 25  2  0
 33 25  1  0
 34 33  2  0
 35 32  1  0
 36 28  1  0
 37 29  1  0
 38  9  1  0
 39 27  1  0
 40 41  2  0
 41 18  1  0
 42 39  1  0
 43 40  1  0
 44 38  1  0
 45 38  1  0
 42 17  1  0
 43 29  2  0
 28 35  2  0
 10 20  2  0
M  CHG  2   1   1  46  -1
M  END