
  SciTegic12231509382D

 24 26  0  0  0  0            999 V2000
   12.3120   -3.5624    0.0000 C   0  0
   13.0168   -3.9836    0.0000 C   0  0
   13.7317   -3.5838    0.0000 C   0  0
   13.7432   -2.7631    0.0000 C   0  0
   13.0337   -2.3438    0.0000 C   0  0
   12.3216   -2.7459    0.0000 C   0  0
   14.4640   -2.3585    0.0000 N   0  0
   15.1738   -2.7807    0.0000 C   0  0
   15.8925   -2.3795    0.0000 C   0  0
   15.9067   -1.5527    0.0000 N   0  0
   15.1961   -1.1286    0.0000 C   0  0
   14.4713   -1.5313    0.0000 C   0  0
   16.6290   -1.1508    0.0000 C   0  0
   16.6421   -0.3243    0.0000 C   0  0
   17.3644    0.0776    0.0000 N   0  0
   17.3776    0.9040    0.0000 C   0  0
   18.0999    1.3060    0.0000 C   0  0
   16.6683    1.3287    0.0000 O   0  0
   18.8454    0.9555    0.0000 C   0  0
   19.4082    1.5610    0.0000 C   0  0
   19.0062    2.2834    0.0000 C   0  0
   18.1951    2.1242    0.0000 O   0  0
   14.4418   -4.0070    0.0000 O   0  0
   14.4303   -4.8335    0.0000 C   0  0
 11 12  1  0
  5  6  2  0
 10 13  1  0
  6  1  1  0
 13 14  1  0
  2  3  1  0
 14 15  1  0
  4  7  1  0
 15 16  1  0
  7  8  1  0
 16 17  1  0
 16 18  2  0
 17 19  2  0
  3  4  2  0
  1  2  2  0
  4  5  1  0
 19 20  1  0
 20 21  2  0
 21 22  1  0
 22 17  1  0
  7 12  1  0
  3 23  1  0
  8  9  1  0
 23 24  1  0
  9 10  1  0
 10 11  1  0
M  END