
          11280715302D 1   1.00000     0.00000     0

 40 44  0     0  0            999 V2000
   -0.7125    2.1208    0.0000 C   0  0  0  0  0  0           0  0  0
   -1.3750    1.6333    0.0000 N   0  0  3  0  0  0           0  0  0
   -2.0458    2.1125    0.0000 N   0  0  0  0  0  0           0  0  0
   -0.9708    2.9083    0.0000 C   0  0  0  0  0  0           0  0  0
   -1.7958    2.9000    0.0000 C   0  0  0  0  0  0           0  0  0
    0.0750    1.8708    0.0000 N   0  0  0  0  0  0           0  0  0
    0.6792    2.4250    0.0000 C   0  0  0  0  0  0           0  0  0
    2.0792    2.7333    0.0000 C   0  0  0  0  0  0           0  0  0
   -1.3708    0.8125    0.0000 C   0  0  0  0  0  0           0  0  0
    1.4667    2.1750    0.0000 N   0  0  0  0  0  0           0  0  0
    2.8625    2.4750    0.0000 C   0  0  0  0  0  0           0  0  0
    3.4792    3.0333    0.0000 C   0  0  0  0  0  0           0  0  0
   -0.6500   -0.4167    0.0000 N   0  0  0  0  0  0           0  0  0
   -2.2833    3.5708    0.0000 C   0  0  3  0  0  0           0  0  0
    6.0917    4.4292    0.0000 N   0  0  3  0  0  0           0  0  0
   -1.3708   -0.8375    0.0000 C   0  0  0  0  0  0           0  0  0
    3.3042    3.8333    0.0000 C   0  0  0  0  0  0           0  0  0
   -0.6583    0.4083    0.0000 C   0  0  0  0  0  0           0  0  0
    0.5042    3.2333    0.0000 O   0  0  0  0  0  0           0  0  0
    1.9042    3.5250    0.0000 C   0  0  0  0  0  0           0  0  0
   -2.0833    0.3958    0.0000 C   0  0  0  0  0  0           0  0  0
    2.5042    4.0792    0.0000 C   0  0  0  0  0  0           0  0  0
    7.6625    3.9208    0.0000 O   0  0  0  0  0  0           0  0  0
   -2.0833   -0.4292    0.0000 C   0  0  0  0  0  0           0  0  0
    3.9167    4.3875    0.0000 O   0  0  0  0  0  0           0  0  0
   -1.3583   -1.6625    0.0000 O   0  0  0  0  0  0           0  0  0
    5.3125    4.6875    0.0000 C   0  0  0  0  0  0           0  0  0
    4.7000    4.1292    0.0000 C   0  0  0  0  0  0           0  0  0
    6.2667    3.6208    0.0000 C   0  0  0  0  0  0           0  0  0
    6.7042    4.9792    0.0000 C   0  0  0  0  0  0           0  0  0
    3.0375    1.6708    0.0000 C   0  0  0  0  0  0           0  0  0
    4.2667    2.7833    0.0000 C   0  0  0  0  0  0           0  0  0
   -3.1083    3.4833    0.0000 C   0  0  0  0  0  0           0  0  0
   -2.8708    4.1542    0.0000 C   0  0  0  0  0  0           0  0  0
   -1.9583    4.3167    0.0000 C   0  0  0  0  0  0           0  0  0
    7.0417    3.3708    0.0000 C   0  0  0  0  0  0           0  0  0
    7.4917    4.7167    0.0000 C   0  0  0  0  0  0           0  0  0
   -0.6375   -2.0667    0.0000 C   0  0  0  0  0  0           0  0  0
    3.8250    1.4125    0.0000 C   0  0  0  0  0  0           0  0  0
    4.4417    1.9708    0.0000 C   0  0  0  0  0  0           0  0  0
  2  1  1  0     0  0
  3  2  1  0     0  0
  4  1  2  0     0  0
  5  4  1  0     0  0
  6  1  1  0     0  0
  7  6  1  0     0  0
  8 10  1  0     0  0
  9  2  1  0     0  0
 10  7  1  0     0  0
 11  8  2  0     0  0
 12 11  1  0     0  0
 13 18  2  0     0  0
 14  5  1  0     0  0
 15 27  1  0     0  0
 16 24  2  0     0  0
 17 22  1  0     0  0
 18  9  1  0     0  0
 19  7  2  0     0  0
 20  8  1  0     0  0
 21  9  2  0     0  0
 22 20  2  0     0  0
 23 37  1  0     0  0
 24 21  1  0     0  0
 25 17  1  0     0  0
 26 16  1  0     0  0
 27 28  1  0     0  0
 28 25  1  0     0  0
 29 15  1  0     0  0
 30 15  1  0     0  0
 31 11  1  0     0  0
 32 12  1  0     0  0
 33 14  1  0     0  0
 34 14  1  0     0  0
 35 14  1  0     0  0
 36 29  1  0     0  0
 37 30  1  0     0  0
 38 26  1  0     0  0
 39 31  2  0     0  0
 40 39  1  0     0  0
  3  5  2  0     0  0
 16 13  1  0     0  0
 17 12  2  0     0  0
 32 40  2  0     0  0
 23 36  1  0     0  0
M  END