
  SciTegic05071316162D

 16 17  0  0  0  0            999 V2000
    5.0792   -2.3566    0.0000 C   0  0
    5.0781   -3.1761    0.0000 C   0  0
    5.7861   -3.5851    0.0000 C   0  0
    6.4958   -3.1757    0.0000 C   0  0
    6.4929   -2.3530    0.0000 C   0  0
    5.7843   -1.9477    0.0000 C   0  0
    4.3714   -1.9482    0.0000 C   0  0  1  0  0  0
    3.6638   -2.3569    0.0000 C   0  0
    2.9560   -1.9485    0.0000 C   0  0
    2.2484   -2.3573    0.0000 N   0  0
    1.5024   -2.0212    0.0000 N   0  0
    0.9557   -2.6286    0.0000 C   0  0
    1.3645   -3.3362    0.0000 N   0  0
    2.1637   -3.1660    0.0000 C   0  0
    4.3712   -1.1310    0.0000 C   0  0
    5.0788   -0.7222    0.0000 C   0  0
  1  2  2  0
  2  3  1  0
  3  4  2  0
  4  5  1  0
  5  6  2  0
  6  1  1  0
  1  7  1  0
  7  8  1  0
  8  9  1  0
  9 10  1  0
 10 11  1  0
 11 12  2  0
 12 13  1  0
 13 14  2  0
 14 10  1  0
  7 15  1  1
 15 16  1  0
M  END