
          11280715082D 1   1.00000     0.00000     0

 34 37  0     0  0            999 V2000
    2.3417    0.8833    0.0000 S   0  0  3  0  0  0           0  0  0
    0.5917   -1.0875    0.0000 C   0  0  0  0  0  0           0  0  0
    2.1250   -0.1375    0.0000 N   0  0  0  0  0  0           0  0  0
    0.6167   -1.6875    0.0000 C   0  0  0  0  0  0           0  0  0
    2.5250    0.3083    0.0000 N   0  0  0  0  0  0           0  0  0
    2.1417   -0.7375    0.0000 C   0  0  0  0  0  0           0  0  0
    1.1042   -0.7667    0.0000 C   0  0  0  0  0  0           0  0  0
    1.6292   -1.0500    0.0000 C   0  0  0  0  0  0           0  0  0
    2.6750   -1.0167    0.0000 C   0  0  0  0  0  0           0  0  0
    0.0667   -0.8042    0.0000 C   0  0  3  0  0  0           0  0  0
    5.2917   -1.8292    0.0000 C   0  0  0  0  0  0           0  0  0
    0.1042   -2.0042    0.0000 C   0  0  3  0  0  0           0  0  0
    4.7625   -1.5542    0.0000 C   0  0  0  0  0  0           0  0  0
    3.1792   -0.7000    0.0000 C   0  0  0  0  0  0           0  0  0
    1.1542   -1.9667    0.0000 C   0  0  0  0  0  0           0  0  0
    4.2542   -1.8667    0.0000 C   0  0  0  0  0  0           0  0  0
    3.7125   -0.9875    0.0000 C   0  0  0  0  0  0           0  0  0
    3.7292   -1.5875    0.0000 C   0  0  0  0  0  0           0  0  0
    2.7500    1.3208    0.0000 O   0  0  0  0  0  0           0  0  0
    1.7542    1.0083    0.0000 O   0  0  0  0  0  0           0  0  0
    1.6542   -1.6500    0.0000 C   0  0  0  0  0  0           0  0  0
    2.6917   -1.6167    0.0000 C   0  0  0  0  0  0           0  0  0
   -0.4458   -1.1167    0.0000 C   0  0  0  0  0  0           0  0  0
    5.3167   -2.4292    0.0000 O   0  0  0  0  0  0           0  0  0
   -0.4250   -1.7167    0.0000 C   0  0  0  0  0  0           0  0  0
    4.7500   -0.9417    0.0000 C   0  0  0  0  0  0           0  0  0
    3.2250   -1.9042    0.0000 C   0  0  0  0  0  0           0  0  0
    4.2167   -0.6667    0.0000 C   0  0  0  0  0  0           0  0  0
    2.0667    1.4083    0.0000 C   0  0  0  0  0  0           0  0  0
    5.8042   -1.5125    0.0000 O   0  0  0  0  0  0           0  0  0
   -0.4708   -0.5125    0.0000 C   0  0  0  0  0  0           0  0  0
    0.4750   -0.3542    0.0000 C   0  0  0  0  0  0           0  0  0
   -0.4083   -2.3167    0.0000 C   0  0  0  0  0  0           0  0  0
    0.6292   -2.2792    0.0000 C   0  0  0  0  0  0           0  0  0
  2  7  1  0     0  0
  3  5  1  0     0  0
  4 15  1  0     0  0
  5  1  1  0     0  0
  6  3  2  0     0  0
  7  8  2  0     0  0
  8  6  1  0     0  0
  9  6  1  0     0  0
 10  2  1  0     0  0
 11 13  1  0     0  0
 12  4  1  0     0  0
 13 16  2  0     0  0
 14  9  1  0     0  0
 15 21  2  0     0  0
 16 18  1  0     0  0
 17 14  2  0     0  0
 18 27  2  0     0  0
 19  1  2  0     0  0
 20  1  2  0     0  0
 21  8  1  0     0  0
 22  9  2  0     0  0
 23 10  1  0     0  0
 24 11  2  0     0  0
 25 12  1  0     0  0
 26 28  2  0     0  0
 27 22  1  0     0  0
 28 17  1  0     0  0
 29  1  1  0     0  0
 30 11  1  0     0  0
 31 10  1  0     0  0
 32 10  1  0     0  0
 33 12  1  0     0  0
 34 12  1  0     0  0
 18 17  1  0     0  0
  4  2  2  0     0  0
 13 26  1  0     0  0
 23 25  1  0     0  0
M  END