
  SciTegic05191616142D

 25 25  0  0  0  0            999 V2000
    6.3752   -3.0834    0.0000 S   0  0
    7.0897   -2.6710    0.0000 C   0  0
    7.8042   -3.0834    0.0000 N   0  0
    7.0897   -1.8459    0.0000 N   0  0
    8.5187   -2.6710    0.0000 C   0  0
    5.6607   -2.6710    0.0000 C   0  0
    4.9462   -3.0834    0.0000 C   0  0
    4.2317   -2.6710    0.0000 C   0  0
    3.5175   -3.0834    0.0000 N   0  0
    9.2332   -3.0834    0.0000 C   0  0
    9.9476   -2.6710    0.0000 C   0  0
   10.6645   -3.0897    0.0000 C   0  0
    2.8014   -2.6722    0.0000 C   0  0
    2.0892   -3.0812    0.0000 C   0  0
    2.0851   -3.9063    0.0000 C   0  0
    2.7993   -4.3207    0.0000 C   0  0
    3.5176   -3.9101    0.0000 C   0  0
   11.3789   -2.6766    0.0000 C   0  0
   12.0924   -3.0904    0.0000 C   0  0
   12.8063   -2.6780    0.0000 C   0  0
   12.8062   -1.8519    0.0000 C   0  0
   12.0861   -1.4399    0.0000 C   0  0
   11.3752   -1.8547    0.0000 C   0  0
   13.5198   -1.4378    0.0000 Cl  0  0
    7.7419   -4.7793    0.0000 Cl  0  0
  1  2  1  0
  2  3  1  0
  2  4  2  0
  3  5  1  0
  1  6  1  0
  6  7  1  0
  7  8  1  0
  8  9  1  0
  5 10  1  0
 10 11  1  0
 11 12  1  0
  9 13  1  0
  9 17  1  0
 13 14  1  0
 14 15  1  0
 15 16  1  0
 16 17  1  0
 18 12  1  0
 18 19  2  0
 19 20  1  0
 20 21  2  0
 21 22  1  0
 22 23  2  0
 23 18  1  0
 21 24  1  0
M  END