
  SciTegic04091414352D

 26 27  0  0  0  0            999 V2000
   29.3851  -10.3279    0.0000 C   0  0
   30.1012  -10.7378    0.0000 C   0  0
   28.6722  -10.7431    0.0000 N   0  0
   27.9561  -10.3333    0.0000 C   0  0
   27.2432  -10.7485    0.0000 C   0  0
   28.6752  -11.5682    0.0000 C   0  0
   29.3913  -11.9780    0.0000 C   0  0
   26.5302  -11.1637    0.0000 C   0  0
   30.8141  -10.3225    0.0000 C   0  0
   25.8172  -11.5789    0.0000 C   0  0
   25.1012  -11.1691    0.0000 C   0  0
   25.1010  -10.3450    0.0000 C   0  0
   24.3858   -9.9353    0.0000 C   0  0
   23.6720  -10.3505    0.0000 C   0  0
   23.6777  -11.1798    0.0000 C   0  0
   24.3935  -11.5857    0.0000 C   0  0
   31.5302  -10.7323    0.0000 C   0  0
   32.2430  -10.3172    0.0000 C   0  0
   32.9591  -10.7270    0.0000 C   0  0
   33.6720  -10.3117    0.0000 C   0  0
   25.8204  -12.4039    0.0000 C   0  0
   25.1068  -12.8133    0.0000 C   0  0
   25.1095  -13.6376    0.0000 C   0  0
   25.8261  -14.0483    0.0000 C   0  0
   26.5414  -13.6286    0.0000 C   0  0
   26.5352  -12.8056    0.0000 C   0  0
  1  2  1  0
  1  3  1  0
  3  4  1  0
  4  5  1  0
  3  6  1  0
  6  7  1  0
  5  8  3  0
  2  9  1  0
  8 10  1  0
 10 11  1  0
 11 12  2  0
 12 13  1  0
 13 14  2  0
 14 15  1  0
 15 16  2  0
 16 11  1  0
  9 17  1  0
 17 18  1  0
 18 19  1  0
 19 20  1  0
 10 21  1  0
 21 22  2  0
 22 23  1  0
 23 24  2  0
 24 25  1  0
 25 26  2  0
 26 21  1  0
M  END