
          11280715362D 1   1.00000     0.00000     0

 16 17  0     0  0            999 V2000
    1.7792   -4.5625    0.0000 N   0  0  0  0  0  0           0  0  0
    0.9292   -3.4042    0.0000 C   0  0  0  0  0  0           0  0  0
    0.9375   -4.2917    0.0000 C   0  0  0  0  0  0           0  0  0
    1.7750   -3.1250    0.0000 C   0  0  3  0  0  0           0  0  0
    0.1667   -2.9625    0.0000 C   0  0  0  0  0  0           0  0  0
    2.3042   -3.8375    0.0000 C   0  0  0  0  0  0           0  0  0
    0.1667   -4.7292    0.0000 C   0  0  0  0  0  0           0  0  0
    2.0417   -2.2792    0.0000 C   0  0  0  0  0  0           0  0  0
   -0.5958   -3.4042    0.0000 C   0  0  0  0  0  0           0  0  0
    3.1750   -1.2500    0.0000 N   0  0  3  0  0  0           0  0  0
    2.9042   -2.0917    0.0000 C   0  0  0  0  0  0           0  0  0
   -0.5958   -4.2917    0.0000 C   0  0  0  0  0  0           0  0  0
   -1.3583   -2.9667    0.0000 O   0  0  0  0  0  0           0  0  0
    2.5750   -0.6042    0.0000 C   0  0  0  0  0  0           0  0  0
    4.0292   -1.0417    0.0000 C   0  0  0  0  0  0           0  0  0
   -1.3625   -2.0792    0.0000 C   0  0  0  0  0  0           0  0  0
  2  3  1  0     0  0
  3  1  1  0     0  0
  4  6  1  0     0  0
  5  2  2  0     0  0
  6  1  1  0     0  0
  7  3  2  0     0  0
  8  4  1  0     0  0
  9 12  2  0     0  0
 10 11  1  0     0  0
 11  8  1  0     0  0
 12  7  1  0     0  0
 13  9  1  0     0  0
 14 10  1  0     0  0
 15 10  1  0     0  0
 16 13  1  0     0  0
  2  4  1  0     0  0
  9  5  1  0     0  0
M  END