
  SciTegic05171617272D

 38 41  0  0  1  0            999 V2000
    3.6387   -0.8963    0.0000 O   0  0
    2.6003   -1.4977    0.0000 C   0  0
    1.2990   -0.7500    0.0000 C   0  0
    1.2990    0.7500    0.0000 O   0  0
    0.0000    1.5000    0.0000 C   0  0  1  0  0  0
    0.0031    3.0008    0.0000 S   0  0
    1.3039    3.7494    0.0000 C   0  0  2  0  0  0
    2.6004    2.9949    0.0000 C   0  0
    3.9020    3.7405    0.0000 C   0  0
    3.9072    5.2405    0.0000 C   0  0
    2.6108    5.9949    0.0000 C   0  0
    2.6190    7.4957    0.0000 N   0  0
    3.9224    8.2398    0.0000 C   0  0
    4.9585    7.6344    0.0000 O   0  0
    3.9307    9.7406    0.0000 C   0  0
    5.2323   10.4862    0.0000 C   0  0
    5.2375   11.9862    0.0000 C   0  0
    3.9411   12.7407    0.0000 C   0  0
    3.9453   13.9407    0.0000 Cl  0  0
    2.6395   11.9952    0.0000 C   0  0
    2.6342   10.4952    0.0000 C   0  0
    1.3092    5.2494    0.0000 C   0  0
    0.2720    5.8530    0.0000 O   0  0
   -1.2990    0.7500    0.0000 C   0  0
   -2.3383    1.3500    0.0000 O   0  0
   -1.2990   -0.7500    0.0000 C   0  0  1  0  0  0
   -2.6003   -1.4978    0.0000 N   0  0
   -3.8990   -0.7455    0.0000 C   0  0
   -3.8969    0.4545    0.0000 O   0  0
   -5.2003   -1.4932    0.0000 C   0  0
   -6.4994   -0.7433    0.0000 C   0  0
   -7.7985   -1.4932    0.0000 C   0  0
   -7.7985   -2.9932    0.0000 C   0  0
   -8.8377   -3.5932    0.0000 Cl  0  0
   -6.4995   -3.7433    0.0000 C   0  0
   -5.2004   -2.9933    0.0000 C   0  0
    0.0000   -1.5000    0.0000 C   0  0  1  0  0  0
    0.0000   -2.7000    0.0000 O   0  0
  1  2  1  0
  2  3  1  0
  3  4  1  0
  4  5  1  0
  5  6  1  6
  7  6  1  1
  7  8  1  0
  8  9  1  0
  9 10  1  0
 10 11  1  0
 11 12  1  0
 12 13  1  0
 13 14  2  0
 13 15  1  0
 15 16  2  0
 16 17  1  0
 17 18  2  0
 18 19  1  0
 18 20  1  0
 20 21  2  0
 15 21  1  0
 11 22  1  0
  7 22  1  0
 22 23  1  0
  5 24  1  0
 24 25  1  0
 24 26  1  0
 26 27  1  6
 27 28  1  0
 28 29  2  0
 28 30  1  0
 30 31  2  0
 31 32  1  0
 32 33  2  0
 33 34  1  0
 33 35  1  0
 35 36  2  0
 30 36  1  0
 26 37  1  0
  3 37  1  0
 37 38  1  6
M  END