
  Mrv0541 05211314572D          

 28 29  0  0  0  0            999 V2000
   -0.0892   -1.4485    0.0000 O   0  0  0  0  0  0  0  0  0  0  0  0
   -0.0892   -0.6235    0.0000 C   0  0  0  0  0  0  0  0  0  0  0  0
   -0.8037   -0.2110    0.0000 N   0  0  0  0  0  0  0  0  0  0  0  0
   -1.5181   -0.6235    0.0000 C   0  0  0  0  0  0  0  0  0  0  0  0
   -2.2326   -0.2110    0.0000 C   0  0  0  0  0  0  0  0  0  0  0  0
   -2.9863   -0.5466    0.0000 N   0  0  0  0  0  0  0  0  0  0  0  0
   -3.5383    0.0665    0.0000 C   0  0  0  0  0  0  0  0  0  0  0  0
   -3.1258    0.7810    0.0000 C   0  0  0  0  0  0  0  0  0  0  0  0
   -2.3189    0.6095    0.0000 N   0  0  0  0  0  0  0  0  0  0  0  0
    0.6253   -0.2110    0.0000 C   0  0  0  0  0  0  0  0  0  0  0  0
    1.3397   -0.6235    0.0000 C   0  0  0  0  0  0  0  0  0  0  0  0
    2.0542   -0.2110    0.0000 C   0  0  0  0  0  0  0  0  0  0  0  0
    2.7687   -0.6235    0.0000 C   0  0  0  0  0  0  0  0  0  0  0  0
    2.7687   -1.4485    0.0000 C   0  0  0  0  0  0  0  0  0  0  0  0
    2.0542   -1.8610    0.0000 C   0  0  0  0  0  0  0  0  0  0  0  0
    1.3397   -1.4485    0.0000 C   0  0  0  0  0  0  0  0  0  0  0  0
    0.6253    0.6140    0.0000 C   0  0  0  0  0  0  0  0  0  0  0  0
   -0.0892    1.0265    0.0000 C   0  0  0  0  0  0  0  0  0  0  0  0
   -0.0892    1.8515    0.0000 C   0  0  0  0  0  0  0  0  0  0  0  0
    0.6253    2.2640    0.0000 C   0  0  0  0  0  0  0  0  0  0  0  0
    1.3397    1.8515    0.0000 C   0  0  0  0  0  0  0  0  0  0  0  0
    1.3397    1.0265    0.0000 C   0  0  0  0  0  0  0  0  0  0  0  0
    5.7151    1.0717    0.0000 O   0  0  0  0  0  0  0  0  0  0  0  0
    6.1276    0.3572    0.0000 C   0  0  0  0  0  0  0  0  0  0  0  0
    6.9526    0.3572    0.0000 O   0  0  0  0  0  0  0  0  0  0  0  0
    5.7151   -0.3572    0.0000 C   0  0  0  0  0  0  0  0  0  0  0  0
    6.1276   -1.0717    0.0000 O   0  0  0  0  0  0  0  0  0  0  0  0
    4.8901   -0.3572    0.0000 O   0  0  0  0  0  0  0  0  0  0  0  0
  1  2  2  0  0  0  0
  2  3  1  0  0  0  0
  3  4  1  0  0  0  0
  4  5  1  0  0  0  0
  5  6  2  0  0  0  0
  6  7  1  0  0  0  0
  7  8  2  0  0  0  0
  8  9  1  0  0  0  0
  9  5  1  0  0  0  0
  2 10  1  0  0  0  0
 10 11  1  0  0  0  0
 11 12  1  0  0  0  0
 12 13  1  0  0  0  0
 13 14  1  0  0  0  0
 14 15  1  0  0  0  0
 15 16  1  0  0  0  0
 16 11  1  0  0  0  0
 10 17  1  0  0  0  0
 17 18  2  0  0  0  0
 18 19  1  0  0  0  0
 19 20  2  0  0  0  0
 20 21  1  0  0  0  0
 21 22  2  0  0  0  0
 22 17  1  0  0  0  0
 23 24  1  0  0  0  0
 24 25  2  0  0  0  0
 24 26  1  0  0  0  0
 26 27  2  0  0  0  0
 26 28  1  0  0  0  0
M  END