
  SciTegic05061116452D

 28 31  0  0  0  0            999 V2000
   -4.8973   -7.8958    0.0000 C   0  0
   -4.8984   -8.7232    0.0000 C   0  0
   -4.1836   -9.1360    0.0000 C   0  0
   -4.1854   -7.4830    0.0000 C   0  0
   -3.4700   -7.8922    0.0000 C   0  0
   -3.4693   -8.7190    0.0000 C   0  0
   -2.7540   -9.1300    0.0000 N   0  0
   -2.0389   -8.7152    0.0000 C   0  0
   -2.0437   -7.8852    0.0000 C   0  0
   -2.7596   -7.4780    0.0000 N   0  0
   -1.3229   -9.1249    0.0000 O   0  0
   -1.3196   -9.9499    0.0000 C   0  0
   -0.6036  -10.3596    0.0000 C   0  0
   -1.3318   -7.4684    0.0000 C   0  0
   -0.6148   -7.8765    0.0000 N   0  0
   -0.6138   -8.7054    0.0000 C   0  0
    0.0991   -9.1135    0.0000 C   0  0
    0.8135   -8.7001    0.0000 N   0  0
    0.8104   -7.8742    0.0000 C   0  0
    0.0930   -7.4615    0.0000 C   0  0
   -1.3368   -6.6434    0.0000 O   0  0
    1.5289   -9.1110    0.0000 C   0  0
    1.5308   -9.9360    0.0000 C   0  0
    0.8164  -10.3455    0.0000 C   0  0
    0.8180  -11.1698    0.0000 C   0  0
    1.5339  -11.5814    0.0000 C   0  0
    2.2498  -11.1629    0.0000 C   0  0
    2.2447  -10.3400    0.0000 C   0  0
  3  6  2  0
  9 14  1  0
  6  7  1  0
 14 15  1  0
 15 16  1  0
  1  2  2  0
  7  8  2  0
  5  4  2  0
  8  9  1  0
  4  1  1  0
 15 20  1  0
 16 17  1  0
 17 18  1  0
 18 19  1  0
 19 20  1  0
  9 10  2  0
 14 21  2  0
 10  5  1  0
 18 22  1  0
 22 23  1  0
  8 11  1  0
 23 24  2  0
  2  3  1  0
 24 25  1  0
 11 12  1  0
 25 26  2  0
  5  6  1  0
 26 27  1  0
 12 13  1  0
 27 28  2  0
 28 23  1  0
M  END