
  SciTegic02271514512D

 22 24  0  0  0  0            999 V2000
   10.1984   -6.5582    0.0000 C   0  0
   10.1984   -7.3754    0.0000 C   0  0
   10.9037   -7.7798    0.0000 C   0  0
   11.6089   -7.3754    0.0000 C   0  0
   11.6089   -6.5582    0.0000 C   0  0
   10.9037   -6.1454    0.0000 C   0  0
    9.4922   -7.7855    0.0000 C   0  0
    8.7836   -7.3762    0.0000 C   0  0
    8.0770   -7.7851    0.0000 C   0  0
    8.0777   -8.6032    0.0000 C   0  0
    8.7910   -9.0106    0.0000 C   0  0
    9.4947   -8.5993    0.0000 C   0  0
   10.9037   -5.3283    0.0000 O   0  0
   12.3178   -6.1516    0.0000 S   0  0
   13.0244   -6.5623    0.0000 C   0  0
   12.3161   -7.7850    0.0000 O   0  0
   13.0204   -7.3805    0.0000 C   0  0
   13.7261   -7.7911    0.0000 C   0  0
   14.4359   -7.3846    0.0000 C   0  0
   14.4357   -6.5631    0.0000 C   0  0
   13.7295   -6.1562    0.0000 C   0  0
   13.7295   -5.3391    0.0000 Cl  0  0
  1  2  1  0
  1  6  1  0
  2  3  1  0
  3  4  1  0
  4  5  1  0
  5  6  2  0
  7  8  2  0
  8  9  1  0
  9 10  2  0
 10 11  1  0
 11 12  2  0
 12  7  1  0
  2  7  1  0
  6 13  1  0
  5 14  1  0
 14 15  1  0
  4 16  2  0
 15 17  2  0
 17 18  1  0
 18 19  2  0
 19 20  1  0
 20 21  2  0
 21 15  1  0
 21 22  1  0
M  END