
          05270816392D 1   1.00000     0.00000     0

 37 43  0     1  0            999 V2000
   -4.2687  -17.1508    0.0000 C   0  0  0  0  0  0           0  0  0
   -4.2700  -17.9738    0.0000 C   0  0  0  0  0  0           0  0  0
   -2.8454  -17.1468    0.0000 C   0  0  0  0  0  0           0  0  0
   -3.5543  -16.7380    0.0000 C   0  0  0  0  0  0           0  0  0
   -2.8422  -17.9733    0.0000 C   0  0  0  0  0  0           0  0  0
   -3.5537  -18.3878    0.0000 C   0  0  0  0  0  0           0  0  0
   -3.5550  -19.2100    0.0000 C   0  0  0  0  0  0           0  0  0
   -2.8420  -19.6238    0.0000 C   0  0  0  0  0  0           0  0  0
   -4.8859  -18.5259    0.0000 N   0  0  0  0  0  0           0  0  0
   -4.3394  -19.4645    0.0000 C   0  0  0  0  0  0           0  0  0
   -2.1275  -18.3855    0.0000 C   0  0  2  0  0  0           0  0  0
   -2.1266  -19.2134    0.0000 C   0  0  2  0  0  0           0  0  0
   -1.4133  -19.6242    0.0000 N   0  0  3  0  0  0           0  0  0
   -0.6962  -19.2118    0.0000 C   0  0  0  0  0  0           0  0  0
   -0.6971  -18.3840    0.0000 C   0  0  1  0  0  0           0  0  0
   -1.4150  -17.9685    0.0000 C   0  0  0  0  0  0           0  0  0
   -2.1359  -20.0337    0.0000 H   0  0  0  0  0  0           0  0  0
   -2.1359  -17.5587    0.0000 H   0  0  0  0  0  0           0  0  0
    0.0174  -17.9715    0.0000 C   0  0  0  0  0  0           0  0  0
    0.0174  -17.1465    0.0000 O   0  0  0  0  0  0           0  0  0
    0.7319  -18.3840    0.0000 N   0  0  3  0  0  0           0  0  0
    0.7268  -19.2142    0.0000 C   0  0  0  0  0  0           0  0  0
    1.4371  -19.6266    0.0000 C   0  0  0  0  0  0           0  0  0
    2.1540  -19.2177    0.0000 N   0  0  3  0  0  0           0  0  0
    2.1560  -18.3917    0.0000 C   0  0  0  0  0  0           0  0  0
    1.4411  -17.9748    0.0000 C   0  0  0  0  0  0           0  0  0
    2.8669  -19.6328    0.0000 C   0  0  0  0  0  0           0  0  0
    2.8589  -20.4567    0.0000 C   0  0  0  0  0  0           0  0  0
    3.5710  -20.8718    0.0000 C   0  0  0  0  0  0           0  0  0
    3.5758  -19.2213    0.0000 N   0  0  0  0  0  0           0  0  0
   -1.4136  -20.4492    0.0000 C   0  0  0  0  0  0           0  0  0
    5.0744  -20.7187    0.0000 N   0  0  0  0  0  0           0  0  0
    5.5627  -20.0494    0.0000 S   0  0  0  0  0  0           0  0  0
    5.0769  -19.3781    0.0000 N   0  0  0  0  0  0           0  0  0
    4.2885  -19.6327    0.0000 C   0  0  0  0  0  0           0  0  0
    4.2868  -20.4612    0.0000 C   0  0  0  0  0  0           0  0  0
   -4.6339  -20.2352    0.0000 Cl  0  0  0  0  0  0           0  0  0
 12 17  1  1     0  0
  7  8  1  0     0  0
 11 18  1  6     0  0
  8 12  1  0     0  0
 15 19  1  1     0  0
  3  4  2  0     0  0
 19 20  2  0     0  0
  2  9  1  0     0  0
 19 21  1  0     0  0
 21 22  1  0     0  0
  4  1  1  0     0  0
  7 10  2  0     0  0
  9 10  1  0     0  0
 11 12  1  0     0  0
  5  6  2  0     0  0
 21 26  1  0     0  0
 22 23  1  0     0  0
 23 24  1  0     0  0
 24 25  1  0     0  0
 25 26  1  0     0  0
  2  6  1  0     0  0
 24 27  1  0     0  0
 27 28  1  0     0  0
  5  3  1  0     0  0
 28 29  2  0     0  0
 29 36  1  0     0  0
  1  2  2  0     0  0
 35 30  1  0     0  0
 30 27  2  0     0  0
  5 11  1  0     0  0
 13 31  1  0     0  0
 35 36  1  0     0  0
 11 16  1  0     0  0
 12 13  1  0     0  0
 33 34  1  0     0  0
 13 14  1  0     0  0
 14 15  1  0     0  0
 15 16  1  0     0  0
 32 33  1  0     0  0
 34 35  2  0     0  0
 36 32  2  0     0  0
  6  7  1  0     0  0
 10 37  1  0     0  0
M  END