
          11280714492D 1   1.00000     0.00000     0

 23 26  0     0  0            999 V2000
    0.2542   -2.3292    0.0000 C   0  0  0  0  0  0           0  0  0
    0.2542   -1.5042    0.0000 C   0  0  0  0  0  0           0  0  0
   -0.4500   -2.7417    0.0000 C   0  0  0  0  0  0           0  0  0
    0.9750   -2.7375    0.0000 C   0  0  0  0  0  0           0  0  0
    1.6792    0.1500    0.0000 N   0  0  3  0  0  0           0  0  0
    0.9667   -1.0875    0.0000 C   0  0  0  0  0  0           0  0  0
   -0.4500   -3.5667    0.0000 C   0  0  0  0  0  0           0  0  0
    0.9792   -3.5667    0.0000 C   0  0  0  0  0  0           0  0  0
    0.2667   -3.9792    0.0000 C   0  0  0  0  0  0           0  0  0
    0.9625   -0.2625    0.0000 C   0  0  3  0  0  0           0  0  0
    2.3917   -0.2625    0.0000 C   0  0  0  0  0  0           0  0  0
    1.6750    0.9708    0.0000 C   0  0  0  0  0  0           0  0  0
    1.6875   -2.3167    0.0000 C   0  0  0  0  0  0           0  0  0
   -1.1708   -2.3292    0.0000 C   0  0  0  0  0  0           0  0  0
   -1.1708   -3.9875    0.0000 C   0  0  0  0  0  0           0  0  0
    1.6917   -3.9750    0.0000 C   0  0  0  0  0  0           0  0  0
    0.2500    0.1458    0.0000 C   0  0  0  0  0  0           0  0  0
    0.9625    1.3833    0.0000 C   0  0  0  0  0  0           0  0  0
   -1.8833   -2.7500    0.0000 C   0  0  0  0  0  0           0  0  0
    2.4042   -2.7250    0.0000 C   0  0  0  0  0  0           0  0  0
    2.4125   -3.5542    0.0000 C   0  0  0  0  0  0           0  0  0
   -1.8833   -3.5750    0.0000 C   0  0  0  0  0  0           0  0  0
    0.2417    0.9708    0.0000 C   0  0  0  0  0  0           0  0  0
  2  1  1  0     0  0
  3  1  1  0     0  0
  4  1  2  0     0  0
  5 10  1  0     0  0
  6  2  2  0     0  0
  7  3  1  0     0  0
  8  4  1  0     0  0
  9  8  2  0     0  0
 10  6  1  0     0  0
 11  5  1  0     0  0
 12  5  1  0     0  0
 13  4  1  0     0  0
 14  3  2  0     0  0
 15  7  2  0     0  0
 16  8  1  0     0  0
 17 10  1  0     0  0
 18 23  1  0     0  0
 19 14  1  0     0  0
 20 13  2  0     0  0
 21 20  1  0     0  0
 22 19  2  0     0  0
 23 17  1  0     0  0
  7  9  1  0     0  0
 16 21  2  0     0  0
 22 15  1  0     0  0
 12 18  1  0     0  0
M  END