
  SciTegic01181116592D

 25 28  0  0  0  0            999 V2000
   -6.3424   -9.1133    0.0000 C   0  0
   -5.6013   -8.7754    0.0000 N   0  0
   -6.1908   -8.3674    0.0000 C   0  0
   -4.7792   -9.1241    0.0000 C   0  0  2  0  0  0
   -5.7383   -7.7551    0.0000 C   0  0
   -5.4617   -8.0426    0.0000 C   0  0
   -4.6755   -8.3849    0.0000 C   0  0  1  0  0  0
   -5.4994   -7.1618    0.0000 C   0  0
   -3.9555   -7.9820    0.0000 N   0  0
   -4.3728   -9.8420    0.0000 C   0  0
   -4.7913  -10.5531    0.0000 C   0  0
   -5.6157  -10.5424    0.0000 C   0  0
   -6.0424  -11.2526    0.0000 C   0  0
   -5.6276  -11.9716    0.0000 C   0  0
   -4.7983  -11.9760    0.0000 N   0  0
   -4.3836  -11.2651    0.0000 C   0  0
   -3.2465   -8.4039    0.0000 C   0  0
   -3.2575   -9.2290    0.0000 O   0  0
   -2.5266   -8.0009    0.0000 C   0  0
   -1.8209   -8.4227    0.0000 C   0  0
   -1.1015   -8.0204    0.0000 C   0  0
   -1.0901   -7.1945    0.0000 C   0  0
   -1.8040   -6.7725    0.0000 C   0  0
   -2.5207   -7.1773    0.0000 C   0  0
   -0.3705   -6.7905    0.0000 Br  0  0
 11 12  2  0
  2  5  1  0
 12 13  1  0
  3  6  1  0
 13 14  2  0
  4  7  1  0
 14 15  1  0
  5  8  1  0
 15 16  2  0
 16 11  1  0
  6  7  1  0
  9 17  1  0
  6  8  1  0
 17 18  2  0
 17 19  1  0
  7  9  1  1
 19 20  2  0
  1  2  1  0
 20 21  1  0
  4 10  1  6
 21 22  2  0
  1  3  1  0
 22 23  1  0
 10 11  1  0
 23 24  2  0
 24 19  1  0
  2  4  1  0
 22 25  1  0
M  END