
          11280714522D 1   1.00000     0.00000     0

 37 41  0     0  0            999 V2000
   -0.1583   -1.3917    0.0000 C   0  0  0  0  0  0           0  0  0
    0.5042   -0.9167    0.0000 N   0  0  0  0  0  0           0  0  0
    1.1750   -1.3917    0.0000 C   0  0  0  0  0  0           0  0  0
   -0.4250   -0.7167    0.0000 C   0  0  3  0  0  0           0  0  0
   -1.7333   -0.8042    0.0000 C   0  0  3  0  0  0           0  0  0
   -1.3958   -1.5917    0.0000 O   0  0  0  0  0  0           0  0  0
    0.0917   -2.1792    0.0000 O   0  0  0  0  0  0           0  0  0
   -0.2750   -0.0292    0.0000 C   0  0  3  0  0  0           0  0  0
    0.9167   -2.1792    0.0000 C   0  0  0  0  0  0           0  0  0
    1.8417   -1.1167    0.0000 C   0  0  0  0  0  0           0  0  0
   -1.0583   -0.2542    0.0000 C   0  0  3  0  0  0           0  0  0
    0.4375    0.3833    0.0000 C   0  0  0  0  0  0           0  0  0
    2.3292    3.1458    0.0000 C   0  0  0  0  0  0           0  0  0
   -2.0083   -0.2667    0.0000 C   0  0  0  0  0  0           0  0  0
   -1.5333    0.2208    0.0000 C   0  0  0  0  0  0           0  0  0
    1.9292   -0.3667    0.0000 O   0  0  0  0  0  0           0  0  0
    2.1042    3.9375    0.0000 O   0  0  0  0  0  0           0  0  0
    2.4917   -1.5292    0.0000 N   0  0  0  0  0  0           0  0  0
    1.9667    1.7625    0.0000 C   0  0  0  0  0  0           0  0  0
    1.7417    2.5583    0.0000 C   0  0  0  0  0  0           0  0  0
    1.0167   -0.2000    0.0000 C   0  0  0  0  0  0           0  0  0
    1.3875    1.1833    0.0000 C   0  0  0  0  0  0           0  0  0
    3.1250    2.9333    0.0000 O   0  0  0  0  0  0           0  0  0
    1.6042    0.3958    0.0000 C   0  0  0  0  0  0           0  0  0
    2.9750    0.7583    0.0000 C   0  0  0  0  0  0           0  0  0
    6.0792   -1.1542    0.0000 C   0  0  3  0  0  0           0  0  0
    2.7625    1.5500    0.0000 C   0  0  0  0  0  0           0  0  0
    3.2292   -1.1625    0.0000 C   0  0  0  0  0  0           0  0  0
    2.3917    0.1833    0.0000 C   0  0  0  0  0  0           0  0  0
    5.3667   -1.5667    0.0000 C   0  0  0  0  0  0           0  0  0
    6.7917   -1.5625    0.0000 C   0  0  0  0  0  0           0  0  0
    6.0667   -0.3292    0.0000 C   0  0  0  0  0  0           0  0  0
    3.9417   -1.5750    0.0000 C   0  0  0  0  0  0           0  0  0
    4.6542   -1.1542    0.0000 C   0  0  0  0  0  0           0  0  0
    6.7875    0.0875    0.0000 C   0  0  0  0  0  0           0  0  0
    7.5042   -1.1500    0.0000 C   0  0  0  0  0  0           0  0  0
    7.5042   -0.3250    0.0000 C   0  0  0  0  0  0           0  0  0
  2  1  2  0     0  0
  3  2  1  0     0  0
  4  1  1  0     0  0
  5  4  1  0     0  0
  6  5  1  0     0  0
  7  1  1  0     0  0
  8  4  1  0     0  0
  9  7  1  0     0  0
 10  3  1  0     0  0
 11  8  1  0     0  0
 12  8  1  0     0  0
 13 20  1  0     0  0
 14  5  1  0     0  0
 15 11  1  0     0  0
 16 10  2  0     0  0
 17 13  2  0     0  0
 18 10  1  0     0  0
 19 22  2  0     0  0
 20 19  1  0     0  0
 21 12  1  0     0  0
 22 24  1  0     0  0
 23 13  1  0     0  0
 24 21  1  0     0  0
 25 29  1  0     0  0
 26 30  1  0     0  0
 27 25  2  0     0  0
 28 18  1  0     0  0
 29 24  2  0     0  0
 30 34  1  0     0  0
 31 26  1  0     0  0
 32 26  1  0     0  0
 33 28  1  0     0  0
 34 33  1  0     0  0
 35 32  1  0     0  0
 36 31  1  0     0  0
 37 35  1  0     0  0
  9  3  2  0     0  0
 11  6  1  0     0  0
 15 14  1  0     0  0
 19 27  1  0     0  0
 37 36  1  0     0  0
M  END