
          11280714592D 1   1.00000     0.00000     0

 20 23  0     0  0            999 V2000
    3.7417   -2.5542    0.0000 C   0  0  3  0  0  0           0  0  0
    4.2292   -3.2250    0.0000 O   0  0  0  0  0  0           0  0  0
    4.2292   -1.8917    0.0000 O   0  0  0  0  0  0           0  0  0
    5.0125   -2.9667    0.0000 C   0  0  0  0  0  0           0  0  0
    5.0125   -2.1417    0.0000 C   0  0  0  0  0  0           0  0  0
    8.0000   -4.4125    0.0000 N   0  0  0  0  0  0           0  0  0
    8.4500   -3.7167    0.0000 C   0  0  0  0  0  0           0  0  0
    6.4417   -2.9667    0.0000 C   0  0  0  0  0  0           0  0  0
    5.7250   -3.3792    0.0000 C   0  0  0  0  0  0           0  0  0
    7.1542   -3.3792    0.0000 C   0  0  3  0  0  0           0  0  0
    7.9250   -3.0792    0.0000 C   0  0  0  0  0  0           0  0  0
    7.2042   -4.2042    0.0000 C   0  0  0  0  0  0           0  0  0
    5.7250   -1.7292    0.0000 C   0  0  0  0  0  0           0  0  0
    9.2750   -3.6667    0.0000 O   0  0  0  0  0  0           0  0  0
    6.4417   -2.1417    0.0000 C   0  0  0  0  0  0           0  0  0
    3.4417   -1.7792    0.0000 C   0  0  0  0  0  0           0  0  0
    3.2250   -3.2000    0.0000 C   0  0  0  0  0  0           0  0  0
    2.4042   -3.0667    0.0000 C   0  0  0  0  0  0           0  0  0
    2.6250   -1.6500    0.0000 C   0  0  0  0  0  0           0  0  0
    2.1125   -2.2917    0.0000 C   0  0  0  0  0  0           0  0  0
  2  1  1  0     0  0
  3  1  1  0     0  0
  4  2  1  0     0  0
  5  3  1  0     0  0
  6 12  1  0     0  0
  7 11  1  0     0  0
  8  9  2  0     0  0
  9  4  1  0     0  0
 10  8  1  0     0  0
 11 10  1  0     0  0
 12 10  1  0     0  0
 13  5  1  0     0  0
 14  7  2  0     0  0
 15 13  2  0     0  0
 16  1  1  0     0  0
 17  1  1  0     0  0
 18 17  1  0     0  0
 19 16  1  0     0  0
 20 18  1  0     0  0
  4  5  2  0     0  0
 19 20  1  0     0  0
 15  8  1  0     0  0
  7  6  1  0     0  0
M  END