
  Mrv0541 04051115152D          

 19 21  0  0  0  0            999 V2000
    0.2652   -0.5773    0.0000 N   0  0  0  0  0  0  0  0  0  0  0  0
   -0.5598   -0.5773    0.0000 C   0  0  0  0  0  0  0  0  0  0  0  0
    0.7501   -1.2447    0.0000 C   0  0  0  0  0  0  0  0  0  0  0  0
    0.7501    0.0901    0.0000 C   0  0  0  0  0  0  0  0  0  0  0  0
   -0.9723    0.1372    0.0000 C   0  0  0  0  0  0  0  0  0  0  0  0
   -0.9723   -1.2918    0.0000 O   0  0  0  0  0  0  0  0  0  0  0  0
    1.5347   -0.9898    0.0000 C   0  0  0  0  0  0  0  0  0  0  0  0
    1.5347   -0.1648    0.0000 C   0  0  0  0  0  0  0  0  0  0  0  0
   -1.7973    0.1372    0.0000 C   0  0  0  0  0  0  0  0  0  0  0  0
   -0.5598    0.8516    0.0000 C   0  0  0  0  0  0  0  0  0  0  0  0
    2.2492   -1.4023    0.0000 C   0  0  0  0  0  0  0  0  0  0  0  0
    2.2492    0.2477    0.0000 C   0  0  0  0  0  0  0  0  0  0  0  0
   -2.2098    0.8516    0.0000 C   0  0  0  0  0  0  0  0  0  0  0  0
   -2.2098   -0.5773    0.0000 O   0  0  0  0  0  0  0  0  0  0  0  0
   -0.9723    1.5661    0.0000 C   0  0  0  0  0  0  0  0  0  0  0  0
    2.9637   -0.9898    0.0000 C   0  0  0  0  0  0  0  0  0  0  0  0
    2.9637   -0.1648    0.0000 C   0  0  0  0  0  0  0  0  0  0  0  0
   -1.7973    1.5661    0.0000 C   0  0  0  0  0  0  0  0  0  0  0  0
   -2.2098    2.2806    0.0000 O   0  0  0  0  0  0  0  0  0  0  0  0
  2  1  1  0  0  0  0
  3  1  1  0  0  0  0
  4  1  1  0  0  0  0
  2  5  1  0  0  0  0
  2  6  2  0  0  0  0
  3  7  1  0  0  0  0
  4  8  1  0  0  0  0
  5  9  2  0  0  0  0
 10  5  1  0  0  0  0
  7  8  2  0  0  0  0
 11  7  1  0  0  0  0
 12  8  1  0  0  0  0
 13  9  1  0  0  0  0
  9 14  1  0  0  0  0
 10 15  2  0  0  0  0
 11 16  2  0  0  0  0
 12 17  2  0  0  0  0
 13 18  2  0  0  0  0
 15 18  1  0  0  0  0
 16 17  1  0  0  0  0
 18 19  1  0  0  0  0
M  END