
  SciTegic06051315212D

 33 38  0  0  0  0            999 V2000
   10.7003  -19.6561    0.0000 C   0  0
   10.6992  -20.4842    0.0000 N   0  0
   11.4147  -20.8975    0.0000 C   0  0
   12.1318  -20.4838    0.0000 C   0  0
   12.1290  -19.6524    0.0000 C   0  0
   11.4129  -19.2429    0.0000 C   0  0
   12.7810  -19.1455    0.0000 N   0  0
   13.5295  -18.0361    0.0000 N   0  0
   12.7532  -18.3192    0.0000 C   0  0
   14.0381  -18.6882    0.0000 C   0  0
   13.5739  -19.3702    0.0000 C   0  0
   13.9325  -20.1111    0.0000 C   0  0
   14.7552  -20.1712    0.0000 C   0  0
   15.2178  -19.4843    0.0000 C   0  0
   14.8566  -18.7462    0.0000 C   0  0
   11.4145  -21.7233    0.0000 N   0  0
   10.6992  -22.1360    0.0000 C   0  0  2  0  0  0
   12.0226  -17.9378    0.0000 C   0  0
   11.9917  -17.1115    0.0000 C   0  0
   10.5973  -17.9966    0.0000 C   0  0
   11.3276  -18.3776    0.0000 C   0  0
   10.5624  -17.1674    0.0000 C   0  0
   11.2644  -16.7275    0.0000 C   0  0
   11.2335  -15.9015    0.0000 C   0  0
   10.5013  -15.5144    0.0000 C   0  0
    9.7988  -15.9593    0.0000 C   0  0
    9.8331  -16.7838    0.0000 C   0  0
   16.0417  -19.5412    0.0000 O   0  0
    9.9876  -21.7205    0.0000 C   0  0
    9.2746  -22.1298    0.0000 C   0  0
    9.2700  -22.9559    0.0000 C   0  0
    9.9850  -23.3711    0.0000 N   0  0
   10.7044  -22.9603    0.0000 C   0  0
  1  2  2  0
  2  3  1  0
  3  4  2  0
  4  5  1  0
  5  6  2  0
  6  1  1  0
  5  7  1  0
  7 11  1  0
 10  8  1  0
  8  9  2  0
  9  7  1  0
 10 11  2  0
 11 12  1  0
 12 13  2  0
 13 14  1  0
 14 15  2  0
 15 10  1  0
  3 16  1  0
 17 16  1  1
 18 19  2  0
 19 23  1  0
 22 20  1  0
 20 21  2  0
 21 18  1  0
  9 18  1  0
 22 23  1  0
 23 24  2  0
 24 25  1  0
 25 26  2  0
 26 27  1  0
 27 22  2  0
 14 28  1  0
 17 29  1  0
 17 33  1  0
 29 30  1  0
 30 31  1  0
 31 32  1  0
 32 33  1  0
M  END