
  SciTegic12231509382D

  8  8  0  0  0  0            999 V2000
    4.0917   -2.0250    0.0000 N   0  0
    3.5750   -1.7292    0.0000 C   0  0
    3.0542   -2.0292    0.0000 C   0  0
    2.5417   -1.7292    0.0000 C   0  0
    3.0542   -2.6292    0.0000 C   0  0
    2.0250   -2.0292    0.0000 C   0  0
    2.5417   -2.9292    0.0000 C   0  0
    2.0250   -2.6292    0.0000 C   0  0
  2  1  1  0
  3  2  1  0
  4  3  2  0
  5  3  1  0
  6  4  1  0
  7  5  2  0
  8  6  2  0
  7  8  1  0
M  END