
  CDK    12/20/10,14:45

 27 27  0  0  0  0  0  0  0  0999 V2000
   13.1417   -1.0125    0.0000 C   0  0  0  0  0  0  0  0  0  0  0  0
   12.4333   -0.6000    0.0000 C   0  0  0  0  0  0  0  0  0  0  0  0
   13.8583    0.2292    0.0000 C   0  0  0  0  0  0  0  0  0  0  0  0
   13.8542   -0.5958    0.0000 C   0  0  0  0  0  0  0  0  0  0  0  0
   12.4250    0.2208    0.0000 C   0  0  0  0  0  0  0  0  0  0  0  0
   13.1417    0.6333    0.0000 C   0  0  0  0  0  0  0  0  0  0  0  0
   13.8583   -2.2458    0.0000 P   0  0  0  0  0  0  0  0  0  0  0  0
   11.7208   -1.8417    0.0000 P   0  0  0  0  0  0  0  0  0  0  0  0
   14.5667    1.4667    0.0000 P   0  0  0  0  0  0  0  0  0  0  0  0
   13.1458   -1.8375    0.0000 O   0  0  0  0  0  0  0  0  0  0  0  0
   11.7208   -1.0167    0.0000 O   0  0  0  0  0  0  0  0  0  0  0  0
   14.5708    0.6417    0.0000 O   0  0  0  0  0  0  0  0  0  0  0  0
   13.8542    1.8792    0.0000 O   0  0  0  0  0  0  0  0  0  0  0  0
   12.4375   -2.2500    0.0000 O   0  0  0  0  0  0  0  0  0  0  0  0
   13.8625   -3.0708    0.0000 O   0  0  0  0  0  0  0  0  0  0  0  0
   11.3125   -2.5583    0.0000 O   0  0  0  0  0  0  0  0  0  0  0  0
   10.8958   -1.8458    0.0000 O   0  0  0  0  0  0  0  0  0  0  0  0
   14.6833   -2.2417    0.0000 O   0  0  0  0  0  0  0  0  0  0  0  0
   15.3917    1.5000    0.0000 O   0  0  0  0  0  0  0  0  0  0  0  0
   14.2667   -1.5292    0.0000 O   0  0  0  0  0  0  0  0  0  0  0  0
   14.9542    2.2000    0.0000 O   0  0  0  0  0  0  0  0  0  0  0  0
   14.5708   -1.0083    0.0000 O   0  0  0  0  0  0  0  0  0  0  0  0
   11.7125    0.6292    0.0000 O   0  0  0  0  0  0  0  0  0  0  0  0
   13.1333    1.4583    0.0000 O   0  0  0  0  0  0  0  0  0  0  0  0
   11.6958    3.1000    0.0000 N   0  0  0  0  0  0  0  0  0  0  0  0
   12.4125    2.6917    0.0000 C   0  0  0  0  0  0  0  0  0  0  0  0
   12.4167    1.8667    0.0000 C   0  0  0  0  0  0  0  0  0  0  0  0
  2  1  1  0  0  0  0 
  3  4  1  0  0  0  0 
  4  1  1  0  0  0  0 
  5  2  1  0  0  0  0 
  6  5  1  0  0  0  0 
  7 10  1  0  0  0  0 
  8 11  1  0  0  0  0 
  9 12  1  0  0  0  0 
  1 10  1  1  0  0  0 
  2 11  1  6  0  0  0 
  3 12  1  1  0  0  0 
 13  9  2  0  0  0  0 
 14  8  2  0  0  0  0 
 15  7  2  0  0  0  0 
 16  8  1  0  0  0  0 
 17  8  1  0  0  0  0 
 18  7  1  0  0  0  0 
 19  9  1  0  0  0  0 
 20  7  1  0  0  0  0 
 21  9  1  0  0  0  0 
  4 22  1  6  0  0  0 
  5 23  1  1  0  0  0 
  6 24  1  1  0  0  0 
 25 26  1  0  0  0  0 
 26 27  1  0  0  0  0 
 27 24  1  0  0  0  0 
  3  6  1  0  0  0  0 
M  END