
  SciTegic01111613442D

 18 19  0  0  0  0            999 V2000
    2.3383   -1.3500    0.0000 F   0  0
    1.2990   -0.7500    0.0000 C   0  0
    1.2990    0.7500    0.0000 C   0  0
    0.0000    1.5000    0.0000 C   0  0
    0.0000    2.7000    0.0000 F   0  0
   -1.2990    0.7500    0.0000 C   0  0
   -1.2990   -0.7500    0.0000 C   0  0
    0.0000   -1.5000    0.0000 C   0  0
    0.0000   -3.0008    0.0000 C   0  0
   -1.2978   -3.7529    0.0000 C   0  0
   -1.2955   -5.2529    0.0000 C   0  0
   -2.5956   -6.0027    0.0000 C   0  0
   -2.5957   -7.2027    0.0000 O   0  0
   -3.6349   -5.4029    0.0000 O   0  0
    1.3002   -3.7488    0.0000 C   0  0
    1.3026   -5.2488    0.0000 C   0  0
    0.0048   -6.0009    0.0000 C   0  0
    0.0067   -7.2009    0.0000 O   0  0
  2  1  1  0
  3  2  2  0
  2  8  1  0
  4  3  1  0
  4  5  1  0
  4  6  2  0
  6  7  1  0
  7  8  2  0
  8  9  1  0
 10  9  2  0
  9 15  1  0
 10 11  1  0
 12 11  1  0
 11 17  2  0
 12 13  1  0
 12 14  2  0
 15 16  2  0
 17 16  1  0
 17 18  1  0
M  END