
          11280715482D 1   1.00000     0.00000     0

 32 35  0     0  0            999 V2000
    5.0375   -1.9917    0.0000 S   0  0  3  0  0  0           0  0  0
    4.3167   -2.4000    0.0000 N   0  0  0  0  0  0           0  0  0
    2.9542   -0.6542    0.0000 N   0  0  0  0  0  0           0  0  0
    3.6167   -1.1500    0.0000 N   0  0  3  0  0  0           0  0  0
    3.6042   -1.9750    0.0000 C   0  0  0  0  0  0           0  0  0
    3.2292    0.1208    0.0000 C   0  0  0  0  0  0           0  0  0
    4.0500    0.1125    0.0000 C   0  0  3  0  0  0           0  0  0
    4.2917   -0.6750    0.0000 C   0  0  0  0  0  0           0  0  0
    5.2375   -2.7917    0.0000 N   0  0  3  0  0  0           0  0  0
    5.0500   -1.1667    0.0000 O   0  0  0  0  0  0           0  0  0
    5.8625   -1.9917    0.0000 O   0  0  0  0  0  0           0  0  0
    2.7542    0.7958    0.0000 C   0  0  0  0  0  0           0  0  0
    4.5417    0.7750    0.0000 C   0  0  0  0  0  0           0  0  0
    2.8875   -2.3792    0.0000 N   0  0  0  0  0  0           0  0  0
    3.1000    1.5500    0.0000 C   0  0  0  0  0  0           0  0  0
    1.9292    0.7250    0.0000 C   0  0  0  0  0  0           0  0  0
    1.8042    2.1500    0.0000 C   0  0  0  0  0  0           0  0  0
    2.6250    2.2250    0.0000 C   0  0  0  0  0  0           0  0  0
    1.4542    1.4000    0.0000 C   0  0  0  0  0  0           0  0  0
    1.3292    2.8333    0.0000 Cl  0  0  0  0  0  0           0  0  0
    6.0375   -2.9542    0.0000 C   0  0  0  0  0  0           0  0  0
    4.6000   -3.3250    0.0000 C   0  0  0  0  0  0           0  0  0
    4.2167    1.5333    0.0000 C   0  0  0  0  0  0           0  0  0
    5.3625    0.6750    0.0000 C   0  0  0  0  0  0           0  0  0
    2.8750   -3.2042    0.0000 C   0  0  0  0  0  0           0  0  0
    6.4167   -3.6917    0.0000 C   0  0  0  0  0  0           0  0  0
    4.6167   -4.1500    0.0000 C   0  0  0  0  0  0           0  0  0
    4.7042    2.1875    0.0000 C   0  0  0  0  0  0           0  0  0
    5.8542    1.3375    0.0000 C   0  0  0  0  0  0           0  0  0
    6.0792   -4.4417    0.0000 C   0  0  0  0  0  0           0  0  0
    5.5292    2.0958    0.0000 C   0  0  0  0  0  0           0  0  0
    5.2792   -4.6500    0.0000 C   0  0  0  0  0  0           0  0  0
  2  1  1  0     0  0
  3  4  1  0     0  0
  4  5  1  0     0  0
  5  2  1  0     0  0
  6  3  2  0     0  0
  7  8  1  0     0  0
  8  4  1  0     0  0
  9  1  1  0     0  0
 10  1  2  0     0  0
 11  1  2  0     0  0
 12  6  1  0     0  0
 13  7  1  0     0  0
 14  5  2  0     0  0
 15 12  1  0     0  0
 16 12  2  0     0  0
 17 19  2  0     0  0
 18 15  2  0     0  0
 19 16  1  0     0  0
 20 17  1  0     0  0
 21  9  1  0     0  0
 22  9  1  0     0  0
 23 13  1  0     0  0
 24 13  2  0     0  0
 25 14  1  0     0  0
 26 21  1  0     0  0
 27 22  1  0     0  0
 28 23  2  0     0  0
 29 24  1  0     0  0
 30 26  1  0     0  0
 31 29  2  0     0  0
 32 27  1  0     0  0
 30 32  1  0     0  0
  7  6  1  0     0  0
 18 17  1  0     0  0
 31 28  1  0     0  0
M  END