
  SciTegic08261113352D

 24 26  0  0  0  0            999 V2000
    4.0875   -5.2042    0.0000 C   0  0
    3.3667   -4.8000    0.0000 C   0  0
    4.8042   -4.7875    0.0000 C   0  0
    4.8042   -3.9542    0.0000 C   0  0
    3.3542   -3.9625    0.0000 C   0  0
    4.0917   -6.0292    0.0000 N   0  0
    6.2625   -8.9042    0.0000 N   0  0
    6.2667   -9.7292    0.0000 C   0  0
    4.8125   -6.4417    0.0000 O   0  0
    5.5375   -7.6667    0.0000 C   0  0  2  0  0  0
    5.5417   -8.4917    0.0000 C   0  0
    4.8167   -7.2667    0.0000 C   0  0
    5.5167   -5.2000    0.0000 C   0  0
    2.6417   -5.2042    0.0000 C   0  0
    5.5167   -3.5417    0.0000 C   0  0
    2.6417   -3.5542    0.0000 C   0  0
    6.2417   -7.2542    0.0000 O   0  0
    5.5542  -10.1417    0.0000 C   0  0
    6.9792  -10.1375    0.0000 C   0  0
    5.4667   -9.5167    0.0000 C   0  0
    1.9292   -3.9667    0.0000 C   0  0
    1.9292   -4.7917    0.0000 C   0  0
    6.2417   -4.7792    0.0000 C   0  0
    6.2375   -3.9500    0.0000 C   0  0
  2  1  1  0
  3  1  1  0
  4  3  2  0
  5  2  1  0
  6  1  2  0
  7 11  1  0
  8  7  1  0
  9  6  1  0
 10 12  1  0
 11 10  1  0
 12  9  1  0
 13  3  1  0
 14  2  2  0
 15  4  1  0
 16  5  2  0
 10 17  1  6
 18  8  1  0
 19  8  1  0
 20  8  1  0
 21 22  2  0
 22 14  1  0
 23 13  2  0
 24 23  1  0
  4  5  1  0
 15 24  2  0
 21 16  1  0
M  END