
  SciTegic10041313202D

 32 34  0  0  1  0            999 V2000
    3.2542   -9.3542    0.0000 C   0  0
    5.3917   -9.7792    0.0000 C   0  0
    3.9667   -9.7750    0.0000 N   0  0
    2.5292   -9.7667    0.0000 C   0  0
    4.6792   -9.3625    0.0000 C   0  0  1  0  0  0
    6.1125   -9.3750    0.0000 N   0  0
    8.3533   -8.8873    0.0000 N   0  0
    7.5292   -9.3750    0.0000 C   0  0
    1.8167   -9.3542    0.0000 N   0  0
    3.2417   -8.5292    0.0000 O   0  0
    5.3917  -10.6042    0.0000 O   0  0
    4.6875   -8.5375    0.0000 C   0  0
    6.8250   -9.7917    0.0000 C   0  0  2  0  0  0
    1.8125  -11.0000    0.0000 N   0  0
    2.5292  -10.5917    0.0000 C   0  0
    7.5375  -11.0292    0.0000 O   0  0
    5.0917   -7.8167    0.0000 C   0  0
    8.9667  -11.0250    0.0000 C   0  0
    6.8250  -10.6167    0.0000 C   0  0
    1.1000   -9.7667    0.0000 C   0  0
    1.1000  -10.5792    0.0000 C   0  0
    8.2542  -10.6167    0.0000 C   0  0
    8.9667  -11.8500    0.0000 C   0  0
    9.6792  -10.6042    0.0000 C   0  0
    5.9167   -7.8125    0.0000 C   0  0
    4.6750   -7.1042    0.0000 C   0  0
   10.3917  -11.0167    0.0000 C   0  0
    9.6792  -12.2625    0.0000 C   0  0
    5.0792   -6.3917    0.0000 C   0  0
    6.3250   -7.1000    0.0000 C   0  0
    5.9042   -6.3792    0.0000 C   0  0
   10.3917  -11.8417    0.0000 C   0  0
  2  5  1  0
  3  1  1  0
  4  1  1  0
  5  3  1  0
  6  2  1  0
  7  8  3  0
  8 13  1  0
  9  4  2  0
 10  1  2  0
 11  2  2  0
  5 12  1  1
 13  6  1  0
 14 15  2  0
 15  4  1  0
 16 19  1  0
 17 12  1  0
 18 22  1  0
 13 19  1  6
 20  9  1  0
 21 14  1  0
 22 16  1  0
 23 18  2  0
 24 18  1  0
 25 17  1  0
 26 17  1  0
 27 24  2  0
 28 23  1  0
 29 26  1  0
 30 25  1  0
 31 29  1  0
 32 27  1  0
 21 20  2  0
 30 31  1  0
 28 32  2  0
M  END