
  SciTegic12011114592D

 37 41  0  0  0  0            999 V2000
   -5.1129  -15.5497    0.0000 N   0  0
   -4.3977  -15.1399    0.0000 C   0  0
   -4.3949  -14.3141    0.0000 N   0  0
   -5.1131  -13.8996    0.0000 C   0  0
   -5.1136  -13.0746    0.0000 N   0  0
   -4.3990  -12.6616    0.0000 C   0  0
   -3.6847  -15.5549    0.0000 S   0  0
   -2.9688  -15.1448    0.0000 C   0  0
   -2.2599  -15.5629    0.0000 C   0  0
   -1.5446  -15.1535    0.0000 C   0  0
   -1.5413  -14.3276    0.0000 C   0  0
   -2.2594  -13.9128    0.0000 C   0  0
   -2.9718  -14.3246    0.0000 C   0  0
   -0.8260  -13.9166    0.0000 N   0  0
   -3.6133  -12.9097    0.0000 C   0  0
   -3.1342  -12.2381    0.0000 C   0  0
   -3.6250  -11.5749    0.0000 N   0  0
   -4.4073  -11.8366    0.0000 N   0  0
   -2.3093  -12.2309    0.0000 C   0  0
   -6.6003  -14.0605    0.0000 C   0  0
   -7.0859  -14.7216    0.0000 C   0  0
   -6.6078  -15.3834    0.0000 C   0  0
   -5.8228  -15.1313    0.0000 N   0  0
   -5.8222  -14.3136    0.0000 C   0  0
   -0.1124  -14.3306    0.0000 C   0  0
    0.6030  -13.9196    0.0000 C   0  0
    1.3165  -14.3340    0.0000 N   0  0
   -0.1141  -15.1556    0.0000 O   0  0
    1.3079  -15.1545    0.0000 C   0  0
    2.0897  -15.4179    0.0000 C   0  0  1  0  0  0
    2.5819  -14.7557    0.0000 C   0  0  2  0  0  0
    2.1041  -14.0831    0.0000 C   0  0
    3.4068  -14.7646    0.0000 O   0  0
    2.3361  -16.2052    0.0000 O   0  0
    3.1412  -16.3855    0.0000 C   0  0
    3.3876  -17.1728    0.0000 C   0  0
    3.6998  -15.7784    0.0000 C   0  0
  6 15  1  0
 16 17  1  0
 18  6  2  0
  3  4  2  0
 16 19  1  0
 23 24  1  0
  8  9  2  0
  4 24  1  0
 21 22  2  0
  9 10  1  0
  1  2  2  0
 10 11  2  0
 20 21  1  0
 22 23  1  0
 24 20  2  0
  4  5  1  0
 14 25  1  0
 11 12  1  0
 25 26  1  0
 23  1  1  0
 26 27  1  0
 12 13  2  0
 25 28  2  0
 27 29  1  0
 13  8  1  0
  5  6  1  0
 11 14  1  0
 17 18  1  0
 29 30  1  0
 30 31  1  0
 31 32  1  0
 32 27  1  0
  2  3  1  0
 31 33  1  6
 15 16  2  0
 30 34  1  1
  2  7  1  0
 34 35  1  0
 35 36  1  0
  7  8  1  0
 35 37  1  0
M  END