
          11280714452D 1   1.00000     0.00000     0

 35 39  0     0  0            999 V2000
    8.3042   -1.7667    0.0000 C   0  0  0  0  0  0           0  0  0
    9.0250   -2.1792    0.0000 C   0  0  0  0  0  0           0  0  0
    9.9167   -3.1667    0.0000 N   0  0  0  0  0  0           0  0  0
    7.5917   -2.1792    0.0000 C   0  0  0  0  0  0           0  0  0
    6.8792   -1.7667    0.0000 C   0  0  0  0  0  0           0  0  0
    9.1125   -3.0000    0.0000 N   0  0  0  0  0  0           0  0  0
   10.3292   -2.4542    0.0000 N   0  0  0  0  0  0           0  0  0
    9.7792   -1.8417    0.0000 N   0  0  0  0  0  0           0  0  0
   -0.2583   -1.7750    0.0000 N   0  0  0  0  0  0           0  0  0
    6.1625   -2.1792    0.0000 C   0  0  0  0  0  0           0  0  0
    5.4500   -1.7667    0.0000 C   0  0  0  0  0  0           0  0  0
    8.3042   -0.9417    0.0000 C   0  0  0  0  0  0           0  0  0
    6.8792   -0.9417    0.0000 C   0  0  0  0  0  0           0  0  0
   -0.9708   -2.1875    0.0000 C   0  0  0  0  0  0           0  0  0
    4.7292   -2.1792    0.0000 C   0  0  0  0  0  0           0  0  0
    1.1667   -1.7750    0.0000 C   0  0  0  0  0  0           0  0  0
    1.8875   -2.1792    0.0000 C   0  0  0  0  0  0           0  0  0
    7.5917   -0.5292    0.0000 C   0  0  0  0  0  0           0  0  0
    0.4542   -2.1875    0.0000 C   0  0  0  0  0  0           0  0  0
    6.1625   -3.0042    0.0000 O   0  0  0  0  0  0           0  0  0
   -0.9708   -3.0125    0.0000 C   0  0  0  0  0  0           0  0  0
    7.5917   -3.0042    0.0000 O   0  0  0  0  0  0           0  0  0
   -0.2500   -3.4250    0.0000 C   0  0  0  0  0  0           0  0  0
    4.0167   -1.7667    0.0000 C   0  0  0  0  0  0           0  0  0
    2.6000   -1.7667    0.0000 C   0  0  0  0  0  0           0  0  0
    3.3125   -2.1792    0.0000 C   0  0  0  0  0  0           0  0  0
    7.5875    0.2958    0.0000 Cl  0  0  0  0  0  0           0  0  0
    0.4625   -3.0042    0.0000 C   0  0  0  0  0  0           0  0  0
    3.3125   -0.5292    0.0000 C   0  0  0  0  0  0           0  0  0
   -1.6833   -1.7792    0.0000 C   0  0  0  0  0  0           0  0  0
    4.0250   -0.9417    0.0000 C   0  0  0  0  0  0           0  0  0
    2.6000   -0.9417    0.0000 C   0  0  0  0  0  0           0  0  0
   -1.6750   -3.4250    0.0000 C   0  0  0  0  0  0           0  0  0
   -2.3958   -2.1917    0.0000 C   0  0  0  0  0  0           0  0  0
   -2.3875   -3.0167    0.0000 C   0  0  0  0  0  0           0  0  0
  2  1  1  0     0  0
  3  6  2  0     0  0
  4  1  2  0     0  0
  5  4  1  0     0  0
  6  2  1  0     0  0
  7  8  1  0     0  0
  8  2  2  0     0  0
  9 19  2  0     0  0
 10  5  1  0     0  0
 11 10  1  0     0  0
 12  1  1  0     0  0
 13 18  1  0     0  0
 14  9  1  0     0  0
 15 11  2  0     0  0
 16 17  2  0     0  0
 17 25  1  0     0  0
 18 12  2  0     0  0
 19 16  1  0     0  0
 20 10  2  0     0  0
 21 23  1  0     0  0
 22  4  1  0     0  0
 23 28  2  0     0  0
 24 15  1  0     0  0
 25 26  1  0     0  0
 26 24  2  0     0  0
 27 18  1  0     0  0
 28 19  1  0     0  0
 29 31  2  0     0  0
 30 14  2  0     0  0
 31 24  1  0     0  0
 32 29  1  0     0  0
 33 21  2  0     0  0
 34 30  1  0     0  0
 35 33  1  0     0  0
  5 13  2  0     0  0
  7  3  1  0     0  0
 32 25  2  0     0  0
 14 21  1  0     0  0
 35 34  2  0     0  0
M  END