
          05270816392D 1   1.00000     0.00000     0

 36 41  0     1  0            999 V2000
    8.4687  -28.2617    0.0000 C   0  0  0  0  0  0           0  0  0
    8.4674  -29.0847    0.0000 C   0  0  0  0  0  0           0  0  0
    9.8921  -28.2577    0.0000 C   0  0  0  0  0  0           0  0  0
    9.1830  -27.8489    0.0000 C   0  0  0  0  0  0           0  0  0
    9.8951  -29.0843    0.0000 C   0  0  0  0  0  0           0  0  0
    9.1838  -29.4988    0.0000 C   0  0  0  0  0  0           0  0  0
    9.1824  -30.3209    0.0000 C   0  0  0  0  0  0           0  0  0
    9.8955  -30.7348    0.0000 C   0  0  0  0  0  0           0  0  0
    7.8515  -29.6368    0.0000 N   0  0  0  0  0  0           0  0  0
    8.3980  -30.5755    0.0000 C   0  0  0  0  0  0           0  0  0
   10.6099  -29.4964    0.0000 C   0  0  2  0  0  0           0  0  0
   10.6107  -30.3243    0.0000 C   0  0  2  0  0  0           0  0  0
   11.3242  -30.7352    0.0000 N   0  0  3  0  0  0           0  0  0
   12.0413  -30.3228    0.0000 C   0  0  0  0  0  0           0  0  0
   12.0404  -29.4949    0.0000 C   0  0  1  0  0  0           0  0  0
   11.3224  -29.0794    0.0000 C   0  0  0  0  0  0           0  0  0
   10.6016  -31.1447    0.0000 H   0  0  0  0  0  0           0  0  0
   10.6016  -28.6697    0.0000 H   0  0  0  0  0  0           0  0  0
   12.7549  -29.0824    0.0000 C   0  0  0  0  0  0           0  0  0
   12.7549  -28.2574    0.0000 O   0  0  0  0  0  0           0  0  0
   13.4694  -29.4949    0.0000 N   0  0  3  0  0  0           0  0  0
   13.4643  -30.3252    0.0000 C   0  0  0  0  0  0           0  0  0
   14.1747  -30.7376    0.0000 C   0  0  0  0  0  0           0  0  0
   14.8916  -30.3286    0.0000 N   0  0  3  0  0  0           0  0  0
   14.8936  -29.5026    0.0000 C   0  0  0  0  0  0           0  0  0
   14.1786  -29.0857    0.0000 C   0  0  0  0  0  0           0  0  0
   15.6045  -30.7438    0.0000 C   0  0  0  0  0  0           0  0  0
   15.5965  -31.5677    0.0000 C   0  0  0  0  0  0           0  0  0
   16.3086  -31.9829    0.0000 C   0  0  0  0  0  0           0  0  0
   17.0257  -31.5729    0.0000 C   0  0  0  0  0  0           0  0  0
   17.0261  -30.7437    0.0000 C   0  0  0  0  0  0           0  0  0
   16.3134  -30.3323    0.0000 C   0  0  0  0  0  0           0  0  0
   11.3239  -31.5602    0.0000 C   0  0  0  0  0  0           0  0  0
   17.7419  -31.9898    0.0000 N   0  3  0  0  0  0           0  0  0
   18.4574  -31.5790    0.0000 O   0  0  0  0  0  0           0  0  0
   17.7399  -32.8148    0.0000 O   0  5  0  0  0  0           0  0  0
  6  7  1  0     0  0
 12 17  1  1     0  0
  7  8  1  0     0  0
 11 18  1  6     0  0
  8 12  1  0     0  0
 15 19  1  1     0  0
  3  4  2  0     0  0
 19 20  2  0     0  0
  2  9  1  0     0  0
 19 21  1  0     0  0
 21 22  1  0     0  0
  4  1  1  0     0  0
  7 10  2  0     0  0
  9 10  1  0     0  0
 11 12  1  0     0  0
  5  6  2  0     0  0
 21 26  1  0     0  0
 22 23  1  0     0  0
 23 24  1  0     0  0
 24 25  1  0     0  0
 25 26  1  0     0  0
  2  6  1  0     0  0
 24 27  1  0     0  0
 27 28  2  0     0  0
  5  3  1  0     0  0
 28 29  1  0     0  0
  1  2  2  0     0  0
 29 30  2  0     0  0
  5 11  1  0     0  0
 30 31  1  0     0  0
 11 16  1  0     0  0
 31 32  2  0     0  0
 32 27  1  0     0  0
 12 13  1  0     0  0
 13 33  1  0     0  0
 13 14  1  0     0  0
 14 15  1  0     0  0
 15 16  1  0     0  0
 34 35  2  0     0  0
 34 36  1  0     0  0
 30 34  1  0     0  0
M  CHG  2  34   1  36  -1
M  END