
  Mrv0541 04051115152D          

 38 41  0  0  0  0            999 V2000
    1.4738   -6.0883    0.0000 C   0  0  0  0  0  0  0  0  0  0  0  0
    0.7594   -6.5008    0.0000 C   0  0  0  0  0  0  0  0  0  0  0  0
    0.0449   -6.0883    0.0000 C   0  0  0  0  0  0  0  0  0  0  0  0
    0.0449   -5.2633    0.0000 C   0  0  0  0  0  0  0  0  0  0  0  0
    0.7594   -4.8508    0.0000 C   0  0  0  0  0  0  0  0  0  0  0  0
    1.4738   -5.2633    0.0000 C   0  0  0  0  0  0  0  0  0  0  0  0
    0.7594   -7.3258    0.0000 F   0  0  0  0  0  0  0  0  0  0  0  0
    0.7594   -4.0258    0.0000 C   0  0  0  0  0  0  0  0  0  0  0  0
    0.0449   -3.6133    0.0000 C   0  0  0  0  0  0  0  0  0  0  0  0
    0.0449   -2.7883    0.0000 C   0  0  0  0  0  0  0  0  0  0  0  0
    0.7594   -2.3758    0.0000 C   0  0  0  0  0  0  0  0  0  0  0  0
    1.4738   -2.7883    0.0000 C   0  0  0  0  0  0  0  0  0  0  0  0
    1.4738   -3.6133    0.0000 C   0  0  0  0  0  0  0  0  0  0  0  0
    0.7594   -1.5508    0.0000 C   0  0  0  0  0  0  0  0  0  0  0  0
    1.4738   -1.1383    0.0000 O   0  0  0  0  0  0  0  0  0  0  0  0
    0.0449   -1.1383    0.0000 N   0  0  0  0  0  0  0  0  0  0  0  0
    0.0449   -0.3133    0.0000 S   0  0  0  0  0  0  0  0  0  0  0  0
    0.0449    0.5117    0.0000 C   0  0  0  0  0  0  0  0  0  0  0  0
   -0.6696    0.9242    0.0000 C   0  0  0  0  0  0  0  0  0  0  0  0
   -0.6696    1.7492    0.0000 C   0  0  0  0  0  0  0  0  0  0  0  0
    0.0449    2.1617    0.0000 C   0  0  0  0  0  0  0  0  0  0  0  0
    0.7594    1.7492    0.0000 C   0  0  0  0  0  0  0  0  0  0  0  0
    0.7594    0.9242    0.0000 C   0  0  0  0  0  0  0  0  0  0  0  0
    0.8699   -0.3133    0.0000 O   0  0  0  0  0  0  0  0  0  0  0  0
   -0.7801   -0.3133    0.0000 O   0  0  0  0  0  0  0  0  0  0  0  0
   -1.3840    2.1617    0.0000 N   0  3  0  0  0  0  0  0  0  0  0  0
   -1.3840    2.9867    0.0000 O   0  5  0  0  0  0  0  0  0  0  0  0
   -2.0985    1.7492    0.0000 O   0  0  0  0  0  0  0  0  0  0  0  0
    0.0449    2.9867    0.0000 N   0  0  0  0  0  0  0  0  0  0  0  0
   -0.6696    3.3992    0.0000 C   0  0  0  0  0  0  0  0  0  0  0  0
   -0.6696    4.2242    0.0000 C   0  0  0  0  0  0  0  0  0  0  0  0
   -1.3840    4.6367    0.0000 S   0  0  0  0  0  0  0  0  0  0  0  0
   -1.3840    5.4617    0.0000 C   0  0  0  0  0  0  0  0  0  0  0  0
   -2.0985    5.8742    0.0000 C   0  0  0  0  0  0  0  0  0  0  0  0
   -2.0985    6.6992    0.0000 C   0  0  0  0  0  0  0  0  0  0  0  0
   -1.3840    7.1117    0.0000 C   0  0  0  0  0  0  0  0  0  0  0  0
   -0.6696    6.6992    0.0000 C   0  0  0  0  0  0  0  0  0  0  0  0
   -0.6696    5.8742    0.0000 C   0  0  0  0  0  0  0  0  0  0  0  0
  1  2  2  0  0  0  0
  1  6  1  0  0  0  0
  2  3  1  0  0  0  0
  2  7  1  0  0  0  0
  3  4  2  0  0  0  0
  4  5  1  0  0  0  0
  5  6  2  0  0  0  0
  5  8  1  0  0  0  0
  8  9  2  0  0  0  0
 13  8  1  0  0  0  0
 10  9  1  0  0  0  0
 10 11  2  0  0  0  0
 11 12  1  0  0  0  0
 11 14  1  0  0  0  0
 12 13  2  0  0  0  0
 14 15  2  0  0  0  0
 14 16  1  0  0  0  0
 16 17  1  0  0  0  0
 18 17  1  0  0  0  0
 24 17  2  0  0  0  0
 25 17  2  0  0  0  0
 18 19  2  0  0  0  0
 18 23  1  0  0  0  0
 19 20  1  0  0  0  0
 20 21  2  0  0  0  0
 20 26  1  0  0  0  0
 21 22  1  0  0  0  0
 21 29  1  0  0  0  0
 22 23  2  0  0  0  0
 26 27  1  0  0  0  0
 26 28  2  0  0  0  0
 30 29  1  0  0  0  0
 30 31  1  0  0  0  0
 31 32  1  0  0  0  0
 33 32  1  0  0  0  0
 33 34  2  0  0  0  0
 33 38  1  0  0  0  0
 34 35  1  0  0  0  0
 35 36  2  0  0  0  0
 36 37  1  0  0  0  0
 37 38  2  0  0  0  0
M  CHG  2  26   1  27  -1
M  END