
  Mrv0541 05211314572D          

 32 35  0  0  0  0            999 V2000
    1.6245   -5.4614    0.0000 C   0  0  0  0  0  0  0  0  0  0  0  0
    1.6245   -4.6364    0.0000 C   0  0  0  0  0  0  0  0  0  0  0  0
    0.9101   -4.2239    0.0000 C   0  0  0  0  0  0  0  0  0  0  0  0
    0.9101   -5.8739    0.0000 C   0  0  0  0  0  0  0  0  0  0  0  0
   -0.5890   -5.7164    0.0000 N   0  0  0  0  0  0  0  0  0  0  0  0
    0.1956   -5.4614    0.0000 C   0  0  0  0  0  0  0  0  0  0  0  0
    0.1956   -4.6364    0.0000 C   0  0  0  0  0  0  0  0  0  0  0  0
   -0.5890   -4.3815    0.0000 N   0  0  0  0  0  0  0  0  0  0  0  0
   -1.0740   -5.0489    0.0000 C   0  0  0  0  0  0  0  0  0  0  0  0
   -1.8990   -5.0489    0.0000 N   0  0  0  0  0  0  0  0  0  0  0  0
   -2.3115   -5.7634    0.0000 C   0  0  0  0  0  0  0  0  0  0  0  0
   -3.1365   -5.7634    0.0000 C   0  0  0  0  0  0  0  0  0  0  0  0
   -3.5490   -6.4779    0.0000 C   0  0  0  0  0  0  0  0  0  0  0  0
   -3.1365   -7.1924    0.0000 C   0  0  0  0  0  0  0  0  0  0  0  0
   -2.3115   -7.1924    0.0000 C   0  0  0  0  0  0  0  0  0  0  0  0
   -1.8990   -6.4779    0.0000 C   0  0  0  0  0  0  0  0  0  0  0  0
   -0.8440   -3.5969    0.0000 C   0  0  0  0  0  0  0  0  0  0  0  0
   -0.2919   -2.9838    0.0000 C   0  0  0  0  0  0  0  0  0  0  0  0
   -0.5469   -2.1992    0.0000 C   0  0  0  0  0  0  0  0  0  0  0  0
    0.0052   -1.5861    0.0000 C   0  0  0  0  0  0  0  0  0  0  0  0
    0.8121   -1.7576    0.0000 C   0  0  0  0  0  0  0  0  0  0  0  0
    1.0671   -2.5422    0.0000 C   0  0  0  0  0  0  0  0  0  0  0  0
    0.5150   -3.1553    0.0000 C   0  0  0  0  0  0  0  0  0  0  0  0
   -1.3538   -2.0276    0.0000 C   0  0  0  0  0  0  0  0  0  0  0  0
   -2.1608   -1.8561    0.0000 F   0  0  0  0  0  0  0  0  0  0  0  0
   -1.1823   -1.2207    0.0000 F   0  0  0  0  0  0  0  0  0  0  0  0
   -1.5254   -2.8346    0.0000 F   0  0  0  0  0  0  0  0  0  0  0  0
    2.3390   -5.8739    0.0000 C   0  0  0  0  0  0  0  0  0  0  0  0
    3.0535   -5.4614    0.0000 O   0  0  0  0  0  0  0  0  0  0  0  0
    2.3390   -6.6989    0.0000 N   0  0  0  0  0  0  0  0  0  0  0  0
   -3.5490   -7.9068    0.0000 S   0  0  0  0  0  0  0  0  0  0  0  0
   -3.1365   -8.6213    0.0000 C   0  0  0  0  0  0  0  0  0  0  0  0
  6  4  2  0  0  0  0
 15 16  2  0  0  0  0
 16 11  1  0  0  0  0
  5  6  1  0  0  0  0
  8 17  1  0  0  0  0
  7  8  1  0  0  0  0
 17 18  1  0  0  0  0
  8  9  1  0  0  0  0
 18 19  2  0  0  0  0
  9  5  2  0  0  0  0
 19 20  1  0  0  0  0
  4  1  1  0  0  0  0
 20 21  2  0  0  0  0
  9 10  1  0  0  0  0
 21 22  1  0  0  0  0
  6  7  1  0  0  0  0
 22 23  2  0  0  0  0
 23 18  1  0  0  0  0
 10 11  1  0  0  0  0
 19 24  1  0  0  0  0
 24 25  1  0  0  0  0
 11 12  2  0  0  0  0
 24 26  1  0  0  0  0
  2  3  1  0  0  0  0
 24 27  1  0  0  0  0
 12 13  1  0  0  0  0
  1 28  1  0  0  0  0
  3  7  2  0  0  0  0
 28 29  2  0  0  0  0
 13 14  2  0  0  0  0
 28 30  1  0  0  0  0
  1  2  2  0  0  0  0
 14 31  1  0  0  0  0
 14 15  1  0  0  0  0
 31 32  1  0  0  0  0
M  END