
          11280715492D 1   1.00000     0.00000     0

 19 21  0     0  0            999 V2000
   11.4599  -18.7939    0.0000 N   0  0  0  0  0  0           0  0  0
   11.9266  -18.1134    0.0000 C   0  0  0  0  0  0           0  0  0
   11.4209  -17.4583    0.0000 C   0  0  0  0  0  0           0  0  0
   12.7513  -18.0903    0.0000 C   0  0  0  0  0  0           0  0  0
   13.1837  -18.7928    0.0000 O   0  0  0  0  0  0           0  0  0
   13.1435  -17.3645    0.0000 N   0  0  3  0  0  0           0  0  0
   13.9671  -17.3453    0.0000 C   0  0  0  0  0  0           0  0  0
   14.3594  -16.6236    0.0000 C   0  0  0  0  0  0           0  0  0
   13.9304  -15.9185    0.0000 N   0  0  3  0  0  0           0  0  0
   13.1047  -15.9397    0.0000 C   0  0  0  0  0  0           0  0  0
   12.7080  -16.6661    0.0000 C   0  0  0  0  0  0           0  0  0
   14.3254  -15.1942    0.0000 C   0  0  0  0  0  0           0  0  0
   10.6638  -18.5593    0.0000 C   0  0  0  0  0  0           0  0  0
   10.6421  -17.7360    0.0000 C   0  0  0  0  0  0           0  0  0
    9.8524  -17.5022    0.0000 S   0  0  0  0  0  0           0  0  0
    9.3859  -18.1810    0.0000 C   0  0  0  0  0  0           0  0  0
    9.8875  -18.8343    0.0000 C   0  0  0  0  0  0           0  0  0
    9.6533  -19.6254    0.0000 C   0  0  0  0  0  0           0  0  0
    8.5612  -18.2028    0.0000 Cl  0  0  0  0  0  0           0  0  0
  6 11  1  0     0  0
  7  8  1  0     0  0
  8  9  1  0     0  0
  9 10  1  0     0  0
 10 11  1  0     0  0
  4  5  2  0     0  0
  9 12  1  0     0  0
 13 14  2  0     0  0
  1  2  1  0     0  0
  4  6  1  0     0  0
  6  7  1  0     0  0
  2  3  2  0     0  0
  3 14  1  0     0  0
 14 15  1  0     0  0
 15 16  1  0     0  0
 16 17  2  0     0  0
 17 13  1  0     0  0
 13  1  1  0     0  0
 17 18  1  0     0  0
  2  4  1  0     0  0
 16 19  1  0     0  0
M  END