
          11280714592D 1   1.00000     0.00000     0

 31 34  0     0  0            999 V2000
    0.5792    2.1625    0.0000 C   0  0  0  0  0  0           0  0  0
    0.0042    1.9750    0.0000 N   0  0  3  0  0  0           0  0  0
    0.5792    2.7708    0.0000 C   0  0  0  0  0  0           0  0  0
    0.0042    2.9583    0.0000 N   0  0  0  0  0  0           0  0  0
   -0.3458    2.4625    0.0000 C   0  0  0  0  0  0           0  0  0
   -1.8333   -0.5250    0.0000 C   0  0  0  0  0  0           0  0  0
   -2.5708    0.1083    0.0000 N   0  0  0  0  0  0           0  0  0
   -1.9708    0.0583    0.0000 N   0  0  0  0  0  0           0  0  0
   -2.8000   -0.4417    0.0000 N   0  0  0  0  0  0           0  0  0
   -2.3458   -0.8375    0.0000 N   0  0  0  0  0  0           0  0  0
    1.0667    1.8083    0.0000 C   0  0  0  0  0  0           0  0  0
   -1.3625   -0.9042    0.0000 C   0  0  0  0  0  0           0  0  0
   -0.8083   -0.6917    0.0000 C   0  0  0  0  0  0           0  0  0
   -0.5125    1.6833    0.0000 C   0  0  0  0  0  0           0  0  0
   -0.7083   -0.0917    0.0000 C   0  0  0  0  0  0           0  0  0
    1.1000    3.0708    0.0000 Cl  0  0  0  0  0  0           0  0  0
    1.6167    2.0500    0.0000 O   0  0  0  0  0  0           0  0  0
   -0.1458    0.1208    0.0000 C   0  0  0  0  0  0           0  0  0
   -1.1750    0.2833    0.0000 C   0  0  0  0  0  0           0  0  0
   -0.5208    1.0833    0.0000 C   0  0  0  0  0  0           0  0  0
    1.0042    1.2125    0.0000 O   0  0  0  0  0  0           0  0  0
   -0.9458    2.4625    0.0000 C   0  0  0  0  0  0           0  0  0
   -0.0583    0.7083    0.0000 C   0  0  0  0  0  0           0  0  0
   -1.0833    0.8708    0.0000 C   0  0  0  0  0  0           0  0  0
   -1.4583   -1.5000    0.0000 C   0  0  0  0  0  0           0  0  0
   -0.3375   -1.0667    0.0000 C   0  0  0  0  0  0           0  0  0
   -1.2458    2.9833    0.0000 C   0  0  0  0  0  0           0  0  0
   -1.8458    2.9833    0.0000 C   0  0  0  0  0  0           0  0  0
   -0.9958   -1.8792    0.0000 C   0  0  0  0  0  0           0  0  0
   -0.4333   -1.6625    0.0000 C   0  0  0  0  0  0           0  0  0
   -2.1458    3.5000    0.0000 C   0  0  0  0  0  0           0  0  0
  2  1  1  0     0  0
  3  1  2  0     0  0
  4  3  1  0     0  0
  5  2  1  0     0  0
  6 12  1  0     0  0
  7  8  2  0     0  0
  8  6  1  0     0  0
  9 10  1  0     0  0
 10  6  2  0     0  0
 11  1  1  0     0  0
 12 13  2  0     0  0
 13 15  1  0     0  0
 14  2  1  0     0  0
 15 19  2  0     0  0
 16  3  1  0     0  0
 17 11  2  0     0  0
 18 23  2  0     0  0
 19 24  1  0     0  0
 20 14  1  0     0  0
 21 11  1  0     0  0
 22  5  1  0     0  0
 23 20  1  0     0  0
 24 20  2  0     0  0
 25 12  1  0     0  0
 26 13  1  0     0  0
 27 22  1  0     0  0
 28 27  1  0     0  0
 29 30  1  0     0  0
 30 26  2  0     0  0
 31 28  1  0     0  0
  5  4  2  0     0  0
 18 15  1  0     0  0
 29 25  2  0     0  0
  9  7  1  0     0  0
M  END