
  SciTegic09261414462D

 29 32  0  0  0  0            999 V2000
    4.3732   -5.7872    0.0000 C   0  0
    2.9342   -4.9628    0.0000 N   0  0
    3.6625   -6.2121    0.0000 C   0  0
    4.3621   -4.9705    0.0000 C   0  0
    2.9390   -5.7903    0.0000 C   0  0
    3.6494   -4.5551    0.0000 C   0  0
    5.0860   -6.2026    0.0000 N   0  0
    3.6621   -7.0318    0.0000 C   0  0
    5.0794   -4.5591    0.0000 C   0  0
    2.2304   -6.2116    0.0000 C   0  0
    3.6540   -3.7281    0.0000 C   0  0
    2.9448   -7.4432    0.0000 C   0  0
    5.0819   -3.7358    0.0000 C   0  0
    2.2258   -7.0384    0.0000 C   0  0
    4.3692   -3.3204    0.0000 C   0  0
    7.9461   -6.2080    0.0000 C   0  0
    7.2329   -5.7934    0.0000 C   0  0
    6.5172   -6.2036    0.0000 C   0  0
    5.8040   -5.7890    0.0000 C   0  0
    8.6610   -4.9666    0.0000 C   0  0
    8.6598   -5.7940    0.0000 C   0  0
    9.3746   -6.2068    0.0000 N   0  0
   10.0911   -5.7935    0.0000 C   0  0
   10.0882   -4.9629    0.0000 C   0  0
    9.3728   -4.5539    0.0000 C   0  0
   10.8011   -4.5478    0.0000 O   0  0
   10.8062   -6.2049    0.0000 C   0  0
   11.5200   -5.7912    0.0000 N   0  0
   12.2351   -6.2025    0.0000 O   0  0
  2  6  1  0
  3  1  2  0
  4  1  1  0
  5  3  1  0
  6  4  1  0
  7  1  1  0
  8  3  1  0
  9  4  2  0
 10  5  1  0
 11  6  2  0
 12  8  1  0
 13  9  1  0
 14 12  1  0
 15 13  2  0
  2  5  2  0
 11 15  1  0
 10 14  1  0
 16 17  1  0
 17 18  1  0
 18 19  1  0
 20 21  2  0
 21 22  1  0
 22 23  2  0
 23 24  1  0
 24 25  2  0
 25 20  1  0
 24 26  1  0
 23 27  1  0
 27 28  2  0
 28 29  1  0
 21 16  1  0
 19  7  1  0
M  END