
  SciTegic10311316212D

 26 29  0  0  0  0            999 V2000
   -2.0828  -19.0224    0.0000 C   0  0
   -2.0817  -19.8419    0.0000 C   0  0
   -1.3782  -20.2509    0.0000 C   0  0
   -1.3764  -18.6135    0.0000 C   0  0
   -0.6653  -19.0188    0.0000 C   0  0
   -0.6656  -19.8374    0.0000 C   0  0
    0.1152  -20.0901    0.0000 S   0  0
    0.5963  -19.4277    0.0000 C   0  0
    0.1148  -18.7656    0.0000 C   0  0
   -2.7897  -20.2491    0.0000 N   0  0
   -3.5292  -19.9161    0.0000 C   0  0
   -4.0798  -20.5230    0.0000 N   0  0
   -3.6707  -21.2311    0.0000 N   0  0
   -2.8687  -21.0617    0.0000 C   0  0
   -2.2692  -21.6057    0.0000 C   0  0
   -2.4356  -22.4057    0.0000 C   0  0
   -1.8366  -22.9527    0.0000 C   0  0
   -1.0548  -22.7009    0.0000 C   0  0
   -0.8852  -21.8970    0.0000 C   0  0
   -1.4912  -21.3535    0.0000 C   0  0
   -3.6984  -19.1167    0.0000 S   0  0
    1.4114  -19.4252    0.0000 C   0  0
    1.8202  -20.1328    0.0000 O   0  0
    1.8197  -18.7174    0.0000 O   0  0
   -0.1098  -21.6423    0.0000 Cl  0  0
   -0.4490  -23.2473    0.0000 Cl  0  0
  1  2  2  0
  2  3  1  0
  3  6  2  0
  5  4  2  0
  4  1  1  0
  5  6  1  0
  6  7  1  0
  7  8  1  0
  8  9  2  0
  9  5  1  0
 10 11  1  0
 11 12  2  0
 12 13  1  0
 13 14  2  0
 14 10  1  0
  2 10  1  0
 15 16  2  0
 16 17  1  0
 17 18  2  0
 18 19  1  0
 19 20  2  0
 20 15  1  0
 14 15  1  0
 11 21  1  0
 22 23  1  0
 22 24  2  0
  8 22  1  0
 19 25  1  0
 18 26  1  0
M  END