
          11280715042D 1   1.00000     0.00000     0

 47 50  0     1  0            999 V2000
   -3.1000    1.1833    0.0000 C   0  0  0  0  0  0           0  0  0
   -3.1000    0.3583    0.0000 N   0  0  3  0  0  0           0  0  0
    4.0375   -1.3250    0.0000 C   0  0  0  0  0  0           0  0  0
    1.8917   -0.9042    0.0000 C   0  0  0  0  0  0           0  0  0
    4.7542   -0.9167    0.0000 C   0  0  0  0  0  0           0  0  0
   -3.0958    2.8375    0.0000 C   0  0  0  0  0  0           0  0  0
    3.3250   -0.9125    0.0000 N   0  0  3  0  0  0           0  0  0
   -3.8125    1.6000    0.0000 C   0  0  3  0  0  0           0  0  0
    1.1750   -2.1375    0.0000 C   0  0  0  0  0  0           0  0  0
    2.6042   -1.3167    0.0000 C   0  0  0  0  0  0           0  0  0
    1.1792   -1.3125    0.0000 C   0  0  2  0  0  0           0  0  0
   -3.8125    2.4250    0.0000 C   0  0  0  0  0  0           0  0  0
   -2.3833   -0.0542    0.0000 C   0  0  3  0  0  0           0  0  0
   -0.9625   -0.8875    0.0000 N   0  0  3  0  0  0           0  0  0
    1.8792   -2.5417    0.0000 C   0  0  0  0  0  0           0  0  0
    1.8792   -3.3667    0.0000 C   0  0  0  0  0  0           0  0  0
    1.9000   -0.0792    0.0000 N   0  0  0  0  0  0           0  0  0
    0.4667   -0.8917    0.0000 C   0  0  0  0  0  0           0  0  0
   -2.3833    2.4250    0.0000 N   0  0  3  0  0  0           0  0  0
    4.7542   -0.0917    0.0000 C   0  0  0  0  0  0           0  0  0
    5.4625   -1.3375    0.0000 C   0  0  0  0  0  0           0  0  0
   -2.3833    1.5958    0.0000 O   0  0  0  0  0  0           0  0  0
   -1.6708    0.3583    0.0000 C   0  0  0  0  0  0           0  0  0
   -2.3875   -0.8792    0.0000 C   0  0  0  0  0  0           0  0  0
    1.1667   -3.7792    0.0000 C   0  0  0  0  0  0           0  0  0
    4.0292   -2.1500    0.0000 O   0  0  0  0  0  0           0  0  0
    5.4667    0.3125    0.0000 C   0  0  0  0  0  0           0  0  0
    6.1792   -0.9292    0.0000 C   0  0  0  0  0  0           0  0  0
   -3.0958    3.6708    0.0000 O   0  0  0  0  0  0           0  0  0
    6.1792   -0.1042    0.0000 C   0  0  0  0  0  0           0  0  0
    0.4542   -2.5417    0.0000 C   0  0  0  0  0  0           0  0  0
   -0.2500   -1.3042    0.0000 C   0  0  0  0  0  0           0  0  0
    0.4500   -3.3667    0.0000 C   0  0  0  0  0  0           0  0  0
   -0.9583   -0.0625    0.0000 C   0  0  0  0  0  0           0  0  0
   -1.6833   -1.2917    0.0000 C   0  0  0  0  0  0           0  0  0
   -3.8125   -0.0500    0.0000 C   0  0  0  0  0  0           0  0  0
    2.5917   -3.7792    0.0000 Cl  0  0  0  0  0  0           0  0  0
    1.1625   -4.6042    0.0000 Cl  0  0  0  0  0  0           0  0  0
    5.4667    1.1375    0.0000 Cl  0  0  0  0  0  0           0  0  0
    6.8917   -1.3417    0.0000 Cl  0  0  0  0  0  0           0  0  0
    2.6167    0.3333    0.0000 O   0  0  0  0  0  0           0  0  0
    3.3292   -0.0875    0.0000 C   0  0  0  0  0  0           0  0  0
   -4.5208    1.1833    0.0000 C   0  0  0  0  0  0           0  0  0
   -4.5208    0.3583    0.0000 C   0  0  0  0  0  0           0  0  0
   -1.8000    3.0208    0.0000 C   0  0  0  0  0  0           0  0  0
   -1.6708    2.0208    0.0000 C   0  0  0  0  0  0           0  0  0
    3.3292    0.7333    0.0000 C   0  0  0  0  0  0           0  0  0
  2  1  1  0     0  0
  3  7  1  0     0  0
  4 11  1  0     0  0
  5  3  1  0     0  0
  6 12  1  0     0  0
  7 10  1  0     0  0
  8  1  1  0     0  0
 11  9  1  6     0  0
 10  4  1  0     0  0
 11 18  1  0     0  0
  8 12  1  0     0  0
 13  2  1  0     0  0
 14 35  1  0     0  0
 15  9  1  0     0  0
 16 15  2  0     0  0
 17  4  2  0     0  0
 18 32  1  0     0  0
 19  6  1  0     0  0
 20  5  1  0     0  0
 21  5  2  0     0  0
 22  1  2  0     0  0
 23 13  1  0     0  0
 24 13  1  0     0  0
 25 33  2  0     0  0
 26  3  2  0     0  0
 27 20  2  0     0  0
 28 21  1  0     0  0
 29  6  2  0     0  0
 30 28  2  0     0  0
 31  9  2  0     0  0
 32 14  1  0     0  0
 33 31  1  0     0  0
 34 23  1  0     0  0
 35 24  1  0     0  0
 36  2  1  0     0  0
 37 16  1  0     0  0
 38 25  1  0     0  0
 39 27  1  0     0  0
 40 28  1  0     0  0
 41 17  1  0     0  0
 42  7  1  0     0  0
 43  8  1  0     0  0
 44 43  1  0     0  0
 45 19  1  0     0  0
 46 19  1  0     0  0
 47 41  1  0     0  0
 36 44  1  0     0  0
 34 14  1  0     0  0
 16 25  1  0     0  0
 30 27  1  0     0  0
M  END