
          11280715202D 1   1.00000     0.00000     0

 26 28  0     0  0            999 V2000
    0.9875   -5.6750    0.0000 C   0  0  0  0  0  0           0  0  0
    1.7042   -6.0875    0.0000 C   0  0  0  0  0  0           0  0  0
    5.2750   -8.1500    0.0000 N   0  0  3  0  0  0           0  0  0
    0.9792   -4.8500    0.0000 C   0  0  0  0  0  0           0  0  0
    3.8500   -7.3250    0.0000 N   0  0  3  0  0  0           0  0  0
    1.7042   -6.9167    0.0000 C   0  0  0  0  0  0           0  0  0
    0.2750   -6.0875    0.0000 C   0  0  0  0  0  0           0  0  0
    5.9875   -8.5625    0.0000 C   0  0  0  0  0  0           0  0  0
    3.1292   -6.9125    0.0000 C   0  0  0  0  0  0           0  0  0
    2.4167   -7.3292    0.0000 C   0  0  3  0  0  0           0  0  0
    5.2750   -7.3250    0.0000 C   0  0  0  0  0  0           0  0  0
    4.5542   -8.5542    0.0000 C   0  0  0  0  0  0           0  0  0
    1.7000   -4.4375    0.0000 O   0  0  0  0  0  0           0  0  0
    0.9875   -7.3292    0.0000 C   0  0  0  0  0  0           0  0  0
    0.2750   -6.9167    0.0000 C   0  0  0  0  0  0           0  0  0
    5.9792   -9.3875    0.0000 C   0  0  0  0  0  0           0  0  0
    6.6917   -8.1500    0.0000 C   0  0  0  0  0  0           0  0  0
    4.5542   -6.9042    0.0000 C   0  0  0  0  0  0           0  0  0
    3.8417   -8.1500    0.0000 C   0  0  0  0  0  0           0  0  0
    0.2667   -4.4417    0.0000 N   0  0  0  0  0  0           0  0  0
    7.4042   -9.3875    0.0000 C   0  0  0  0  0  0           0  0  0
    7.4042   -8.5542    0.0000 C   0  0  0  0  0  0           0  0  0
    6.6917   -9.8000    0.0000 C   0  0  0  0  0  0           0  0  0
   -0.4375   -5.6792    0.0000 O   0  0  0  0  0  0           0  0  0
    2.4167   -8.1542    0.0000 O   0  0  0  0  0  0           0  0  0
    8.1250   -9.8042    0.0000 Cl  0  0  0  0  0  0           0  0  0
  2  1  2  0     0  0
  3 12  1  0     0  0
  4  1  1  0     0  0
  5  9  1  0     0  0
  6  2  1  0     0  0
  7  1  1  0     0  0
  8  3  1  0     0  0
  9 10  1  0     0  0
 10  6  1  0     0  0
 11 18  1  0     0  0
 12 19  1  0     0  0
 13  4  2  0     0  0
 14 15  1  0     0  0
 15  7  2  0     0  0
 16  8  2  0     0  0
 17  8  1  0     0  0
 18  5  1  0     0  0
 19  5  1  0     0  0
 20  4  1  0     0  0
 21 22  1  0     0  0
 22 17  2  0     0  0
 23 16  1  0     0  0
 24  7  1  0     0  0
 25 10  1  0     0  0
 26 21  1  0     0  0
  6 14  2  0     0  0
  3 11  1  0     0  0
 21 23  2  0     0  0
M  END