
  Mrv0541 04051115152D          

 28 31  0  0  0  0            999 V2000
    0.0706    2.3413    0.0000 C   0  0  0  0  0  0  0  0  0  0  0  0
    1.1325    1.3852    0.0000 N   0  0  0  0  0  0  0  0  0  0  0  0
   -0.1843    3.1259    0.0000 O   0  0  0  0  0  0  0  0  0  0  0  0
    0.8776    2.1698    0.0000 C   0  0  0  0  0  0  0  0  0  0  0  0
    4.7750    0.3052    0.0000 C   0  0  0  0  0  0  0  0  0  0  0  0
   -1.8274    0.7177    0.0000 O   0  0  0  0  0  0  0  0  0  0  0  0
   -3.5339   -2.8419    0.0000 C   0  0  0  0  0  0  0  0  0  0  0  0
   -2.8194   -3.2544    0.0000 C   0  0  0  0  0  0  0  0  0  0  0  0
    3.3461    1.1302    0.0000 C   0  0  0  0  0  0  0  0  0  0  0  0
   -3.5339   -2.0169    0.0000 C   0  0  0  0  0  0  0  0  0  0  0  0
   -2.1049   -2.8419    0.0000 C   0  0  0  0  0  0  0  0  0  0  0  0
    2.6316    1.5427    0.0000 C   0  0  0  0  0  0  0  0  0  0  0  0
    2.6316   -0.1073    0.0000 C   0  0  0  0  0  0  0  0  0  0  0  0
    1.1325    0.0503    0.0000 C   0  0  0  0  0  0  0  0  0  0  0  0
   -2.6479   -0.7974    0.0000 C   0  0  0  0  0  0  0  0  0  0  0  0
   -0.1774    0.7177    0.0000 C   0  0  0  0  0  0  0  0  0  0  0  0
   -0.5899    0.0033    0.0000 N   0  0  0  0  0  0  0  0  0  0  0  0
    4.0606   -0.1073    0.0000 O   0  0  0  0  0  0  0  0  0  0  0  0
   -1.4918   -1.4649    0.0000 O   0  0  0  0  0  0  0  0  0  0  0  0
   -1.4149    0.0033    0.0000 C   0  0  0  0  0  0  0  0  0  0  0  0
    3.3461    0.3052    0.0000 C   0  0  0  0  0  0  0  0  0  0  0  0
    0.6476    0.7177    0.0000 C   0  0  0  0  0  0  0  0  0  0  0  0
   -1.8274   -0.7112    0.0000 C   0  0  0  0  0  0  0  0  0  0  0  0
   -2.8194   -1.6044    0.0000 C   0  0  0  0  0  0  0  0  0  0  0  0
    1.9171    0.3052    0.0000 C   0  0  0  0  0  0  0  0  0  0  0  0
   -2.1049   -2.0169    0.0000 C   0  0  0  0  0  0  0  0  0  0  0  0
    1.9171    1.1302    0.0000 C   0  0  0  0  0  0  0  0  0  0  0  0
   -0.4814    1.7282    0.0000 O   0  0  0  0  0  0  0  0  0  0  0  0
  1  4  1  0  0  0  0
  1  3  2  0  0  0  0
  1 28  1  0  0  0  0
 27  2  1  0  0  0  0
  4  2  1  0  0  0  0
 22  2  1  0  0  0  0
  5 18  1  0  0  0  0
 20  6  2  0  0  0  0
  7 10  2  0  0  0  0
  7  8  1  0  0  0  0
  8 11  2  0  0  0  0
  9 21  2  0  0  0  0
  9 12  1  0  0  0  0
 10 24  1  0  0  0  0
 11 26  1  0  0  0  0
 12 27  2  0  0  0  0
 13 21  1  0  0  0  0
 13 25  2  0  0  0  0
 14 25  1  0  0  0  0
 14 22  2  0  0  0  0
 15 23  2  0  0  0  0
 15 24  1  0  0  0  0
 16 22  1  0  0  0  0
 16 17  1  0  0  0  0
 20 17  1  0  0  0  0
 21 18  1  0  0  0  0
 23 19  1  0  0  0  0
 26 19  1  0  0  0  0
 20 23  1  0  0  0  0
 24 26  2  0  0  0  0
 25 27  1  0  0  0  0
M  END