
          11280715032D 1   1.00000     0.00000     0

 33 35  0     0  0            999 V2000
   -0.3875   -1.0417    0.0000 S   0  0  3  0  0  0           0  0  0
    2.7250   -1.0167    0.0000 C   0  0  0  0  0  0           0  0  0
    3.2417   -0.7125    0.0000 C   0  0  0  0  0  0           0  0  0
   -0.9083   -0.7417    0.0000 C   0  0  0  0  0  0           0  0  0
   -0.8833   -1.6667    0.0000 O   0  0  0  0  0  0           0  0  0
   -0.0375   -1.6375    0.0000 O   0  0  0  0  0  0           0  0  0
    0.1250   -0.7375    0.0000 N   0  0  0  0  0  0           0  0  0
    2.7292   -1.6167    0.0000 C   0  0  0  0  0  0           0  0  0
    2.2042   -0.7250    0.0000 C   0  0  0  0  0  0           0  0  0
    3.7625   -1.0042    0.0000 C   0  0  0  0  0  0           0  0  0
    2.7417   -3.4167    0.0000 C   0  0  0  0  0  0           0  0  0
    3.2375   -0.1125    0.0000 O   0  0  0  0  0  0           0  0  0
    2.2125   -1.9250    0.0000 C   0  0  0  0  0  0           0  0  0
    2.2250   -3.7250    0.0000 O   0  0  0  0  0  0           0  0  0
    1.6875   -1.0292    0.0000 C   0  0  0  0  0  0           0  0  0
   -1.4250   -1.0417    0.0000 C   0  0  0  0  0  0           0  0  0
   -0.9083   -0.1417    0.0000 C   0  0  0  0  0  0           0  0  0
    4.2750   -0.6917    0.0000 C   0  0  0  0  0  0           0  0  0
    3.7667   -1.6042    0.0000 C   0  0  0  0  0  0           0  0  0
    1.6917   -1.6292    0.0000 C   0  0  0  0  0  0           0  0  0
    2.7375   -2.8167    0.0000 C   0  0  0  0  0  0           0  0  0
   -1.9458   -0.1417    0.0000 C   0  0  0  0  0  0           0  0  0
    4.8042   -1.5917    0.0000 C   0  0  0  0  0  0           0  0  0
    2.2167   -2.5250    0.0000 C   0  0  0  0  0  0           0  0  0
    3.2667   -3.7167    0.0000 O   0  0  0  0  0  0           0  0  0
   -1.9458   -0.7417    0.0000 C   0  0  0  0  0  0           0  0  0
    4.8000   -0.9875    0.0000 C   0  0  0  0  0  0           0  0  0
   -1.4250    0.1583    0.0000 C   0  0  0  0  0  0           0  0  0
    4.2917   -1.8917    0.0000 C   0  0  0  0  0  0           0  0  0
    5.3250   -1.8875    0.0000 F   0  0  0  0  0  0           0  0  0
   -2.4625    0.1625    0.0000 Cl  0  0  0  0  0  0           0  0  0
    0.6500   -1.0375    0.0000 C   0  0  0  0  0  0           0  0  0
    1.1667   -0.7292    0.0000 C   0  0  0  0  0  0           0  0  0
  2  9  2  0     0  0
  3  2  1  0     0  0
  4  1  1  0     0  0
  5  1  2  0     0  0
  6  1  2  0     0  0
  7  1  1  0     0  0
  8 13  2  0     0  0
  9 15  1  0     0  0
 10  3  1  0     0  0
 11 21  1  0     0  0
 12  3  2  0     0  0
 13 20  1  0     0  0
 14 11  2  0     0  0
 15 33  1  0     0  0
 16  4  2  0     0  0
 17  4  1  0     0  0
 18 10  1  0     0  0
 19 10  2  0     0  0
 20 15  2  0     0  0
 21 24  1  0     0  0
 22 28  1  0     0  0
 23 29  2  0     0  0
 24 13  1  0     0  0
 25 11  1  0     0  0
 26 16  1  0     0  0
 27 18  2  0     0  0
 28 17  2  0     0  0
 29 19  1  0     0  0
 30 23  1  0     0  0
 31 22  1  0     0  0
 32  7  1  0     0  0
 33 32  1  0     0  0
 22 26  2  0     0  0
  2  8  1  0     0  0
 23 27  1  0     0  0
M  END