
  Mrv0541 05211314572D          

 18 20  0  0  0  0            999 V2000
   10.4465    1.2480    0.0000 C   0  0  0  0  0  0  0  0  0  0  0  0
   10.4465    0.4230    0.0000 C   0  0  0  0  0  0  0  0  0  0  0  0
    9.7320    0.0105    0.0000 C   0  0  0  0  0  0  0  0  0  0  0  0
    9.7320    1.6605    0.0000 C   0  0  0  0  0  0  0  0  0  0  0  0
    9.0176    1.2480    0.0000 C   0  0  0  0  0  0  0  0  0  0  0  0
    9.0176    0.4230    0.0000 C   0  0  0  0  0  0  0  0  0  0  0  0
    8.2330    0.1680    0.0000 S   0  0  0  0  0  0  0  0  0  0  0  0
    7.7480    0.8355    0.0000 C   0  0  0  0  0  0  0  0  0  0  0  0
    8.2330    1.5029    0.0000 N   0  0  0  0  0  0  0  0  0  0  0  0
    6.9230    0.8355    0.0000 N   0  0  0  0  0  0  0  0  0  0  0  0
    6.5105    0.1210    0.0000 C   0  0  0  0  0  0  0  0  0  0  0  0
    5.6855    0.1210    0.0000 C   0  0  0  0  0  0  0  0  0  0  0  0
    5.2730    0.8355    0.0000 N   0  0  0  0  0  0  0  0  0  0  0  0
    5.6855    1.5499    0.0000 C   0  0  0  0  0  0  0  0  0  0  0  0
    6.5105    1.5499    0.0000 C   0  0  0  0  0  0  0  0  0  0  0  0
    4.4480    0.8355    0.0000 C   0  0  0  0  0  0  0  0  0  0  0  0
    4.0355    1.5499    0.0000 C   0  0  0  0  0  0  0  0  0  0  0  0
    3.2105    1.5499    0.0000 C   0  0  0  0  0  0  0  0  0  0  0  0
  8  9  2  0  0  0  0
  9  5  1  0  0  0  0
  4  1  1  0  0  0  0
  8 10  1  0  0  0  0
 10 11  1  0  0  0  0
  5  6  1  0  0  0  0
  2  3  1  0  0  0  0
  3  6  2  0  0  0  0
  1  2  2  0  0  0  0
 10 15  1  0  0  0  0
 11 12  1  0  0  0  0
 12 13  1  0  0  0  0
 13 14  1  0  0  0  0
 14 15  1  0  0  0  0
  5  4  2  0  0  0  0
 13 16  1  0  0  0  0
  6  7  1  0  0  0  0
 16 17  1  0  0  0  0
  7  8  1  0  0  0  0
 17 18  2  0  0  0  0
M  END