
  SciTegic11201309402D

114120  0  0  1  0            999 V2000
    0.8612   -1.7710    0.0000 N   0  0
    1.6761   -1.6427    0.0000 C   0  0
    0.4081   -0.3724    0.0000 C   0  0
    9.6775   -4.7225    0.0000 C   0  0
    0.2783   -1.1872    0.0000 C   0  0  1  0  0  0
   11.5297   -5.8774    0.0000 C   0  0
    3.5283   -2.7976    0.0000 C   0  0
   13.6782   -6.2623    0.0000 C   0  0
   15.5304   -7.4172    0.0000 C   0  0
    5.6768   -3.1826    0.0000 C   0  0
    7.5290   -4.3375    0.0000 C   0  0
   11.0111   -5.2358    0.0000 N   0  0
   10.1961   -5.3641    0.0000 C   0  0  1  0  0  0
   15.0118   -6.7756    0.0000 N   0  0
   12.8633   -6.3907    0.0000 N   0  0
    4.8619   -3.3109    0.0000 N   0  0
    3.0097   -2.1560    0.0000 N   0  0
   -0.2326    0.1473    0.0000 N   0  0
    8.8626   -4.8508    0.0000 N   0  0
    7.0104   -3.6959    0.0000 N   0  0
   14.1968   -6.9040    0.0000 C   0  0  1  0  0  0
   12.3447   -5.7490    0.0000 C   0  0  2  0  0  0
    4.3433   -2.6693    0.0000 C   0  0  1  0  0  0
    6.8622   -8.0589    0.0000 C   0  0
    7.6772    0.0255    0.0000 C   0  0
    2.1947   -2.2843    0.0000 C   0  0  1  0  0  0
   16.3454   -7.2889    0.0000 C   0  0  2  0  0  0
    6.8622   -0.1028    0.0000 C   0  0
    7.6772   -7.9305    0.0000 C   0  0
   -0.7434    1.4818    0.0000 C   0  0
   16.6417   -6.5190    0.0000 N   0  0
    6.1954   -3.8242    0.0000 C   0  0  1  0  0  0
    8.3440   -4.2092    0.0000 C   0  0  1  0  0  0
   16.1231   -5.8774    0.0000 C   0  0
   -0.1028    0.9621    0.0000 C   0  0  2  0  0  0
    1.9725   -0.8728    0.0000 O   0  0
    1.1786   -0.0775    0.0000 O   0  0
   16.8640   -7.9305    0.0000 C   0  0
    9.9739   -3.9525    0.0000 O   0  0
   13.9746   -5.4924    0.0000 O   0  0
   11.2334   -6.6473    0.0000 O   0  0
    3.2319   -3.5676    0.0000 O   0  0
   15.2341   -8.1872    0.0000 O   0  0
    5.9732   -2.4127    0.0000 O   0  0
    7.2327   -5.1074    0.0000 O   0  0
   19.0125   -8.3155    0.0000 C   0  0
   13.9005   -7.6739    0.0000 C   0  0
   17.6789   -7.8022    0.0000 C   0  0
   12.6410   -4.9791    0.0000 C   0  0
   18.1976   -8.4438    0.0000 C   0  0
    7.9735    0.7954    0.0000 O   0  0
    6.5659   -8.8288    0.0000 O   0  0
   -0.6137    2.2966    0.0000 O   0  0
    8.7885   -7.0323    0.0000 N   0  0
    5.7509   -1.0011    0.0000 N   0  0
    4.6396   -1.8994    0.0000 C   0  0
   11.9001   -2.9259    0.0000 N   0  0
   16.4195   -5.1074    0.0000 O   0  0
   19.3089   -7.5456    0.0000 C   0  0
    8.1958   -0.6161    0.0000 N   0  0
    6.3436   -7.4172    0.0000 N   0  0
   18.7903   -6.9040    0.0000 C   0  0
   -1.5139    1.1869    0.0000 N   0  0
    0.4860   -2.5058    0.0000 C   0  0
   13.0855   -7.8022    0.0000 C   0  0
   17.9753   -7.0323    0.0000 C   0  0
    6.5659   -0.8728    0.0000 C   0  0
    7.9735   -7.1606    0.0000 C   0  0
   11.4556   -8.0589    0.0000 C   0  0
   12.1224   -4.3375    0.0000 C   0  0
    2.3429   -5.8774    0.0000 N   0  0
   10.6407   -8.1872    0.0000 Cl  0  0
    9.8998   -6.1340    0.0000 C   0  0
   12.5669   -7.1606    0.0000 C   0  0
   12.7892   -8.5721    0.0000 C   0  0
   11.7520   -7.2889    0.0000 C   0  0
   11.9742   -8.7005    0.0000 C   0  0
   -0.4571   -1.5610    0.0000 C   0  0
    6.3436    0.5388    0.0000 C   0  0
    8.1958   -8.5721    0.0000 C   0  0
    9.0848   -6.2623    0.0000 O   0  0
   12.4188   -3.5676    0.0000 C   0  0
   -0.3288   -2.3760    0.0000 C   0  0
    1.8984   -3.0543    0.0000 C   0  0
    4.1210   -1.2577    0.0000 C   0  0
   15.3082   -6.0057    0.0000 C   0  0
    9.3071   -7.6739    0.0000 C   0  0
   11.0852   -3.0543    0.0000 C   0  0
    5.2323   -0.3595    0.0000 C   0  0
    5.8991   -4.5941    0.0000 C   0  0
    8.6403   -3.4392    0.0000 C   0  0
    2.8615   -6.5190    0.0000 C   0  0
    0.6677    1.2570    0.0000 C   0  0
   19.5311   -8.9571    0.0000 C   0  0
    7.8994   -1.3861    0.0000 C   0  0
    6.6400   -6.6473    0.0000 C   0  0
    2.6392   -5.1074    0.0000 C   0  0
   20.1238   -7.4172    0.0000 C   0  0
   11.3074   -4.4658    0.0000 C   0  0
    2.4170   -3.6959    0.0000 C   0  0
    6.4177   -5.2358    0.0000 C   0  0
    8.1217   -2.7976    0.0000 C   0  0
    8.4180   -2.0277    0.0000 C   0  0
    2.1206   -4.4658    0.0000 C   0  0
    6.1213   -6.0057    0.0000 C   0  0
    9.0107   -8.4438    0.0000 C   0  0
    5.5286    0.4104    0.0000 C   0  0
    3.3060   -1.3861    0.0000 C   0  0
    4.4173   -0.4878    0.0000 C   0  0
    3.6765   -6.3907    0.0000 C   0  0
    2.5652   -7.2889    0.0000 C   0  0
   10.7888   -3.8242    0.0000 C   0  0
   20.3461   -8.8288    0.0000 C   0  0
   20.6424   -8.0589    0.0000 C   0  0
  2  1  1  0
  5  3  1  6
  4 19  1  0
  5  1  1  0
  6 12  1  0
  7 17  1  0
  8 15  1  0
  9 14  1  0
 10 16  1  0
 11 20  1  0
 13 12  1  1
 13  4  1  0
 21 14  1  1
 22 15  1  1
 23 16  1  6
 26 17  1  1
 18  3  1  0
 33 19  1  6
 32 20  1  1
 21  8  1  0
 22  6  1  0
 23  7  1  0
 24 61  1  0
 25 60  1  0
 26  2  1  0
 27  9  1  0
 28 25  1  0
 29 24  1  0
 30 35  1  0
 27 31  1  6
 32 10  1  0
 33 11  1  0
 34 31  1  0
 35 18  1  0
 36  2  2  0
 37  3  2  0
 27 38  1  0
 39  4  2  0
 40  8  2  0
 41  6  2  0
 42  7  2  0
 43  9  2  0
 44 10  2  0
 45 11  2  0
 46 50  1  0
 21 47  1  0
 48 38  1  0
 22 49  1  0
 50 48  2  0
 51 25  2  0
 52 24  2  0
 53 30  2  0
 54 68  2  0
 55 67  1  0
 23 56  1  0
 57 82  2  0
 58 34  2  0
 59 62  1  0
 60 95  1  0
 61 96  1  0
 62 66  2  0
 63 30  1  0
 64  1  1  0
 65 47  1  0
 66 48  1  0
 67 28  2  0
 68 29  1  0
 69 77  1  0
 70 49  1  0
 71 97  1  0
 72 69  1  0
 13 73  1  0
 74 65  2  0
 75 65  1  0
 76 74  1  0
 77 75  2  0
  5 78  1  0
 79 28  1  0
 80 29  2  0
 81 73  1  0
 82 70  1  0
 83 64  1  0
 26 84  1  0
 85 56  1  0
 86 34  1  0
 87106  2  0
 88112  2  0
 89107  1  0
 32 90  1  0
 33 91  1  0
 92 71  1  0
 35 93  1  6
 94 46  1  0
 95103  1  0
 96105  1  0
 97104  1  0
 98 59  1  0
 99 70  2  0
100 84  1  0
101 90  1  0
102 91  1  0
103102  1  0
104100  1  0
105101  1  0
106 80  1  0
107 79  2  0
108 85  1  0
109 85  1  0
110 92  1  0
111 92  1  0
112 99  1  0
113 94  2  0
114 98  2  0
 78 83  1  0
 87 54  1  0
 89 55  2  0
 88 57  1  0
 76 69  2  0
 59 46  2  0
113114  1  0
M  END