
  CDK    9/16/09,9:56

 78 80  0  0  0  0  0  0  0  0999 V2000
    3.2885   -0.9874    0.0000 C   0  0  0  0  0  0  0  0  0  0  0  0
    3.9298   -0.3038    0.0000 C   0  0  0  0  0  0  0  0  0  0  0  0
    4.0930   -0.7624    0.0000 C   0  0  0  0  0  0  0  0  0  0  0  0
    4.6411   -0.5664    0.0000 C   0  0  0  0  0  0  0  0  0  0  0  0
    4.8457   -1.0651    0.0000 C   0  0  0  0  0  0  0  0  0  0  0  0
    5.3890   -0.3809    0.0000 C   0  0  0  0  0  0  0  0  0  0  0  0
    4.0903    0.0860    0.0000 C   0  0  0  0  0  0  0  0  0  0  0  0
    4.6469    0.7480    0.0000 C   0  0  0  0  0  0  0  0  0  0  0  0
    3.9253    0.4917    0.0000 C   0  0  0  0  0  0  0  0  0  0  0  0
    5.3948    0.4380    0.0000 C   0  0  0  0  0  0  0  0  0  0  0  0
    4.6635    1.5625    0.0000 N   0  0  0  0  0  0  0  0  0  0  0  0
    6.1000   -0.7916    0.0000 C   0  0  0  0  0  0  0  0  0  0  0  0
    6.8145   -0.3793    0.0000 C   0  0  0  0  0  0  0  0  0  0  0  0
    7.5289   -0.7920    0.0000 C   0  0  0  0  0  0  0  0  0  0  0  0
    8.2435   -0.3797    0.0000 N   0  0  0  0  0  0  0  0  0  0  0  0
    3.2125    0.1125    0.0000 C   0  0  0  0  0  0  0  0  0  0  0  0
    2.4971   -0.2983    0.0000 C   0  0  0  0  0  0  0  0  0  0  0  0
    1.7835    0.1158    0.0000 C   0  0  0  0  0  0  0  0  0  0  0  0
    4.0875   -1.5833    0.0000 C   0  0  0  0  0  0  0  0  0  0  0  0
    4.7992   -2.0006    0.0000 C   0  0  0  0  0  0  0  0  0  0  0  0
    4.7936   -2.8256    0.0000 C   0  0  0  0  0  0  0  0  0  0  0  0
    5.5053   -3.2428    0.0000 O   0  0  0  0  0  0  0  0  0  0  0  0
    4.0764   -3.2333    0.0000 N   0  0  0  0  0  0  0  0  0  0  0  0
    7.5287   -1.6170    0.0000 O   0  0  0  0  0  0  0  0  0  0  0  0
    4.0709   -4.0583    0.0000 C   0  0  0  0  0  0  0  0  0  0  0  0
    3.3537   -4.4660    0.0000 C   0  0  0  0  0  0  0  0  0  0  0  0
    4.7826   -4.4756    0.0000 C   0  0  0  0  0  0  0  0  0  0  0  0
    5.4998   -4.0679    0.0000 C   0  0  0  0  0  0  0  0  0  0  0  0
    6.2115   -4.4852    0.0000 P   0  0  0  0  0  0  0  0  0  0  0  0
    6.9208   -4.8958    0.0000 C   0  0  0  0  0  0  0  0  0  0  0  0
    5.7962   -5.1980    0.0000 O   0  0  0  0  0  0  0  0  0  0  0  0
    6.6315   -3.7751    0.0000 O   0  0  0  0  0  0  0  0  0  0  0  0
    7.6358   -4.4842    0.0000 C   0  0  0  0  0  0  0  0  0  0  0  0
    8.3498   -4.8976    0.0000 C   0  0  0  0  0  0  0  0  0  0  0  0
    7.6368   -3.6592    0.0000 C   0  0  0  0  0  0  0  0  0  0  0  0
    8.3488   -5.7226    0.0000 C   0  0  0  0  0  0  0  0  0  0  0  0
    9.0627   -6.1360    0.0000 C   0  0  0  0  0  0  0  0  0  0  0  0
    9.0651   -6.9614    0.0000 O   0  0  0  0  0  0  0  0  0  0  0  0
    9.7811   -5.7247    0.0000 O   0  0  0  0  0  0  0  0  0  0  0  0
    8.3504   -3.2460    0.0000 O   0  0  0  0  0  0  0  0  0  0  0  0
    6.9214   -3.2442    0.0000 O   0  0  0  0  0  0  0  0  0  0  0  0
    2.6392   -4.0509    0.0000 O   0  0  0  0  0  0  0  0  0  0  0  0
    3.3454   -5.2932    0.0000 O   0  0  0  0  0  0  0  0  0  0  0  0
    8.9579   -0.7924    0.0000 C   0  0  0  0  0  0  0  0  0  0  0  0
    9.6725   -0.3801    0.0000 C   0  0  0  0  0  0  0  0  0  0  0  0
    8.9576   -1.6174    0.0000 C   0  0  0  0  0  0  0  0  0  0  0  0
   10.3868   -0.7928    0.0000 C   0  0  0  0  0  0  0  0  0  0  0  0
   11.1014   -0.3806    0.0000 P   0  0  0  0  0  0  0  0  0  0  0  0
   11.8125    0.0375    0.0000 C   0  0  0  0  0  0  0  0  0  0  0  0
   11.5166   -1.0935    0.0000 O   0  0  0  0  0  0  0  0  0  0  0  0
   10.6863    0.3324    0.0000 O   0  0  0  0  0  0  0  0  0  0  0  0
   12.5302   -0.3694    0.0000 C   0  0  0  0  0  0  0  0  0  0  0  0
   13.2414    0.0488    0.0000 C   0  0  0  0  0  0  0  0  0  0  0  0
   12.5367   -1.1943    0.0000 C   0  0  0  0  0  0  0  0  0  0  0  0
   13.2349    0.8737    0.0000 C   0  0  0  0  0  0  0  0  0  0  0  0
   13.9461    1.2919    0.0000 C   0  0  0  0  0  0  0  0  0  0  0  0
   14.6669    0.8878    0.0000 O   0  0  0  0  0  0  0  0  0  0  0  0
   13.9427    2.1196    0.0000 O   0  0  0  0  0  0  0  0  0  0  0  0
   11.8262   -1.6152    0.0000 O   0  0  0  0  0  0  0  0  0  0  0  0
   13.2551   -1.6039    0.0000 O   0  0  0  0  0  0  0  0  0  0  0  0
    8.2445   -2.0313    0.0000 O   0  0  0  0  0  0  0  0  0  0  0  0
    9.6734   -2.0317    0.0000 O   0  0  0  0  0  0  0  0  0  0  0  0
    3.9576    1.9894    0.0000 C   0  0  0  0  0  0  0  0  0  0  0  0
    3.9744    2.8143    0.0000 C   0  0  0  0  0  0  0  0  0  0  0  0
    3.2349    1.5916    0.0000 O   0  0  0  0  0  0  0  0  0  0  0  0
    4.6972    3.2121    0.0000 C   0  0  0  0  0  0  0  0  0  0  0  0
    4.7140    4.0380    0.0000 C   0  0  0  0  0  0  0  0  0  0  0  0
    5.4367    4.4402    0.0000 C   0  0  0  0  0  0  0  0  0  0  0  0
    6.1426    4.0088    0.0000 C   0  0  0  0  0  0  0  0  0  0  0  0
    6.8653    4.4110    0.0000 N   0  0  0  0  0  0  0  0  0  0  0  0
    7.5713    3.9787    0.0000 C   0  0  0  0  0  0  0  0  0  0  0  0
    8.2940    4.3818    0.0000 O   0  0  0  0  0  0  0  0  0  0  0  0
    7.5544    3.1539    0.0000 O   0  0  0  0  0  0  0  0  0  0  0  0
    8.9999    3.9496    0.0000 C   0  0  0  0  0  0  0  0  0  0  0  0
    9.7083    3.5375    0.0000 C   0  0  0  0  0  0  0  0  0  0  0  0
    8.5790    3.2401    0.0000 C   0  0  0  0  0  0  0  0  0  0  0  0
    9.4256    4.6604    0.0000 C   0  0  0  0  0  0  0  0  0  0  0  0
    1.8199    0.9986    0.0000 O   0  0  0  0  0  0  0  0  0  0  0  0
 18 78  2  0  0  0  0 
 36 37  1  0  0  0  0 
  1  2  1  0  0  0  0 
  3 19  1  0  0  0  0 
 37 38  1  0  0  0  0 
 37 39  2  0  0  0  0 
 19 20  1  0  0  0  0 
  1  3  1  0  0  0  0 
 35 40  1  0  0  0  0 
 35 41  2  0  0  0  0 
 20 21  1  0  0  0  0 
 21 22  2  0  0  0  0 
 26 42  1  0  0  0  0 
 26 43  2  0  0  0  0 
  2  4  1  0  0  0  0 
 44 15  1  1  0  0  0 
 21 23  1  0  0  0  0 
 44 45  1  0  0  0  0 
 14 24  2  0  0  0  0 
 44 46  1  0  0  0  0 
  3  5  1  0  0  0  0 
 45 47  1  0  0  0  0 
  4  6  1  0  0  0  0 
 47 48  1  0  0  0  0 
  5  6  1  0  0  0  0 
 48 49  1  0  0  0  0 
  7  8  1  0  0  0  0 
 48 50  1  0  0  0  0 
  6 12  1  0  0  0  0 
 48 51  2  0  0  0  0 
  3  7  1  0  0  0  0 
 49 52  1  0  0  0  0 
 12 13  1  0  0  0  0 
 52 53  1  0  0  0  0 
 52 54  1  0  0  0  0 
 25 23  1  1  0  0  0 
 53 55  1  0  0  0  0 
  2  9  1  0  0  0  0 
 55 56  1  0  0  0  0 
 25 26  1  0  0  0  0 
 13 14  1  0  0  0  0 
 56 57  1  0  0  0  0 
 56 58  2  0  0  0  0 
 25 27  1  0  0  0  0 
  6 10  1  0  0  0  0 
 54 59  1  0  0  0  0 
 54 60  2  0  0  0  0 
 27 28  1  0  0  0  0 
 14 15  1  0  0  0  0 
 46 61  1  0  0  0  0 
 46 62  2  0  0  0  0 
 28 29  1  0  0  0  0 
 11 63  1  0  0  0  0 
 10  8  1  0  0  0  0 
 63 64  1  0  0  0  0 
 29 30  1  0  0  0  0 
 63 65  2  0  0  0  0 
  2 16  1  0  0  0  0 
 64 66  1  0  0  0  0 
 29 31  1  0  0  0  0 
 66 67  1  0  0  0  0 
  8  9  1  0  0  0  0 
 67 68  1  0  0  0  0 
 29 32  2  0  0  0  0 
 68 69  1  0  0  0  0 
 16 17  1  0  0  0  0 
 69 70  1  0  0  0  0 
 30 33  1  0  0  0  0 
 70 71  1  0  0  0  0 
  8 11  1  0  0  0  0 
 71 72  1  0  0  0  0 
 33 34  1  0  0  0  0 
 71 73  2  0  0  0  0 
 17 18  1  0  0  0  0 
 72 74  1  0  0  0  0 
 33 35  1  0  0  0  0 
 74 75  1  0  0  0  0 
 74 76  1  0  0  0  0 
 34 36  1  0  0  0  0 
 74 77  1  0  0  0  0 
M  END