
          11280714442D 1   1.00000     0.00000     0

 21 21  0     0  0            999 V2000
    5.5792   -0.5167    0.0000 C   0  0  0  0  0  0           0  0  0
    2.8375   -3.1167    0.0000 C   0  0  0  0  0  0           0  0  0
    4.8792   -0.9625    0.0000 C   0  0  0  0  0  0           0  0  0
    6.3042   -0.9000    0.0000 O   0  0  0  0  0  0           0  0  0
    2.8000   -2.2917    0.0000 N   0  0  0  0  0  0           0  0  0
    5.5417    0.3083    0.0000 O   0  0  0  0  0  0           0  0  0
    3.5667   -3.4917    0.0000 O   0  0  0  0  0  0           0  0  0
    9.1667   -0.7667    0.0000 N   0  0  0  0  0  0           0  0  0
    4.1500   -0.5792    0.0000 C   0  0  0  0  0  0           0  0  0
    4.9250   -1.7792    0.0000 C   0  0  0  0  0  0           0  0  0
    3.4917   -1.8500    0.0000 C   0  0  0  0  0  0           0  0  0
    7.7375   -0.8292    0.0000 C   0  0  3  0  0  0           0  0  0
    7.0042   -0.4542    0.0000 C   0  0  0  0  0  0           0  0  0
    8.4292   -0.3875    0.0000 C   0  0  0  0  0  0           0  0  0
    3.4542   -1.0292    0.0000 C   0  0  0  0  0  0           0  0  0
    4.2292   -2.2292    0.0000 C   0  0  0  0  0  0           0  0  0
    7.7750   -1.6542    0.0000 O   0  0  0  0  0  0           0  0  0
    9.8625   -0.3250    0.0000 C   0  0  3  0  0  0           0  0  0
    2.1417   -3.5625    0.0000 C   0  0  0  0  0  0           0  0  0
   10.5917   -0.7042    0.0000 C   0  0  0  0  0  0           0  0  0
    9.8250    0.5000    0.0000 C   0  0  0  0  0  0           0  0  0
  2  5  1  0     0  0
  3  1  1  0     0  0
  4  1  1  0     0  0
  5 11  1  0     0  0
  6  1  2  0     0  0
  7  2  2  0     0  0
  8 14  1  0     0  0
  9  3  2  0     0  0
 10  3  1  0     0  0
 11 16  1  0     0  0
 12 13  1  0     0  0
 13  4  1  0     0  0
 14 12  1  0     0  0
 15  9  1  0     0  0
 16 10  2  0     0  0
 17 12  1  0     0  0
 18  8  1  0     0  0
 19  2  1  0     0  0
 20 18  1  0     0  0
 21 18  1  0     0  0
 15 11  2  0     0  0
M  END