
  SciTegic01161211262D

106107  0  0  0  0            999 V2000
    8.7372   -8.2574    0.0000 N   0  0
    8.7412   -9.0822    0.0000 C   0  0
    9.4582   -9.4937    0.0000 N   0  0
    8.0281   -9.5000    0.0000 N   0  0
   10.8682   -5.3635    0.0000 N   0  0
   10.1552   -5.7768    0.0000 C   0  0  1  0  0  0
    9.4342   -4.5451    0.0000 O   0  0
    9.4381   -5.3699    0.0000 C   0  0
   10.1593   -6.6015    0.0000 C   0  0
    9.4462   -7.0193    0.0000 C   0  0
    9.4502   -7.8441    0.0000 C   0  0
    8.7251   -5.7831    0.0000 N   0  0
   13.0170   -6.5846    0.0000 N   0  0
   13.7343   -6.9951    0.0000 C   0  0
   14.4471   -6.5760    0.0000 N   0  0
   13.7389   -7.8197    0.0000 N   0  0
   11.5732   -3.2941    0.0000 N   0  0
   11.5778   -4.1189    0.0000 C   0  0  1  0  0  0
   10.1477   -4.1274    0.0000 O   0  0
   10.8650   -4.5378    0.0000 C   0  0
   12.2905   -4.5292    0.0000 C   0  0
   12.2996   -5.3540    0.0000 C   0  0
   13.0125   -5.7599    0.0000 C   0  0
   13.7320   -2.0924    0.0000 N   0  0
   14.4532   -1.6887    0.0000 C   0  0
   14.4660   -0.8638    0.0000 N   0  0
   15.1615   -2.1146    0.0000 N   0  0
   10.1695   -1.6219    0.0000 N   0  0
   10.8777   -2.0478    0.0000 C   0  0  1  0  0  0
   10.1437   -3.2719    0.0000 O   0  0
   10.8649   -2.8728    0.0000 C   0  0
   11.5989   -1.6442    0.0000 C   0  0
   12.3072   -2.0701    0.0000 C   0  0
   13.0238   -1.6665    0.0000 C   0  0
    8.7717    0.8871    0.0000 N   0  0
    8.7782    1.7119    0.0000 C   0  0
    8.0664    2.1279    0.0000 N   0  0
    9.4964    2.1162    0.0000 N   0  0
    8.0251   -2.0152    0.0000 N   0  0
    8.7435   -1.6086    0.0000 C   0  0  1  0  0  0
    9.4469   -2.8551    0.0000 O   0  0
    9.4546   -2.0304    0.0000 C   0  0
    8.7513   -0.7840    0.0000 C   0  0
    9.4703   -0.3809    0.0000 C   0  0
    9.4780    0.4438    0.0000 C   0  0
   -3.4051   -2.0149    0.0000 N   0  0
   -2.6900   -1.6000    0.0000 C   0  0  1  0  0  0
   -1.9748   -2.0149    0.0000 C   0  0
   -2.6900   -0.7749    0.0000 C   0  0
   -3.4051   -0.3646    0.0000 C   0  0
   -3.4051    0.4604    0.0000 C   0  0
   -2.6900    0.8752    0.0000 C   0  0
   -2.6900    1.7003    0.0000 N   0  0
   -1.9748   -2.8399    0.0000 O   0  0
   -1.2597   -1.6000    0.0000 N   0  0
   -0.5446   -2.0149    0.0000 C   0  0
    0.1706   -1.6000    0.0000 C   0  0
    0.8857   -2.0149    0.0000 C   0  0
    1.5963   -1.6000    0.0000 C   0  0
    2.3114   -2.0149    0.0000 C   0  0
    3.0266   -1.6000    0.0000 C   0  0
    3.7418   -2.0149    0.0000 N   0  0
    3.0266   -0.7749    0.0000 O   0  0
    4.4569   -1.6000    0.0000 C   0  0  1  0  0  0
    5.1721   -2.0149    0.0000 C   0  0
    4.4569   -0.7749    0.0000 C   0  0
    5.1721   -0.3646    0.0000 C   0  0
    5.1721    0.4604    0.0000 C   0  0
    4.4569    0.8752    0.0000 N   0  0
    4.4569    1.7003    0.0000 C   0  0
    3.7418    2.1106    0.0000 N   0  0
    5.1721    2.1106    0.0000 N   0  0
    5.1721   -2.8399    0.0000 O   0  0
    5.8871   -1.6000    0.0000 N   0  0
    6.6023   -2.0149    0.0000 C   0  0  1  0  0  0
    7.3130   -1.6000    0.0000 C   0  0
    6.6023   -2.8399    0.0000 C   0  0
    7.3130   -3.2501    0.0000 C   0  0
    7.3130   -4.0752    0.0000 C   0  0
    6.6027   -4.4876    0.0000 N   0  0
    6.6026   -5.3126    0.0000 C   0  0
    7.3131   -5.7229    0.0000 N   0  0
    5.8874   -5.7227    0.0000 N   0  0
    7.3130   -0.7749    0.0000 O   0  0
   -4.1203   -1.6000    0.0000 C   0  0
   -4.8309   -2.0149    0.0000 C   0  0
   -4.1203   -0.7749    0.0000 O   0  0
   -4.8309   -2.8399    0.0000 C   0  0
   -4.1203   -3.2501    0.0000 C   0  0
   -4.1203   -4.0752    0.0000 C   0  0
   -3.4051   -4.4901    0.0000 C   0  0
   -3.4051   -5.3151    0.0000 N   0  0
   -2.6900   -5.7253    0.0000 C   0  0
   -2.6900   -6.5504    0.0000 O   0  0
   -1.9762   -5.3156    0.0000 C   0  0
   -1.3029   -5.7846    0.0000 C   0  0
   -0.6399   -5.2951    0.0000 C   0  0
   -0.9067   -4.5130    0.0000 C   0  0
   -1.7317   -4.5222    0.0000 S   0  0
   -0.2015   -4.0865    0.0000 C   0  0
    0.5215   -4.4895    0.0000 C   0  0
    1.2284   -4.0620    0.0000 C   0  0
    1.2132   -3.2361    0.0000 N   0  0
    0.4853   -2.8397    0.0000 C   0  0
   -0.2185   -3.2650    0.0000 N   0  0
    0.4668   -2.0149    0.0000 N   0  0
 48 54  2  0
  8  7  2  0
 48 55  1  0
  6  9  1  6
 55 56  1  0
  9 10  1  0
 56 57  1  0
 31 17  1  0
 57 58  1  0
 24 25  1  0
 58 59  1  0
 25 26  1  0
 59 60  1  0
 25 27  2  0
 60 61  1  0
 28 29  1  0
 61 62  1  0
 29 31  1  0
 61 63  2  0
 31 30  2  0
 62 64  1  0
 29 32  1  6
 64 65  1  0
 32 33  1  0
 64 66  1  6
 33 34  1  0
 66 67  1  0
 34 24  1  0
 67 68  1  0
 10 11  1  0
 68 69  1  0
 20  5  1  0
 69 70  1  0
 13 14  1  0
 70 71  2  0
 14 15  1  0
 70 72  1  0
 14 16  2  0
 65 73  2  0
 17 18  1  0
 65 74  1  0
 18 20  1  0
 74 75  1  0
 20 19  2  0
 75 76  1  0
 18 21  1  6
 75 77  1  1
 21 22  1  0
 77 78  1  0
 22 23  1  0
 78 79  1  0
 42 28  1  0
 79 80  1  0
 35 36  1  0
 80 81  1  0
 36 37  1  0
 81 82  1  0
 36 38  2  0
 81 83  2  0
 76 39  1  0
 39 40  1  0
 76 84  2  0
 40 42  1  0
 46 85  1  0
 42 41  2  0
 85 86  1  0
 40 43  1  6
 85 87  2  0
 43 44  1  0
 86 88  1  0
 44 45  1  0
 88 89  1  0
 45 35  1  0
 89 90  1  0
 23 13  1  0
 90 91  1  0
 11  1  1  0
 91 92  1  0
 46 47  1  0
 92 93  1  0
 93 94  2  0
 47 48  1  0
 93 95  1  0
 95 96  2  0
  8 12  1  0
 47 49  1  6
  1  2  1  0
 49 50  1  0
 96 97  1  0
 97 98  2  0
 98 99  1  0
 99 95  1  0
  2  3  1  0
 50 51  1  0
100101  1  0
  2  4  2  0
101102  2  0
 51 52  1  0
102103  1  0
  5  6  1  0
103104  2  0
 52 53  1  0
104105  1  0
105100  2  0
 98100  1  0
  6  8  1  0
104106  1  0
M  END