
  SciTegic10041218062D

 23 26  0  0  0  0            999 V2000
    8.3701   -5.8902    0.0000 C   0  0  1  0  0  0
    9.0881   -6.3002    0.0000 C   0  0  2  0  0  0
    7.6695   -6.3005    0.0000 C   0  0
    9.7887   -5.8899    0.0000 C   0  0  1  0  0  0
    7.6696   -7.1323    0.0000 C   0  0
    9.7885   -5.0808    0.0000 C   0  0  1  0  0  0
    8.3699   -5.0811    0.0000 C   0  0
    9.0882   -7.1319    0.0000 C   0  0
    6.9515   -5.8905    0.0000 C   0  0
    9.0877   -4.6594    0.0000 C   0  0
    8.3705   -7.5423    0.0000 C   0  0
    6.9519   -7.5426    0.0000 C   0  0
    6.2511   -7.1326    0.0000 C   0  0
    6.2509   -6.3008    0.0000 C   0  0
    9.7884   -4.2433    0.0000 C   0  0
   10.5747   -4.8243    0.0000 C   0  0
   10.5750   -6.1574    0.0000 C   0  0
    5.5162   -7.5487    0.0000 O   0  0
   10.5175   -3.8216    0.0000 O   0  0
   11.0534   -5.4794    0.0000 C   0  0
    8.3667   -6.7167    0.0000 H   0  0
    9.0792   -5.4792    0.0000 H   0  0
    9.7917   -6.7208    0.0000 H   0  0
  2  1  1  0
  3  1  1  0
  4  2  1  0
  5  3  2  0
  6 10  1  0
  7  1  1  0
  8  2  1  0
  9  3  1  0
 10  7  1  0
 11  5  1  0
 12  5  1  0
 13 14  1  0
 14  9  2  0
  6 15  1  1
 16  6  1  0
 17  4  1  0
 18 13  1  0
 19 15  1  0
 20 17  1  0
  6  4  1  0
 11  8  1  0
 13 12  2  0
 16 20  1  0
  1 21  1  6
  2 22  1  1
  4 23  1  6
M  END