
  CDK    9/16/09,9:48

 28 31  0  0  0  0  0  0  0  0999 V2000
    0.0376   -5.0964    0.0000 N   0  0  0  0  0  0  0  0  0  0  0  0
   -0.7520   -5.3543    0.0000 C   0  0  0  0  0  0  0  0  0  0  0  0
   -0.7481   -6.1831    0.0000 C   0  0  0  0  0  0  0  0  0  0  0  0
    0.0413   -6.4361    0.0000 C   0  0  0  0  0  0  0  0  0  0  0  0
    0.5262   -5.7640    0.0000 C   0  0  0  0  0  0  0  0  0  0  0  0
   -1.4190   -4.8738    0.0000 C   0  0  0  0  0  0  0  0  0  0  0  0
   -1.3338   -4.0523    0.0000 C   0  0  0  0  0  0  0  0  0  0  0  0
   -2.0017   -3.5698    0.0000 C   0  0  0  0  0  0  0  0  0  0  0  0
   -2.7550   -3.9075    0.0000 N   0  0  0  0  0  0  0  0  0  0  0  0
   -2.8365   -4.7325    0.0000 C   0  0  0  0  0  0  0  0  0  0  0  0
   -2.1677   -5.2114    0.0000 C   0  0  0  0  0  0  0  0  0  0  0  0
   -1.4124   -6.6711    0.0000 C   0  0  0  0  0  0  0  0  0  0  0  0
   -2.1676   -6.3372    0.0000 C   0  0  0  0  0  0  0  0  0  0  0  0
   -2.8324   -6.8241    0.0000 C   0  0  0  0  0  0  0  0  0  0  0  0
   -1.3216   -7.4875    0.0000 C   0  0  0  0  0  0  0  0  0  0  0  0
   -1.9832   -7.9764    0.0000 C   0  0  0  0  0  0  0  0  0  0  0  0
   -2.7477   -7.6447    0.0000 C   0  0  0  0  0  0  0  0  0  0  0  0
   -3.2995   -8.2694    0.0000 C   0  0  0  0  0  0  0  0  0  0  0  0
   -2.8758   -8.9872    0.0000 C   0  0  0  0  0  0  0  0  0  0  0  0
   -2.0624   -8.8060    0.0000 C   0  0  0  0  0  0  0  0  0  0  0  0
   -4.1205   -8.1910    0.0000 N   0  0  0  0  0  0  0  0  0  0  0  0
   -4.5989   -8.8629    0.0000 O   0  0  0  0  0  0  0  0  0  0  0  0
    1.3510   -5.7612    0.0000 O   0  0  0  0  0  0  0  0  0  0  0  0
    1.7609   -5.0455    0.0000 C   0  0  0  0  0  0  0  0  0  0  0  0
    2.5857   -5.0427    0.0000 C   0  0  0  0  0  0  0  0  0  0  0  0
    2.9957   -4.3271    0.0000 N   0  0  0  0  0  0  0  0  0  0  0  0
    3.8204   -4.3243    0.0000 C   0  0  0  0  0  0  0  0  0  0  0  0
    2.5809   -3.6143    0.0000 C   0  0  0  0  0  0  0  0  0  0  0  0
 13 14  1  0  0  0  0 
 14 17  2  0  0  0  0 
  1  2  1  0  0  0  0 
 16 15  2  0  0  0  0 
 15 12  1  0  0  0  0 
  3 12  1  0  0  0  0 
 16 17  1  0  0  0  0 
  7  8  1  0  0  0  0 
  3  4  1  0  0  0  0 
  8  9  2  0  0  0  0 
  4  5  2  0  0  0  0 
  9 10  1  0  0  0  0 
 17 18  1  0  0  0  0 
 18 19  1  0  0  0  0 
 19 20  1  0  0  0  0 
 20 16  1  0  0  0  0 
  5  1  1  0  0  0  0 
 18 21  2  0  0  0  0 
 10 11  2  0  0  0  0 
 21 22  1  0  0  0  0 
 11  6  1  0  0  0  0 
  5 23  1  0  0  0  0 
  2  6  1  0  0  0  0 
 23 24  1  0  0  0  0 
  2  3  2  0  0  0  0 
 24 25  1  0  0  0  0 
 25 26  1  0  0  0  0 
 12 13  2  0  0  0  0 
 26 27  1  0  0  0  0 
  6  7  2  0  0  0  0 
 26 28  1  0  0  0  0 
M  END