
  SciTegic05161214222D

 55 58  0  0  0  0            999 V2000
   10.6902  -19.2666    0.0000 C   0  0
    7.1250  -18.8625    0.0000 C   0  0
    7.1250  -19.6875    0.0000 C   0  0
    7.8370  -20.0958    0.0000 O   0  0
    8.5490  -19.6875    0.0000 C   0  0
    8.5490  -18.8625    0.0000 C   0  0
    7.8370  -18.4458    0.0000 C   0  0
    6.4073  -18.4573    0.0000 S   0  0
    5.9990  -19.1741    0.0000 O   0  0
    6.8240  -19.1693    0.0000 O   0  0
    3.5402  -13.5208    0.0000 C   0  0
    3.5391  -14.3482    0.0000 C   0  0
    4.2539  -14.7610    0.0000 C   0  0
    4.2521  -13.1080    0.0000 C   0  0
    4.9675  -13.5172    0.0000 C   0  0
    4.9682  -14.3440    0.0000 C   0  0
    5.6835  -14.7550    0.0000 N   0  0
    6.3986  -14.3402    0.0000 C   0  0
    6.3938  -13.5102    0.0000 C   0  0
    5.6779  -13.1030    0.0000 C   0  0
    7.1146  -14.7499    0.0000 C   0  0
    5.6735  -12.2780    0.0000 C   0  0
    4.2558  -15.5860    0.0000 O   0  0
    4.9712  -15.9969    0.0000 C   0  0
    4.9731  -16.8219    0.0000 C   0  0
    4.2570  -17.2317    0.0000 C   0  0
    4.2586  -18.0559    0.0000 C   0  0
    4.9746  -18.4676    0.0000 C   0  0
    5.6904  -18.0490    0.0000 C   0  0
    5.6854  -17.2261    0.0000 C   0  0
    3.5430  -16.8185    0.0000 Cl  0  0
    6.3970  -16.8088    0.0000 Cl  0  0
    7.1194  -18.0406    0.0000 N   0  0
    8.5483  -18.0323    0.0000 C   0  0
    9.2640  -18.4426    0.0000 N   0  0
    8.5457  -17.2073    0.0000 O   0  0
    9.2629  -19.2675    0.0000 C   0  0
    9.9746  -19.6778    0.0000 C   0  0
   10.6896  -18.4406    0.0000 C   0  0
    9.9734  -18.0258    0.0000 C   0  0
   11.4044  -19.6796    0.0000 C   0  0
   12.1191  -19.2676    0.0000 C   0  0
   12.8333  -19.6806    0.0000 C   0  0
   13.5481  -19.2686    0.0000 C   0  0
   14.2623  -19.6816    0.0000 N   0  3
   14.9770  -19.2696    0.0000 C   0  0
   14.2617  -20.5066    0.0000 C   0  0
   14.2542  -18.8542    0.0000 C   0  0
   12.2847  -17.0863    0.0000 F   0  0
   12.9991  -16.6738    0.0000 C   0  0
   13.7136  -17.0863    0.0000 F   0  0
   12.9930  -17.4946    0.0000 F   0  0
   13.0022  -15.8488    0.0000 C   0  0
   13.7182  -15.4390    0.0000 O   0  5
   12.2893  -15.4336    0.0000 O   0  0
 13 16  2  0
 24 25  1  0
  6  7  1  0
 25 26  2  0
 15 14  2  0
 26 27  1  0
 14 11  1  0
 27 28  2  0
  9  8  2  0
 28 29  1  0
  8 10  2  0
 29 30  2  0
 30 25  1  0
 15 16  1  0
 26 31  1  0
 30 32  1  0
 29  8  1  0
 16 17  1  0
  8 33  1  0
 33  7  1  0
  2  3  1  0
  7 34  1  0
 17 18  2  0
 34 35  1  0
  2  7  1  0
 34 36  2  0
 35 37  1  0
 18 19  1  0
  3  4  1  0
 19 20  2  0
 20 15  1  0
 35 40  1  0
 37 38  1  0
 38  1  1  0
  1 39  1  0
 39 40  1  0
  4  5  1  0
  1 41  1  0
 18 21  1  0
 41 42  1  0
 11 12  2  0
 42 43  1  0
 20 22  1  0
 43 44  1  0
  5  6  1  0
 44 45  1  0
 13 23  1  0
 45 46  1  0
 12 13  1  0
 45 47  1  0
 23 24  1  0
 45 48  1  0
 49 50  1  0
 50 52  1  0
 50 53  1  0
 50 51  1  0
 53 54  1  0
 53 55  2  0
M  CHG  2  45   1  54  -1
M  END