
  SciTegic01161211252D

 30 34  0  0  0  0            999 V2000
   -4.9753    1.6406    0.0000 N   0  0
   -4.9765    0.8129    0.0000 N   0  0
   -4.2620    0.4023    0.0000 C   0  0
   -4.2640    2.0511    0.0000 C   0  0
   -3.5490    1.6448    0.0000 C   0  0
   -3.5478    0.8171    0.0000 C   0  0
   -2.8318    0.4062    0.0000 C   0  0
   -2.1162    0.8216    0.0000 C   0  0
   -2.1214    1.6524    0.0000 C   0  0
   -2.8381    2.0596    0.0000 C   0  0
   -1.4097    2.0695    0.0000 C   0  0
   -0.6930    1.6588    0.0000 C   0  0
    0.0183    2.0753    0.0000 C   0  0
    0.0134    2.9011    0.0000 C   0  0
   -0.7088    3.3088    0.0000 C   0  0
   -1.4171    2.8899    0.0000 C   0  0
   -2.1356    3.2954    0.0000 C   0  0
    0.7353    1.6671    0.0000 C   0  0
    0.7403    0.8421    0.0000 O   0  0
    1.4472    2.0839    0.0000 N   0  0
    2.1642    1.6758    0.0000 C   0  0
    2.5830    0.9653    0.0000 C   0  0
    2.9912    1.6822    0.0000 C   0  0
   -4.2602   -0.4226    0.0000 C   0  0
   -4.9744   -0.8324    0.0000 C   0  0
   -4.9729   -1.6565    0.0000 C   0  0
   -4.2569   -2.0683    0.0000 C   0  0
   -3.5409   -1.6497    0.0000 C   0  0
   -3.5460   -0.8269    0.0000 C   0  0
   -5.6886   -0.4195    0.0000 F   0  0
  6  7  1  0
 14 15  1  0
  1  2  2  0
 15 16  2  0
 16 11  1  0
  7  8  2  0
 16 17  1  0
  5  4  2  0
 13 18  1  0
  8  9  1  0
 18 19  2  0
  4  1  1  0
 18 20  1  0
  9 10  2  0
 20 21  1  0
 22 21  1  0
 23 22  1  0
 21 23  1  0
 10  5  1  0
  9 11  1  0
  3 24  1  0
  2  3  1  0
 24 25  2  0
 11 12  2  0
 25 26  1  0
  5  6  1  0
 26 27  2  0
 12 13  1  0
 27 28  1  0
  3  6  2  0
 28 29  2  0
 29 24  1  0
 13 14  2  0
 25 30  1  0
M  END