
  SciTegic06281210282D

 32 35  0  0  0  0            999 V2000
   14.1083   -3.2500    0.0000 O   0  0
   14.1125   -4.0750    0.0000 S   0  0
   14.8249   -3.6589    0.0000 O   0  0
   10.8403   -5.2894    0.0000 C   0  0
   10.8403   -6.1144    0.0000 C   0  0
   11.5547   -6.5269    0.0000 C   0  0
   12.2692   -6.1144    0.0000 C   0  0
   12.2692   -5.2894    0.0000 C   0  0
   11.5547   -4.8769    0.0000 C   0  0
   13.0528   -6.3704    0.0000 N   0  0
   13.5387   -5.7019    0.0000 N   0  0
   13.0538   -5.0345    0.0000 C   0  0
   11.5547   -4.0519    0.0000 O   0  0
   10.8403   -3.6394    0.0000 C   0  0
   13.0541   -7.1954    0.0000 C   0  0
   12.3402   -7.6090    0.0000 C   0  0
   11.6252   -7.1976    0.0000 C   0  0
   10.9113   -7.6112    0.0000 C   0  0
   10.9126   -8.4362    0.0000 C   0  0
   11.6276   -8.8475    0.0000 C   0  0
   12.3415   -8.4340    0.0000 C   0  0
   13.3088   -4.2498    0.0000 N   0  0
   14.6678   -4.6914    0.0000 C   0  0
   14.4963   -5.4971    0.0000 C   0  0
   15.2107   -5.9096    0.0000 C   0  0
   15.8239   -5.3576    0.0000 C   0  0
   15.4882   -4.6040    0.0000 S   0  0
   16.6309   -5.5290    0.0000 Cl  0  0
   10.1987   -8.8498    0.0000 O   0  0
    9.4836   -8.4384    0.0000 C   0  0
   11.6288   -9.6725    0.0000 O   0  0
   10.9150  -10.0861    0.0000 C   0  0
 11 12  2  0
 12  8  1  0
  9 13  1  0
 13 14  1  0
 10 15  1  0
 15 16  1  0
 16 17  2  0
 17 18  1  0
 18 19  2  0
 19 20  1  0
 20 21  2  0
 21 16  1  0
 12 22  1  0
 22  2  1  0
  2  1  2  0
  2 23  1  0
 23 24  2  0
  3  2  2  0
  4  5  2  0
  5  6  1  0
  6  7  2  0
 24 25  1  0
 25 26  2  0
 26 27  1  0
 27 23  1  0
  7  8  1  0
 26 28  1  0
  8  9  2  0
 19 29  1  0
  9  4  1  0
 29 30  1  0
  7 10  1  0
 20 31  1  0
 10 11  1  0
 31 32  1  0
M  END