
  CDK    5/12/10,14:52

 25 27  0  0  0  0  0  0  0  0999 V2000
    5.7652  -24.6333    0.0000 C   0  0  0  0  0  0  0  0  0  0  0  0
    5.7641  -25.4607    0.0000 C   0  0  0  0  0  0  0  0  0  0  0  0
    6.4789  -25.8735    0.0000 C   0  0  0  0  0  0  0  0  0  0  0  0
    7.1953  -25.4602    0.0000 C   0  0  0  0  0  0  0  0  0  0  0  0
    7.1925  -24.6297    0.0000 C   0  0  0  0  0  0  0  0  0  0  0  0
    6.4771  -24.2205    0.0000 C   0  0  0  0  0  0  0  0  0  0  0  0
    7.9054  -24.2145    0.0000 C   0  0  0  0  0  0  0  0  0  0  0  0
    8.6186  -24.6273    0.0000 N   0  0  0  0  0  0  0  0  0  0  0  0
    9.3311  -24.2128    0.0000 C   0  0  0  0  0  0  0  0  0  0  0  0
    9.3284  -23.3869    0.0000 C   0  0  0  0  0  0  0  0  0  0  0  0
    8.6074  -22.9773    0.0000 C   0  0  0  0  0  0  0  0  0  0  0  0
    7.8979  -23.3942    0.0000 C   0  0  0  0  0  0  0  0  0  0  0  0
   10.0408  -22.9708    0.0000 C   0  0  0  0  0  0  0  0  0  0  0  0
   10.7500  -22.5565    0.0000 N   0  0  0  0  0  0  0  0  0  0  0  0
    8.6013  -22.1523    0.0000 C   0  0  0  0  0  0  0  0  0  0  0  0
    9.3174  -21.7367    0.0000 C   0  0  0  0  0  0  0  0  0  0  0  0
    9.3117  -20.9125    0.0000 C   0  0  0  0  0  0  0  0  0  0  0  0
    8.5937  -20.5123    0.0000 C   0  0  0  0  0  0  0  0  0  0  0  0
    7.8799  -20.9265    0.0000 C   0  0  0  0  0  0  0  0  0  0  0  0
    7.8891  -21.7494    0.0000 C   0  0  0  0  0  0  0  0  0  0  0  0
    6.4746  -23.3955    0.0000 O   0  0  0  0  0  0  0  0  0  0  0  0
    6.4787  -26.6985    0.0000 Br  0  0  0  0  0  0  0  0  0  0  0  0
   10.0469  -24.6230    0.0000 O   0  0  0  0  0  0  0  0  0  0  0  0
    7.1788  -22.1690    0.0000 Cl  0  0  0  0  0  0  0  0  0  0  0  0
   10.0216  -20.4922    0.0000 Cl  0  0  0  0  0  0  0  0  0  0  0  0
 12  7  2  0  0  0  0 
  6  1  1  0  0  0  0 
 10 13  1  0  0  0  0 
  1  2  2  0  0  0  0 
 13 14  3  0  0  0  0 
  5  7  1  0  0  0  0 
 11 15  1  0  0  0  0 
  3  4  2  0  0  0  0 
 15 16  2  0  0  0  0 
  7  8  1  0  0  0  0 
 16 17  1  0  0  0  0 
 17 18  2  0  0  0  0 
  8  9  1  0  0  0  0 
 18 19  1  0  0  0  0 
  4  5  1  0  0  0  0 
 19 20  2  0  0  0  0 
 20 15  1  0  0  0  0 
  9 10  1  0  0  0  0 
  6 21  1  0  0  0  0 
  2  3  1  0  0  0  0 
  3 22  1  0  0  0  0 
 10 11  2  0  0  0  0 
  9 23  2  0  0  0  0 
  5  6  2  0  0  0  0 
 20 24  1  0  0  0  0 
 11 12  1  0  0  0  0 
 17 25  1  0  0  0  0 
M  END