
          11280714442D 1   1.00000     0.00000     0

 20 22  0     0  0            999 V2000
    9.7252  -18.4497    0.0000 C   0  0  0  0  0  0           0  0  0
    9.7240  -19.2764    0.0000 C   0  0  0  0  0  0           0  0  0
   10.4384  -19.6891    0.0000 C   0  0  0  0  0  0           0  0  0
   10.4366  -18.0372    0.0000 C   0  0  0  0  0  0           0  0  0
   11.1514  -18.4460    0.0000 C   0  0  0  0  0  0           0  0  0
   11.1563  -19.2765    0.0000 C   0  0  0  0  0  0           0  0  0
   11.9476  -19.5286    0.0000 N   0  0  0  0  0  0           0  0  0
   12.4319  -18.8537    0.0000 C   0  0  0  0  0  0           0  0  0
   11.9397  -18.1849    0.0000 C   0  0  0  0  0  0           0  0  0
   13.2563  -18.8489    0.0000 C   0  0  0  0  0  0           0  0  0
   13.6727  -19.5604    0.0000 O   0  0  0  0  0  0           0  0  0
   13.6642  -18.1325    0.0000 N   0  0  3  0  0  0           0  0  0
   14.4860  -18.1328    0.0000 C   0  0  0  0  0  0           0  0  0
   14.8939  -17.4205    0.0000 C   0  0  0  0  0  0           0  0  0
   14.4810  -16.7065    0.0000 N   0  0  3  0  0  0           0  0  0
   13.6555  -16.7094    0.0000 C   0  0  0  0  0  0           0  0  0
   13.2431  -17.4263    0.0000 C   0  0  0  0  0  0           0  0  0
   14.8917  -15.9917    0.0000 C   0  0  0  0  0  0           0  0  0
   10.4341  -17.2128    0.0000 C   0  0  0  0  0  0           0  0  0
    9.0111  -18.0376    0.0000 F   0  0  0  0  0  0           0  0  0
  4  1  2  0     0  0
  8 10  1  0     0  0
  5  6  2  0     0  0
 10 11  2  0     0  0
 10 12  1  0     0  0
 12 13  1  0     0  0
  2  3  2  0     0  0
  3  6  1  0     0  0
  1  2  1  0     0  0
  5  4  1  0     0  0
  6  7  1  0     0  0
 12 17  1  0     0  0
 13 14  1  0     0  0
 14 15  1  0     0  0
 15 16  1  0     0  0
 16 17  1  0     0  0
  7  8  1  0     0  0
 15 18  1  0     0  0
  8  9  2  0     0  0
  4 19  1  0     0  0
  9  5  1  0     0  0
  1 20  1  0     0  0
M  END