
          08180812492D 1   1.00000     0.00000     0

 29 32  0     0  0            999 V2000
   12.4486  -15.2333    0.0000 C   0  0  0  0  0  0           0  0  0
   12.4474  -16.0607    0.0000 C   0  0  0  0  0  0           0  0  0
   13.1622  -16.4735    0.0000 C   0  0  0  0  0  0           0  0  0
   13.8787  -16.0602    0.0000 C   0  0  0  0  0  0           0  0  0
   13.8758  -15.2297    0.0000 C   0  0  0  0  0  0           0  0  0
   13.1604  -14.8205    0.0000 C   0  0  0  0  0  0           0  0  0
   11.7327  -16.4723    0.0000 C   0  0  0  0  0  0           0  0  0
   10.9902  -16.1127    0.0000 N   0  0  3  0  0  0           0  0  0
   11.7320  -17.2976    0.0000 O   0  0  0  0  0  0           0  0  0
   14.5887  -14.8145    0.0000 O   0  0  0  0  0  0           0  0  0
   14.5856  -13.9895    0.0000 C   0  0  0  0  0  0           0  0  0
   15.3003  -13.5791    0.0000 C   0  0  0  0  0  0           0  0  0
   15.2975  -12.7549    0.0000 C   0  0  0  0  0  0           0  0  0
   14.5810  -12.3443    0.0000 C   0  0  0  0  0  0           0  0  0
   13.8657  -12.7639    0.0000 C   0  0  0  0  0  0           0  0  0
   13.8720  -13.5867    0.0000 C   0  0  0  0  0  0           0  0  0
   14.5938  -16.4716    0.0000 C   0  0  0  0  0  0           0  0  0
   15.3076  -16.0579    0.0000 N   0  0  0  0  0  0           0  0  0
   16.0227  -16.4693    0.0000 C   0  0  0  0  0  0           0  0  0
   10.3464  -16.6254    0.0000 C   0  0  0  0  0  0           0  0  0
    9.5402  -16.4413    0.0000 C   0  0  0  0  0  0           0  0  0
   10.9910  -15.2886    0.0000 C   0  0  0  0  0  0           0  0  0
    9.1800  -15.7005    0.0000 C   0  0  0  0  0  0           0  0  0
   10.3449  -14.7735    0.0000 C   0  0  0  0  0  0           0  0  0
    9.5401  -14.9595    0.0000 N   0  0  3  0  0  0           0  0  0
    9.0260  -14.3143    0.0000 C   0  0  3  0  0  0           0  0  0
    8.9008  -13.4953    0.0000 C   0  0  0  0  0  0           0  0  0
    8.2556  -14.0094    0.0000 C   0  0  0  0  0  0           0  0  0
   14.5768  -11.5193    0.0000 F   0  0  0  0  0  0           0  0  0
  2  7  1  0     0  0
 14 15  1  0     0  0
  3  4  2  0     0  0
 15 16  2  0     0  0
 16 11  1  0     0  0
  7  8  1  0     0  0
  4 17  1  0     0  0
 17 18  1  0     0  0
  7  9  2  0     0  0
 18 19  1  0     0  0
  4  5  1  0     0  0
  8 20  1  0     0  0
  5 10  1  0     0  0
 20 21  1  0     0  0
  2  3  1  0     0  0
  8 22  1  0     0  0
 10 11  1  0     0  0
 21 23  1  0     0  0
  5  6  2  0     0  0
 22 24  1  0     0  0
 11 12  2  0     0  0
 23 25  1  0     0  0
 24 25  1  0     0  0
  6  1  1  0     0  0
 25 26  1  0     0  0
 27 26  1  0     0  0
 28 27  1  0     0  0
 26 28  1  0     0  0
 12 13  1  0     0  0
  1  2  2  0     0  0
 13 14  2  0     0  0
 14 29  1  0     0  0
M  END