
  SciTegic05171617272D

 38 43  0  0  1  0            999 V2000
    3.6387   -0.8963    0.0000 O   0  0
    2.6003   -1.4977    0.0000 C   0  0
    1.2990   -0.7500    0.0000 C   0  0
    1.2990    0.7500    0.0000 O   0  0
    0.0000    1.5000    0.0000 C   0  0  1  0  0  0
    0.0031    3.0008    0.0000 S   0  0
    1.3039    3.7494    0.0000 C   0  0  2  0  0  0
    2.6004    2.9949    0.0000 C   0  0
    3.9020    3.7405    0.0000 C   0  0
    3.9072    5.2405    0.0000 C   0  0
    2.6108    5.9949    0.0000 C   0  0
    1.3092    5.2494    0.0000 C   0  0
    0.2720    5.8530    0.0000 O   0  0
    2.6159    7.4957    0.0000 N   0  0
    3.8311    8.3533    0.0000 C   0  0
    3.3702    9.7807    0.0000 C   0  0
    1.8702    9.7835    0.0000 N   0  0
    1.4040    8.3578    0.0000 N   0  0
    4.2546   10.9932    0.0000 C   0  0
    5.7340   11.0881    0.0000 C   0  0
    6.0873   12.5459    0.0000 C   0  0
    4.8099   13.3324    0.0000 S   0  0
    3.6673   12.3606    0.0000 C   0  0
   -1.2990    0.7500    0.0000 C   0  0
   -2.3383    1.3500    0.0000 O   0  0
   -1.2990   -0.7500    0.0000 C   0  0  2  0  0  0
    0.0000   -1.5000    0.0000 C   0  0  1  0  0  0
    0.0000   -2.7000    0.0000 O   0  0
   -2.5987   -1.5004    0.0000 N   0  0
   -2.7390   -2.9810    0.0000 C   0  0
   -4.2067   -3.2906    0.0000 C   0  0
   -4.9546   -1.9904    0.0000 N   0  0
   -3.9491   -0.8772    0.0000 N   0  0
   -4.8192   -4.6606    0.0000 C   0  0
   -4.1663   -5.9916    0.0000 C   0  0
   -5.2558   -7.0226    0.0000 C   0  0
   -6.5730   -6.3051    0.0000 S   0  0
   -6.2977   -4.8306    0.0000 C   0  0
  1  2  1  0
  2  3  1  0
  3  4  1  0
  4  5  1  0
  5  6  1  6
  7  6  1  1
  7  8  1  0
  8  9  1  0
  9 10  1  0
 10 11  1  0
 11 12  1  0
  7 12  1  0
 12 13  1  0
 11 14  1  0
 14 15  1  0
 15 16  2  0
 16 17  1  0
 17 18  2  0
 14 18  1  0
 16 19  1  0
 19 20  1  0
 20 21  2  0
 21 22  1  0
 22 23  1  0
 19 23  2  0
  5 24  1  0
 24 25  1  0
 24 26  1  0
 26 27  1  0
  3 27  1  0
 27 28  1  6
 26 29  1  6
 29 30  1  0
 30 31  2  0
 31 32  1  0
 32 33  2  0
 29 33  1  0
 31 34  1  0
 34 35  1  0
 35 36  2  0
 36 37  1  0
 37 38  1  0
 34 38  2  0
M  END