
  SciTegic02271515072D

 27 30  0  0  0  0            999 V2000
   10.9976  -27.7721    0.0000 C   0  0
   10.9965  -28.5916    0.0000 C   0  0
   11.7045  -29.0006    0.0000 N   0  0
   11.7028  -27.3632    0.0000 C   0  0
   12.4114  -27.7685    0.0000 C   0  0
   12.4116  -28.5917    0.0000 C   0  0
   13.1946  -28.8458    0.0000 S   0  0
   13.6783  -28.1797    0.0000 N   0  0
   13.1942  -27.5139    0.0000 C   0  0
   13.4465  -26.7367    0.0000 N   0  0
   12.8995  -26.1295    0.0000 C   0  0
   13.1517  -25.3523    0.0000 C   0  0
   12.1002  -26.2997    0.0000 O   0  0
   13.9534  -25.1817    0.0000 C   0  0
   14.2064  -24.4084    0.0000 C   0  0
   13.6623  -23.7982    0.0000 C   0  0
   12.8617  -23.9666    0.0000 C   0  0
   12.6051  -24.7453    0.0000 C   0  0
   10.2939  -27.3594    0.0000 C   0  0
   10.3026  -26.5426    0.0000 C   0  0
    9.5997  -26.1300    0.0000 C   0  0
    8.8894  -26.5333    0.0000 C   0  0
    8.8865  -27.3533    0.0000 C   0  0
    9.5901  -27.7622    0.0000 C   0  0
    8.1839  -26.1209    0.0000 O   0  0
    8.1775  -27.7597    0.0000 O   0  0
    7.4711  -27.3488    0.0000 C   0  0
  1  2  2  0
  2  3  1  0
  3  6  2  0
  5  4  2  0
  4  1  1  0
  5  6  1  0
  6  7  1  0
  7  8  1  0
  8  9  2  0
  9  5  1  0
  9 10  1  0
 10 11  1  0
 11 12  1  0
 11 13  2  0
 12 14  1  0
 12 18  1  0
 14 15  1  0
 15 16  1  0
 16 17  1  0
 17 18  1  0
  1 19  1  0
 19 20  2  0
 20 21  1  0
 21 22  2  0
 22 23  1  0
 23 24  2  0
 24 19  1  0
 22 25  1  0
 23 26  1  0
 26 27  1  0
M  END