
          11280714502D 1   1.00000     0.00000     0

 37 39  0     1  0            999 V2000
    3.6292   -2.7792    0.0000 C   0  0  0  0  0  0           0  0  0
    4.3500   -3.1917    0.0000 C   0  0  0  0  0  0           0  0  0
    5.0542   -2.7792    0.0000 C   0  0  0  0  0  0           0  0  0
    2.9167   -3.2000    0.0000 N   0  0  0  0  0  0           0  0  0
    5.7667   -3.1875    0.0000 C   0  0  0  0  0  0           0  0  0
    5.7750   -4.0167    0.0000 C   0  0  0  0  0  0           0  0  0
    6.4917   -4.4292    0.0000 O   0  0  0  0  0  0           0  0  0
    2.2042   -2.7875    0.0000 C   0  0  0  0  0  0           0  0  0
    4.3417   -4.0167    0.0000 C   0  0  0  0  0  0           0  0  0
    3.6292   -1.9542    0.0000 O   0  0  0  0  0  0           0  0  0
    7.2042   -4.0042    0.0000 C   0  0  2  0  0  0           0  0  0
    0.0542   -6.5000    0.0000 C   0  0  0  0  0  0           0  0  0
    5.0625   -4.4292    0.0000 C   0  0  0  0  0  0           0  0  0
    7.9167   -4.4250    0.0000 C   0  0  0  0  0  0           0  0  0
    1.4875   -3.2000    0.0000 C   0  0  0  0  0  0           0  0  0
   -0.6583   -6.9125    0.0000 O   0  0  0  0  0  0           0  0  0
    8.6250   -4.0042    0.0000 C   0  0  0  0  0  0           0  0  0
    7.9167   -5.2500    0.0000 C   0  0  0  0  0  0           0  0  0
    9.3417   -5.2417    0.0000 C   0  0  0  0  0  0           0  0  0
    0.7750   -6.9125    0.0000 O   0  0  0  0  0  0           0  0  0
    9.3417   -4.4167    0.0000 C   0  0  0  0  0  0           0  0  0
    8.6292   -5.6542    0.0000 C   0  0  0  0  0  0           0  0  0
   10.0625   -5.6542    0.0000 C   0  0  0  0  0  0           0  0  0
    5.0500   -1.9542    0.0000 C   0  0  0  0  0  0           0  0  0
    1.4875   -4.0250    0.0000 O   0  0  0  0  0  0           0  0  0
    6.4792   -2.7667    0.0000 C   0  0  0  0  0  0           0  0  0
    2.2042   -1.9542    0.0000 C   0  0  0  0  0  0           0  0  0
    0.0542   -5.6750    0.0000 C   0  0  0  0  0  0           0  0  0
    7.2042   -3.1875    0.0000 C   0  0  0  0  0  0           0  0  0
   10.7667   -5.2375    0.0000 C   0  0  3  0  0  0           0  0  0
    0.7750   -2.7875    0.0000 C   0  0  0  0  0  0           0  0  0
    0.7750   -4.4375    0.0000 C   0  0  0  0  0  0           0  0  0
    0.7750   -5.2625    0.0000 C   0  0  0  0  0  0           0  0  0
   11.4917   -5.6500    0.0000 C   0  0  0  0  0  0           0  0  0
   10.7667   -4.4125    0.0000 C   0  0  0  0  0  0           0  0  0
    1.4875   -1.5417    0.0000 C   0  0  0  0  0  0           0  0  0
    0.7750   -1.9625    0.0000 C   0  0  0  0  0  0           0  0  0
  2  1  1  0     0  0
  3  2  2  0     0  0
  4  1  1  0     0  0
  5  3  1  0     0  0
  6 13  1  0     0  0
  7  6  1  0     0  0
  8  4  1  0     0  0
  9  2  1  0     0  0
 10  1  2  0     0  0
 11  7  1  0     0  0
 12 28  1  0     0  0
 13  9  2  0     0  0
 14 11  1  0     0  0
 15  8  2  0     0  0
 16 12  2  0     0  0
 17 14  2  0     0  0
 18 14  1  0     0  0
 19 22  1  0     0  0
 20 12  1  0     0  0
 21 17  1  0     0  0
 22 18  2  0     0  0
 23 19  1  0     0  0
 24  3  1  0     0  0
 25 15  1  0     0  0
 26  5  1  0     0  0
 27  8  1  0     0  0
 28 33  1  0     0  0
 11 29  1  1     0  0
 30 23  1  0     0  0
 31 15  1  0     0  0
 32 25  1  0     0  0
 33 32  1  0     0  0
 34 30  1  0     0  0
 35 30  1  0     0  0
 36 27  2  0     0  0
 37 36  1  0     0  0
  6  5  2  0     0  0
 37 31  2  0     0  0
 19 21  2  0     0  0
M  END