
  SciTegic05071316162D

 17 18  0  0  0  0            999 V2000
   25.5007   -2.1709    0.0000 C   0  0
   25.4996   -2.9904    0.0000 C   0  0
   26.2076   -3.3994    0.0000 C   0  0
   26.9173   -2.9899    0.0000 C   0  0
   26.9145   -2.1673    0.0000 C   0  0
   26.2058   -1.7620    0.0000 C   0  0
   24.7929   -1.7625    0.0000 C   0  0  2  0  0  0
   24.0853   -2.1712    0.0000 C   0  0
   23.3775   -1.7628    0.0000 C   0  0
   22.6699   -2.1716    0.0000 N   0  0
   21.9239   -1.8354    0.0000 N   0  0
   21.3772   -2.4429    0.0000 C   0  0
   21.7860   -3.1505    0.0000 N   0  0
   22.5853   -2.9803    0.0000 C   0  0
   24.7927   -0.9453    0.0000 C   0  0
   25.5003   -0.5365    0.0000 C   0  0
   27.6256   -3.3974    0.0000 F   0  0
  1  2  2  0
  2  3  1  0
  3  4  2  0
  4  5  1  0
  5  6  2  0
  6  1  1  0
  1  7  1  0
  7  8  1  0
  8  9  1  0
  9 10  1  0
 10 11  1  0
 11 12  2  0
 12 13  1  0
 13 14  2  0
 14 10  1  0
  7 15  1  6
 15 16  1  0
  4 17  1  0
M  END