
          11280715382D 1   1.00000     0.00000     0

 12 13  0     0  0            999 V2000
   -2.4708   -2.4292    0.0000 N   0  3  0  0  0  0           0  0  0
   -1.9583   -1.9125    0.0000 C   0  0  0  0  0  0           0  0  0
   -0.3708   -1.5917    0.0000 N   0  0  0  0  0  0           0  0  0
   -0.9708   -1.5917    0.0000 C   0  0  0  0  0  0           0  0  0
   -1.3708   -2.0292    0.0000 C   0  0  0  0  0  0           0  0  0
   -0.1833   -1.0167    0.0000 C   0  0  0  0  0  0           0  0  0
   -0.6708   -0.6667    0.0000 N   0  0  0  0  0  0           0  0  0
   -1.1583   -1.0167    0.0000 C   0  0  0  0  0  0           0  0  0
   -3.1583   -2.2417    0.0000 O   0  5  0  0  0  0           0  0  0
   -2.3458   -3.0292    0.0000 O   0  0  0  0  0  0           0  0  0
   -2.1458   -1.3417    0.0000 C   0  0  0  0  0  0           0  0  0
   -1.7458   -0.8917    0.0000 C   0  0  0  0  0  0           0  0  0
  2  1  1  0     0  0
  3  4  1  0     0  0
  4  5  1  0     0  0
  5  2  2  0     0  0
  6  3  2  0     0  0
  7  8  1  0     0  0
  8 12  1  0     0  0
  9  1  1  0     0  0
 10  1  2  0     0  0
 11  2  1  0     0  0
 12 11  2  0     0  0
  4  8  2  0     0  0
  6  7  1  0     0  0
M  CHG  2   1   1   9  -1
M  END