
  SciTegic04021211102D

 29 31  0  0  0  0            999 V2000
    4.7259  -17.7310    0.0000 C   0  0
    4.7247  -18.5541    0.0000 C   0  0
    5.4386  -18.9647    0.0000 C   0  0
    6.1542  -18.5535    0.0000 C   0  0
    6.1512  -17.7271    0.0000 C   0  0
    5.4367  -17.3160    0.0000 C   0  0
    6.8556  -17.3110    0.0000 C   0  0
    7.5711  -17.7247    0.0000 C   0  0
    8.2826  -17.3078    0.0000 C   0  0
    8.2798  -16.4863    0.0000 N   0  0
    7.5593  -16.0790    0.0000 C   0  0
    6.8510  -16.4939    0.0000 N   0  0
    5.4384  -19.7897    0.0000 C   0  0
    6.1518  -20.2002    0.0000 N   0  0
    6.8612  -19.7902    0.0000 C   0  0
    7.5746  -20.2006    0.0000 C   0  0
    5.4341  -16.4953    0.0000 C   0  0
    7.5530  -15.2541    0.0000 N   0  0
    8.2883  -19.7905    0.0000 C   0  0
    4.6902  -20.2223    0.0000 O   0  0
    9.0359  -20.2241    0.0000 C   0  0
    9.0342  -21.0884    0.0000 C   0  0
    9.7818  -21.5221    0.0000 N   0  0
   10.5312  -21.0914    0.0000 C   0  0
   10.5330  -20.2271    0.0000 C   0  0
   11.2788  -21.5250    0.0000 O   0  0
    9.7853  -19.7935    0.0000 C   0  0
    9.7871  -18.9292    0.0000 S   0  0
    3.9762  -18.9862    0.0000 C   0  0
 13 14  1  0
  3  4  2  0
 14 15  1  0
  7  8  2  0
 15 16  1  0
  6 17  1  0
  8  9  1  0
 11 18  1  0
  4  5  1  0
 16 19  1  0
  9 10  2  0
 13 20  2  0
  2  3  1  0
 19 21  1  0
 10 11  1  0
 21 22  1  0
  5  6  2  0
 22 23  1  0
 11 12  2  0
 23 24  1  0
 12  7  1  0
 24 25  1  0
  5  7  1  0
 24 26  2  0
  6  1  1  0
 25 27  1  0
  3 13  1  0
 27 28  1  0
  9 28  1  0
  1  2  2  0
  2 29  1  0
M  END