
          11280714452D 1   1.00000     0.00000     0

 36 39  0     0  0            999 V2000
    9.2917   -3.8667    0.0000 C   0  0  0  0  0  0           0  0  0
    7.8667   -3.8667    0.0000 C   0  0  0  0  0  0           0  0  0
    8.5792   -4.2792    0.0000 C   0  0  0  0  0  0           0  0  0
    9.2917   -3.0417    0.0000 C   0  0  0  0  0  0           0  0  0
    7.8667   -3.0417    0.0000 C   0  0  0  0  0  0           0  0  0
    8.5792   -2.6292    0.0000 C   0  0  0  0  0  0           0  0  0
   10.0125   -4.2792    0.0000 C   0  0  0  0  0  0           0  0  0
    0.7292   -3.8750    0.0000 N   0  0  0  0  0  0           0  0  0
    7.1500   -4.2792    0.0000 C   0  0  0  0  0  0           0  0  0
    6.4375   -3.8667    0.0000 C   0  0  0  0  0  0           0  0  0
    8.5750   -1.8042    0.0000 C   0  0  3  0  0  0           0  0  0
    0.0167   -4.2875    0.0000 C   0  0  0  0  0  0           0  0  0
    5.7167   -4.2792    0.0000 C   0  0  0  0  0  0           0  0  0
    2.1542   -3.8750    0.0000 C   0  0  0  0  0  0           0  0  0
    2.8750   -4.2792    0.0000 C   0  0  0  0  0  0           0  0  0
    1.4417   -4.2875    0.0000 C   0  0  0  0  0  0           0  0  0
   10.7250   -3.8667    0.0000 O   0  0  0  0  0  0           0  0  0
    7.1500   -5.1042    0.0000 O   0  0  0  0  0  0           0  0  0
    0.0167   -5.1125    0.0000 C   0  0  0  0  0  0           0  0  0
    8.5792   -5.1042    0.0000 O   0  0  0  0  0  0           0  0  0
    0.7375   -5.5250    0.0000 C   0  0  0  0  0  0           0  0  0
    5.0042   -3.8667    0.0000 C   0  0  0  0  0  0           0  0  0
    3.5875   -3.8667    0.0000 C   0  0  0  0  0  0           0  0  0
   10.0125   -5.1042    0.0000 O   0  0  0  0  0  0           0  0  0
    4.3000   -4.2792    0.0000 C   0  0  0  0  0  0           0  0  0
    1.4500   -5.1042    0.0000 C   0  0  0  0  0  0           0  0  0
    4.3000   -2.6292    0.0000 C   0  0  0  0  0  0           0  0  0
    9.2917   -1.3917    0.0000 C   0  0  0  0  0  0           0  0  0
    7.8625   -1.3917    0.0000 C   0  0  0  0  0  0           0  0  0
    9.3750   -2.0167    0.0000 C   0  0  0  0  0  0           0  0  0
   -0.6958   -3.8792    0.0000 C   0  0  0  0  0  0           0  0  0
    3.5875   -3.0417    0.0000 C   0  0  0  0  0  0           0  0  0
    5.0125   -3.0417    0.0000 C   0  0  0  0  0  0           0  0  0
   -0.6875   -5.5250    0.0000 C   0  0  0  0  0  0           0  0  0
   -1.4083   -4.2917    0.0000 C   0  0  0  0  0  0           0  0  0
   -1.4000   -5.1167    0.0000 C   0  0  0  0  0  0           0  0  0
  2  3  1  0     0  0
  3  1  2  0     0  0
  4  1  1  0     0  0
  5  6  1  0     0  0
  6  4  2  0     0  0
  7  1  1  0     0  0
  8 16  2  0     0  0
  9  2  1  0     0  0
 10  9  1  0     0  0
 11  6  1  0     0  0
 12  8  1  0     0  0
 13 10  2  0     0  0
 14 15  2  0     0  0
 15 23  1  0     0  0
 16 14  1  0     0  0
 17  7  2  0     0  0
 18  9  2  0     0  0
 19 21  1  0     0  0
 20  3  1  0     0  0
 21 26  2  0     0  0
 22 13  1  0     0  0
 23 25  2  0     0  0
 24  7  1  0     0  0
 25 22  1  0     0  0
 26 16  1  0     0  0
 27 33  1  0     0  0
 28 11  1  0     0  0
 29 11  1  0     0  0
 30 11  1  0     0  0
 31 12  2  0     0  0
 32 27  2  0     0  0
 33 22  2  0     0  0
 34 19  2  0     0  0
 35 31  1  0     0  0
 36 34  1  0     0  0
  2  5  2  0     0  0
 32 23  1  0     0  0
 12 19  1  0     0  0
 36 35  2  0     0  0
M  END