
          11280714582D 1   1.00000     0.00000     0

 28 30  0     1  0            999 V2000
   -1.2083   -7.2125    0.0000 O   0  0  0  0  0  0           0  0  0
   -0.6458   -6.0792    0.0000 C   0  0  3  0  0  0           0  0  0
   -0.0083   -6.6875    0.0000 C   0  0  0  0  0  0           0  0  0
   -1.3958   -6.4750    0.0000 C   0  0  3  0  0  0           0  0  0
   -1.0708   -5.6667    0.0000 C   0  0  3  0  0  0           0  0  0
   -0.3208   -5.3917    0.0000 C   0  0  3  0  0  0           0  0  0
    0.8375   -6.4375    0.0000 C   0  0  0  0  0  0           0  0  0
    4.3417   -5.3792    0.0000 C   0  0  0  0  0  0           0  0  0
    2.3167   -6.8000    0.0000 C   0  0  2  0  0  0           0  0  0
   -2.0833   -6.0667    0.0000 C   0  0  0  0  0  0           0  0  0
   -1.7208   -5.3292    0.0000 C   0  0  0  0  0  0           0  0  0
    1.4792   -7.0500    0.0000 C   0  0  2  0  0  0           0  0  0
    4.3417   -4.6292    0.0000 O   0  0  0  0  0  0           0  0  0
    2.9625   -7.4042    0.0000 C   0  0  0  0  0  0           0  0  0
    0.9917   -5.3875    0.0000 C   0  0  0  0  0  0           0  0  0
    1.7500   -5.3875    0.0000 C   0  0  0  0  0  0           0  0  0
    4.9917   -5.7542    0.0000 O   0  0  0  0  0  0           0  0  0
    0.3375   -5.7667    0.0000 C   0  0  0  0  0  0           0  0  0
    1.2667   -7.9042    0.0000 O   0  0  0  0  0  0           0  0  0
    3.6917   -5.7542    0.0000 C   0  0  0  0  0  0           0  0  0
    2.5292   -5.9417    0.0000 C   0  0  0  0  0  0           0  0  0
    2.4000   -5.7625    0.0000 C   0  0  0  0  0  0           0  0  0
    2.7542   -8.2667    0.0000 C   0  0  0  0  0  0           0  0  0
    3.8042   -7.1667    0.0000 C   0  0  0  0  0  0           0  0  0
    3.0417   -5.3792    0.0000 C   0  0  0  0  0  0           0  0  0
    3.3917   -8.8792    0.0000 C   0  0  0  0  0  0           0  0  0
    4.4500   -7.7667    0.0000 C   0  0  0  0  0  0           0  0  0
    4.2417   -8.6250    0.0000 C   0  0  0  0  0  0           0  0  0
  2  4  1  0     0  0
  3  2  1  0     0  0
  4  1  1  0     0  0
  5  1  1  0     0  0
  6  5  1  0     0  0
  7  3  2  0     0  0
  8 20  1  0     0  0
  9 12  1  0     0  0
 10  4  1  0     0  0
 11  5  1  0     0  0
 12  7  1  0     0  0
 13  8  2  0     0  0
 14  9  1  0     0  0
 15 18  1  0     0  0
 16 15  2  0     0  0
 17  8  1  0     0  0
 18  6  1  0     0  0
 12 19  1  6     0  0
 20 25  1  0     0  0
  9 21  1  1     0  0
 22 16  1  0     0  0
 23 14  1  0     0  0
 24 14  2  0     0  0
 25 22  1  0     0  0
 26 23  2  0     0  0
 27 24  1  0     0  0
 28 27  2  0     0  0
 10 11  1  0     0  0
  6  2  1  0     0  0
 28 26  1  0     0  0
M  END