
  CDK    6/4/10,11:41

 35 37  0  0  0  0  0  0  0  0999 V2000
    0.6456  -15.3299    0.0000 C   0  0  0  0  0  0  0  0  0  0  0  0
    1.3620  -15.7404    0.0000 C   0  0  0  0  0  0  0  0  0  0  0  0
    1.3620  -16.5654    0.0000 C   0  0  0  0  0  0  0  0  0  0  0  0
    0.6456  -16.9800    0.0000 C   0  0  0  0  0  0  0  0  0  0  0  0
   -0.0668  -16.5654    0.0000 C   0  0  0  0  0  0  0  0  0  0  0  0
   -0.0668  -15.7404    0.0000 N   0  0  0  0  0  0  0  0  0  0  0  0
    2.1469  -16.8212    0.0000 C   0  0  0  0  0  0  0  0  0  0  0  0
    2.6293  -16.1549    0.0000 C   0  0  0  0  0  0  0  0  0  0  0  0
    2.1469  -15.4886    0.0000 S   0  0  0  0  0  0  0  0  0  0  0  0
    2.3987  -17.6020    0.0000 C   0  0  0  0  0  0  0  0  0  0  0  0
    1.8483  -18.2196    0.0000 O   0  0  0  0  0  0  0  0  0  0  0  0
    3.2090  -17.7777    0.0000 O   0  0  0  0  0  0  0  0  0  0  0  0
   -0.7832  -15.3299    0.0000 C   0  0  0  0  0  0  0  0  0  0  0  0
   -1.4996  -15.7404    0.0000 C   0  0  0  0  0  0  0  0  0  0  0  0
   -1.4996  -16.5654    0.0000 C   0  0  0  0  0  0  0  0  0  0  0  0
   -0.7832  -14.5048    0.0000 O   0  0  0  0  0  0  0  0  0  0  0  0
   -2.2120  -16.9800    0.0000 C   0  0  0  0  0  0  0  0  0  0  0  0
   -2.2120  -17.8051    0.0000 C   0  0  0  0  0  0  0  0  0  0  0  0
   -2.9244  -18.2156    0.0000 C   0  0  0  0  0  0  0  0  0  0  0  0
   -3.6408  -17.8051    0.0000 C   0  0  0  0  0  0  0  0  0  0  0  0
   -3.6408  -16.9800    0.0000 C   0  0  0  0  0  0  0  0  0  0  0  0
   -2.9244  -16.5654    0.0000 C   0  0  0  0  0  0  0  0  0  0  0  0
   -2.2120  -15.3299    0.0000 N   0  0  0  0  0  0  0  0  0  0  0  0
   -2.2120  -14.5048    0.0000 C   0  0  0  0  0  0  0  0  0  0  0  0
   -2.9244  -14.0902    0.0000 O   0  0  0  0  0  0  0  0  0  0  0  0
   -1.4996  -14.0902    0.0000 O   0  0  0  0  0  0  0  0  0  0  0  0
   -1.4996  -13.2652    0.0000 C   0  0  0  0  0  0  0  0  0  0  0  0
   -1.4996  -12.4401    0.0000 C   0  0  0  0  0  0  0  0  0  0  0  0
   -0.6746  -13.2652    0.0000 C   0  0  0  0  0  0  0  0  0  0  0  0
   -2.3247  -13.2652    0.0000 C   0  0  0  0  0  0  0  0  0  0  0  0
    3.4543  -16.1549    0.0000 N   0  0  0  0  0  0  0  0  0  0  0  0
    3.4607  -18.5626    0.0000 C   0  0  0  0  0  0  0  0  0  0  0  0
    4.2669  -18.7342    0.0000 C   0  0  0  0  0  0  0  0  0  0  0  0
   -2.9270  -15.7407    0.0000 C   0  0  0  0  0  0  0  0  0  0  0  0
   -4.3558  -18.2159    0.0000 Cl  0  0  0  0  0  0  0  0  0  0  0  0
  2  3  2  0  0  0  0 
  3  4  1  0  0  0  0 
  4  5  1  0  0  0  0 
  5  6  1  0  0  0  0 
  1  6  1  0  0  0  0 
  7  8  2  0  0  0  0 
  8  9  1  0  0  0  0 
  2  9  1  0  0  0  0 
  3  7  1  0  0  0  0 
 10 11  2  0  0  0  0 
 10 12  1  0  0  0  0 
  7 10  1  0  0  0  0 
 13 14  1  0  0  0  0 
 14 15  1  0  0  0  0 
 13 16  2  0  0  0  0 
 17 18  1  0  0  0  0 
 18 19  2  0  0  0  0 
 19 20  1  0  0  0  0 
 20 21  2  0  0  0  0 
 21 22  1  0  0  0  0 
 17 22  2  0  0  0  0 
 15 17  1  0  0  0  0 
 24 25  2  0  0  0  0 
 27 28  1  0  0  0  0 
 27 30  1  0  0  0  0 
 27 29  1  0  0  0  0 
 26 27  1  0  0  0  0 
 24 26  1  0  0  0  0 
 23 24  1  0  0  0  0 
 14 23  1  1  0  0  0 
  6 13  1  0  0  0  0 
  8 31  1  0  0  0  0 
 32 33  1  0  0  0  0 
 12 32  1  0  0  0  0 
 23 34  1  0  0  0  0 
  1  2  1  0  0  0  0 
 20 35  1  0  0  0  0 
M  END