
          11280714452D 1   1.00000     0.00000     0

 36 39  0     0  0            999 V2000
    0.3042   -2.0167    0.0000 C   0  0  0  0  0  0           0  0  0
   -0.4458   -2.3625    0.0000 N   0  0  0  0  0  0           0  0  0
    0.2250   -1.2042    0.0000 N   0  0  3  0  0  0           0  0  0
   -0.5833   -1.0375    0.0000 C   0  0  0  0  0  0           0  0  0
   -0.9958   -1.7500    0.0000 C   0  0  0  0  0  0           0  0  0
    6.7292   -3.2542    0.0000 C   0  0  0  0  0  0           0  0  0
    7.4417   -3.6667    0.0000 C   0  0  0  0  0  0           0  0  0
    8.8750   -2.0042    0.0000 C   0  0  0  0  0  0           0  0  0
    8.1625   -2.4250    0.0000 C   0  0  0  0  0  0           0  0  0
    6.0167   -3.6667    0.0000 C   0  0  0  0  0  0           0  0  0
    5.3042   -3.2542    0.0000 C   0  0  0  0  0  0           0  0  0
    8.1625   -3.2542    0.0000 C   0  0  0  0  0  0           0  0  0
    6.7292   -2.4292    0.0000 C   0  0  0  0  0  0           0  0  0
    4.5875   -3.6667    0.0000 C   0  0  0  0  0  0           0  0  0
    1.0250   -2.4292    0.0000 C   0  0  0  0  0  0           0  0  0
    7.4417   -2.0125    0.0000 C   0  0  0  0  0  0           0  0  0
    8.8667   -1.1792    0.0000 O   0  0  0  0  0  0           0  0  0
    6.0167   -4.4917    0.0000 O   0  0  0  0  0  0           0  0  0
    1.7375   -2.0167    0.0000 O   0  0  0  0  0  0           0  0  0
    3.8750   -3.2542    0.0000 C   0  0  0  0  0  0           0  0  0
    0.8292   -0.6500    0.0000 C   0  0  0  0  0  0           0  0  0
    7.4417   -4.4917    0.0000 O   0  0  0  0  0  0           0  0  0
    2.4542   -2.4292    0.0000 C   0  0  0  0  0  0           0  0  0
    9.5875   -2.4167    0.0000 O   0  0  0  0  0  0           0  0  0
    3.8792   -2.4250    0.0000 C   0  0  0  0  0  0           0  0  0
    3.1667   -3.6625    0.0000 C   0  0  0  0  0  0           0  0  0
    2.4542   -3.2542    0.0000 C   0  0  0  0  0  0           0  0  0
    3.1667   -2.0125    0.0000 C   0  0  0  0  0  0           0  0  0
   -0.9958   -0.3167    0.0000 C   0  0  0  0  0  0           0  0  0
   -1.8208   -1.7500    0.0000 C   0  0  0  0  0  0           0  0  0
    2.2292   -0.3500    0.0000 O   0  0  0  0  0  0           0  0  0
    1.6167   -0.9042    0.0000 C   0  0  0  0  0  0           0  0  0
    3.0167   -0.6042    0.0000 C   0  0  0  0  0  0           0  0  0
   -1.8208   -0.3167    0.0000 C   0  0  0  0  0  0           0  0  0
   -2.2333   -1.0375    0.0000 C   0  0  0  0  0  0           0  0  0
    3.6292   -0.0500    0.0000 C   0  0  0  0  0  0           0  0  0
  2  1  2  0     0  0
  3  1  1  0     0  0
  4  3  1  0     0  0
  5  2  1  0     0  0
  6 10  1  0     0  0
  7  6  1  0     0  0
  8  9  1  0     0  0
  9 16  2  0     0  0
 10 11  1  0     0  0
 11 14  2  0     0  0
 12  7  2  0     0  0
 13  6  2  0     0  0
 14 20  1  0     0  0
 15  1  1  0     0  0
 16 13  1  0     0  0
 17  8  2  0     0  0
 18 10  2  0     0  0
 19 15  1  0     0  0
 20 25  2  0     0  0
 21  3  1  0     0  0
 22  7  1  0     0  0
 23 19  1  0     0  0
 24  8  1  0     0  0
 25 28  1  0     0  0
 26 27  2  0     0  0
 27 23  1  0     0  0
 28 23  2  0     0  0
 29  4  1  0     0  0
 30  5  1  0     0  0
 31 32  1  0     0  0
 32 21  1  0     0  0
 33 31  1  0     0  0
 34 29  2  0     0  0
 35 30  2  0     0  0
 36 33  1  0     0  0
  4  5  2  0     0  0
 35 34  1  0     0  0
 20 26  1  0     0  0
  9 12  1  0     0  0
M  END