
  SciTegic01181116592D

 28 31  0  0  0  0            999 V2000
    3.1819  -15.0458    0.0000 C   0  0
    3.1807  -15.8732    0.0000 C   0  0
    3.8956  -16.2860    0.0000 C   0  0
    3.8938  -14.6330    0.0000 C   0  0
    4.6091  -15.0422    0.0000 C   0  0
    4.6099  -15.8690    0.0000 C   0  0
    5.3252  -16.2800    0.0000 N   0  0
    6.0402  -15.8652    0.0000 C   0  0
    6.0355  -15.0352    0.0000 C   0  0
    5.3196  -14.6280    0.0000 N   0  0
    6.7474  -14.6184    0.0000 C   0  0
    7.4644  -15.0265    0.0000 N   0  0
    6.7424  -13.7934    0.0000 O   0  0
    8.1763  -14.6097    0.0000 C   0  0
    8.8910  -15.0213    0.0000 C   0  0
    9.6025  -14.6051    0.0000 C   0  0
    9.5979  -13.7792    0.0000 C   0  0
    8.8759  -13.3713    0.0000 C   0  0
    8.1674  -13.7898    0.0000 C   0  0
   10.3093  -13.3615    0.0000 N   0  0
   11.0268  -13.7686    0.0000 C   0  0
   11.7382  -13.3509    0.0000 C   0  0
   11.0329  -14.5936    0.0000 O   0  0
   12.4542  -13.7612    0.0000 C   0  0
   13.1651  -13.3441    0.0000 C   0  0
   13.1594  -12.5182    0.0000 C   0  0
   12.4369  -12.1112    0.0000 C   0  0
   11.7289  -12.5307    0.0000 C   0  0
  3  6  2  0
 12 14  1  0
  6  7  1  0
 14 15  2  0
  1  2  2  0
 15 16  1  0
  7  8  2  0
 16 17  2  0
  5  4  2  0
 17 18  1  0
  8  9  1  0
 18 19  2  0
 19 14  1  0
  4  1  1  0
 17 20  1  0
  9 10  2  0
 20 21  1  0
 10  5  1  0
 21 22  1  0
 21 23  2  0
  9 11  1  0
 22 24  2  0
  2  3  1  0
 24 25  1  0
 11 12  1  0
 25 26  2  0
  5  6  1  0
 26 27  1  0
 11 13  2  0
 27 28  2  0
 28 22  1  0
M  END