
          11280716012D 1   1.00000     0.00000     0

 94 96  0     1  0            999 V2000
   13.6667   -2.8417    0.0000 N   0  0  3  0  0  0           0  0  0
   13.0542   -3.2042    0.0000 C   0  0  1  0  0  0           0  0  0
   14.1792   -3.3667    0.0000 C   0  0  0  0  0  0           0  0  0
   11.9125   -3.2042    0.0000 C   0  0  1  0  0  0           0  0  0
   14.7917   -3.0167    0.0000 C   0  0  0  0  0  0           0  0  0
   14.6792   -2.3167    0.0000 N   0  0  0  0  0  0           0  0  0
   12.8375   -3.8792    0.0000 C   0  0  1  0  0  0           0  0  0
   12.4875   -2.7875    0.0000 O   0  0  0  0  0  0           0  0  0
   13.9875   -2.2167    0.0000 C   0  0  0  0  0  0           0  0  0
   12.1292   -3.8792    0.0000 C   0  0  2  0  0  0           0  0  0
    3.9042   -2.1042    0.0000 C   0  0  0  0  0  0           0  0  0
    2.0667   -1.7375    0.0000 C   0  0  0  0  0  0           0  0  0
    0.2167   -2.0792    0.0000 C   0  0  0  0  0  0           0  0  0
   -1.6208   -1.7042    0.0000 C   0  0  0  0  0  0           0  0  0
    5.7417   -1.7625    0.0000 C   0  0  0  0  0  0           0  0  0
   11.2917   -2.8500    0.0000 C   0  0  0  0  0  0           0  0  0
   15.4042   -3.3750    0.0000 C   0  0  0  0  0  0           0  0  0
   14.1750   -4.0667    0.0000 N   0  0  0  0  0  0           0  0  0
    1.4500   -2.0875    0.0000 N   0  0  0  0  0  0           0  0  0
    3.2917   -1.7417    0.0000 N   0  0  0  0  0  0           0  0  0
   -0.3875   -1.7167    0.0000 N   0  0  0  0  0  0           0  0  0
    5.1292   -2.1125    0.0000 N   0  0  0  0  0  0           0  0  0
   -2.2333   -2.0542    0.0000 N   0  0  0  0  0  0           0  0  0
   15.4000   -4.0792    0.0000 N   0  0  0  0  0  0           0  0  0
    5.1125   -4.9500    0.0000 C   0  0  0  0  0  0           0  0  0
    1.4292   -4.9167    0.0000 C   0  0  0  0  0  0           0  0  0
   -2.2500   -4.8917    0.0000 C   0  0  0  0  0  0           0  0  0
    5.7292    1.0875    0.0000 C   0  0  0  0  0  0           0  0  0
    2.0500    1.1125    0.0000 C   0  0  0  0  0  0           0  0  0
   -1.6333    1.1458    0.0000 C   0  0  0  0  0  0           0  0  0
   -3.4583   -2.0500    0.0000 C   0  0  0  0  0  0           0  0  0
    6.9750   -1.7750    0.0000 N   0  0  0  0  0  0           0  0  0
    4.5167   -1.7542    0.0000 C   0  0  2  0  0  0           0  0  0
    2.6750   -2.0917    0.0000 C   0  0  2  0  0  0           0  0  0
   -1.0083   -2.0667    0.0000 C   0  0  2  0  0  0           0  0  0
    0.8375   -1.7292    0.0000 C   0  0  2  0  0  0           0  0  0
   14.7792   -4.4292    0.0000 C   0  0  0  0  0  0           0  0  0
    7.5917   -2.1292    0.0000 C   0  0  0  0  0  0           0  0  0
    6.3542   -2.1250    0.0000 C   0  0  2  0  0  0           0  0  0
   -2.8458   -1.7000    0.0000 C   0  0  1  0  0  0           0  0  0
   -2.8708   -5.2417    0.0000 N   0  0  0  0  0  0           0  0  0
    1.4292    1.4708    0.0000 N   0  0  0  0  0  0           0  0  0
    5.1125    1.4458    0.0000 N   0  0  0  0  0  0           0  0  0
    2.0417   -5.2750    0.0000 N   0  0  0  0  0  0           0  0  0
   -1.0208    1.5000    0.0000 N   0  0  0  0  0  0           0  0  0
    5.7250   -5.3042    0.0000 N   0  0  0  0  0  0           0  0  0
    5.7500   -1.0542    0.0000 O   0  0  0  0  0  0           0  0  0
    3.8917   -2.8125    0.0000 O   0  0  0  0  0  0           0  0  0
    2.0667   -1.0292    0.0000 O   0  0  0  0  0  0           0  0  0
    0.2167   -2.7875    0.0000 O   0  0  0  0  0  0           0  0  0
   -1.6083   -1.0000    0.0000 O   0  0  0  0  0  0           0  0  0
   10.6792   -3.2000    0.0000 O   0  0  0  0  0  0           0  0  0
   -3.4625   -2.7542    0.0000 O   0  0  0  0  0  0           0  0  0
    7.5875   -2.8375    0.0000 O   0  0  0  0  0  0           0  0  0
   13.1875   -4.4917    0.0000 O   0  0  0  0  0  0           0  0  0
   -2.2458   -4.1792    0.0000 N   0  0  0  0  0  0           0  0  0
    1.4292   -4.2125    0.0000 N   0  0  0  0  0  0           0  0  0
    5.1167   -4.2417    0.0000 N   0  0  0  0  0  0           0  0  0
    5.7292    0.3833    0.0000 N   0  0  0  0  0  0           0  0  0
    2.0542    0.4083    0.0000 N   0  0  0  0  0  0           0  0  0
   -1.6250    0.4333    0.0000 N   0  0  0  0  0  0           0  0  0
   11.2917   -2.1417    0.0000 N   0  0  0  0  0  0           0  0  0
   11.7667   -4.4917    0.0000 O   0  0  0  0  0  0           0  0  0
    4.4917   -5.3000    0.0000 N   0  0  0  0  0  0           0  0  0
   -2.2458    1.4958    0.0000 N   0  0  0  0  0  0           0  0  0
   -1.6375   -5.2417    0.0000 N   0  0  0  0  0  0           0  0  0
    2.6625    1.4708    0.0000 N   0  0  0  0  0  0           0  0  0
    0.8125   -5.2667    0.0000 N   0  0  0  0  0  0           0  0  0
    6.3417    1.4458    0.0000 N   0  0  0  0  0  0           0  0  0
   -4.0708   -1.6917    0.0000 N   0  0  0  0  0  0           0  0  0
   16.0167   -3.0167    0.0000 N   0  0  0  0  0  0           0  0  0
    8.2042   -1.7792    0.0000 C   0  0  0  0  0  0           0  0  0
    2.6667   -2.8042    0.0000 C   0  0  0  0  0  0           0  0  0
   -1.0083   -2.7750    0.0000 C   0  0  0  0  0  0           0  0  0
    4.5125   -1.0417    0.0000 C   0  0  0  0  0  0           0  0  0
    0.8292   -1.0167    0.0000 C   0  0  0  0  0  0           0  0  0
    6.3542   -2.8292    0.0000 C   0  0  0  0  0  0           0  0  0
   -2.8458   -0.9917    0.0000 C   0  0  0  0  0  0           0  0  0
    5.7292   -3.8917    0.0000 C   0  0  0  0  0  0           0  0  0
    2.0500   -3.8625    0.0000 C   0  0  0  0  0  0           0  0  0
   -1.6333   -3.8292    0.0000 C   0  0  0  0  0  0           0  0  0
   -2.2375    0.0750    0.0000 C   0  0  0  0  0  0           0  0  0
    1.4417    0.0458    0.0000 C   0  0  0  0  0  0           0  0  0
    5.1167    0.0208    0.0000 C   0  0  0  0  0  0           0  0  0
   10.6750   -1.7875    0.0000 C   0  0  0  0  0  0           0  0  0
    1.4417   -0.6625    0.0000 C   0  0  0  0  0  0           0  0  0
    5.1250   -0.6875    0.0000 C   0  0  0  0  0  0           0  0  0
   -2.2333   -0.6292    0.0000 C   0  0  0  0  0  0           0  0  0
   -1.6250   -3.1250    0.0000 C   0  0  0  0  0  0           0  0  0
    2.0542   -3.1542    0.0000 C   0  0  0  0  0  0           0  0  0
    5.7375   -3.1792    0.0000 C   0  0  0  0  0  0           0  0  0
    8.8250   -2.1292    0.0000 C   0  0  0  0  0  0           0  0  0
   10.0542   -2.1375    0.0000 C   0  0  0  0  0  0           0  0  0
    9.4417   -1.7792    0.0000 C   0  0  0  0  0  0           0  0  0
  2  1  1  1     0  0
  3  1  1  0     0  0
  4  8  1  0     0  0
  5  3  1  0     0  0
  6  9  2  0     0  0
  7  2  1  0     0  0
  8  2  1  0     0  0
  9  1  1  0     0  0
 10  7  1  0     0  0
 11 33  1  0     0  0
 12 34  1  0     0  0
 13 36  1  0     0  0
 14 35  1  0     0  0
 15 39  1  0     0  0
  4 16  1  1     0  0
 17  5  2  0     0  0
 18  3  2  0     0  0
 19 12  1  0     0  0
 20 11  1  0     0  0
 21 13  1  0     0  0
 22 15  1  0     0  0
 23 14  1  0     0  0
 24 37  2  0     0  0
 25 58  1  0     0  0
 26 57  1  0     0  0
 27 56  1  0     0  0
 28 59  1  0     0  0
 29 60  1  0     0  0
 30 61  1  0     0  0
 31 40  1  0     0  0
 32 38  1  0     0  0
 33 22  1  0     0  0
 34 20  1  0     0  0
 35 21  1  0     0  0
 36 19  1  0     0  0
 37 18  1  0     0  0
 38 72  1  0     0  0
 39 32  1  0     0  0
 40 23  1  0     0  0
 41 27  2  0     0  0
 42 29  2  0     0  0
 43 28  2  0     0  0
 44 26  2  0     0  0
 45 30  2  0     0  0
 46 25  2  0     0  0
 47 15  2  0     0  0
 48 11  2  0     0  0
 49 12  2  0     0  0
 50 13  2  0     0  0
 51 14  2  0     0  0
 52 16  2  0     0  0
 53 31  2  0     0  0
 54 38  2  0     0  0
  7 55  1  6     0  0
 56 81  1  0     0  0
 57 80  1  0     0  0
 58 79  1  0     0  0
 59 84  1  0     0  0
 60 83  1  0     0  0
 61 82  1  0     0  0
 62 16  1  0     0  0
 10 63  1  6     0  0
 64 25  1  0     0  0
 65 30  1  0     0  0
 66 27  1  0     0  0
 67 29  1  0     0  0
 68 26  1  0     0  0
 69 28  1  0     0  0
 70 31  1  0     0  0
 71 17  1  0     0  0
 72 92  1  0     0  0
 34 73  1  6     0  0
 35 74  1  6     0  0
 33 75  1  1     0  0
 36 76  1  1     0  0
 39 77  1  6     0  0
 40 78  1  1     0  0
 79 91  1  0     0  0
 80 90  1  0     0  0
 81 89  1  0     0  0
 82 88  1  0     0  0
 83 86  1  0     0  0
 84 87  1  0     0  0
 85 62  1  0     0  0
 86 76  1  0     0  0
 87 75  1  0     0  0
 88 78  1  0     0  0
 89 74  1  0     0  0
 90 73  1  0     0  0
 91 77  1  0     0  0
 92 94  1  0     0  0
 93 85  1  0     0  0
 94 93  1  0     0  0
  5  6  1  0     0  0
  4 10  1  0     0  0
 17 24  1  0     0  0
M  END