
  SciTegic12231509382D

 15 15  0  0  0  0            999 V2000
    0.7500   -1.0323    0.0000 N   0  0
    0.0000    1.2760    0.0000 N   0  0
    1.2135    0.3943    0.0000 C   0  0
   -0.7500   -1.0323    0.0000 C   0  0
   -5.2158   10.2708    0.0000 C   0  0
   -1.2135    0.3943    0.0000 C   0  0
   -5.2183   11.4708    0.0000 O   0  0
   -6.2540    9.6690    0.0000 O   0  0
   -0.0031    2.7742    0.0000 C   0  0
   -3.9150    9.5223    0.0000 C   0  0
   -1.3040    3.5228    0.0000 C   0  0
   -3.9119    8.0215    0.0000 C   0  0
   -2.6111    7.2729    0.0000 C   0  0
   -1.3071    5.0236    0.0000 C   0  0
   -2.6079    5.7721    0.0000 C   0  0
  1  3  2  0
  2  3  1  0
  1  4  1  0
  2  6  1  0
  4  6  2  0
  5  7  2  0
  5  8  1  0
  2  9  1  0
  5 10  1  0
  9 11  1  0
 10 12  1  0
 12 13  1  0
 11 14  1  0
 13 15  1  0
 14 15  1  0
M  END