
  SciTegic01161211242D

 16 13  0  0  0  0            999 V2000
    2.6000    0.0000    0.0000 N   0  0
    7.7999    0.0000    0.0000 N   0  0
    9.0999    0.7500    0.0000 C   0  0
    1.3000    0.7500    0.0000 C   0  0
    5.2000    0.0000    0.0000 C   0  0
    6.5000    0.7500    0.0000 C   0  0
    3.9000    0.7500    0.0000 C   0  0
   15.3999    0.3750    0.0000 Cl  0  0
   12.8999    0.3750    0.0000 Cl  0  0
    5.2000   -1.2000    0.0000 O   0  0
    0.2606    0.1503    0.0000 C   0  0
    0.2609    1.3502    0.0000 C   0  0
    1.3000    1.9500    0.0000 C   0  0
   10.1394    0.1503    0.0000 C   0  0
   10.1391    1.3502    0.0000 C   0  0
    9.0999    1.9500    0.0000 C   0  0
  2  3  1  0
  1  4  1  0
  2  6  1  0
  5  6  1  0
  1  7  1  0
  5  7  1  0
  5 10  1  0
  4 11  1  0
  4 12  1  0
  4 13  1  0
  3 14  1  0
  3 15  1  0
  3 16  1  0
M  END