
  Mrv0541 05211314572D          

 25 25  0  0  0  0            999 V2000
   -1.2532    1.2133    0.0000 C   0  0  0  0  0  0  0  0  0  0  0  0
   -1.7382    0.5458    0.0000 N   0  0  0  0  0  0  0  0  0  0  0  0
   -2.5586    0.6321    0.0000 C   0  0  0  0  0  0  0  0  0  0  0  0
   -2.8942    1.3857    0.0000 C   0  0  0  0  0  0  0  0  0  0  0  0
   -2.4093    2.0532    0.0000 N   0  0  0  0  0  0  0  0  0  0  0  0
   -1.5888    1.9669    0.0000 C   0  0  0  0  0  0  0  0  0  0  0  0
   -1.4026   -0.2079    0.0000 C   0  0  0  0  0  0  0  0  0  0  0  0
   -0.5956   -0.3794    0.0000 S   0  0  0  0  0  0  0  0  0  0  0  0
   -0.5094   -1.1999    0.0000 C   0  0  0  0  0  0  0  0  0  0  0  0
   -1.2631   -1.5354    0.0000 C   0  0  0  0  0  0  0  0  0  0  0  0
   -1.8151   -0.9223    0.0000 N   0  0  0  0  0  0  0  0  0  0  0  0
    0.2051   -1.6124    0.0000 C   0  0  0  0  0  0  0  0  0  0  0  0
    0.9195   -1.1999    0.0000 C   0  0  0  0  0  0  0  0  0  0  0  0
    1.6340   -1.6124    0.0000 N   0  0  0  0  0  0  0  0  0  0  0  0
    1.6340   -2.4374    0.0000 C   0  0  0  0  0  0  0  0  0  0  0  0
   -2.7448    2.8068    0.0000 C   0  0  0  0  0  0  0  0  0  0  0  0
   -2.2599    3.4743    0.0000 C   0  0  0  0  0  0  0  0  0  0  0  0
   -2.5955    4.2280    0.0000 C   0  0  0  0  0  0  0  0  0  0  0  0
    2.3485   -1.1999    0.0000 C   0  0  0  0  0  0  0  0  0  0  0  0
    2.3485   -0.3749    0.0000 O   0  0  0  0  0  0  0  0  0  0  0  0
    3.0630   -1.6124    0.0000 C   0  0  0  0  0  0  0  0  0  0  0  0
    3.7774   -1.1999    0.0000 C   0  0  0  0  0  0  0  0  0  0  0  0
    4.4919   -1.6124    0.0000 C   0  0  0  0  0  0  0  0  0  0  0  0
    5.2064   -1.1999    0.0000 C   0  0  0  0  0  0  0  0  0  0  0  0
    7.4457    0.0000    0.0000 Br  0  0  0  0  0  0  0  0  0  0  0  0
  4  5  1  0  0  0  0
  9 12  1  0  0  0  0
  5  6  1  0  0  0  0
 12 13  1  0  0  0  0
 13 14  1  0  0  0  0
  2  7  1  0  0  0  0
 14 15  1  0  0  0  0
  7  8  1  0  0  0  0
  5 16  1  0  0  0  0
  1  2  1  0  0  0  0
 16 17  1  0  0  0  0
  1  6  1  0  0  0  0
 17 18  1  0  0  0  0
  2  3  1  0  0  0  0
 14 19  1  0  0  0  0
  3  4  1  0  0  0  0
 19 20  2  0  0  0  0
  8  9  1  0  0  0  0
 19 21  1  0  0  0  0
  9 10  2  0  0  0  0
 21 22  1  0  0  0  0
 10 11  1  0  0  0  0
 22 23  1  0  0  0  0
 11  7  2  0  0  0  0
 23 24  1  0  0  0  0
M  END