
  SciTegic04091414352D

 51 55  0  0  0  0            999 V2000
   16.8583  -10.5285    0.0000 C   0  0
   16.8572  -11.3481    0.0000 C   0  0
   17.5652  -11.7570    0.0000 C   0  0
   17.5634  -10.1197    0.0000 C   0  0
   18.2720  -10.5249    0.0000 C   0  0
   18.2723  -11.3481    0.0000 C   0  0
   19.0553  -11.6023    0.0000 S   0  0
   19.5390  -10.9361    0.0000 C   0  0
   19.0549  -10.2704    0.0000 N   0  0
   20.3545  -10.9361    0.0000 C   0  0
   20.8351  -11.5970    0.0000 C   0  0
   21.6122  -11.3442    0.0000 N   0  0
   21.6119  -10.5270    0.0000 C   0  0
   20.8346  -10.2748    0.0000 S   0  0
   22.2728  -10.0463    0.0000 C   0  0
   22.1871   -9.2337    0.0000 C   0  0
   20.5828  -12.3743    0.0000 O   0  0
   19.3071   -9.4931    0.0000 C   0  0
   22.2735  -11.8243    0.0000 C   0  0
   22.1884  -12.6371    0.0000 C   0  0
   22.8491   -8.7545    0.0000 N   0  3
   22.7637   -7.9426    0.0000 C   0  0
   22.0164   -7.6097    0.0000 C   0  0
   21.3537   -8.0950    0.0000 C   0  0
   21.4423   -8.9052    0.0000 C   0  0
   23.5953   -9.0876    0.0000 C   0  0
   24.2569   -8.6079    0.0000 C   0  0
   25.0031   -8.9409    0.0000 C   0  0
   25.6647   -8.4612    0.0000 C   0  0
   26.4109   -8.7943    0.0000 C   0  0
   27.0725   -8.3145    0.0000 C   0  0
   27.8187   -8.6476    0.0000 N   0  0
   28.4803   -8.1679    0.0000 C   0  0
   29.2265   -8.5009    0.0000 C   0  0
   28.3956   -7.3551    0.0000 O   0  0
   29.8881   -8.0212    0.0000 C   0  0
   30.6343   -8.3543    0.0000 C   0  0
   31.2959   -7.8745    0.0000 C   0  0
   32.0421   -8.2076    0.0000 C   0  0  2  0  0  0
   32.2091   -9.0048    0.0000 S   0  0
   33.0218   -9.0909    0.0000 C   0  0
   32.7480   -7.7974    0.0000 C   0  0  2  0  0  0
   33.3521   -8.3431    0.0000 C   0  0  1  0  0  0
   34.0579   -7.9372    0.0000 N   0  0
   33.8899   -7.1406    0.0000 C   0  0
   33.0804   -7.0542    0.0000 N   0  0
   34.4377   -6.5341    0.0000 O   0  0
   32.1635   -7.2144    0.0000 H   0  0
   33.9258   -8.9189    0.0000 H   0  0
   16.1491  -11.7561    0.0000 F   0  0
   25.6342  -10.6152    0.0000 Cl  0  5
  1  2  2  0
  2  3  1  0
  3  6  2  0
  5  4  2  0
  4  1  1  0
  5  6  1  0
  6  7  1  0
  7  8  1  0
  8  9  1  0
  9  5  1  0
 10 11  1  0
 11 12  1  0
 12 13  1  0
 13 14  1  0
 14 10  1  0
  8 10  2  0
 13 15  2  0
 15 16  1  0
 11 17  2  0
  9 18  1  0
 12 19  1  0
 19 20  1  0
 16 21  2  0
 21 22  1  0
 22 23  2  0
 23 24  1  0
 24 25  2  0
 25 16  1  0
 21 26  1  0
 26 27  1  0
 27 28  1  0
 28 29  1  0
 29 30  1  0
 30 31  1  0
 31 32  1  0
 32 33  1  0
 33 34  1  0
 33 35  2  0
 34 36  1  0
 36 37  1  0
 37 38  1  0
 39 38  1  1
 39 40  1  0
 40 41  1  0
 41 43  1  0
 42 39  1  0
 42 43  1  0
 43 44  1  0
 44 45  1  0
 45 46  1  0
 46 42  1  0
 45 47  2  0
 42 48  1  6
 43 49  1  6
  2 50  1  0
M  CHG  2  21   1  51  -1
M  END