
  SciTegic05071316162D

 19 20  0  0  0  0            999 V2000
   28.2734  -22.0873    0.0000 C   0  0
   28.2722  -22.9146    0.0000 C   0  0
   28.9871  -23.3275    0.0000 C   0  0
   29.7035  -22.9142    0.0000 C   0  0
   29.7006  -22.0837    0.0000 C   0  0
   28.9853  -21.6745    0.0000 C   0  0
   27.5588  -21.6750    0.0000 C   0  0  2  0  0  0
   26.8444  -22.0876    0.0000 C   0  0
   26.1299  -21.6753    0.0000 C   0  0
   25.4155  -22.0880    0.0000 N   0  0
   24.6624  -21.7487    0.0000 N   0  0
   24.1106  -22.3619    0.0000 C   0  0
   24.5233  -23.0763    0.0000 N   0  0
   25.3301  -22.9044    0.0000 C   0  0
   27.5587  -20.8500    0.0000 C   0  0
   28.2730  -20.4373    0.0000 C   0  0
   28.9876  -20.8496    0.0000 C   0  0
   29.7019  -20.4370    0.0000 C   0  0
   30.4186  -23.3255    0.0000 C   0  0
  1  2  2  0
  2  3  1  0
  3  4  2  0
  4  5  1  0
  5  6  2  0
  6  1  1  0
  1  7  1  0
  7  8  1  0
  8  9  1  0
  9 10  1  0
 10 11  1  0
 11 12  2  0
 12 13  1  0
 13 14  2  0
 14 10  1  0
  7 15  1  6
 15 16  1  0
 16 17  1  0
 17 18  1  0
  4 19  1  0
M  END