
  SciTegic09081514182D

 73 81  0  0  0  0            999 V2000
    0.0388   -7.5016    0.0000 N   0  0
    0.0254   -6.0008    0.0000 C   0  0
   -1.2788   -5.2598    0.0000 C   0  0
   -1.2891   -3.7598    0.0000 C   0  0
    0.0046   -3.0009    0.0000 C   0  0
    1.3089   -3.7420    0.0000 C   0  0
    1.3192   -5.2419    0.0000 C   0  0
    0.0000   -1.5002    0.0000 C   0  0
    0.0000    1.5002    0.0000 O   0  0
   -1.2989   -0.7501    0.0000 C   0  0
   -1.2989    0.7501    0.0000 C   0  0
   -2.5978    1.5002    0.0000 C   0  0
   -3.8968    0.7501    0.0000 C   0  0
   -3.8968   -0.7501    0.0000 C   0  0
   -2.5978   -1.5002    0.0000 C   0  0
    1.2806    0.7501    0.0000 C   0  0
    1.2806   -0.7501    0.0000 C   0  0
    2.5978   -1.5002    0.0000 C   0  0
    3.8968   -0.7501    0.0000 C   0  0
    3.8968    0.7501    0.0000 C   0  0
    2.5978    1.5002    0.0000 C   0  0
   -4.9360    1.3500    0.0000 O   0  0
   -2.5955   -3.0210    0.0000 C   0  0
   -3.6297   -3.6296    0.0000 O   0  0
   -2.6041   -2.0211    0.0000 O   0  0
    4.9360    1.3500    0.0000 O   0  0
   -1.1804  -21.7197    0.0000 C   0  0
    0.1199  -20.9719    0.0000 C   0  0
    0.1222  -19.4718    0.0000 C   0  0
   -1.1756  -18.7197    0.0000 C   0  0
   -2.4759  -19.4676    0.0000 C   0  0
   -2.4783  -20.9676    0.0000 C   0  0
   -3.7808  -21.7133    0.0000 N   0  0
   -5.0782  -20.9589    0.0000 C   0  0
   -1.1824  -22.9197    0.0000 C   0  0
   -6.3807  -21.7046    0.0000 C   0  0
   -5.0742  -19.7589    0.0000 O   0  0
   -7.6786  -20.9525    0.0000 C   0  0
   -8.9789  -21.7004    0.0000 C   0  0
   -8.9813  -23.2004    0.0000 C   0  0
   -7.6835  -23.9525    0.0000 C   0  0
   -6.3833  -23.2047    0.0000 C   0  0
    1.4196  -21.7222    0.0000 C   0  0
    1.4196  -23.2223    0.0000 C   0  0
    2.7186  -23.9723    0.0000 N   0  0
    4.0176  -23.2223    0.0000 C   0  0
    4.0177  -21.7223    0.0000 C   0  0
    2.7186  -20.9723    0.0000 N   0  0
  -10.2823  -23.9487    0.0000 C   0  0
  -11.3209  -23.3477    0.0000 C   0  0
  -10.2839  -25.1487    0.0000 C   0  0
  -11.3222  -24.5475    0.0000 C   0  0
    2.7186  -25.1723    0.0000 C   0  0
    5.0568  -23.8223    0.0000 O   0  0
    5.3160  -20.9692    0.0000 N   0  0
    5.3139  -19.4684    0.0000 C   0  0
    6.6104  -18.7139    0.0000 C   0  0
    6.6052  -17.2139    0.0000 C   0  0
    5.3036  -16.4683    0.0000 C   0  0
    4.0071  -17.2229    0.0000 C   0  0
    4.0123  -18.7229    0.0000 C   0  0
    5.2954  -14.9675    0.0000 C   0  0
    6.3315  -14.3622    0.0000 O   0  0
    3.9920  -14.2234    0.0000 N   0  0
    3.9816  -12.7234    0.0000 C   0  0
    2.6775  -11.9823    0.0000 C   0  0
    1.3836  -12.7414    0.0000 O   0  0
    1.3940  -14.2413    0.0000 C   0  0
    2.6982  -14.9824    0.0000 C   0  0
    2.6641  -10.4816    0.0000 C   0  0
    1.3581   -9.7420    0.0000 N   0  0
    1.3447   -8.2412    0.0000 C   0  0
    2.3787   -7.6323    0.0000 S   0  0
  1  2  1  0
  2  3  2  0
  3  4  1  0
  4  5  2  0
  5  6  1  0
  6  7  2  0
  7  2  1  0
  8 17  1  0
  8 10  2  0
 16  9  1  0
  9 11  1  0
  5  8  1  0
 10 11  1  0
 10 15  1  0
 11 12  2  0
 12 13  1  0
 13 14  1  0
 14 15  2  0
 16 17  2  0
 17 18  1  0
 18 19  2  0
 19 20  1  0
 20 21  2  0
 21 16  1  0
 13 22  2  0
  4 23  1  0
 23 24  2  0
 23 25  1  0
 20 26  1  0
 27 28  2  0
 28 29  1  0
 29 30  2  0
 30 31  1  0
 31 32  2  0
 32 27  1  0
 32 33  1  0
 33 34  1  0
 27 35  1  0
 34 36  1  0
 34 37  2  0
 36 38  2  0
 38 39  1  0
 39 40  2  0
 40 41  1  0
 41 42  2  0
 42 36  1  0
 43 44  2  0
 44 45  1  0
 45 46  1  0
 46 47  1  0
 47 48  2  0
 48 43  1  0
 28 43  1  0
 40 49  1  0
 49 50  1  0
 49 51  1  0
 49 52  1  0
 45 53  1  0
 46 54  2  0
 47 55  1  0
 55 56  1  0
 56 57  2  0
 57 58  1  0
 58 59  2  0
 59 60  1  0
 60 61  2  0
 61 56  1  0
 59 62  1  0
 62 63  2  0
 62 64  1  0
 64 65  1  0
 64 69  1  0
 65 66  1  0
 66 67  1  0
 67 68  1  0
 68 69  1  0
 66 70  1  0
 70 71  1  0
 71 72  1  0
 72  1  1  0
 72 73  2  0
M  END