
  SciTegic12231509382D

 16 16  0  0  0  0            999 V2000
    2.1427   -3.3082    0.0000 S   0  0
    1.3134   -3.3082    0.0000 O   0  0
    2.9675   -3.3082    0.0000 O   0  0
    2.1427   -4.1331    0.0000 O   0  0
    3.5772    0.0000    0.0000 O   0  0
    4.2944   -1.2462    0.0000 O   0  0
    0.7173    0.0000    0.0000 O   0  0
    0.0000   -1.2462    0.0000 O   0  0
    2.1427   -2.4789    0.0000 C   0  0
    2.8600   -1.2462    0.0000 C   0  0
    1.4345   -1.2462    0.0000 C   0  0
    2.8600   -2.0710    0.0000 C   0  0
    1.4345   -2.0710    0.0000 C   0  0
    2.1427   -0.8248    0.0000 C   0  0
    3.5772   -0.8248    0.0000 C   0  0
    0.7173   -0.8248    0.0000 C   0  0
  1  2  2  0
  1  3  2  0
  1  4  1  0
  1  9  1  0
  5 15  1  0
  6 15  2  0
  7 16  2  0
  8 16  1  0
  9 12  1  0
  9 13  2  0
 10 12  2  0
 10 14  1  0
 10 15  1  0
 11 13  1  0
 11 14  2  0
 11 16  1  0
M  END