
  Mrv0541 04051115152D          

 23 25  0  0  0  0            999 V2000
   -1.7334   -2.9484    0.0000 S   0  0  0  0  0  0  0  0  0  0  0  0
   -1.4785   -3.7330    0.0000 C   0  0  0  0  0  0  0  0  0  0  0  0
   -0.6535   -3.7330    0.0000 C   0  0  0  0  0  0  0  0  0  0  0  0
   -0.3985   -2.9484    0.0000 N   0  0  0  0  0  0  0  0  0  0  0  0
   -1.0660   -2.4635    0.0000 C   0  0  0  0  0  0  0  0  0  0  0  0
   -1.0660   -1.6385    0.0000 N   0  0  0  0  0  0  0  0  0  0  0  0
   -0.3515   -1.2260    0.0000 C   0  0  0  0  0  0  0  0  0  0  0  0
    0.3630   -1.6385    0.0000 O   0  0  0  0  0  0  0  0  0  0  0  0
   -1.0660    0.0115    0.0000 C   0  0  0  0  0  0  0  0  0  0  0  0
   -0.3515   -0.4010    0.0000 C   0  0  0  0  0  0  0  0  0  0  0  0
    0.3630    0.0115    0.0000 C   0  0  0  0  0  0  0  0  0  0  0  0
    0.3630    0.8365    0.0000 C   0  0  0  0  0  0  0  0  0  0  0  0
   -0.3515    1.2490    0.0000 C   0  0  0  0  0  0  0  0  0  0  0  0
   -0.3515    2.0740    0.0000 F   0  0  0  0  0  0  0  0  0  0  0  0
   -1.0660    0.8365    0.0000 C   0  0  0  0  0  0  0  0  0  0  0  0
    1.0774    1.2490    0.0000 S   0  0  0  0  0  0  0  0  0  0  0  0
    1.7449    2.5590    0.0000 N   0  0  0  0  0  0  0  0  0  0  0  0
    1.0774    2.0740    0.0000 C   0  0  0  0  0  0  0  0  0  0  0  0
    0.4100    2.5590    0.0000 N   0  0  0  0  0  0  0  0  0  0  0  0
    0.6649    3.3436    0.0000 C   0  0  0  0  0  0  0  0  0  0  0  0
    1.4899    3.3436    0.0000 C   0  0  0  0  0  0  0  0  0  0  0  0
    2.5295    2.3040    0.0000 C   0  0  0  0  0  0  0  0  0  0  0  0
   -1.7804   -0.4010    0.0000 N   0  0  0  0  0  0  0  0  0  0  0  0
  2  1  1  0  0  0  0
  5  1  1  0  0  0  0
  2  3  2  0  0  0  0
  3  4  1  0  0  0  0
  5  4  2  0  0  0  0
  5  6  1  0  0  0  0
  7  6  1  0  0  0  0
  7  8  2  0  0  0  0
 10  7  1  0  0  0  0
 10  9  2  0  0  0  0
 15  9  1  0  0  0  0
  9 23  1  0  0  0  0
 10 11  1  0  0  0  0
 11 12  2  0  0  0  0
 12 13  1  0  0  0  0
 12 16  1  0  0  0  0
 13 14  1  0  0  0  0
 13 15  2  0  0  0  0
 18 16  1  0  0  0  0
 18 17  1  0  0  0  0
 21 17  1  0  0  0  0
 22 17  1  0  0  0  0
 18 19  2  0  0  0  0
 20 19  1  0  0  0  0
 20 21  2  0  0  0  0
M  END