
  SciTegic10311316262D

 30 32  0  0  0  0            999 V2000
    2.2763  -31.6915    0.0000 C   0  0
    2.2752  -32.5189    0.0000 C   0  0
    2.9900  -32.9318    0.0000 C   0  0
    3.7064  -32.5184    0.0000 C   0  0
    3.7036  -31.6879    0.0000 C   0  0
    2.9882  -31.2788    0.0000 C   0  0
    4.4165  -31.2727    0.0000 N   0  0
    5.1325  -31.6825    0.0000 C   0  0
    5.8454  -31.2673    0.0000 C   0  0
    5.1356  -32.5075    0.0000 O   0  0
    6.5614  -31.6771    0.0000 S   0  0
    7.2743  -31.2619    0.0000 C   0  0
    7.9902  -31.6749    0.0000 N   0  0
    8.7010  -31.2632    0.0000 C   0  0
    8.7022  -30.4379    0.0000 C   0  0
    7.9863  -30.0259    0.0000 C   0  0
    7.2693  -30.4392    0.0000 N   0  0
    7.9860  -29.2009    0.0000 O   0  0
    9.4173  -30.0297    0.0000 C   0  0
   10.1318  -29.6172    0.0000 N   0  0
    9.4138  -31.6749    0.0000 C   0  0
    9.4125  -32.5010    0.0000 C   0  0
   10.1261  -32.9134    0.0000 C   0  0
   10.8416  -32.5009    0.0000 C   0  0
   10.8389  -31.6716    0.0000 C   0  0
   10.1247  -31.2629    0.0000 C   0  0
   11.5566  -32.9124    0.0000 Cl  0  0
    1.5618  -31.2792    0.0000 Cl  0  0
    1.5604  -32.9308    0.0000 O   0  0
    0.8510  -32.5178    0.0000 C   0  0
  1  2  2  0
  2  3  1  0
  3  4  2  0
  4  5  1  0
  5  6  2  0
  6  1  1  0
  5  7  1  0
  7  8  1  0
  8  9  1  0
  8 10  2  0
  9 11  1  0
 11 12  1  0
 12 13  2  0
 12 17  1  0
 13 14  1  0
 14 15  2  0
 15 16  1  0
 16 17  1  0
 16 18  2  0
 19 20  3  0
 15 19  1  0
 21 22  2  0
 22 23  1  0
 23 24  2  0
 24 25  1  0
 25 26  2  0
 26 21  1  0
 14 21  1  0
 24 27  1  0
  1 28  1  0
  2 29  1  0
 29 30  1  0
M  END