
  SciTegic02011310462D

 32 35  0  0  0  0            999 V2000
   17.5124  -12.9427    0.0000 C   0  0
   15.3750  -11.6995    0.0000 C   0  0
   15.3824  -10.8728    0.0000 O   0  0
   17.5141  -12.1188    0.0000 C   0  0
   16.0901  -12.1180    0.0000 C   0  0
   16.8081  -10.8822    0.0000 C   0  0
   16.8031  -11.7030    0.0000 N   0  0
   18.2218  -14.1825    0.0000 O   0  0
   18.2235  -13.3588    0.0000 C   0  0
   16.1013  -10.4664    0.0000 C   0  0
   14.1295  -16.2999    0.0000 N   0  0
   19.6883  -16.8956    0.0000 C   0  0
   18.6342  -15.1242    0.0000 O   0  0
   14.6019  -16.9749    0.0000 O   0  0
   18.9004  -17.1547    0.0000 C   0  0
   18.9067  -17.9796    0.0000 C   0  0
   17.5121  -14.6010    0.0000 C   0  0
   20.1779  -17.5610    0.0000 C   0  0
   16.7971  -14.1896    0.0000 C   0  0
   17.5151  -15.4318    0.0000 C   0  0
   14.6241  -15.6403    0.0000 C   0  0
   16.0846  -15.4322    0.0000 C   0  0
   16.0537  -17.2297    0.0000 C   0  0
   15.4043  -15.9061    0.0000 C   0  0
   16.0855  -14.6046    0.0000 C   0  0
   19.6923  -18.2293    0.0000 C   0  0
   18.2277  -15.8406    0.0000 S   0  0
   19.0529  -15.8358    0.0000 O   0  0
   18.2320  -16.6693    0.0000 N   0  0
   15.3907  -16.7313    0.0000 C   0  0
   16.7989  -15.8433    0.0000 C   0  0
   14.3817  -14.8552    0.0000 C   0  0
  7  6  1  0
  6 10  1  0
  1  4  1  0
  3  2  1  0
  9  1  1  0
  2  5  1  0
 10  3  1  0
  7  5  1  0
  8  9  1  0
  4  7  1  0
 28 27  2  0
 16 26  1  0
 22 31  1  0
 19 25  1  0
 30 24  2  0
 20 27  1  0
 27 13  2  0
 25 22  2  0
 18 12  1  0
 11 14  1  0
 14 30  1  0
 29 15  1  0
 22 24  1  0
 17 19  2  0
 15 16  1  0
 20 17  1  0
 12 15  1  0
 26 18  1  0
 27 29  1  0
 21 11  2  0
 30 23  1  0
 31 20  2  0
 24 21  1  0
 17  8  1  0
 21 32  1  0
M  END