
  SciTegic09071217122D

 19 19  0  0  0  0            999 V2000
   -0.6249   -1.6494    0.0000 O   0  0
   -1.3394   -1.2369    0.0000 C   0  0  2  0  0  0
   -2.0538   -1.6494    0.0000 C   0  0  1  0  0  0
   -2.0538   -2.4744    0.0000 O   0  0
   -2.7683   -1.2369    0.0000 C   0  0  1  0  0  0
   -3.4828   -1.6494    0.0000 O   0  0
   -2.7683   -0.4119    0.0000 C   0  0  2  0  0  0
   -3.4828    0.0006    0.0000 O   0  0
   -2.0538    0.0006    0.0000 C   0  0  2  0  0  0
   -1.3394   -0.4119    0.0000 O   0  0
   -2.0538    0.8256    0.0000 C   0  0
   -1.3394    1.2381    0.0000 O   0  0
    0.0896   -1.2369    0.0000 C   0  0
    0.8041   -1.6494    0.0000 C   0  0
    1.5185   -1.2369    0.0000 C   0  0
    2.2330   -1.6494    0.0000 C   0  0
    2.9475   -1.2369    0.0000 C   0  0
    3.6619   -1.6494    0.0000 C   0  0
    4.3764   -1.2369    0.0000 C   0  0
  2  1  1  6
  2  3  1  0
  3  4  1  1
  3  5  1  0
  5  6  1  1
  5  7  1  0
  7  8  1  6
  7  9  1  0
  9 10  1  0
  9 11  1  1
 11 12  1  0
  2 10  1  0
 13 14  1  0
 14 15  1  0
 15 16  1  0
 16 17  1  0
 17 18  1  0
 18 19  1  0
  1 13  1  0
M  END