
          03140815512D 1   1.00000     0.00000     0

 25 26  0     1  0            999 V2000
   -1.9261  -16.9253    0.0000 C   0  0  0  0  0  0           0  0  0
   -2.6381  -17.3477    0.0000 C   0  0  0  0  0  0           0  0  0
   -2.6276  -18.1729    0.0000 N   0  0  0  0  0  0           0  0  0
   -1.9085  -18.5778    0.0000 C   0  0  0  0  0  0           0  0  0
   -1.1963  -18.1554    0.0000 C   0  0  0  0  0  0           0  0  0
   -1.2033  -17.3280    0.0000 N   0  0  0  0  0  0           0  0  0
   -1.9403  -16.0980    0.0000 C   0  0  0  0  0  0           0  0  0
   -1.9014  -19.4073    0.0000 O   0  0  0  0  0  0           0  0  0
   -3.3566  -16.9446    0.0000 C   0  0  0  0  0  0           0  0  0
   -0.4799  -18.5694    0.0000 C   0  0  0  0  0  0           0  0  0
    0.2390  -18.1596    0.0000 N   0  0  0  0  0  0           0  0  0
    0.9501  -18.5753    0.0000 C   0  0  0  0  0  0           0  0  0
    1.6662  -17.3419    0.0000 N   0  0  0  0  0  0           0  0  0
    1.6621  -18.1657    0.0000 C   0  0  1  0  0  0           0  0  0
    2.3749  -18.5811    0.0000 C   0  0  0  0  0  0           0  0  0
    3.0877  -18.1727    0.0000 C   0  0  0  0  0  0           0  0  0
    3.0917  -17.3489    0.0000 C   0  0  0  0  0  0           0  0  0
    3.8086  -16.9406    0.0000 C   0  0  0  0  0  0           0  0  0
    4.5214  -17.3560    0.0000 C   0  0  0  0  0  0           0  0  0
    5.2382  -16.9475    0.0000 O   0  0  0  0  0  0           0  0  0
    4.5174  -18.1798    0.0000 C   0  0  0  0  0  0           0  0  0
    3.8005  -18.5881    0.0000 C   0  0  0  0  0  0           0  0  0
    0.9454  -19.3980    0.0000 O   0  0  0  0  0  0           0  0  0
    3.7964  -19.4119    0.0000 C   0  0  0  0  0  0           0  0  0
    2.3830  -16.9335    0.0000 C   0  0  0  0  0  0           0  0  0
  5  6  2  0     0  0
  1  7  1  0     0  0
  1  2  2  0     0  0
  4  8  2  0     0  0
  1  6  1  0     0  0
  2  9  1  0     0  0
  2  3  1  0     0  0
  5 10  1  0     0  0
  3  4  1  0     0  0
 10 11  1  0     0  0
  4  5  1  0     0  0
 11 12  1  0     0  0
 14 13  1  1     0  0
 12 14  1  0     0  0
 14 15  1  0     0  0
 15 16  1  0     0  0
 16 17  2  0     0  0
 17 18  1  0     0  0
 18 19  2  0     0  0
 19 20  1  0     0  0
 19 21  1  0     0  0
 21 22  2  0     0  0
 16 22  1  0     0  0
 12 23  2  0     0  0
 22 24  1  0     0  0
 17 25  1  0     0  0
M  END