
          11280714542D 1   1.00000     0.00000     0

 50 54  0     1  0            999 V2000
    7.9792   -4.5792    0.0000 C   0  0  0  0  0  0           0  0  0
    8.6875   -4.1667    0.0000 C   0  0  0  0  0  0           0  0  0
    9.4042   -4.5667    0.0000 N   0  0  3  0  0  0           0  0  0
    7.2667   -4.1750    0.0000 N   0  0  0  0  0  0           0  0  0
    4.4042   -4.1875    0.0000 C   0  0  0  0  0  0           0  0  0
    6.5542   -4.5917    0.0000 C   0  0  0  0  0  0           0  0  0
    3.6917   -4.6000    0.0000 C   0  0  3  0  0  0           0  0  0
    5.1250   -4.5917    0.0000 N   0  0  0  0  0  0           0  0  0
    7.9792   -5.4042    0.0000 C   0  0  0  0  0  0           0  0  0
    9.4125   -5.4000    0.0000 C   0  0  0  0  0  0           0  0  0
    2.9792   -4.1917    0.0000 C   0  0  0  0  0  0           0  0  0
    5.8375   -4.1792    0.0000 C   0  0  1  0  0  0           0  0  0
    4.1625   -0.4792    0.0000 C   0  0  3  0  0  0           0  0  0
    8.6917   -5.8167    0.0000 C   0  0  0  0  0  0           0  0  0
    3.3375   -0.4875    0.0000 C   0  0  0  0  0  0           0  0  0
    2.2667   -4.6042    0.0000 C   0  0  0  0  0  0           0  0  0
   10.1167   -4.1542    0.0000 C   0  0  0  0  0  0           0  0  0
    4.5792   -1.1917    0.0000 C   0  0  0  0  0  0           0  0  0
    8.6792   -3.3417    0.0000 O   0  0  0  0  0  0           0  0  0
    4.4042   -3.3625    0.0000 O   0  0  0  0  0  0           0  0  0
    1.5500   -4.1917    0.0000 C   0  0  0  0  0  0           0  0  0
    6.5542   -5.4167    0.0000 O   0  0  0  0  0  0           0  0  0
    5.8292   -3.3542    0.0000 C   0  0  0  0  0  0           0  0  0
    2.9750   -3.3625    0.0000 C   0  0  0  0  0  0           0  0  0
    2.9292   -1.2042    0.0000 O   0  0  0  0  0  0           0  0  0
    1.5500   -3.3667    0.0000 C   0  0  0  0  0  0           0  0  0
    2.2542   -2.9542    0.0000 C   0  0  0  0  0  0           0  0  0
    4.1625   -1.9250    0.0000 C   0  0  0  0  0  0           0  0  0
    5.4125   -1.1917    0.0000 C   0  0  0  0  0  0           0  0  0
   10.8292   -4.5625    0.0000 C   0  0  0  0  0  0           0  0  0
    5.4167   -2.6375    0.0000 C   0  0  0  0  0  0           0  0  0
    2.9167    0.2250    0.0000 O   0  0  0  0  0  0           0  0  0
   12.2625   -5.3750    0.0000 C   0  0  0  0  0  0           0  0  0
    5.8292   -1.9125    0.0000 C   0  0  0  0  0  0           0  0  0
    4.5792   -2.6417    0.0000 C   0  0  0  0  0  0           0  0  0
   10.8292   -5.3875    0.0000 C   0  0  0  0  0  0           0  0  0
   11.5375   -4.1417    0.0000 C   0  0  0  0  0  0           0  0  0
   12.2542   -4.5417    0.0000 C   0  0  0  0  0  0           0  0  0
   11.5500   -5.7917    0.0000 C   0  0  0  0  0  0           0  0  0
    2.9792   -5.0042    0.0000 C   0  0  0  0  0  0           0  0  0
    3.6917   -5.4250    0.0000 C   0  0  0  0  0  0           0  0  0
    4.1542    0.3458    0.0000 C   0  0  0  0  0  0           0  0  0
    4.9542   -0.2667    0.0000 C   0  0  0  0  0  0           0  0  0
   12.9792   -5.7792    0.0000 O   0  0  0  0  0  0           0  0  0
    7.2667   -5.8167    0.0000 C   0  0  0  0  0  0           0  0  0
    0.8292   -4.6125    0.0000 C   0  0  0  0  0  0           0  0  0
    0.8292   -2.9542    0.0000 C   0  0  0  0  0  0           0  0  0
   12.9875   -6.6042    0.0000 C   0  0  0  0  0  0           0  0  0
    0.1167   -4.1917    0.0000 C   0  0  0  0  0  0           0  0  0
    0.1167   -3.3750    0.0000 C   0  0  0  0  0  0           0  0  0
  2  1  1  0     0  0
  3  2  1  0     0  0
  4  1  1  0     0  0
  5  8  1  0     0  0
  6  4  1  0     0  0
  7  5  1  0     0  0
  8 12  1  0     0  0
  9  1  2  0     0  0
 10 14  2  0     0  0
 11  7  1  0     0  0
 12  6  1  0     0  0
 13 18  1  0     0  0
 14  9  1  0     0  0
 15 13  1  0     0  0
 16 11  2  0     0  0
 17  3  1  0     0  0
 18 28  1  0     0  0
 19  2  2  0     0  0
 20  5  2  0     0  0
 21 16  1  0     0  0
 22  6  2  0     0  0
 12 23  1  1     0  0
 24 11  1  0     0  0
 25 15  2  0     0  0
 26 27  1  0     0  0
 27 24  2  0     0  0
 28 35  2  0     0  0
 29 34  1  0     0  0
 30 17  1  0     0  0
 31 23  1  0     0  0
 32 15  1  0     0  0
 33 38  1  0     0  0
 34 31  2  0     0  0
 35 31  1  0     0  0
 36 30  2  0     0  0
 37 30  1  0     0  0
 38 37  2  0     0  0
 39 36  1  0     0  0
 40  7  1  0     0  0
 41  7  1  0     0  0
 42 13  1  0     0  0
 43 13  1  0     0  0
 44 33  1  0     0  0
 45  9  1  0     0  0
 46 21  2  0     0  0
 47 26  2  0     0  0
 48 44  1  0     0  0
 49 46  1  0     0  0
 50 47  1  0     0  0
 10  3  1  0     0  0
 33 39  2  0     0  0
 18 29  2  0     0  0
 21 26  1  0     0  0
 49 50  2  0     0  0
M  END