
          11280715142D 1   1.00000     0.00000     0

 39 43  0     1  0            999 V2000
    2.4292   -3.0125    0.0000 C   0  0  2  0  0  0           0  0  0
    2.8375   -3.7250    0.0000 C   0  0  1  0  0  0           0  0  0
    1.7667   -2.5000    0.0000 C   0  0  0  0  0  0           0  0  0
    2.4125   -1.1417    0.0000 N   0  0  3  0  0  0           0  0  0
    1.7667   -1.6667    0.0000 C   0  0  0  0  0  0           0  0  0
    2.6292   -5.2292    0.0000 C   0  0  0  0  0  0           0  0  0
    3.2375   -2.8167    0.0000 N   0  0  0  0  0  0           0  0  0
    3.2167   -1.3250    0.0000 C   0  0  0  0  0  0           0  0  0
    3.6292   -3.9375    0.0000 C   0  0  0  0  0  0           0  0  0
    2.4167   -4.4375    0.0000 O   0  0  0  0  0  0           0  0  0
    2.0417   -5.8125    0.0000 N   0  0  0  0  0  0           0  0  0
    3.4167   -5.4417    0.0000 N   0  0  0  0  0  0           0  0  0
    2.1542   -0.3542    0.0000 C   0  0  0  0  0  0           0  0  0
    3.5917   -2.0667    0.0000 C   0  0  0  0  0  0           0  0  0
    1.8417   -3.5917    0.0000 C   0  0  0  0  0  0           0  0  0
    3.6375   -6.2292    0.0000 C   0  0  0  0  0  0           0  0  0
    2.2542   -6.6042    0.0000 C   0  0  0  0  0  0           0  0  0
    3.0542   -6.8167    0.0000 C   0  0  0  0  0  0           0  0  0
    3.7292   -0.6750    0.0000 O   0  0  0  0  0  0           0  0  0
    3.8417   -4.7292    0.0000 O   0  0  0  0  0  0           0  0  0
    2.7125    0.2500    0.0000 C   0  0  0  0  0  0           0  0  0
    4.4292   -3.7167    0.0000 O   0  0  0  0  0  0           0  0  0
    1.0542   -2.9125    0.0000 C   0  0  0  0  0  0           0  0  0
    1.0542   -1.2542    0.0000 C   0  0  0  0  0  0           0  0  0
    2.4542    1.0375    0.0000 C   0  0  0  0  0  0           0  0  0
    1.0417   -3.3667    0.0000 C   0  0  0  0  0  0           0  0  0
    2.0500   -4.3917    0.0000 C   0  0  0  0  0  0           0  0  0
    4.4292   -6.4417    0.0000 C   0  0  0  0  0  0           0  0  0
    1.6750   -7.1917    0.0000 C   0  0  0  0  0  0           0  0  0
    3.0167    1.6458    0.0000 C   0  0  0  0  0  0           0  0  0
    1.6542    1.2083    0.0000 C   0  0  0  0  0  0           0  0  0
    0.3417   -2.5000    0.0000 C   0  0  0  0  0  0           0  0  0
    0.3417   -1.6750    0.0000 C   0  0  0  0  0  0           0  0  0
    1.4542   -4.9667    0.0000 C   0  0  0  0  0  0           0  0  0
    0.4542   -3.9417    0.0000 C   0  0  0  0  0  0           0  0  0
    1.4000    1.9875    0.0000 C   0  0  0  0  0  0           0  0  0
    2.7625    2.4333    0.0000 C   0  0  0  0  0  0           0  0  0
    0.6542   -4.7417    0.0000 C   0  0  0  0  0  0           0  0  0
    1.9542    2.6083    0.0000 C   0  0  0  0  0  0           0  0  0
  2  1  1  0     0  0
  3  1  1  0     0  0
  4  5  1  0     0  0
  5  3  1  0     0  0
  6 10  1  0     0  0
  7  1  1  0     0  0
  8 14  1  0     0  0
  9  2  1  0     0  0
  2 10  1  1     0  0
 11  6  2  0     0  0
 12  6  1  0     0  0
 13  4  1  0     0  0
 14  7  1  0     0  0
  1 15  1  1     0  0
 16 12  2  0     0  0
 17 11  1  0     0  0
 18 16  1  0     0  0
 19  8  2  0     0  0
 20  9  2  0     0  0
 21 13  1  0     0  0
 22  9  1  0     0  0
 23  3  2  0     0  0
 24  5  2  0     0  0
 25 21  1  0     0  0
 26 15  2  0     0  0
 27 15  1  0     0  0
 28 16  1  0     0  0
 29 17  1  0     0  0
 30 25  2  0     0  0
 31 25  1  0     0  0
 32 23  1  0     0  0
 33 32  2  0     0  0
 34 27  2  0     0  0
 35 26  1  0     0  0
 36 31  2  0     0  0
 37 30  1  0     0  0
 38 34  1  0     0  0
 39 36  1  0     0  0
  4  8  1  0     0  0
 35 38  2  0     0  0
 24 33  1  0     0  0
 17 18  2  0     0  0
 37 39  2  0     0  0
M  END