
          11280714522D 1   1.00000     0.00000     0

 55 59  0     1  0            999 V2000
    7.4417   -3.8000    0.0000 N   0  0  0  0  0  0           0  0  0
    7.8042   -3.0417    0.0000 C   0  0  2  0  0  0           0  0  0
    6.6292   -2.1125    0.0000 N   0  0  3  0  0  0           0  0  0
    7.4417   -2.2917    0.0000 C   0  0  0  0  0  0           0  0  0
    6.6292   -3.9875    0.0000 C   0  0  0  0  0  0           0  0  0
    5.9792   -3.4667    0.0000 C   0  0  0  0  0  0           0  0  0
    8.6292   -3.0417    0.0000 N   0  0  0  0  0  0           0  0  0
    5.9792   -2.6375    0.0000 C   0  0  0  0  0  0           0  0  0
    1.1250   -9.3000    0.0000 C   0  0  0  0  0  0           0  0  0
    1.5542   -8.5917    0.0000 N   0  0  0  0  0  0           0  0  0
    9.0417   -3.7542    0.0000 C   0  0  0  0  0  0           0  0  0
    0.3000   -9.3667    0.0000 C   0  0  0  0  0  0           0  0  0
    8.6292   -7.3250    0.0000 C   0  0  0  0  0  0           0  0  0
    1.6667   -9.9292    0.0000 S   0  0  0  0  0  0           0  0  0
    2.3625   -8.7792    0.0000 C   0  0  0  0  0  0           0  0  0
   -0.0500  -10.1167    0.0000 C   0  0  0  0  0  0           0  0  0
    9.0500   -8.0375    0.0000 N   0  0  0  0  0  0           0  0  0
    6.5750   -9.4667    0.0000 C   0  0  0  0  0  0           0  0  0
    7.4000   -9.4667    0.0000 C   0  0  0  0  0  0           0  0  0
    2.4292   -9.6042    0.0000 C   0  0  0  0  0  0           0  0  0
    6.1625   -8.7542    0.0000 C   0  0  0  0  0  0           0  0  0
    9.8667   -3.7542    0.0000 N   0  0  0  0  0  0           0  0  0
    7.8125   -8.7542    0.0000 N   0  0  0  0  0  0           0  0  0
    7.9542   -1.6417    0.0000 O   0  0  0  0  0  0           0  0  0
    8.6375   -8.7542    0.0000 C   0  0  0  0  0  0           0  0  0
    6.4500   -4.7917    0.0000 C   0  0  0  0  0  0           0  0  0
    8.6292   -4.4667    0.0000 O   0  0  0  0  0  0           0  0  0
    7.8042   -7.3250    0.0000 O   0  0  0  0  0  0           0  0  0
    9.0417   -6.6042    0.0000 O   0  0  0  0  0  0           0  0  0
   10.2792   -4.4667    0.0000 C   0  0  0  0  0  0           0  0  0
    7.8125  -10.1792    0.0000 O   0  0  0  0  0  0           0  0  0
    6.5750   -8.0417    0.0000 O   0  0  0  0  0  0           0  0  0
    0.4167  -10.7917    0.0000 N   0  0  0  0  0  0           0  0  0
   -0.8708  -10.1792    0.0000 N   0  0  0  0  0  0           0  0  0
    5.3375   -8.7542    0.0000 N   0  0  0  0  0  0           0  0  0
    6.4417   -1.3042    0.0000 C   0  0  0  0  0  0           0  0  0
    9.8667   -5.1792    0.0000 C   0  0  0  0  0  0           0  0  0
    9.8667   -6.6042    0.0000 C   0  0  0  0  0  0           0  0  0
    5.2625   -3.8792    0.0000 C   0  0  0  0  0  0           0  0  0
   10.2792   -5.8917    0.0000 C   0  0  0  0  0  0           0  0  0
    3.7292   -8.3750    0.0000 S   0  0  0  0  0  0           0  0  0
    2.9292   -8.1792    0.0000 C   0  0  0  0  0  0           0  0  0
    5.2625   -2.2250    0.0000 C   0  0  0  0  0  0           0  0  0
   11.5167   -5.1667    0.0000 C   0  0  0  0  0  0           0  0  0
   11.1042   -4.4625    0.0000 C   0  0  0  0  0  0           0  0  0
    7.0542   -5.3417    0.0000 C   0  0  0  0  0  0           0  0  0
    5.6625   -5.0292    0.0000 C   0  0  0  0  0  0           0  0  0
    5.1000   -7.9667    0.0000 C   0  0  0  0  0  0           0  0  0
   11.1042   -5.8917    0.0000 C   0  0  0  0  0  0           0  0  0
    4.2917   -7.7750    0.0000 C   0  0  0  0  0  0           0  0  0
    4.5500   -3.4667    0.0000 C   0  0  0  0  0  0           0  0  0
    4.5500   -2.6375    0.0000 C   0  0  0  0  0  0           0  0  0
    6.8750   -6.1417    0.0000 C   0  0  0  0  0  0           0  0  0
    5.4792   -5.8292    0.0000 C   0  0  0  0  0  0           0  0  0
    6.0792   -6.3917    0.0000 C   0  0  0  0  0  0           0  0  0
  2  1  1  0     0  0
  3  4  1  0     0  0
  4  2  1  0     0  0
  5  1  2  0     0  0
  6  5  1  0     0  0
  2  7  1  6     0  0
  8  6  1  0     0  0
  9 10  2  0     0  0
 10 15  1  0     0  0
 11  7  1  0     0  0
 12  9  1  0     0  0
 13 29  1  0     0  0
 14 20  1  0     0  0
 15 42  1  0     0  0
 16 12  2  0     0  0
 17 13  1  0     0  0
 18 19  1  0     0  0
 19 23  1  0     0  0
 20 15  2  0     0  0
 21 18  1  0     0  0
 22 11  1  0     0  0
 23 25  1  0     0  0
 24  4  2  0     0  0
 25 17  1  0     0  0
 26  5  1  0     0  0
 27 11  2  0     0  0
 28 13  2  0     0  0
 29 38  1  0     0  0
 30 22  1  0     0  0
 31 19  2  0     0  0
 32 21  2  0     0  0
 33 16  1  0     0  0
 34 16  1  0     0  0
 35 21  1  0     0  0
 36  3  1  0     0  0
 37 30  2  0     0  0
 38 40  1  0     0  0
 39  6  2  0     0  0
 40 37  1  0     0  0
 41 50  1  0     0  0
 42 41  1  0     0  0
 43  8  2  0     0  0
 44 45  2  0     0  0
 45 30  1  0     0  0
 46 26  1  0     0  0
 47 26  2  0     0  0
 48 35  1  0     0  0
 49 44  1  0     0  0
 50 48  1  0     0  0
 51 39  1  0     0  0
 52 51  2  0     0  0
 53 46  2  0     0  0
 54 47  1  0     0  0
 55 54  2  0     0  0
  8  3  1  0     0  0
 53 55  1  0     0  0
 43 52  1  0     0  0
 40 49  2  0     0  0
 14  9  1  0     0  0
M  END