
          11280714442D 1   1.00000     0.00000     0

 21 22  0     0  0            999 V2000
    5.3167   -3.6250    0.0000 C   0  0  0  0  0  0           0  0  0
    6.0125   -3.1792    0.0000 C   0  0  0  0  0  0           0  0  0
    4.5792   -3.2417    0.0000 C   0  0  0  0  0  0           0  0  0
    6.7417   -3.5625    0.0000 O   0  0  0  0  0  0           0  0  0
    5.9750   -2.3542    0.0000 O   0  0  0  0  0  0           0  0  0
    9.6000   -3.4292    0.0000 N   0  0  0  0  0  0           0  0  0
    3.8917   -3.6917    0.0000 C   0  0  0  0  0  0           0  0  0
    8.1667   -3.4917    0.0000 C   0  0  3  0  0  0           0  0  0
    7.4375   -3.1167    0.0000 C   0  0  0  0  0  0           0  0  0
    8.8667   -3.0500    0.0000 C   0  0  0  0  0  0           0  0  0
    5.3542   -4.4417    0.0000 C   0  0  0  0  0  0           0  0  0
    8.2042   -4.3167    0.0000 O   0  0  0  0  0  0           0  0  0
    4.5417   -2.4167    0.0000 C   0  0  0  0  0  0           0  0  0
    4.6667   -4.8917    0.0000 C   0  0  0  0  0  0           0  0  0
   10.2917   -2.9875    0.0000 C   0  0  3  0  0  0           0  0  0
    3.9292   -4.5042    0.0000 C   0  0  0  0  0  0           0  0  0
    3.1542   -3.3125    0.0000 C   0  0  0  0  0  0           0  0  0
   11.0167   -3.3667    0.0000 C   0  0  0  0  0  0           0  0  0
   10.2542   -2.1625    0.0000 C   0  0  0  0  0  0           0  0  0
    3.8167   -2.0417    0.0000 C   0  0  0  0  0  0           0  0  0
    3.1167   -2.4875    0.0000 C   0  0  0  0  0  0           0  0  0
  2  1  1  0     0  0
  3  1  2  0     0  0
  4  2  1  0     0  0
  5  2  2  0     0  0
  6 10  1  0     0  0
  7  3  1  0     0  0
  8  9  1  0     0  0
  9  4  1  0     0  0
 10  8  1  0     0  0
 11  1  1  0     0  0
 12  8  1  0     0  0
 13  3  1  0     0  0
 14 11  2  0     0  0
 15  6  1  0     0  0
 16 14  1  0     0  0
 17  7  1  0     0  0
 18 15  1  0     0  0
 19 15  1  0     0  0
 20 13  2  0     0  0
 21 20  1  0     0  0
 16  7  2  0     0  0
 21 17  2  0     0  0
M  END