
          11280715102D 1   1.00000     0.00000     0

 31 32  0     1  0            999 V2000
    1.2750   -3.8042    0.0000 N   0  0  0  0  0  0           0  0  0
    1.7917   -3.5042    0.0000 C   0  0  0  0  0  0           0  0  0
    1.7917   -2.9042    0.0000 C   0  0  0  0  0  0           0  0  0
    0.7625   -2.9042    0.0000 N   0  0  0  0  0  0           0  0  0
    1.2750   -2.6042    0.0000 C   0  0  0  0  0  0           0  0  0
    0.7625   -3.5042    0.0000 C   0  0  0  0  0  0           0  0  0
    5.3417   -2.4000    0.0000 C   0  0  0  0  0  0           0  0  0
    5.9417   -2.4625    0.0000 C   0  0  0  0  0  0           0  0  0
    5.0417   -1.8792    0.0000 C   0  0  0  0  0  0           0  0  0
    4.9417   -2.8417    0.0000 S   0  0  0  0  0  0           0  0  0
    6.1792   -3.0042    0.0000 N   0  0  0  0  0  0           0  0  0
    4.4542   -2.0042    0.0000 C   0  0  0  0  0  0           0  0  0
    4.3917   -2.6000    0.0000 C   0  0  0  0  0  0           0  0  0
    7.1917   -2.5250    0.0000 C   0  0  0  0  0  0           0  0  0
    6.8417   -3.0042    0.0000 C   0  0  2  0  0  0           0  0  0
    1.2750   -2.0042    0.0000 O   0  0  0  0  0  0           0  0  0
    7.8667   -4.2292    0.0000 C   0  0  0  0  0  0           0  0  0
    6.2917   -1.9750    0.0000 O   0  0  0  0  0  0           0  0  0
    2.3167   -2.6000    0.0000 S   0  0  0  0  0  0           0  0  0
    2.3167   -3.8042    0.0000 N   0  0  0  0  0  0           0  0  0
    7.7292   -2.6500    0.0000 O   0  0  0  0  0  0           0  0  0
    0.2417   -3.8000    0.0000 N   0  0  0  0  0  0           0  0  0
    7.5125   -4.7167    0.0000 O   0  0  0  0  0  0           0  0  0
    7.0250   -3.6167    0.0000 C   0  0  0  0  0  0           0  0  0
    7.6167   -3.6792    0.0000 C   0  0  0  0  0  0           0  0  0
    6.8875   -2.0375    0.0000 O   0  0  0  0  0  0           0  0  0
    8.4625   -4.2917    0.0000 O   0  0  0  0  0  0           0  0  0
    5.2875   -1.3292    0.0000 C   0  0  0  0  0  0           0  0  0
    3.8750   -2.9000    0.0000 C   0  0  0  0  0  0           0  0  0
    2.8375   -2.9000    0.0000 C   0  0  0  0  0  0           0  0  0
    3.3542   -2.6000    0.0000 C   0  0  0  0  0  0           0  0  0
  2  1  2  0     0  0
  3  2  1  0     0  0
  4  6  2  0     0  0
  5  4  1  0     0  0
  6  1  1  0     0  0
  7 10  1  0     0  0
  8  7  1  0     0  0
  9 12  1  0     0  0
 10 13  1  0     0  0
 11  8  1  0     0  0
 12 13  2  0     0  0
 13 29  1  0     0  0
 15 14  1  6     0  0
 15 11  1  0     0  0
 16  5  1  0     0  0
 17 25  1  0     0  0
 18  8  2  0     0  0
 19  3  1  0     0  0
 20  2  1  0     0  0
 21 14  2  0     0  0
 22  6  1  0     0  0
 23 17  2  0     0  0
 24 15  1  0     0  0
 25 24  1  0     0  0
 26 14  1  0     0  0
 27 17  1  0     0  0
 28  9  1  0     0  0
 29 31  1  0     0  0
 30 19  1  0     0  0
 31 30  1  0     0  0
  3  5  2  0     0  0
  7  9  2  0     0  0
M  END