
  SciTegic06051313552D

 66 72  0  0  0  0            999 V2000
   27.6869   -2.4037    0.0000 C   0  0
   27.1890   -1.7488    0.0000 C   0  0
   26.3741   -1.8533    0.0000 C   0  0
   26.0536   -2.6140    0.0000 N   0  0
   26.5544   -3.2710    0.0000 C   0  0
   27.3757   -3.1673    0.0000 C   0  0
   25.2351   -2.7179    0.0000 C   0  0
   24.9158   -3.4787    0.0000 C   0  0
   24.0967   -3.5789    0.0000 C   0  0
   23.7773   -4.3389    0.0000 C   0  0
   24.2768   -4.9968    0.0000 C   0  0
   25.0992   -4.8897    0.0000 C   0  0
   25.4149   -4.1296    0.0000 C   0  0
   23.6008   -2.9241    0.0000 C   0  0
   23.9237   -2.1635    0.0000 C   0  0
   23.4268   -1.5057    0.0000 C   0  0
   22.6071   -1.6073    0.0000 C   0  0
   22.2866   -2.3723    0.0000 C   0  0
   22.7856   -3.0269    0.0000 C   0  0
   22.1086   -0.9497    0.0000 Cl  0  0
   31.5346   -4.8508    0.0000 O   0  0
   32.2514   -4.4424    0.0000 S   0  0
   31.5393   -4.0259    0.0000 O   0  0
   32.1796   -0.7579    0.0000 O   0  0
   32.1986   -1.5869    0.0000 S   0  0
   32.9070   -1.1559    0.0000 O   0  0
   31.3745   -1.6054    0.0000 N   0  0
   32.6266   -2.2945    0.0000 C   0  0
   32.2264   -3.0167    0.0000 C   0  0
   32.6528   -3.7222    0.0000 C   0  0
   33.4787   -3.7057    0.0000 C   0  0
   33.8763   -2.9778    0.0000 C   0  0
   33.4476   -2.2753    0.0000 C   0  0
   33.9067   -4.4112    0.0000 N   0  0
   34.7317   -4.3932    0.0000 C   0  0  2  0  0  0
   35.1597   -5.0986    0.0000 C   0  0
   35.9846   -5.0807    0.0000 C   0  0
   36.4127   -5.7862    0.0000 N   0  0
   35.1286   -3.6698    0.0000 C   0  0
   35.9535   -3.6518    0.0000 S   0  0
   36.3505   -2.9284    0.0000 C   0  0
   37.1761   -2.9129    0.0000 C   0  0
   37.5729   -2.1903    0.0000 C   0  0
   37.1449   -1.4839    0.0000 C   0  0
   36.3157   -1.5046    0.0000 C   0  0
   35.9226   -2.2277    0.0000 C   0  0
   37.2334   -5.7623    0.0000 C   0  0
   30.9781   -2.3290    0.0000 C   0  0
   32.6813   -5.1510    0.0000 C   0  0
   32.2831   -5.8738    0.0000 F   0  0
   33.5064   -5.1346    0.0000 F   0  0
   33.0890   -5.8635    0.0000 F   0  0
   30.1847   -3.7706    0.0000 N   0  0
   31.0107   -3.7541    0.0000 C   0  0
   31.4116   -3.0299    0.0000 N   0  0
   29.7580   -3.0673    0.0000 C   0  0
   30.1544   -2.3437    0.0000 C   0  0
   29.7282   -1.6425    0.0000 C   0  0
   28.9040   -1.6588    0.0000 C   0  0
   28.5077   -2.3824    0.0000 N   0  0
   28.9356   -3.0897    0.0000 C   0  0
   36.0184   -6.5109    0.0000 C   0  0
   30.5928   -4.4633    0.0000 C   0  0
   29.7676   -4.4558    0.0000 F   0  0
   30.9989   -5.1815    0.0000 F   0  0
   30.1761   -5.1759    0.0000 F   0  0
  1  2  1  0
  1  6  1  0
  2  3  1  0
  3  4  1  0
  4  5  1  0
  5  6  1  0
  4  7  1  0
  7  8  1  0
  8  9  2  0
  9 10  1  0
 10 11  2  0
 11 12  1  0
 12 13  2  0
 13  8  1  0
 14 15  2  0
 15 16  1  0
 16 17  2  0
 17 18  1  0
 18 19  2  0
 19 14  1  0
  9 14  1  0
 17 20  1  0
 22 21  2  0
 23 22  2  0
 25 24  2  0
 26 25  2  0
 27 25  1  0
 25 28  1  0
 28 29  2  0
 29 30  1  0
 30 31  2  0
 31 32  1  0
 32 33  2  0
 33 28  1  0
 31 34  1  0
 34 35  1  0
 35 36  1  0
 36 37  1  0
 37 38  1  0
 35 39  1  1
 39 40  1  0
 40 41  1  0
 41 42  2  0
 42 43  1  0
 43 44  2  0
 44 45  1  0
 45 46  2  0
 46 41  1  0
 38 47  1  0
 27 48  1  0
 30 22  1  0
 22 49  1  0
 49 50  1  0
 49 51  1  0
 49 52  1  0
 48 57  2  0
 48 55  1  0
 56 53  2  0
 53 54  1  0
 54 55  2  0
 56 57  1  0
 56 61  1  0
 57 58  1  0
 58 59  1  0
 59 60  1  0
 60 61  1  0
 60  1  1  0
 38 62  1  0
 54 63  1  0
 63 64  1  0
 63 65  1  0
 63 66  1  0
M  END