
  SciTegic04091414152D

 32 36  0  0  0  0            999 V2000
   14.5310   -5.3021    0.0000 C   0  0
   13.8145   -5.6997    0.0000 C   0  0  2  0  0  0
   13.8056   -6.5174    0.0000 C   0  0
   14.5305   -6.9178    0.0000 N   0  3
   15.2291   -6.5387    0.0000 C   0  0
   15.2397   -5.7107    0.0000 C   0  0
   14.0042   -5.9283    0.0000 C   0  0
   14.7474   -6.2677    0.0000 C   0  0
   13.1079   -5.2822    0.0000 O   0  0
   11.7588   -4.8297    0.0000 C   0  0
   11.2144   -5.4517    0.0000 C   0  0
   12.3060   -5.4486    0.0000 C   0  0
   11.0011   -4.5083    0.0000 C   0  0
   10.7746   -3.7177    0.0000 C   0  0
   11.2518   -3.0469    0.0000 C   0  0
   12.0699   -3.0129    0.0000 C   0  0
   12.6164   -3.6282    0.0000 C   0  0
   12.4772   -4.4400    0.0000 C   0  0
   10.3967   -5.3817    0.0000 C   0  0
   10.0741   -6.1403    0.0000 C   0  0
   10.6960   -6.6844    0.0000 C   0  0
   11.4004   -6.2595    0.0000 C   0  0
   12.0490   -6.2285    0.0000 O   0  0
   14.4220   -7.7319    0.0000 C   0  0
   15.0733   -8.2350    0.0000 C   0  0
   14.9647   -9.0490    0.0000 C   0  0
   15.6160   -9.5480    0.0000 C   0  0
   15.5021  -10.3613    0.0000 C   0  0
   16.1526  -10.8642    0.0000 C   0  0
   16.9134  -10.5492    0.0000 N   0  0
   17.0199   -9.7305    0.0000 C   0  0
   16.3684   -9.2353    0.0000 C   0  0
  1  2  1  0
  1  6  1  0
  2  3  1  0
  3  4  1  0
  4  5  1  0
  5  6  1  0
  1  7  1  0
  4  8  1  0
  7  8  1  0
  2  9  1  6
 11 10  1  0
 10 12  1  0
 13 14  1  0
 14 15  1  0
 15 16  1  0
 13 10  1  0
 16 17  1  0
 10 18  1  0
 17 18  1  0
 11 19  2  0
 19 20  1  0
 20 21  2  0
 21 22  1  0
 22 11  1  0
 12 23  2  0
 12  9  1  0
  4 24  1  0
 24 25  1  0
 25 26  1  0
 26 27  1  0
 27 28  2  0
 28 29  1  0
 29 30  2  0
 30 31  1  0
 31 32  2  0
 32 27  1  0
M  CHG  1   4   1
M  END