
  CDK    9/16/09,9:55

 26 28  0  0  0  0  0  0  0  0999 V2000
   -2.5125    1.7208    0.0000 C   0  0  0  0  0  0  0  0  0  0  0  0
   -2.5125    0.8958    0.0000 C   0  0  0  0  0  0  0  0  0  0  0  0
   -1.8005    0.4875    0.0000 C   0  0  0  0  0  0  0  0  0  0  0  0
   -1.0885    0.8958    0.0000 C   0  0  0  0  0  0  0  0  0  0  0  0
   -1.0885    1.7208    0.0000 C   0  0  0  0  0  0  0  0  0  0  0  0
   -1.8005    2.1375    0.0000 O   0  0  0  0  0  0  0  0  0  0  0  0
   -3.2282    2.1312    0.0000 C   0  0  0  0  0  0  0  0  0  0  0  0
   -0.3728    2.1312    0.0000 C   0  0  0  0  0  0  0  0  0  0  0  0
   -3.2264    0.4823    0.0000 O   0  0  0  0  0  0  0  0  0  0  0  0
   -0.3746    0.4823    0.0000 O   0  0  0  0  0  0  0  0  0  0  0  0
   -0.3758   -0.3427    0.0000 C   0  0  0  0  0  0  0  0  0  0  0  0
    0.3381   -0.7562    0.0000 C   0  0  0  0  0  0  0  0  0  0  0  0
    0.3335   -1.5802    0.0000 C   0  0  0  0  0  0  0  0  0  0  0  0
    1.0466   -1.9937    0.0000 C   0  0  0  0  0  0  0  0  0  0  0  0
    1.7626   -1.5822    0.0000 C   0  0  0  0  0  0  0  0  0  0  0  0
    1.7612   -0.7529    0.0000 C   0  0  0  0  0  0  0  0  0  0  0  0
    1.0475   -0.3432    0.0000 C   0  0  0  0  0  0  0  0  0  0  0  0
    0.3405    1.7166    0.0000 O   0  0  0  0  0  0  0  0  0  0  0  0
    1.0561    2.1271    0.0000 C   0  0  0  0  0  0  0  0  0  0  0  0
    1.7694    1.7125    0.0000 C   0  0  0  0  0  0  0  0  0  0  0  0
    1.7656    0.8864    0.0000 C   0  0  0  0  0  0  0  0  0  0  0  0
    2.4780    0.4719    0.0000 C   0  0  0  0  0  0  0  0  0  0  0  0
    3.1947    0.8824    0.0000 C   0  0  0  0  0  0  0  0  0  0  0  0
    3.1945    1.7116    0.0000 C   0  0  0  0  0  0  0  0  0  0  0  0
    2.4815    2.1224    0.0000 C   0  0  0  0  0  0  0  0  0  0  0  0
   -3.9414    1.7166    0.0000 O   0  0  0  0  0  0  0  0  0  0  0  0
 12 13  2  0  0  0  0 
 13 14  1  0  0  0  0 
  1  7  1  1  0  0  0 
 14 15  2  0  0  0  0 
  1  2  1  0  0  0  0 
 15 16  1  0  0  0  0 
  5  8  1  1  0  0  0 
 16 17  2  0  0  0  0 
 17 12  1  0  0  0  0 
  1  6  1  0  0  0  0 
  8 18  1  0  0  0  0 
  2  9  1  6  0  0  0 
 18 19  1  0  0  0  0 
  2  3  1  0  0  0  0 
 19 20  1  0  0  0  0 
  4 10  1  6  0  0  0 
 20 21  2  0  0  0  0 
  3  4  1  0  0  0  0 
 21 22  1  0  0  0  0 
 10 11  1  0  0  0  0 
 22 23  2  0  0  0  0 
  4  5  1  0  0  0  0 
 23 24  1  0  0  0  0 
 11 12  1  0  0  0  0 
 24 25  2  0  0  0  0 
 25 20  1  0  0  0  0 
  5  6  1  0  0  0  0 
  7 26  1  0  0  0  0 
M  END