
          11280715522D 1   1.00000     0.00000     0

 29 32  0     0  0            999 V2000
   -4.4973   -6.9416    0.0000 C   0  0  0  0  0  0           0  0  0
   -4.4984   -7.7690    0.0000 C   0  0  0  0  0  0           0  0  0
   -3.7836   -8.1819    0.0000 C   0  0  0  0  0  0           0  0  0
   -3.7854   -6.5289    0.0000 C   0  0  0  0  0  0           0  0  0
   -3.0700   -6.9380    0.0000 C   0  0  0  0  0  0           0  0  0
   -3.0693   -7.7648    0.0000 C   0  0  0  0  0  0           0  0  0
   -2.3540   -8.1758    0.0000 N   0  0  0  0  0  0           0  0  0
   -1.6389   -7.7610    0.0000 C   0  0  0  0  0  0           0  0  0
   -1.6437   -6.9311    0.0000 C   0  0  0  0  0  0           0  0  0
   -2.3596   -6.5238    0.0000 N   0  0  0  0  0  0           0  0  0
   -0.9229   -8.1708    0.0000 O   0  0  0  0  0  0           0  0  0
   -0.9318   -6.5142    0.0000 C   0  0  0  0  0  0           0  0  0
   -0.2148   -6.9224    0.0000 N   0  0  0  0  0  0           0  0  0
   -0.9368   -5.6892    0.0000 O   0  0  0  0  0  0           0  0  0
    0.4972   -6.5055    0.0000 C   0  0  0  0  0  0           0  0  0
    1.2119   -6.9171    0.0000 C   0  0  0  0  0  0           0  0  0
    1.9233   -6.5009    0.0000 C   0  0  0  0  0  0           0  0  0
    1.9187   -5.6751    0.0000 C   0  0  0  0  0  0           0  0  0
    1.1968   -5.2671    0.0000 C   0  0  0  0  0  0           0  0  0
    0.4882   -5.6856    0.0000 C   0  0  0  0  0  0           0  0  0
    2.6301   -5.2573    0.0000 O   0  0  0  0  0  0           0  0  0
   -0.9196   -8.9958    0.0000 C   0  0  0  0  0  0           0  0  0
    1.1888   -4.4422    0.0000 C   0  0  0  0  0  0           0  0  0
    1.8993   -4.0228    0.0000 N   0  0  3  0  0  0           0  0  0
    2.6178   -4.4351    0.0000 C   0  0  0  0  0  0           0  0  0
    3.3261   -4.0193    0.0000 C   0  0  0  0  0  0           0  0  0
    3.3225   -3.1939    0.0000 O   0  0  0  0  0  0           0  0  0
    2.6042   -2.7861    0.0000 C   0  0  0  0  0  0           0  0  0
    1.8896   -3.2037    0.0000 C   0  0  0  0  0  0           0  0  0
 12 14  2  0     0  0
  6  7  2  0     0  0
 13 15  1  0     0  0
  1  2  1  0     0  0
 15 16  2  0     0  0
  7  8  1  0     0  0
 16 17  1  0     0  0
  5  4  1  0     0  0
 17 18  2  0     0  0
  8  9  2  0     0  0
 18 19  1  0     0  0
  4  1  2  0     0  0
 19 20  2  0     0  0
 20 15  1  0     0  0
  9 10  1  0     0  0
 18 21  1  0     0  0
 10  5  2  0     0  0
 11 22  1  0     0  0
 19 23  1  0     0  0
  8 11  1  0     0  0
 23 24  1  0     0  0
 24 25  1  0     0  0
  2  3  2  0     0  0
  9 12  1  0     0  0
  5  6  1  0     0  0
 12 13  1  0     0  0
  3  6  1  0     0  0
 24 29  1  0     0  0
 25 26  1  0     0  0
 26 27  1  0     0  0
 27 28  1  0     0  0
 28 29  1  0     0  0
M  END