
          11280715302D 1   1.00000     0.00000     0

 20 20  0     0  0            999 V2000
    7.7167   -3.3292    0.0000 N   0  0  0  0  0  0           0  0  0
    4.8625   -3.3417    0.0000 O   0  0  0  0  0  0           0  0  0
    6.2917   -3.3375    0.0000 C   0  0  3  0  0  0           0  0  0
    4.1500   -3.7542    0.0000 C   0  0  0  0  0  0           0  0  0
    7.0042   -3.7417    0.0000 C   0  0  0  0  0  0           0  0  0
    5.5792   -3.7500    0.0000 C   0  0  0  0  0  0           0  0  0
    2.7167   -4.5875    0.0000 C   0  0  0  0  0  0           0  0  0
    3.4292   -3.3417    0.0000 C   0  0  0  0  0  0           0  0  0
    4.1500   -4.5875    0.0000 C   0  0  0  0  0  0           0  0  0
    2.7167   -3.7625    0.0000 C   0  0  0  0  0  0           0  0  0
    3.4292   -5.0000    0.0000 C   0  0  0  0  0  0           0  0  0
    6.2875   -2.5125    0.0000 O   0  0  0  0  0  0           0  0  0
    2.0042   -5.0000    0.0000 O   0  0  0  0  0  0           0  0  0
    8.4375   -3.7417    0.0000 C   0  0  3  0  0  0           0  0  0
   -0.1375   -4.5875    0.0000 O   0  0  0  0  0  0           0  0  0
    1.2917   -4.5875    0.0000 C   0  0  0  0  0  0           0  0  0
    0.5750   -5.0000    0.0000 C   0  0  0  0  0  0           0  0  0
   -0.8583   -4.9917    0.0000 C   0  0  0  0  0  0           0  0  0
    8.4375   -4.5667    0.0000 C   0  0  0  0  0  0           0  0  0
    9.1500   -3.3250    0.0000 C   0  0  0  0  0  0           0  0  0
  2  6  1  0     0  0
  3  5  1  0     0  0
  4  2  1  0     0  0
  5  1  1  0     0  0
  6  3  1  0     0  0
  7 11  1  0     0  0
  8  4  2  0     0  0
  9  4  1  0     0  0
 10  8  1  0     0  0
 11  9  2  0     0  0
 12  3  1  0     0  0
 13  7  1  0     0  0
 14  1  1  0     0  0
 15 17  1  0     0  0
 16 13  1  0     0  0
 17 16  1  0     0  0
 18 15  1  0     0  0
 19 14  1  0     0  0
 20 14  1  0     0  0
 10  7  2  0     0  0
M  END