
          11280714452D 1   1.00000     0.00000     0

 31 34  0     0  0            999 V2000
    7.5542   -2.8667    0.0000 C   0  0  0  0  0  0           0  0  0
    0.4167   -2.8750    0.0000 N   0  0  0  0  0  0           0  0  0
    6.8375   -3.2792    0.0000 C   0  0  0  0  0  0           0  0  0
    8.2542    0.0208    0.0000 N   0  0  0  0  0  0           0  0  0
    6.1250   -2.8667    0.0000 C   0  0  0  0  0  0           0  0  0
    8.2625   -0.8042    0.0000 C   0  0  0  0  0  0           0  0  0
   -0.2958   -3.2875    0.0000 C   0  0  0  0  0  0           0  0  0
    5.4042   -3.2792    0.0000 C   0  0  0  0  0  0           0  0  0
    8.2667   -3.2792    0.0000 C   0  0  0  0  0  0           0  0  0
    1.8417   -2.8750    0.0000 C   0  0  0  0  0  0           0  0  0
    2.5625   -3.2792    0.0000 C   0  0  0  0  0  0           0  0  0
    7.5542   -2.0417    0.0000 C   0  0  0  0  0  0           0  0  0
    1.1292   -3.2875    0.0000 C   0  0  0  0  0  0           0  0  0
    6.8375   -4.1042    0.0000 O   0  0  0  0  0  0           0  0  0
    8.2667   -1.6292    0.0000 C   0  0  0  0  0  0           0  0  0
   -0.2958   -4.1125    0.0000 C   0  0  0  0  0  0           0  0  0
    8.9792   -2.8667    0.0000 C   0  0  0  0  0  0           0  0  0
    0.4250   -4.5250    0.0000 C   0  0  0  0  0  0           0  0  0
    4.6917   -2.8667    0.0000 C   0  0  0  0  0  0           0  0  0
    3.2750   -2.8667    0.0000 C   0  0  0  0  0  0           0  0  0
    3.9875   -3.2792    0.0000 C   0  0  0  0  0  0           0  0  0
    1.1375   -4.1042    0.0000 C   0  0  0  0  0  0           0  0  0
    8.9792   -2.0417    0.0000 C   0  0  0  0  0  0           0  0  0
    8.2667   -4.1042    0.0000 O   0  0  0  0  0  0           0  0  0
    3.9875   -1.6292    0.0000 C   0  0  0  0  0  0           0  0  0
   -1.0083   -2.8792    0.0000 C   0  0  0  0  0  0           0  0  0
    4.7000   -2.0417    0.0000 C   0  0  0  0  0  0           0  0  0
    3.2750   -2.0417    0.0000 C   0  0  0  0  0  0           0  0  0
   -1.0000   -4.5250    0.0000 C   0  0  0  0  0  0           0  0  0
   -1.7208   -3.2917    0.0000 C   0  0  0  0  0  0           0  0  0
   -1.7125   -4.1167    0.0000 C   0  0  0  0  0  0           0  0  0
  2 13  2  0     0  0
  3  1  1  0     0  0
  4  6  3  0     0  0
  5  3  1  0     0  0
  6 15  1  0     0  0
  7  2  1  0     0  0
  8  5  2  0     0  0
  9  1  1  0     0  0
 10 11  2  0     0  0
 11 20  1  0     0  0
 12  1  2  0     0  0
 13 10  1  0     0  0
 14  3  2  0     0  0
 15 12  1  0     0  0
 16 18  1  0     0  0
 17  9  2  0     0  0
 18 22  2  0     0  0
 19  8  1  0     0  0
 20 21  2  0     0  0
 21 19  1  0     0  0
 22 13  1  0     0  0
 23 15  2  0     0  0
 24  9  1  0     0  0
 25 27  1  0     0  0
 26  7  2  0     0  0
 27 19  2  0     0  0
 28 25  2  0     0  0
 29 16  2  0     0  0
 30 26  1  0     0  0
 31 29  1  0     0  0
 23 17  1  0     0  0
 28 20  1  0     0  0
  7 16  1  0     0  0
 31 30  2  0     0  0
M  END