
  SciTegic10011413212D

 26 29  0  0  0  0            999 V2000
   11.8465   -9.2481    0.0000 C   0  0  2  0  0  0
   10.4185   -9.2567    0.0000 C   0  0
   10.4203  -10.9097    0.0000 C   0  0
    9.7054  -10.4969    0.0000 C   0  0
   13.5916  -10.8737    0.0000 O   0  0
   11.3752  -11.3826    0.0000 C   0  0
   13.9801   -9.9477    0.0000 O   0  0
    8.9906  -10.9088    0.0000 Cl  0  0
   12.5999   -9.5778    0.0000 C   0  0  2  0  0  0
   12.3864  -10.3747    0.0000 C   0  0
   11.1339   -9.6658    0.0000 C   0  0
   11.5890  -10.5865    0.0000 C   0  0
   12.7592  -11.7497    0.0000 C   0  0
   13.1832  -10.1612    0.0000 C   0  0
    9.7066   -9.6694    0.0000 C   0  0
   11.9296   -8.4273    0.0000 N   0  0
   13.1512   -8.9656    0.0000 N   0  0
   11.9589  -11.9669    0.0000 C   0  0
   12.9697  -10.9581    0.0000 C   0  0
   11.1368  -10.4964    0.0000 C   0  0
   14.4166  -10.8763    0.0000 C   0  0
   12.7360   -8.2525    0.0000 C   0  0
   11.3202   -7.8828    0.0000 C   0  0
   11.4870   -7.0829    0.0000 C   0  0
   12.0303   -6.4738    0.0000 C   0  0
   11.2303   -6.3070    0.0000 C   0  0
  9 10  1  0
  9 17  1  0
 10 12  2  0
 13 19  2  0
  4  8  1  0
 16  1  1  0
 14  5  1  0
  6 18  2  0
 18 13  1  0
 19 10  1  0
  1  9  1  0
  2 15  1  0
  3 20  2  0
 14  7  2  0
 17 22  2  0
  9 14  1  1
 22 16  1  0
 20 11  1  0
  4  3  1  0
 15  4  2  0
  5 21  1  0
 11  2  2  0
  1 11  1  6
 12  6  1  0
 16 23  1  0
 23 24  1  0
 25 24  1  0
 26 25  1  0
 24 26  1  0
M  END