
  CDK    9/16/09,9:48

 13 13  0  0  0  0  0  0  0  0999 V2000
   15.3793  -10.0461    0.0000 C   0  0  0  0  0  0  0  0  0  0  0  0
   15.3780  -10.8737    0.0000 C   0  0  0  0  0  0  0  0  0  0  0  0
   16.0910  -11.2865    0.0000 C   0  0  0  0  0  0  0  0  0  0  0  0
   16.8102  -10.8732    0.0000 C   0  0  0  0  0  0  0  0  0  0  0  0
   16.8071  -10.0422    0.0000 C   0  0  0  0  0  0  0  0  0  0  0  0
   16.0890   -9.6333    0.0000 C   0  0  0  0  0  0  0  0  0  0  0  0
   17.5195   -9.6261    0.0000 C   0  0  0  0  0  0  0  0  0  0  0  0
   18.2360  -10.0350    0.0000 C   0  0  0  0  0  0  0  0  0  0  0  0
   18.9484   -9.6190    0.0000 N   0  0  0  0  0  0  0  0  0  0  0  0
   17.5251  -11.2850    0.0000 O   0  0  0  0  0  0  0  0  0  0  0  0
   17.5258  -12.1099    0.0000 C   0  0  0  0  0  0  0  0  0  0  0  0
   14.6646   -9.6342    0.0000 O   0  0  0  0  0  0  0  0  0  0  0  0
   14.6638   -8.8092    0.0000 C   0  0  0  0  0  0  0  0  0  0  0  0
  1  2  2  0  0  0  0 
  5  7  1  0  0  0  0 
  3  4  2  0  0  0  0 
  7  8  1  0  0  0  0 
  8  9  1  0  0  0  0 
  4  5  1  0  0  0  0 
  4 10  1  0  0  0  0 
  2  3  1  0  0  0  0 
 10 11  1  0  0  0  0 
  5  6  2  0  0  0  0 
  1 12  1  0  0  0  0 
  6  1  1  0  0  0  0 
 12 13  1  0  0  0  0 
M  END