
  CDK    9/16/09,10:0

 25 27  0  0  0  0  0  0  0  0999 V2000
    8.4772    2.3329    0.0000 C   0  0  0  0  0  0  0  0  0  0  0  0
    8.4758    1.5053    0.0000 C   0  0  0  0  0  0  0  0  0  0  0  0
    9.1888    1.0924    0.0000 C   0  0  0  0  0  0  0  0  0  0  0  0
    9.9081    1.5058    0.0000 C   0  0  0  0  0  0  0  0  0  0  0  0
    9.9050    2.3368    0.0000 C   0  0  0  0  0  0  0  0  0  0  0  0
    9.1868    2.7456    0.0000 C   0  0  0  0  0  0  0  0  0  0  0  0
   10.6173    2.7528    0.0000 C   0  0  0  0  0  0  0  0  0  0  0  0
   11.3338    2.3439    0.0000 C   0  0  0  0  0  0  0  0  0  0  0  0
   11.4268    1.5241    0.0000 C   0  0  0  0  0  0  0  0  0  0  0  0
   12.2346    1.3566    0.0000 N   0  0  0  0  0  0  0  0  0  0  0  0
   12.6431    2.0727    0.0000 C   0  0  0  0  0  0  0  0  0  0  0  0
   12.0884    2.6833    0.0000 N   0  0  0  0  0  0  0  0  0  0  0  0
    7.7609    1.0938    0.0000 Cl  0  0  0  0  0  0  0  0  0  0  0  0
   12.2563    3.4910    0.0000 C   0  0  0  0  0  0  0  0  0  0  0  0
   13.4680    2.0651    0.0000 O   0  0  0  0  0  0  0  0  0  0  0  0
   13.8740    1.3470    0.0000 C   0  0  0  0  0  0  0  0  0  0  0  0
   14.6989    1.3395    0.0000 C   0  0  0  0  0  0  0  0  0  0  0  0
   15.1049    0.6214    0.0000 C   0  0  0  0  0  0  0  0  0  0  0  0
   15.9298    0.6139    0.0000 N   0  0  0  0  0  0  0  0  0  0  0  0
   16.3309   -0.1045    0.0000 C   0  0  0  0  0  0  0  0  0  0  0  0
   17.1521   -0.1140    0.0000 C   0  0  0  0  0  0  0  0  0  0  0  0
   17.5749    0.5948    0.0000 C   0  0  0  0  0  0  0  0  0  0  0  0
   17.1702    1.3149    0.0000 C   0  0  0  0  0  0  0  0  0  0  0  0
   16.3426    1.3260    0.0000 C   0  0  0  0  0  0  0  0  0  0  0  0
   10.6133    3.5778    0.0000 O   0  0  0  0  0  0  0  0  0  0  0  0
 12  8  1  0  0  0  0 
  6  1  1  0  0  0  0 
  2 13  1  0  0  0  0 
  1  2  2  0  0  0  0 
 12 14  1  0  0  0  0 
  5  7  1  0  0  0  0 
 11 15  1  0  0  0  0 
  3  4  2  0  0  0  0 
 15 16  1  0  0  0  0 
  7  8  1  0  0  0  0 
 16 17  1  0  0  0  0 
  8  9  2  0  0  0  0 
 17 18  1  0  0  0  0 
 18 19  1  0  0  0  0 
 19 20  1  0  0  0  0 
  4  5  1  0  0  0  0 
  2  3  1  0  0  0  0 
  5  6  2  0  0  0  0 
  9 10  1  0  0  0  0 
 10 11  2  0  0  0  0 
 19 24  1  0  0  0  0 
 20 21  1  0  0  0  0 
 21 22  1  0  0  0  0 
 22 23  1  0  0  0  0 
 23 24  1  0  0  0  0 
 11 12  1  0  0  0  0 
  7 25  2  0  0  0  0 
M  END