
  SciTegic01161211232D

 31 33  0  0  0  0            999 V2000
   11.6502   -9.0666    0.0000 C   0  0
   10.4596   -8.9162    0.0000 O   0  0
    9.5515  -10.1111    0.0000 C   0  0
   10.0161  -11.2175    0.0000 O   0  0
    8.0625   -9.9230    0.0000 C   0  0
    7.4841   -8.5390    0.0000 C   0  0
    5.9963   -8.3478    0.0000 C   0  0
    5.0869   -9.5408    0.0000 C   0  0
    5.6653  -10.9248    0.0000 C   0  0
    7.1531  -11.1159    0.0000 C   0  0
    7.6159  -12.2231    0.0000 O   0  0
    5.4147   -6.9642    0.0000 C   0  0
    6.1405   -6.0087    0.0000 O   0  0
    3.9258   -6.7752    0.0000 C   0  0
    3.3443   -5.3916    0.0000 N   0  0
    1.8565   -5.2005    0.0000 C   0  0
    1.2781   -3.8165    0.0000 C   0  0
    2.1852   -2.6281    0.0000 C   0  0
    3.6753   -2.8147    0.0000 C   0  0
    4.2537   -4.1987    0.0000 C   0  0
    1.7138   -1.2033    0.0000 N   0  0
    2.5889    0.0182    0.0000 C   0  0
    3.7889    0.0269    0.0000 O   0  0
    1.7138    1.2033    0.0000 N   0  0
    0.2917    0.7475    0.0000 C   0  0
   -1.0028    1.5132    0.0000 C   0  0
   -2.3155    0.7475    0.0000 C   0  0
   -2.3155   -0.7475    0.0000 C   0  0
   -1.0028   -1.5132    0.0000 C   0  0
    0.2917   -0.7475    0.0000 C   0  0
   14.4486   -5.4937    0.0000 Cl  0  0
  1  2  1  0
  2  3  1  0
  3  4  2  0
  3  5  1  0
  5  6  2  0
  6  7  1  0
  7  8  2  0
  8  9  1  0
  9 10  2  0
 10  5  1  0
 10 11  1  0
  7 12  1  0
 12 13  1  0
 12 14  1  0
 14 15  1  0
 15 16  1  0
 16 17  1  0
 17 18  1  0
 18 19  1  0
 19 20  1  0
 20 15  1  0
 18 21  1  0
 21 22  1  0
 22 23  1  0
 22 24  2  0
 24 25  1  0
 25 26  2  0
 26 27  1  0
 27 28  2  0
 28 29  1  0
 29 30  2  0
 30 21  1  0
 30 25  1  0
M  END