
  SciTegic05171617282D

 36 39  0  0  0  0            999 V2000
    2.3383   -1.3500    0.0000 C   0  0
    1.2990   -0.7500    0.0000 N   0  0
    1.2990    0.7500    0.0000 C   0  0
    0.0000    1.5000    0.0000 C   0  0
   -1.2990    0.7500    0.0000 C   0  0
   -1.2990   -0.7500    0.0000 C   0  0
    0.0000   -1.5000    0.0000 C   0  0
    0.0000   -3.0008    0.0000 C   0  0
   -1.2978   -3.7529    0.0000 C   0  0
   -1.2955   -5.2529    0.0000 C   0  0
    0.0048   -6.0009    0.0000 C   0  0
    0.0102   -7.5017    0.0000 N   0  0
    1.3123   -8.2482    0.0000 C   0  0
    1.3199   -9.7482    0.0000 N   0  0
    2.6227  -10.4916    0.0000 C   0  0
    3.9180   -9.7351    0.0000 C   0  0
    3.9104   -8.2351    0.0000 C   0  0
    5.2048   -7.4755    0.0000 C   0  0
    5.1951   -5.9747    0.0000 C   0  0
    6.4895   -5.2150    0.0000 C   0  0
    7.7924   -5.9584    0.0000 C   0  0
    9.0876   -5.2018    0.0000 C   0  0
    9.0800   -3.7018    0.0000 C   0  0
    7.7772   -2.9585    0.0000 C   0  0
    6.4819   -3.7150    0.0000 C   0  0
    5.1800   -2.9685    0.0000 C   0  0
    5.1745   -1.4677    0.0000 C   0  0
    6.2118   -0.8643    0.0000 N   0  0
    4.1335   -0.8708    0.0000 O   0  0
    2.6076   -7.4917    0.0000 N   0  0
    5.2215  -10.4789    0.0000 C   0  0
    5.2283  -11.6789    0.0000 F   0  0
    6.2575   -9.8733    0.0000 F   0  0
    6.2640  -11.0732    0.0000 F   0  0
    1.3026   -5.2488    0.0000 C   0  0
    1.3002   -3.7488    0.0000 C   0  0
  1  2  1  0
  2  3  1  0
  3  4  1  0
  4  5  1  0
  5  6  1  0
  6  7  1  0
  2  7  1  0
  7  8  1  0
  8  9  2  0
  9 10  1  0
 10 11  2  0
 11 12  1  0
 12 13  1  0
 13 14  2  0
 14 15  1  0
 15 16  2  0
 16 17  1  0
 17 18  1  0
 18 19  1  0
 19 20  1  0
 20 21  2  0
 21 22  1  0
 22 23  2  0
 23 24  1  0
 24 25  2  0
 20 25  1  0
 25 26  1  0
 26 27  1  0
 27 28  1  0
 27 29  2  0
 17 30  2  0
 13 30  1  0
 16 31  1  0
 31 32  1  0
 31 33  1  0
 31 34  1  0
 11 35  1  0
 35 36  2  0
  8 36  1  0
M  END