
  SciTegic05061409512D

 24 26  0  0  0  0            999 V2000
   22.9804   -5.3530    0.0000 C   0  0
   22.9804   -6.1702    0.0000 C   0  0
   23.6857   -6.5747    0.0000 C   0  0
   24.3910   -6.1702    0.0000 N   0  0
   23.6857   -4.9403    0.0000 C   0  0
   24.3918   -5.3536    0.0000 N   0  0
   25.0031   -4.8097    0.0000 C   0  0
   24.6747   -4.0602    0.0000 N   0  0
   23.8606   -4.1410    0.0000 N   0  0
   25.8014   -4.9844    0.0000 C   0  0
   22.2715   -4.9465    0.0000 N   0  0
   22.2691   -4.1293    0.0000 C   0  0
   21.5602   -3.7228    0.0000 O   0  0
   22.9756   -3.7186    0.0000 O   0  0
   21.5578   -2.9056    0.0000 C   0  0
   20.8489   -2.4991    0.0000 C   0  0
   22.2643   -2.4949    0.0000 C   0  0
   21.5524   -2.0884    0.0000 C   0  0
   23.6853   -7.3910    0.0000 C   0  0
   22.9759   -7.7990    0.0000 C   0  0
   22.9756   -8.6155    0.0000 C   0  0
   23.6838   -9.0249    0.0000 C   0  0
   24.3939   -8.6119    0.0000 C   0  0
   24.3907   -7.7968    0.0000 C   0  0
  1  2  2  0
  1  5  1  0
  2  3  1  0
  3  4  2  0
  4  6  1  0
  5  6  1  0
  6  7  1  0
  7  8  2  0
  8  9  1  0
  9  5  2  0
  7 10  1  0
  1 11  1  0
 11 12  1  0
 12 13  1  0
 12 14  2  0
 13 15  1  0
 15 16  1  0
 15 17  1  0
 15 18  1  0
 19 20  2  0
 20 21  1  0
 21 22  2  0
 22 23  1  0
 23 24  2  0
 24 19  1  0
  3 19  1  0
M  END