
          03140815512D 1   1.00000     0.00000     0

 33 35  0     1  0            999 V2000
   11.3975  -16.6809    0.0000 C   0  0  0  0  0  0           0  0  0
   10.6774  -17.0901    0.0000 C   0  0  0  0  0  0           0  0  0
   10.6725  -17.9157    0.0000 N   0  0  0  0  0  0           0  0  0
   11.3842  -18.3341    0.0000 C   0  0  0  0  0  0           0  0  0
   12.1043  -17.9250    0.0000 C   0  0  0  0  0  0           0  0  0
   12.1128  -17.0974    0.0000 N   0  0  0  0  0  0           0  0  0
   11.3987  -15.8532    0.0000 C   0  0  0  0  0  0           0  0  0
   11.3757  -19.1639    0.0000 O   0  0  0  0  0  0           0  0  0
   12.8160  -18.3476    0.0000 C   0  0  0  0  0  0           0  0  0
    9.9664  -16.6735    0.0000 C   0  0  0  0  0  0           0  0  0
   13.5288  -17.9367    0.0000 C   0  0  0  0  0  0           0  0  0
   14.2455  -18.3508    0.0000 C   0  0  0  0  0  0           0  0  0
   14.9645  -17.9408    0.0000 N   0  0  0  0  0  0           0  0  0
   15.6759  -18.3567    0.0000 C   0  0  0  0  0  0           0  0  0
   16.3922  -17.1228    0.0000 N   0  0  0  0  0  0           0  0  0
   16.3882  -17.9469    0.0000 C   0  0  1  0  0  0           0  0  0
   17.1013  -18.3625    0.0000 C   0  0  0  0  0  0           0  0  0
   17.8142  -17.9539    0.0000 C   0  0  0  0  0  0           0  0  0
   17.8183  -17.1298    0.0000 C   0  0  0  0  0  0           0  0  0
   18.5354  -16.7214    0.0000 C   0  0  0  0  0  0           0  0  0
   19.2484  -17.1369    0.0000 C   0  0  0  0  0  0           0  0  0
   19.9655  -16.7284    0.0000 O   0  0  0  0  0  0           0  0  0
   19.2443  -17.9610    0.0000 C   0  0  0  0  0  0           0  0  0
   18.5272  -18.3695    0.0000 C   0  0  0  0  0  0           0  0  0
   15.6712  -19.1796    0.0000 O   0  0  0  0  0  0           0  0  0
   18.5232  -19.1936    0.0000 C   0  0  0  0  0  0           0  0  0
   17.1094  -16.7143    0.0000 C   0  0  0  0  0  0           0  0  0
    9.9716  -15.8494    0.0000 C   0  0  0  0  0  0           0  0  0
   10.6897  -15.4432    0.0000 C   0  0  0  0  0  0           0  0  0
   10.6953  -14.6199    0.0000 C   0  0  0  0  0  0           0  0  0
    9.9838  -14.2024    0.0000 C   0  0  0  0  0  0           0  0  0
    9.2651  -14.6144    0.0000 C   0  0  0  0  0  0           0  0  0
    9.2630  -15.4364    0.0000 C   0  0  0  0  0  0           0  0  0
  5  9  1  0     0  0
  2  3  1  0     0  0
  2 10  1  0     0  0
  3  4  1  0     0  0
  9 11  1  0     0  0
  4  5  1  0     0  0
 11 12  1  0     0  0
  5  6  2  0     0  0
 12 13  1  0     0  0
 16 15  1  1     0  0
 14 16  1  0     0  0
 16 17  1  0     0  0
 17 18  1  0     0  0
 18 19  2  0     0  0
 19 20  1  0     0  0
 20 21  2  0     0  0
 21 22  1  0     0  0
 21 23  1  0     0  0
 23 24  2  0     0  0
 18 24  1  0     0  0
 14 25  2  0     0  0
 24 26  1  0     0  0
 19 27  1  0     0  0
 10 28  1  0     0  0
 13 14  1  0     0  0
 28 29  2  0     0  0
  1  7  1  0     0  0
 29 30  1  0     0  0
  1  2  2  0     0  0
 30 31  2  0     0  0
  4  8  2  0     0  0
 31 32  1  0     0  0
  1  6  1  0     0  0
 32 33  2  0     0  0
 33 28  1  0     0  0
M  END