
          11280715122D 1   1.00000     0.00000     0

 30 32  0     0  0            999 V2000
    5.5375   -4.3042    0.0000 C   0  0  0  0  0  0           0  0  0
    4.8250   -3.8917    0.0000 C   0  0  0  0  0  0           0  0  0
    0.7792   -4.4125    0.0000 N   0  0  3  0  0  0           0  0  0
    0.0625   -4.0000    0.0000 C   0  0  0  0  0  0           0  0  0
    5.5375   -5.1292    0.0000 C   0  0  0  0  0  0           0  0  0
    0.0625   -3.1667    0.0000 C   0  0  0  0  0  0           0  0  0
    2.1417   -5.3375    0.0000 N   0  0  3  0  0  0           0  0  0
   -0.6583   -2.7542    0.0000 C   0  0  0  0  0  0           0  0  0
    4.8250   -3.0667    0.0000 N   0  0  3  0  0  0           0  0  0
   -0.6583   -4.4125    0.0000 C   0  0  0  0  0  0           0  0  0
    6.2500   -5.5417    0.0000 N   0  0  0  0  0  0           0  0  0
    4.1042   -4.3042    0.0000 O   0  0  0  0  0  0           0  0  0
    1.5167   -4.0417    0.0000 C   0  0  0  0  0  0           0  0  0
    0.7167   -5.2292    0.0000 C   0  0  0  0  0  0           0  0  0
    4.8292   -5.5500    0.0000 N   0  0  0  0  0  0           0  0  0
   -1.3708   -3.1750    0.0000 C   0  0  0  0  0  0           0  0  0
    1.4000   -5.6917    0.0000 C   0  0  0  0  0  0           0  0  0
    2.1917   -4.5042    0.0000 C   0  0  0  0  0  0           0  0  0
   -1.3708   -4.0000    0.0000 C   0  0  0  0  0  0           0  0  0
    0.7750   -2.7542    0.0000 O   0  0  0  0  0  0           0  0  0
    6.2500   -3.8917    0.0000 C   0  0  0  0  0  0           0  0  0
    2.8167   -5.8000    0.0000 C   0  0  0  0  0  0           0  0  0
   -2.0833   -2.7625    0.0000 O   0  0  0  0  0  0           0  0  0
    3.5292   -5.3792    0.0000 C   0  0  0  0  0  0           0  0  0
    6.9667   -5.1292    0.0000 C   0  0  0  0  0  0           0  0  0
    4.1167   -5.9667    0.0000 C   0  0  0  0  0  0           0  0  0
    5.5375   -2.6542    0.0000 C   0  0  0  0  0  0           0  0  0
    4.1042   -2.6542    0.0000 C   0  0  0  0  0  0           0  0  0
    1.4917   -3.1625    0.0000 C   0  0  0  0  0  0           0  0  0
    6.9667   -4.3042    0.0000 C   0  0  0  0  0  0           0  0  0
  2  1  1  0     0  0
  3 13  1  0     0  0
  4  3  1  0     0  0
  5  1  2  0     0  0
  6  4  1  0     0  0
  7 22  1  0     0  0
  8  6  2  0     0  0
  9  2  1  0     0  0
 10  4  2  0     0  0
 11  5  1  0     0  0
 12  2  2  0     0  0
 13 18  1  0     0  0
 14 17  1  0     0  0
 15  5  1  0     0  0
 16 19  2  0     0  0
 17  7  1  0     0  0
 18  7  1  0     0  0
 19 10  1  0     0  0
 20  6  1  0     0  0
 21  1  1  0     0  0
 22 24  1  0     0  0
 23 16  1  0     0  0
 24 26  1  0     0  0
 25 30  1  0     0  0
 26 15  1  0     0  0
 27  9  1  0     0  0
 28  9  1  0     0  0
 29 20  1  0     0  0
 30 21  2  0     0  0
 25 11  2  0     0  0
 14  3  1  0     0  0
 16  8  1  0     0  0
M  END