
  SciTegic12211612442D

 27 29  0  0  0  0            999 V2000
   -2.3155    0.7475    0.0000 N   0  0
   -2.3155   -0.7475    0.0000 C   0  0
   -1.0028   -1.5132    0.0000 N   0  0
   -1.0028    1.5132    0.0000 C   0  0
    0.2917    0.7475    0.0000 C   0  0
    0.2917   -0.7475    0.0000 C   0  0
    1.7138   -1.2033    0.0000 N   0  0
    2.5889    0.0182    0.0000 C   0  0
    1.7138    1.2033    0.0000 N   0  0
   -0.9991    2.7132    0.0000 O   0  0
    4.0872    0.0382    0.0000 S   0  0
   -3.3560   -1.3452    0.0000 N   0  0
    4.8208    1.3475    0.0000 C   0  0
    6.3215    1.3677    0.0000 C   0  0
    7.0567    2.6752    0.0000 C   0  0
    8.5566    2.6924    0.0000 C   0  0
    9.3214    1.4020    0.0000 C   0  0
    8.5863    0.0945    0.0000 C   0  0
    7.0864    0.0773    0.0000 C   0  0
    9.3516   -1.1966    0.0000 C   0  0
   10.5515   -1.1837    0.0000 F   0  0
    8.7631   -2.2424    0.0000 F   0  0
    9.9629   -2.2292    0.0000 F   0  0
    9.2921    4.0006    0.0000 C   0  0
    8.6810    5.0333    0.0000 F   0  0
   10.4921    4.0140    0.0000 F   0  0
    9.8807    5.0464    0.0000 F   0  0
  1  2  1  0
  1  4  1  0
  2  3  2  0
  3  6  1  0
  5  4  1  0
  5  6  2  0
  6  7  1  0
  7  8  1  0
  8  9  2  0
  9  5  1  0
  4 10  2  0
  8 11  1  0
  2 12  1  0
 11 13  1  0
 13 14  1  0
 14 15  2  0
 15 16  1  0
 16 17  2  0
 17 18  1  0
 18 19  2  0
 19 14  1  0
 18 20  1  0
 20 21  1  0
 20 22  1  0
 20 23  1  0
 16 24  1  0
 24 25  1  0
 24 26  1  0
 24 27  1  0
M  END