
          11280715052D 1   1.00000     0.00000     0

 24 25  0     0  0            999 V2000
    0.8417   -0.3292    0.0000 S   0  0  3  0  0  0           0  0  0
    2.9917   -2.0292    0.0000 C   0  0  3  0  0  0           0  0  0
   -2.8458   -0.4875    0.0000 N   0  0  0  0  0  0           0  0  0
    1.3792   -0.6042    0.0000 C   0  0  0  0  0  0           0  0  0
   -2.8000    0.4833    0.0000 N   0  0  0  0  0  0           0  0  0
   -3.1750    0.0125    0.0000 C   0  0  0  0  0  0           0  0  0
   -2.2708   -0.3292    0.0000 C   0  0  0  0  0  0           0  0  0
    1.1792    0.3750    0.0000 O   0  0  0  0  0  0           0  0  0
    0.4917    0.3750    0.0000 O   0  0  0  0  0  0           0  0  0
    0.3250   -0.6292    0.0000 N   0  0  0  0  0  0           0  0  0
    2.9667   -1.4292    0.0000 O   0  0  0  0  0  0           0  0  0
   -2.2375    0.2708    0.0000 C   0  0  0  0  0  0           0  0  0
    1.8792   -0.2917    0.0000 C   0  0  0  0  0  0           0  0  0
    1.4042   -1.1875    0.0000 C   0  0  0  0  0  0           0  0  0
    3.0167   -2.5792    0.0000 F   0  0  0  0  0  0           0  0  0
    2.5250   -2.4417    0.0000 F   0  0  0  0  0  0           0  0  0
    3.4917   -2.4125    0.0000 F   0  0  0  0  0  0           0  0  0
    2.4417   -1.1500    0.0000 C   0  0  0  0  0  0           0  0  0
    2.4125   -0.5667    0.0000 C   0  0  0  0  0  0           0  0  0
    1.9292   -1.4625    0.0000 C   0  0  0  0  0  0           0  0  0
   -1.7500   -0.6292    0.0000 C   0  0  0  0  0  0           0  0  0
   -0.1958   -0.3292    0.0000 C   0  0  0  0  0  0           0  0  0
   -1.2333   -0.3292    0.0000 C   0  0  0  0  0  0           0  0  0
   -0.7125   -0.6292    0.0000 C   0  0  0  0  0  0           0  0  0
  2 11  1  0     0  0
  3  7  1  0     0  0
  4  1  1  0     0  0
  5 12  1  0     0  0
  6  3  2  0     0  0
  7 21  1  0     0  0
  8  1  2  0     0  0
  9  1  2  0     0  0
 10  1  1  0     0  0
 11 18  1  0     0  0
 12  7  2  0     0  0
 13  4  2  0     0  0
 14  4  1  0     0  0
 15  2  1  0     0  0
 16  2  1  0     0  0
 17  2  1  0     0  0
 18 20  1  0     0  0
 19 13  1  0     0  0
 20 14  2  0     0  0
 21 23  1  0     0  0
 22 10  1  0     0  0
 23 24  1  0     0  0
 24 22  1  0     0  0
 19 18  2  0     0  0
  5  6  1  0     0  0
M  END