
  SciTegic12201615412D

 23 23  0  0  0  0            999 V2000
    1.2990   -0.7500    0.0000 C   0  0
    1.2990    0.7500    0.0000 C   0  0
    0.0000    1.5000    0.0000 N   0  0
   -1.2990    0.7500    0.0000 C   0  0
   -1.2990   -0.7500    0.0000 C   0  0
    0.0000   -1.5000    0.0000 C   0  0
   -2.5972   -1.5031    0.0000 C   0  0
   -2.5951   -3.0039    0.0000 N   0  0
   -3.8933   -3.7570    0.0000 C   0  0
   -3.8912   -5.2578    0.0000 C   0  0
   -4.9336   -3.1588    0.0000 O   0  0
   -5.1894   -6.0109    0.0000 C   0  0
   -5.1872   -7.5117    0.0000 C   0  0
   -6.4854   -8.2648    0.0000 C   0  0
   -6.4833   -9.7657    0.0000 C   0  0
   -7.7815  -10.5188    0.0000 N   0  0
   -7.7793  -12.0196    0.0000 C   0  0
   -9.0775  -12.7727    0.0000 O   0  0
   -6.7391  -12.6178    0.0000 O   0  0
   -9.0754  -14.2735    0.0000 C   0  0
  -10.1134  -14.8756    0.0000 C   0  0
   -8.0351  -14.8717    0.0000 C   0  0
   -9.0731  -15.4735    0.0000 C   0  0
  1  2  2  0
  2  3  1  0
  3  4  2  0
  4  5  1  0
  5  6  2  0
  6  1  1  0
  5  7  1  0
  7  8  1  0
  8  9  1  0
  9 10  1  0
  9 11  2  0
 10 12  1  0
 12 13  1  0
 13 14  1  0
 14 15  1  0
 15 16  1  0
 16 17  1  0
 17 18  1  0
 17 19  2  0
 18 20  1  0
 20 21  1  0
 20 22  1  0
 20 23  1  0
M  END