
  SciTegic12231509382D

 26 29  0  0  0  0            999 V2000
    2.2292   -2.9042    0.0000 C   0  0
    1.9750   -3.6917    0.0000 C   0  0
    3.0542   -2.9042    0.0000 C   0  0
    3.3042   -3.6917    0.0000 C   0  0
    1.1500   -3.6917    0.0000 S   0  0
    2.6375   -4.1792    0.0000 C   0  0
    7.4542   -5.5292    0.0000 C   0  0
    5.0417   -5.0167    0.0000 N   0  0
    1.5625   -2.4167    0.0000 C   0  0
    0.8917   -2.9042    0.0000 C   0  0
    8.0125   -4.9167    0.0000 C   0  0
    3.5417   -2.2417    0.0000 O   0  0
    6.6542   -5.3542    0.0000 C   0  0
    7.7125   -6.3167    0.0000 O   0  0
    4.0917   -3.9542    0.0000 C   0  0
    8.8167   -5.1042    0.0000 C   0  0
    7.7542   -4.1417    0.0000 C   0  0
    6.4000   -4.5792    0.0000 C   0  0
    6.0917   -5.9667    0.0000 C   0  0
    4.2625   -4.7542    0.0000 C   0  0
    5.2917   -5.8042    0.0000 C   0  0
    5.5917   -4.4042    0.0000 C   0  0
    9.1167   -3.7042    0.0000 C   0  0
    9.3667   -4.4917    0.0000 C   0  0
    8.3042   -3.5292    0.0000 C   0  0
    9.6667   -3.0917    0.0000 F   0  0
  2  1  2  0
  3  1  1  0
  4  3  1  0
  5  2  1  0
  6  2  1  0
  7 13  1  0
  8 20  1  0
  9  1  1  0
 10  9  2  0
 11  7  1  0
 12  3  2  0
 13 18  1  0
 14  7  2  0
 15  4  1  0
 16 11  2  0
 17 11  1  0
 18 22  1  0
 19 21  1  0
 20 15  1  0
 21  8  1  0
 22  8  1  0
 23 25  1  0
 24 16  1  0
 25 17  2  0
 26 23  1  0
  6  4  1  0
 10  5  1  0
 19 13  1  0
 24 23  2  0
M  END