
  SciTegic09081514182D

100102  0  0  0  0            999 V2000
    7.6826   -5.9264    0.0000 O   0  0
    6.6605   -6.5553    0.0000 S   0  0
    6.6944   -7.7548    0.0000 O   0  0
    1.2999   -2.2084    0.0000 O   0  0
   -2.3383   -1.3500    0.0000 O   0  0
   -2.3383    1.3500    0.0000 O   0  0
    0.0000    2.5000    0.0000 O   0  0
    1.2990   -0.7500    0.0000 O   0  0
    0.0000   -1.5000    0.0000 C   0  0  2  0  0  0
   -1.2990   -0.7500    0.0000 C   0  0  1  0  0  0
   -1.2990    0.7500    0.0000 C   0  0  2  0  0  0
    0.0000    1.5000    0.0000 C   0  0  1  0  0  0
    1.2990    0.7500    0.0000 C   0  0  1  0  0  0
    2.5972    1.5031    0.0000 C   0  0
    0.2258   -7.4736    0.0000 O   0  0
   -1.2253   -3.7882    0.0000 N   0  0
    3.9693   -3.6236    0.0000 O   0  0
    1.4654   -6.7053    0.0000 O   0  0
    0.1440   -5.9954    0.0000 C   0  0  2  0  0  0
    0.0981   -4.4961    0.0000 C   0  0  1  0  0  0
    1.3745   -3.7074    0.0000 C   0  0  2  0  0  0
    2.6949   -4.4165    0.0000 C   0  0  2  0  0  0
    2.7409   -5.9158    0.0000 C   0  0  1  0  0  0
    4.0616   -6.6288    0.0000 C   0  0
   -4.6766   -7.9486    0.0000 O   0  0
   -2.4128   -6.6575    0.0000 O   0  0
   -2.1682  -10.6500    0.0000 O   0  0
   -3.5107   -9.9810    0.0000 C   0  0  2  0  0  0
   -3.6026   -8.4838    0.0000 C   0  0  1  0  0  0
   -2.3519   -7.6556    0.0000 C   0  0  2  0  0  0
   -1.0095   -8.3259    0.0000 C   0  0  1  0  0  0
   -0.9175   -9.8219    0.0000 C   0  0  1  0  0  0
    0.4273  -10.4881    0.0000 C   0  0
   -0.7750  -14.0938    0.0000 O   0  0
   -1.8661  -13.5943    0.0000 S   0  0
   -1.9787  -12.3995    0.0000 O   0  0
  -20.1230  -13.7965    0.0000 C   0  0
  -18.8982  -12.9304    0.0000 C   0  0
  -19.0360  -11.4367    0.0000 C   0  0
  -20.3984  -10.8092    0.0000 C   0  0
  -21.6231  -11.6753    0.0000 C   0  0
  -21.4854  -13.1689    0.0000 C   0  0
  -20.5393   -9.3149    0.0000 N   0  0
  -21.9033   -8.6890    0.0000 C   0  0
  -22.0442   -7.1948    0.0000 C   0  0
  -22.8819   -9.3836    0.0000 O   0  0
  -23.4082   -6.5688    0.0000 C   0  0
  -23.5491   -5.0746    0.0000 C   0  0
  -24.9132   -4.4486    0.0000 C   0  0
  -25.0540   -2.9545    0.0000 C   0  0
  -26.3414   -2.2097    0.0000 S   0  0
  -26.0108   -0.7466    0.0000 S   0  0
  -24.5171   -0.6088    0.0000 C   0  0
  -23.9246   -1.9868    0.0000 C   0  0
  -17.5337  -13.5556    0.0000 N   0  0
  -16.3096  -12.6873    0.0000 C   0  0
  -14.9452  -13.3124    0.0000 C   0  0  1  0  0  0
  -13.7210  -12.4441    0.0000 C   0  0  2  0  0  0
  -14.8329  -14.5072    0.0000 O   0  0
  -12.3566  -13.0693    0.0000 C   0  0  1  0  0  0
  -13.8332  -11.2494    0.0000 O   0  0
  -11.1324  -12.2010    0.0000 C   0  0  2  0  0  0
  -11.2447  -11.0062    0.0000 O   0  0
  -12.2444  -14.2640    0.0000 O   0  0
   -9.7680  -12.8261    0.0000 C   0  0
   -8.5438  -11.9578    0.0000 O   0  0
   -7.1794  -12.5829    0.0000 C   0  0  2  0  0  0
   -6.0951  -10.2226    0.0000 N   0  0
   -3.3837  -11.4559    0.0000 O   0  0
   -3.0900  -14.4629    0.0000 O   0  0
   -7.0417  -14.0766    0.0000 O   0  0
   -5.9547  -11.7169    0.0000 C   0  0  2  0  0  0
   -4.5924  -12.3457    0.0000 C   0  0  2  0  0  0
   -4.4546  -13.8381    0.0000 C   0  0  2  0  0  0
   -5.6793  -14.7042    0.0000 C   0  0  1  0  0  0
   -5.5446  -16.1990    0.0000 C   0  0
   -7.4589   -9.5962    0.0000 C   0  0
   -8.2746  -10.1748    0.0000 C   0  0
   -7.5525   -8.6006    0.0000 O   0  0
   -6.5254  -16.8905    0.0000 O   0  0
   -0.8878  -12.8993    0.0000 O   0  5
   -4.3946   -9.5131    0.0000 H   0  0
    1.2601   -9.9346    0.0000 O   0  0
    0.4906  -11.4861    0.0000 O   0  0
   -0.7250   -5.5007    0.0000 H   0  0
   -2.5006   -4.5795    0.0000 C   0  0
   -2.4685   -5.5790    0.0000 C   0  0
   -3.3823   -4.1078    0.0000 O   0  0
   -0.8780   -1.9786    0.0000 H   0  0
    3.4646    1.0054    0.0000 O   0  0
    2.5949    2.5031    0.0000 O   0  0
    5.3398   -5.8423    0.0000 O   0  0
    7.7162   -7.1258    0.0000 O   0  5
    3.9207   -2.1236    0.0000 S   0  0
    4.9396   -1.4896    0.0000 O   0  0
    2.8624   -1.5579    0.0000 O   0  5
    3.8813   -0.9242    0.0000 O   0  0
   21.7501    4.8668    0.0000 Na  0  3
   19.2501    4.8668    0.0000 Na  0  3
   16.7501    4.8668    0.0000 Na  0  3
  2  1  2  0
  3  2  2  0
 13  8  1  0
  8  9  1  0
  9 10  1  0
 10 11  1  0
 11 12  1  0
 12 13  1  0
 13 14  1  1
  9  4  1  0
 10  5  1  6
 11  6  1  1
 12  7  1  6
 23 18  1  0
 18 19  1  0
 19 20  1  0
 20 21  1  0
 21 22  1  0
 22 23  1  0
 23 24  1  1
 19 15  1  0
 20 16  1  6
 21  4  1  1
 22 17  1  1
 32 27  1  0
 27 28  1  0
 28 29  1  0
 29 30  1  0
 30 31  1  0
 31 32  1  0
 32 33  1  1
 29 25  1  6
 30 26  1  1
 31 15  1  6
 35 34  2  0
 36 35  2  0
 37 38  2  0
 38 39  1  0
 39 40  2  0
 40 41  1  0
 41 42  2  0
 42 37  1  0
 40 43  1  0
 43 44  1  0
 44 45  1  0
 44 46  2  0
 45 47  1  0
 47 48  1  0
 48 49  1  0
 49 50  1  0
 50 51  1  0
 51 52  1  0
 52 53  1  0
 53 54  1  0
 54 50  1  0
 38 55  1  0
 55 56  1  0
 56 57  1  0
 57 58  1  0
 57 59  1  1
 58 60  1  0
 58 61  1  1
 60 62  1  0
 62 63  1  6
 60 64  1  1
 62 65  1  0
 65 66  1  0
 67 66  1  1
 75 71  1  0
 71 67  1  0
 67 72  1  0
 72 73  1  0
 73 74  1  0
 74 75  1  0
 75 76  1  1
 72 68  1  6
 73 69  1  1
 74 70  1  1
 68 77  1  0
 77 78  1  0
 77 79  2  0
 76 80  1  0
 70 35  1  0
 35 81  1  0
 69 28  1  0
 28 82  1  6
 33 83  2  0
 33 84  1  0
 19 85  1  6
 16 86  1  0
 86 87  1  0
 86 88  2  0
  9 89  1  6
 14 90  2  0
 14 91  1  0
 24 92  1  0
 92  2  1  0
  2 93  1  0
 17 94  1  0
 94 95  2  0
 94 96  1  0
 94 97  2  0
M  CHG  6  81  -1  93  -1  96  -1  98   1  99   1 100   1
M  END