
  SciTegic06231415592D

 42 42  0  0  0  0            999 V2000
    1.2990   -0.7500    0.0000 N   0  0
    1.2990    0.7500    0.0000 C   0  0
   -1.2990    0.7500    0.0000 N   0  0
   -1.2990   -0.7500    0.0000 C   0  0
    0.0000    1.5000    0.0000 C   0  0
    0.0000   -1.5000    0.0000 C   0  0
   -9.0990   -0.7365    0.0000 C   0  0
    9.0990    0.7365    0.0000 C   0  0
    7.8003    1.4887    0.0000 C   0  0
   -7.8003   -1.4887    0.0000 C   0  0
   -5.2003   -1.4932    0.0000 C   0  0
    5.2003    1.4932    0.0000 C   0  0
  -10.4007   -1.4819    0.0000 C   0  0
   -9.0939    0.7636    0.0000 C   0  0
   10.4007    1.4819    0.0000 C   0  0
    9.0939   -0.7636    0.0000 C   0  0
    3.8990    0.7455    0.0000 N   0  0
   -3.8990   -0.7455    0.0000 N   0  0
   -6.4990   -0.7410    0.0000 C   0  0
    6.4990    0.7410    0.0000 C   0  0
    2.6003    1.4978    0.0000 C   0  0
   -2.6003   -1.4978    0.0000 C   0  0
  -11.6971   -0.7274    0.0000 C   0  0
   11.6971    0.7274    0.0000 C   0  0
   10.3903   -1.5181    0.0000 C   0  0
  -10.3903    1.5181    0.0000 C   0  0
    0.0000    2.7000    0.0000 O   0  0
  -11.6919    0.7726    0.0000 C   0  0
   11.6919   -0.7725    0.0000 C   0  0
    5.2024    2.6932    0.0000 O   0  0
   -5.2024   -2.6932    0.0000 O   0  0
   -6.4969    0.4590    0.0000 N   0  0
    6.4969   -0.4590    0.0000 N   0  0
  -12.7291    1.3762    0.0000 O   0  0
   12.7291   -1.3761    0.0000 O   0  0
   17.9890    0.0000    0.0000 Cl  0  0
    0.0000   -2.7000    0.0000 C   0  0
  -10.4049   -2.6819    0.0000 C   0  0
   -8.0526    1.3600    0.0000 C   0  0
   10.4048    2.6819    0.0000 C   0  0
    8.0526   -1.3600    0.0000 C   0  0
   15.4890    0.0000    0.0000 Cl  0  0
  1  2  2  0
  3  4  1  0
  2  5  1  0
  3  5  2  0
  1  6  1  0
  4  6  2  0
  8  9  1  0
  7 10  1  0
  7 13  1  0
  7 14  2  0
  8 15  2  0
  8 16  1  0
 12 17  1  0
 11 18  1  0
 10 19  1  0
 11 19  1  0
  9 20  1  0
 12 20  1  0
  2 21  1  0
 17 21  1  0
  4 22  1  0
 18 22  1  0
 13 23  2  0
 15 24  1  0
 16 25  2  0
 14 26  1  0
  5 27  1  0
 23 28  1  0
 26 28  2  0
 24 29  2  0
 25 29  1  0
 12 30  2  0
 11 31  2  0
 19 32  1  0
 20 33  1  0
 28 34  1  0
 29 35  1  0
  6 37  1  0
 13 38  1  0
 14 39  1  0
 15 40  1  0
 16 41  1  0
M  END