
          11280715102D 1   1.00000     0.00000     0

 30 33  0     0  0            999 V2000
    2.2792   -3.5042    0.0000 C   0  0  0  0  0  0           0  0  0
    2.2792   -2.6792    0.0000 N   0  0  3  0  0  0           0  0  0
    1.5667   -2.2667    0.0000 C   0  0  0  0  0  0           0  0  0
    1.5667   -1.4417    0.0000 C   0  0  0  0  0  0           0  0  0
    4.4167   -1.4375    0.0000 N   0  0  3  0  0  0           0  0  0
    0.8542   -1.0292    0.0000 C   0  0  0  0  0  0           0  0  0
    3.0000   -2.2625    0.0000 C   0  0  3  0  0  0           0  0  0
    3.0000   -3.9125    0.0000 O   0  0  0  0  0  0           0  0  0
    3.7042   -2.6750    0.0000 C   0  0  0  0  0  0           0  0  0
    3.0000   -1.4375    0.0000 C   0  0  0  0  0  0           0  0  0
    0.1417   -1.4417    0.0000 C   0  0  0  0  0  0           0  0  0
    1.5667   -3.9167    0.0000 C   0  0  0  0  0  0           0  0  0
    0.8625   -2.6792    0.0000 C   0  0  0  0  0  0           0  0  0
    0.1417   -2.2750    0.0000 C   0  0  0  0  0  0           0  0  0
    4.4167   -2.2625    0.0000 C   0  0  0  0  0  0           0  0  0
    3.7042   -1.0250    0.0000 C   0  0  0  0  0  0           0  0  0
    5.1375   -1.0292    0.0000 C   0  0  0  0  0  0           0  0  0
    0.8542   -0.2042    0.0000 Cl  0  0  0  0  0  0           0  0  0
   -0.5750   -1.0292    0.0000 Cl  0  0  0  0  0  0           0  0  0
    5.8500   -1.4417    0.0000 C   0  0  0  0  0  0           0  0  0
    0.8542   -3.5000    0.0000 C   0  0  0  0  0  0           0  0  0
    1.5792   -4.7375    0.0000 C   0  0  0  0  0  0           0  0  0
    5.8417   -2.2667    0.0000 C   0  0  0  0  0  0           0  0  0
    6.5625   -1.0292    0.0000 C   0  0  0  0  0  0           0  0  0
    0.8667   -5.1500    0.0000 C   0  0  0  0  0  0           0  0  0
    0.1417   -3.9125    0.0000 C   0  0  0  0  0  0           0  0  0
    7.2750   -1.4417    0.0000 C   0  0  0  0  0  0           0  0  0
    6.5542   -2.6792    0.0000 C   0  0  0  0  0  0           0  0  0
    7.2750   -2.2750    0.0000 C   0  0  0  0  0  0           0  0  0
    0.1417   -4.7417    0.0000 C   0  0  0  0  0  0           0  0  0
  2  1  1  0     0  0
  3  2  1  0     0  0
  4  3  2  0     0  0
  5 16  1  0     0  0
  6  4  1  0     0  0
  7  2  1  0     0  0
  8  1  2  0     0  0
  9  7  1  0     0  0
 10  7  1  0     0  0
 11 14  1  0     0  0
 12  1  1  0     0  0
 13  3  1  0     0  0
 14 13  2  0     0  0
 15  9  1  0     0  0
 16 10  1  0     0  0
 17  5  1  0     0  0
 18  6  1  0     0  0
 19 11  1  0     0  0
 20 17  1  0     0  0
 21 12  2  0     0  0
 22 12  1  0     0  0
 23 20  2  0     0  0
 24 20  1  0     0  0
 25 22  2  0     0  0
 26 21  1  0     0  0
 27 24  2  0     0  0
 28 23  1  0     0  0
 29 27  1  0     0  0
 30 25  1  0     0  0
 30 26  2  0     0  0
  5 15  1  0     0  0
 11  6  2  0     0  0
 29 28  2  0     0  0
M  END