
  SciTegic02011310452D

 40 43  0  0  0  0            999 V2000
   11.7305  -28.4973    0.0000 N   0  0
   11.0960  -28.9794    0.0000 C   0  0  1  0  0  0
   12.4580  -28.7052    0.0000 C   0  0
   11.7276  -27.6352    0.0000 C   0  0
   10.8587  -29.7150    0.0000 C   0  0  1  0  0  0
   10.4276  -28.4939    0.0000 O   0  0
   12.9679  -27.9637    0.0000 C   0  0
   12.8037  -29.4596    0.0000 N   0  0
   12.5295  -27.3657    0.0000 N   0  0
   10.0514  -29.7285    0.0000 C   0  0  1  0  0  0
   11.1141  -30.4842    0.0000 O   0  0
    9.7907  -28.9668    0.0000 C   0  0  1  0  0  0
   13.7661  -28.0279    0.0000 C   0  0
   13.6490  -29.5354    0.0000 C   0  0
    9.8025  -30.5020    0.0000 O   0  0
    9.0268  -28.7408    0.0000 C   0  0
   14.1412  -28.8207    0.0000 N   0  0
   14.1696  -27.3339    0.0000 N   0  0
    8.9896  -27.9422    0.0000 N   0  0
    8.2636  -27.5670    0.0000 C   0  0
    7.5757  -28.0082    0.0000 C   0  0
    6.8497  -27.6330    0.0000 C   0  0
    6.1618  -28.0743    0.0000 N   0  0
    5.4420  -27.6873    0.0000 C   0  0
    4.7470  -28.1171    0.0000 O   0  0
    5.4157  -26.8651    0.0000 N   0  0
    4.6997  -26.4711    0.0000 C   0  0
    4.6878  -25.6555    0.0000 C   0  0
    3.9727  -25.2616    0.0000 C   0  0
    3.2725  -25.6846    0.0000 C   0  0
    3.2920  -26.5058    0.0000 C   0  0
    4.0076  -26.8961    0.0000 C   0  0
    9.6774  -27.5010    0.0000 C   0  0
   10.4034  -27.8762    0.0000 C   0  0
    9.6393  -26.6847    0.0000 C   0  0
    2.5561  -25.2916    0.0000 C   0  0
    2.5382  -24.4746    0.0000 C   0  0
    1.8575  -25.7156    0.0000 C   0  0
    1.8449  -24.8789    0.0000 C   0  0
   14.9868  -27.3365    0.0000 C   0  0
  2  1  1  1
  1  3  1  0
  1  4  1  0
  5  2  1  0
  2  6  1  0
  3  7  2  0
  3  8  1  0
  4  9  2  0
  5 10  1  0
  5 11  1  6
  6 12  1  0
  7 13  1  0
  8 14  2  0
 10 15  1  6
 12 16  1  1
 13 17  2  0
 13 18  1  0
 16 19  1  0
  7  9  1  0
 10 12  1  0
 14 17  1  0
 19 20  1  0
 20 21  1  0
 21 22  1  0
 22 23  1  0
 23 24  1  0
 24 25  2  0
 24 26  1  0
 26 27  1  0
 27 28  2  0
 28 29  1  0
 29 30  2  0
 30 31  1  0
 31 32  2  0
 32 27  1  0
 19 33  1  0
 33 34  1  0
 33 35  1  0
 30 36  1  0
 36 37  1  0
 36 38  1  0
 36 39  1  0
 18 40  1  0
M  END