
          11280715292D 1   1.00000     0.00000     0

 12 12  0     0  0            999 V2000
    1.7042   -2.0875    0.0000 N   0  0  0  0  0  0           0  0  0
    3.7667   -2.8042    0.0000 N   0  0  3  0  0  0           0  0  0
    1.2917   -2.8000    0.0000 C   0  0  0  0  0  0           0  0  0
    2.5292   -2.0917    0.0000 C   0  0  0  0  0  0           0  0  0
    2.9417   -2.8042    0.0000 C   0  0  0  0  0  0           0  0  0
    4.1792   -3.5250    0.0000 C   0  0  0  0  0  0           0  0  0
    4.1792   -2.0917    0.0000 C   0  0  0  0  0  0           0  0  0
    1.7000   -3.5125    0.0000 C   0  0  0  0  0  0           0  0  0
    0.4750   -2.8000    0.0000 C   0  0  0  0  0  0           0  0  0
    0.0542   -3.5042    0.0000 C   0  0  0  0  0  0           0  0  0
    1.2875   -4.2292    0.0000 C   0  0  0  0  0  0           0  0  0
    0.4625   -4.2250    0.0000 C   0  0  0  0  0  0           0  0  0
  2  5  1  0     0  0
  3  1  1  0     0  0
  4  1  1  0     0  0
  5  4  1  0     0  0
  6  2  1  0     0  0
  7  2  1  0     0  0
  8  3  2  0     0  0
  9  3  1  0     0  0
 10  9  2  0     0  0
 11  8  1  0     0  0
 12 10  1  0     0  0
 12 11  2  0     0  0
M  END