
  Mrv0541 04051115152D          

 26 29  0  0  0  0            999 V2000
   -3.5722    1.7578    0.0000 C   0  0  0  0  0  0  0  0  0  0  0  0
   -4.2866    1.3453    0.0000 C   0  0  0  0  0  0  0  0  0  0  0  0
   -4.2866    0.5203    0.0000 C   0  0  0  0  0  0  0  0  0  0  0  0
   -3.5722    0.1078    0.0000 C   0  0  0  0  0  0  0  0  0  0  0  0
   -2.0731    1.6002    0.0000 N   0  0  0  0  0  0  0  0  0  0  0  0
   -2.8577    1.3453    0.0000 C   0  0  0  0  0  0  0  0  0  0  0  0
   -2.8577    0.5203    0.0000 C   0  0  0  0  0  0  0  0  0  0  0  0
   -2.0731    0.2653    0.0000 N   0  0  0  0  0  0  0  0  0  0  0  0
   -1.5881    0.9328    0.0000 C   0  0  0  0  0  0  0  0  0  0  0  0
   -0.7631    0.9328    0.0000 C   0  0  0  0  0  0  0  0  0  0  0  0
   -0.3506    0.2183    0.0000 C   0  0  2  0  0  0  0  0  0  0  0  0
   -0.7631   -0.4962    0.0000 C   0  0  0  0  0  0  0  0  0  0  0  0
    0.4744    0.2183    0.0000 N   0  0  0  0  0  0  0  0  0  0  0  0
   -0.3506   -1.2107    0.0000 O   0  0  0  0  0  0  0  0  0  0  0  0
   -1.5881   -0.4962    0.0000 O   0  0  0  0  0  0  0  0  0  0  0  0
    0.8869   -0.4962    0.0000 C   0  0  0  0  0  0  0  0  0  0  0  0
    1.7119   -0.4962    0.0000 C   0  0  0  0  0  0  0  0  0  0  0  0
    0.4744   -1.2107    0.0000 O   0  0  0  0  0  0  0  0  0  0  0  0
    2.1968   -1.1636    0.0000 C   0  0  0  0  0  0  0  0  0  0  0  0
    2.1968    0.1713    0.0000 S   0  0  0  0  0  0  0  0  0  0  0  0
    2.9814   -0.0837    0.0000 C   0  0  0  0  0  0  0  0  0  0  0  0
    2.9814   -0.9087    0.0000 C   0  0  0  0  0  0  0  0  0  0  0  0
    3.6959   -1.3212    0.0000 C   0  0  0  0  0  0  0  0  0  0  0  0
    4.4103   -0.9087    0.0000 C   0  0  0  0  0  0  0  0  0  0  0  0
    4.4103   -0.0837    0.0000 C   0  0  0  0  0  0  0  0  0  0  0  0
    3.6959    0.3288    0.0000 C   0  0  0  0  0  0  0  0  0  0  0  0
  1  6  2  0  0  0  0
  1  2  1  0  0  0  0
  2  3  2  0  0  0  0
  3  4  1  0  0  0  0
  4  7  2  0  0  0  0
  9  5  1  0  0  0  0
  6  5  1  0  0  0  0
  6  7  1  0  0  0  0
  7  8  1  0  0  0  0
  9  8  2  0  0  0  0
 10  9  1  0  0  0  0
 10 11  1  0  0  0  0
 11 13  1  1  0  0  0
 11 12  1  0  0  0  0
 12 14  2  0  0  0  0
 12 15  1  0  0  0  0
 16 13  1  0  0  0  0
 16 17  1  0  0  0  0
 16 18  2  0  0  0  0
 17 19  2  0  0  0  0
 17 20  1  0  0  0  0
 19 22  1  0  0  0  0
 21 20  1  0  0  0  0
 21 26  2  0  0  0  0
 21 22  1  0  0  0  0
 22 23  2  0  0  0  0
 23 24  1  0  0  0  0
 24 25  2  0  0  0  0
 25 26  1  0  0  0  0
M  END