
          11280714542D 1   1.00000     0.00000     0

 31 32  0     0  0            999 V2000
    0.2375   -5.0042    0.0000 C   0  0  0  0  0  0           0  0  0
    0.7542   -5.3042    0.0000 N   0  0  0  0  0  0           0  0  0
    3.9292   -4.1250    0.0000 N   0  0  3  0  0  0           0  0  0
    1.2750   -5.0042    0.0000 C   0  0  0  0  0  0           0  0  0
   -0.2833   -5.3125    0.0000 C   0  0  0  0  0  0           0  0  0
    3.6917   -4.8292    0.0000 C   0  0  3  0  0  0           0  0  0
    3.3750   -4.4375    0.0000 C   0  0  3  0  0  0           0  0  0
    5.3667   -4.8042    0.0000 C   0  0  0  0  0  0           0  0  0
    5.9667   -4.7917    0.0000 C   0  0  0  0  0  0           0  0  0
    2.3167   -5.0000    0.0000 C   0  0  3  0  0  0           0  0  0
    2.8292   -4.6917    0.0000 C   0  0  0  0  0  0           0  0  0
    2.5500   -4.2917    0.0000 C   0  0  0  0  0  0           0  0  0
    1.8000   -5.3000    0.0000 N   0  0  0  0  0  0           0  0  0
    0.2292   -4.4042    0.0000 O   0  0  0  0  0  0           0  0  0
   -0.8000   -5.0125    0.0000 C   0  0  0  0  0  0           0  0  0
    1.2750   -4.4042    0.0000 O   0  0  0  0  0  0           0  0  0
    3.6917   -5.4292    0.0000 C   0  0  0  0  0  0           0  0  0
    3.1667   -5.1292    0.0000 C   0  0  0  0  0  0           0  0  0
    6.2542   -4.2667    0.0000 O   0  0  0  0  0  0           0  0  0
    5.0542   -4.2917    0.0000 O   0  0  0  0  0  0           0  0  0
    6.2792   -5.3042    0.0000 O   0  0  0  0  0  0           0  0  0
    5.0792   -5.3292    0.0000 O   0  0  0  0  0  0           0  0  0
    4.2250   -3.6042    0.0000 C   0  0  0  0  0  0           0  0  0
   -0.2833   -5.9167    0.0000 C   0  0  0  0  0  0           0  0  0
   -0.8083   -4.4125    0.0000 O   0  0  0  0  0  0           0  0  0
   -1.3208   -5.3125    0.0000 C   0  0  0  0  0  0           0  0  0
   -1.3250   -4.1167    0.0000 C   0  0  0  0  0  0           0  0  0
   -1.8458   -4.4167    0.0000 C   0  0  0  0  0  0           0  0  0
   -0.8000   -6.2167    0.0000 C   0  0  0  0  0  0           0  0  0
   -2.3625   -4.1167    0.0000 C   0  0  0  0  0  0           0  0  0
   -1.3208   -5.9167    0.0000 C   0  0  0  0  0  0           0  0  0
  2  1  1  0     0  0
  3  7  1  0     0  0
  4  2  1  0     0  0
  5  1  1  0     0  0
  6 11  1  0     0  0
  7 12  1  0     0  0
  9  8  1  0     0  0
 10 13  1  0     0  0
 11 10  1  0     0  0
 12 10  1  0     0  0
 13  4  1  0     0  0
 14  1  2  0     0  0
 15  5  2  0     0  0
 16  4  2  0     0  0
 17  6  1  0     0  0
 18  7  1  0     0  0
 19  9  2  0     0  0
 20  8  2  0     0  0
 21  9  1  0     0  0
 22  8  1  0     0  0
 23  3  1  0     0  0
 24  5  1  0     0  0
 25 15  1  0     0  0
 26 15  1  0     0  0
 27 25  1  0     0  0
 28 27  1  0     0  0
 29 24  2  0     0  0
 30 28  1  0     0  0
 31 29  1  0     0  0
 31 26  2  0     0  0
  3  6  1  0     0  0
 18 17  1  0     0  0
M  END