
          11280715112D 1   1.00000     0.00000     0

 25 27  0     0  0            999 V2000
   -1.3958    0.7958    0.0000 C   0  0  0  0  0  0           0  0  0
   -2.1500    0.4583    0.0000 N   0  0  3  0  0  0           0  0  0
   -2.7000    1.0750    0.0000 N   0  0  0  0  0  0           0  0  0
   -1.4833    1.6208    0.0000 C   0  0  0  0  0  0           0  0  0
   -2.2875    1.7875    0.0000 C   0  0  0  0  0  0           0  0  0
   -0.6833    0.3833    0.0000 N   0  0  0  0  0  0           0  0  0
    0.0292    0.7958    0.0000 C   0  0  0  0  0  0           0  0  0
   -2.3833   -0.3292    0.0000 C   0  0  0  0  0  0           0  0  0
   -2.6250    2.5458    0.0000 C   0  0  3  0  0  0           0  0  0
    0.7417    0.3833    0.0000 N   0  0  0  0  0  0           0  0  0
    0.0292    1.6208    0.0000 O   0  0  0  0  0  0           0  0  0
   -2.8583   -1.9042    0.0000 N   0  0  0  0  0  0           0  0  0
    1.4625    0.7958    0.0000 C   0  0  0  0  0  0           0  0  0
   -3.1833   -0.5167    0.0000 C   0  0  0  0  0  0           0  0  0
   -1.8208   -0.9167    0.0000 C   0  0  0  0  0  0           0  0  0
   -2.0458   -1.7125    0.0000 C   0  0  0  0  0  0           0  0  0
   -3.4208   -1.3042    0.0000 C   0  0  0  0  0  0           0  0  0
   -2.8458    3.3458    0.0000 C   0  0  0  0  0  0           0  0  0
   -1.9125    2.9583    0.0000 C   0  0  0  0  0  0           0  0  0
   -3.4250    2.3333    0.0000 C   0  0  0  0  0  0           0  0  0
    2.1750    0.3750    0.0000 C   0  0  0  0  0  0           0  0  0
    1.4542    1.6125    0.0000 C   0  0  0  0  0  0           0  0  0
    2.1667    2.0250    0.0000 C   0  0  0  0  0  0           0  0  0
    2.8875    0.7875    0.0000 C   0  0  0  0  0  0           0  0  0
    2.8917    1.6125    0.0000 C   0  0  0  0  0  0           0  0  0
  2  1  1  0     0  0
  3  2  1  0     0  0
  4  1  2  0     0  0
  5  4  1  0     0  0
  6  1  1  0     0  0
  7  6  1  0     0  0
  8  2  1  0     0  0
  9  5  1  0     0  0
 10  7  1  0     0  0
 11  7  2  0     0  0
 12 16  1  0     0  0
 13 10  1  0     0  0
 14  8  2  0     0  0
 15  8  1  0     0  0
 16 15  2  0     0  0
 17 14  1  0     0  0
 18  9  1  0     0  0
 19  9  1  0     0  0
 20  9  1  0     0  0
 21 13  2  0     0  0
 22 13  1  0     0  0
 23 22  2  0     0  0
 24 21  1  0     0  0
 25 23  1  0     0  0
  3  5  2  0     0  0
 12 17  2  0     0  0
 25 24  2  0     0  0
M  END