
  SciTegic10041313232D

 71 70  0  0  1  0            999 V2000
    5.4738    0.1319    0.0000 N   0  0
    6.1897   -1.1074    0.0000 C   0  0
    6.1886   -0.2801    0.0000 C   0  0
    6.9034    0.1328    0.0000 C   0  0
    7.6198   -0.2805    0.0000 C   0  0
    7.6170   -1.1111    0.0000 C   0  0
    6.9016   -1.5202    0.0000 C   0  0
   -3.0875    1.0042    0.0000 C   0  0  2  0  0  0
   -3.0875    0.1792    0.0000 C   0  0  2  0  0  0
   -2.3755   -0.2292    0.0000 C   0  0  1  0  0  0
   -1.6635    0.1792    0.0000 C   0  0  2  0  0  0
   -1.6635    1.0042    0.0000 C   0  0  2  0  0  0
   -2.3755    1.4208    0.0000 O   0  0
   -0.9478    1.4146    0.0000 O   0  0
   -0.2345    1.0000    0.0000 C   0  0  1  0  0  0
   -0.2422    0.1741    0.0000 C   0  0  1  0  0  0
    0.4670   -0.2404    0.0000 C   0  0  2  0  0  0
    1.1851    0.1665    0.0000 C   0  0  1  0  0  0
    1.1895    0.9924    0.0000 O   0  0
    0.4758    1.4115    0.0000 C   0  0  1  0  0  0
    1.8967   -0.2508    0.0000 O   0  0
    2.6140    0.1569    0.0000 C   0  0
    3.3257   -0.2604    0.0000 C   0  0  2  0  0  0
    3.3174   -1.0841    0.0000 C   0  0  2  0  0  0
    4.0250   -1.5012    0.0000 C   0  0  1  0  0  0
    4.7446   -1.0971    0.0000 C   0  0  1  0  0  0
    4.0401    0.1506    0.0000 O   0  0
    2.5991   -1.4897    0.0000 O   0  0
    5.4542   -1.5180    0.0000 O   0  0
    4.7544   -0.2721    0.0000 C   0  0
    4.0164   -2.3262    0.0000 O   0  0
   -3.8032    1.4146    0.0000 C   0  0
   -3.8074    2.2450    0.0000 O   0  0
   -0.2417    1.8250    0.0000 H   0  0
   -3.8014   -0.2344    0.0000 O   0  0
   -4.5164    0.1771    0.0000 C   0  0
   -2.3755   -1.0542    0.0000 O   0  0
   -0.9496   -0.2344    0.0000 N   0  0
   -0.2500   -0.6500    0.0000 O   0  0
    0.4614   -1.0654    0.0000 O   0  0
    6.8991   -2.3452    0.0000 N   0  0
    7.6123   -2.7598    0.0000 C   0  0
    7.6099   -3.5848    0.0000 C   0  0
    8.3280   -2.3495    0.0000 O   0  0
    8.3231   -3.9995    0.0000 C   0  0
    9.0388   -3.5891    0.0000 C   0  0
    9.7520   -4.0037    0.0000 C   0  0
   10.4677   -3.5934    0.0000 C   0  0
   11.2200   -3.9290    0.0000 S   0  0
   11.7739   -3.3175    0.0000 S   0  0
   11.3635   -2.6018    0.0000 C   0  0
   10.5561   -2.7710    0.0000 C   0  0
   -0.9508   -1.0594    0.0000 S   0  0
   -0.9583   -1.8833    0.0000 O   0  5
   -0.1258   -1.0637    0.0000 O   0  0
   -1.7758   -1.0560    0.0000 O   0  0
   -4.4578    2.7525    0.0000 S   0  0
   -5.1086    3.2553    0.0000 O   0  5
   -3.9519    3.4041    0.0000 O   0  0
   -4.9659    2.1025    0.0000 O   0  0
    1.1731   -1.4827    0.0000 S   0  0
    1.8833   -1.8917    0.0000 O   0  5
    1.5923   -0.7721    0.0000 O   0  0
    0.7586   -2.1960    0.0000 O   0  0
    0.4782    2.2365    0.0000 C   0  0
   -0.2351    2.6511    0.0000 O   0  0
    1.1939    2.6469    0.0000 O   0  5
   -2.2542   -2.4667    0.0000 Na  0  3
   -2.6583    3.3750    0.0000 Na  0  3
    1.9583    2.9667    0.0000 Na  0  3
    1.8667   -2.8708    0.0000 Na  0  3
 12 14  1  6
 32 33  1  0
  5  6  1  0
 15 34  1  1
 14 15  1  0
  9 35  1  6
 15 16  1  0
 35 36  1  0
 10 37  1  1
  6  7  2  0
 11 38  1  6
  7  2  1  0
 16 39  1  1
  3  1  1  0
 17 40  1  6
  8  9  1  0
  7 41  1  0
 15 20  1  0
 41 42  1  0
 16 17  1  0
 42 43  1  0
 17 18  1  0
 42 44  2  0
 18 19  1  0
 43 45  1  0
 19 20  1  0
 45 46  1  0
 46 47  1  0
 18 21  1  1
 48 47  1  0
 48 49  1  0
  2  3  2  0
 21 22  1  0
 23 22  1  1
 49 50  1  0
 50 51  1  0
 51 52  1  0
 52 48  1  0
 23 24  1  0
 38 53  1  0
  3  4  1  0
 53 54  1  0
 53 55  2  0
  4  5  2  0
 53 56  2  0
  8 13  1  0
 33 57  1  0
 23 27  1  0
 57 58  1  0
 24 25  1  0
 57 59  2  0
 25 26  1  0
 57 60  2  0
  9 10  1  0
 40 61  1  0
 24 28  1  6
 61 62  1  0
 10 11  1  0
 61 63  2  0
 26 29  1  6
 61 64  2  0
 11 12  1  0
 20 65  1  6
 26 30  1  0
 65 66  2  0
 30  1  1  0
 65 67  1  0
 12 13  1  0
 25 31  1  1
  8 32  1  1
M  CHG  8  54  -1  58  -1  62  -1  67  -1  68   1  69   1  70   1  71   1
M  END