
          11280714492D 1   1.00000     0.00000     0

 22 24  0     0  0            999 V2000
    5.1792   -5.2542    0.0000 S   0  0  3  0  0  0           0  0  0
    5.1792   -6.0917    0.0000 C   0  0  0  0  0  0           0  0  0
    5.9000   -7.3292    0.0000 C   0  0  0  0  0  0           0  0  0
    5.1792   -7.7375    0.0000 N   0  0  0  0  0  0           0  0  0
    5.9000   -6.5042    0.0000 C   0  0  0  0  0  0           0  0  0
    4.4667   -6.5000    0.0000 C   0  0  0  0  0  0           0  0  0
    6.6042   -7.7417    0.0000 N   0  0  3  0  0  0           0  0  0
    4.4625   -7.3292    0.0000 C   0  0  0  0  0  0           0  0  0
    5.1792   -4.4250    0.0000 C   0  0  0  0  0  0           0  0  0
    6.0167   -5.2542    0.0000 O   0  0  0  0  0  0           0  0  0
    4.3417   -5.2542    0.0000 O   0  0  0  0  0  0           0  0  0
    4.4625   -4.0042    0.0000 C   0  0  0  0  0  0           0  0  0
    5.8917   -4.0042    0.0000 C   0  0  0  0  0  0           0  0  0
    3.7375   -7.7417    0.0000 Br  0  0  0  0  0  0           0  0  0
    5.1792   -2.7667    0.0000 C   0  0  0  0  0  0           0  0  0
    5.1750   -1.9375    0.0000 N   0  0  0  0  0  0           0  0  0
    4.4667   -3.1792    0.0000 C   0  0  0  0  0  0           0  0  0
    5.8917   -3.1875    0.0000 C   0  0  0  0  0  0           0  0  0
    6.6917   -8.5542    0.0000 C   0  0  0  0  0  0           0  0  0
    7.3667   -7.4042    0.0000 C   0  0  0  0  0  0           0  0  0
    7.9167   -8.0167    0.0000 C   0  0  0  0  0  0           0  0  0
    7.5042   -8.7292    0.0000 C   0  0  0  0  0  0           0  0  0
  2  1  1  0     0  0
  3  5  2  0     0  0
  4  8  2  0     0  0
  5  2  1  0     0  0
  6  2  2  0     0  0
  7  3  1  0     0  0
  8  6  1  0     0  0
  9  1  1  0     0  0
 10  1  2  0     0  0
 11  1  2  0     0  0
 12  9  1  0     0  0
 13  9  2  0     0  0
 14  8  1  0     0  0
 15 18  2  0     0  0
 16 15  1  0     0  0
 17 12  2  0     0  0
 18 13  1  0     0  0
 19  7  1  0     0  0
 20  7  1  0     0  0
 21 20  1  0     0  0
 22 19  1  0     0  0
 15 17  1  0     0  0
  4  3  1  0     0  0
 22 21  1  0     0  0
M  END