
  CDK    6/4/10,11:42

 33 35  0  0  0  0  0  0  0  0999 V2000
   15.8652    2.5750    0.0000 C   0  0  0  0  0  0  0  0  0  0  0  0
   15.8641    1.7477    0.0000 C   0  0  0  0  0  0  0  0  0  0  0  0
   16.5789    1.3348    0.0000 C   0  0  0  0  0  0  0  0  0  0  0  0
   17.2953    1.7481    0.0000 C   0  0  0  0  0  0  0  0  0  0  0  0
   17.2925    2.5787    0.0000 C   0  0  0  0  0  0  0  0  0  0  0  0
   16.5771    2.9878    0.0000 C   0  0  0  0  0  0  0  0  0  0  0  0
   16.5787    0.5098    0.0000 S   0  0  0  0  0  0  0  0  0  0  0  0
   15.8641    0.0975    0.0000 C   0  0  0  0  0  0  0  0  0  0  0  0
   18.0105    1.3368    0.0000 S   0  0  0  0  0  0  0  0  0  0  0  0
   18.7243    1.7504    0.0000 C   0  0  0  0  0  0  0  0  0  0  0  0
   19.4360    1.3386    0.0000 C   0  0  0  0  0  0  0  0  0  0  0  0
   20.1494    1.7515    0.0000 C   0  0  0  0  0  0  0  0  0  0  0  0
   20.1485    2.5774    0.0000 C   0  0  0  0  0  0  0  0  0  0  0  0
   19.4284    2.9886    0.0000 C   0  0  0  0  0  0  0  0  0  0  0  0
   18.7180    2.5733    0.0000 C   0  0  0  0  0  0  0  0  0  0  0  0
   15.1532    0.5132    0.0000 C   0  0  0  0  0  0  0  0  0  0  0  0
   14.4391    0.1016    0.0000 C   0  0  0  0  0  0  0  0  0  0  0  0
   14.4385   -0.7243    0.0000 C   0  0  0  0  0  0  0  0  0  0  0  0
   15.1579   -1.1368    0.0000 C   0  0  0  0  0  0  0  0  0  0  0  0
   15.8690   -0.7228    0.0000 C   0  0  0  0  0  0  0  0  0  0  0  0
   16.7875   -0.2833    0.0000 O   0  0  0  0  0  0  0  0  0  0  0  0
   17.3708    0.7292    0.0000 O   0  0  0  0  0  0  0  0  0  0  0  0
   17.7917    0.5417    0.0000 O   0  0  0  0  0  0  0  0  0  0  0  0
   18.5917    0.7542    0.0000 O   0  0  0  0  0  0  0  0  0  0  0  0
   15.1507    2.9874    0.0000 Cl  0  0  0  0  0  0  0  0  0  0  0  0
   15.1558    1.3382    0.0000 F   0  0  0  0  0  0  0  0  0  0  0  0
   20.8618    2.9920    0.0000 C   0  0  0  0  0  0  0  0  0  0  0  0
   21.5775    2.5815    0.0000 N   0  0  0  0  0  0  0  0  0  0  0  0
   22.2907    2.9961    0.0000 S   0  0  0  0  0  0  0  0  0  0  0  0
   23.0064    2.5857    0.0000 C   0  0  0  0  0  0  0  0  0  0  0  0
   21.7000    3.5875    0.0000 O   0  0  0  0  0  0  0  0  0  0  0  0
   22.8708    3.5875    0.0000 O   0  0  0  0  0  0  0  0  0  0  0  0
   20.8594    3.8170    0.0000 C   0  0  0  0  0  0  0  0  0  0  0  0
  8 16  2  0  0  0  0 
  7  8  1  0  0  0  0 
 16 17  1  0  0  0  0 
 17 18  2  0  0  0  0 
  4  9  1  0  0  0  0 
 18 19  1  0  0  0  0 
  4  5  1  0  0  0  0 
 19 20  2  0  0  0  0 
 20  8  1  0  0  0  0 
  9 10  1  0  0  0  0 
  7 21  2  0  0  0  0 
  2  3  1  0  0  0  0 
  7 22  2  0  0  0  0 
 10 11  2  0  0  0  0 
  9 23  2  0  0  0  0 
  5  6  2  0  0  0  0 
  9 24  2  0  0  0  0 
 11 12  1  0  0  0  0 
  1 25  1  0  0  0  0 
  6  1  1  0  0  0  0 
 16 26  1  0  0  0  0 
 12 13  2  0  0  0  0 
 13 27  1  0  0  0  0 
  1  2  2  0  0  0  0 
 27 28  1  0  0  0  0 
 13 14  1  0  0  0  0 
 28 29  1  0  0  0  0 
  3  7  1  0  0  0  0 
 29 30  1  0  0  0  0 
 14 15  2  0  0  0  0 
 29 31  2  0  0  0  0 
 15 10  1  0  0  0  0 
 29 32  2  0  0  0  0 
  3  4  2  0  0  0  0 
 27 33  1  6  0  0  0 
M  END