
  SciTegic02011310442D

 39 43  0  0  0  0            999 V2000
   24.5364  -29.6789    0.0000 O   0  0
   24.7510  -28.8906    0.0000 S   0  0
   23.9610  -29.0989    0.0000 O   0  0
   17.1690  -28.4063    0.0000 N   0  0
   17.8787  -27.9968    0.0000 C   0  0
   17.8758  -27.1742    0.0000 N   0  0
   17.1672  -26.7689    0.0000 C   0  0
   16.4610  -27.9973    0.0000 N   0  0
   16.4622  -27.1762    0.0000 C   0  0
   15.6817  -26.9213    0.0000 C   0  0
   15.1980  -27.5849    0.0000 C   0  0
   15.6797  -28.2498    0.0000 C   0  0
   18.5870  -28.4043    0.0000 S   0  0
   19.2941  -27.9946    0.0000 C   0  0
   17.1654  -25.9517    0.0000 N   0  0
   17.8722  -25.5416    0.0000 C   0  0
   19.9991  -28.4025    0.0000 C   0  0
   20.7057  -27.9935    0.0000 C   0  0
   20.7048  -27.1754    0.0000 C   0  0
   19.9915  -26.7681    0.0000 C   0  0
   19.2878  -27.1795    0.0000 C   0  0
   18.6173  -25.8736    0.0000 C   0  0
   19.1628  -25.2651    0.0000 C   0  0
   18.7526  -24.5582    0.0000 N   0  0
   17.9537  -24.7300    0.0000 N   0  0
   19.9757  -25.3487    0.0000 C   0  0
   21.4114  -26.7648    0.0000 N   0  0
   22.1202  -27.1713    0.0000 C   0  0
   22.8268  -26.7607    0.0000 C   0  0
   23.5357  -27.1672    0.0000 N   0  0
   22.1226  -27.9885    0.0000 O   0  0
   23.6206  -27.9775    0.0000 C   0  0
   24.4205  -28.1451    0.0000 C   0  0  1  0  0  0
   24.8270  -27.4362    0.0000 C   0  0
   24.2784  -26.8306    0.0000 C   0  0
   25.5680  -28.9737    0.0000 C   0  0
   25.9025  -29.7193    0.0000 C   0  0
   26.0464  -28.3112    0.0000 C   0  0
   26.3812  -28.9731    0.0000 C   0  0
  2  1  2  0
  3  2  2  0
  8  4  1  0
  4  5  2  0
  5  6  1  0
  6  7  2  0
  7  9  1  0
  8  9  1  0
  9 10  2  0
 10 11  1  0
 11 12  2  0
 12  8  1  0
  5 13  1  0
 13 14  1  0
  7 15  1  0
 15 16  1  0
 14 17  2  0
 17 18  1  0
 18 19  2  0
 19 20  1  0
 20 21  2  0
 21 14  1  0
 16 22  1  0
 22 23  2  0
 23 24  1  0
 24 25  1  0
 25 16  2  0
 23 26  1  0
 19 27  1  0
 27 28  1  0
 28 29  1  0
 29 30  1  0
 28 31  2  0
 30 32  1  0
 32 33  1  0
 33 34  1  0
 34 35  1  0
 35 30  1  0
 33  2  1  1
  2 36  1  0
 36 37  1  0
 36 38  1  0
 36 39  1  0
M  END