
  SciTegic05281310212D

 27 28  0  0  0  0            999 V2000
   -4.5598   -3.8083    0.0000 C   0  0
   -4.5609   -4.6357    0.0000 C   0  0
   -3.8461   -5.0485    0.0000 C   0  0
   -3.8479   -3.3955    0.0000 C   0  0
   -3.1325   -3.8047    0.0000 C   0  0
   -3.1318   -4.6315    0.0000 C   0  0
   -2.4165   -5.0425    0.0000 O   0  0
   -1.7014   -4.6277    0.0000 C   0  0
   -1.7062   -3.7977    0.0000 C   0  0  1  0  0  0
   -2.4221   -3.3905    0.0000 O   0  0
   -0.9943   -3.3809    0.0000 C   0  0
   -0.2773   -3.7890    0.0000 N   0  0
    0.4347   -3.3722    0.0000 C   0  0
    1.1516   -3.7803    0.0000 C   0  0
    1.8636   -3.3635    0.0000 O   0  0
    2.5805   -3.7716    0.0000 C   0  0
    2.5814   -4.5969    0.0000 C   0  0
    3.2975   -5.0050    0.0000 C   0  0
    4.0105   -4.5881    0.0000 C   0  0
    4.0028   -3.7589    0.0000 C   0  0
    3.2861   -3.3545    0.0000 C   0  0
    1.8683   -5.0118    0.0000 O   0  0
    1.8711   -5.8368    0.0000 C   0  0
    3.2777   -2.5296    0.0000 O   0  0
    3.9880   -2.1098    0.0000 C   0  0
   -3.8504   -2.5705    0.0000 O   0  0
    0.6542   -2.9708    0.0000 Cl  0  0
 12 13  1  0
  5  6  1  0
 13 14  1  0
  2  3  1  0
 14 15  1  0
  6  7  1  0
 15 16  1  0
  3  6  2  0
 16 17  2  0
  7  8  1  0
 17 18  1  0
 18 19  2  0
  8  9  1  0
 19 20  1  0
  5  4  2  0
 20 21  2  0
 21 16  1  0
  9 10  1  0
 17 22  1  0
 10  5  1  0
 22 23  1  0
  4  1  1  0
 21 24  1  0
  9 11  1  1
 24 25  1  0
  1  2  2  0
  4 26  1  0
 11 12  1  0
M  END