
  SciTegic01161211252D

 17 17  0  0  0  0            999 V2000
    6.5667   -8.0292    0.0000 N   0  0
    5.6667   -5.4167    0.0000 C   0  0
    5.9667   -5.9375    0.0000 C   0  0
    6.5750   -5.9375    0.0000 O   0  0
    6.8792   -7.5042    0.0000 C   0  0
    6.5750   -6.9792    0.0000 C   0  0
    6.8792   -6.4625    0.0000 C   0  0
    6.8750   -8.5542    0.0000 C   0  0
    5.9667   -6.9792    0.0000 O   0  0
    5.9667   -4.8917    0.0000 C   0  0
    5.6625   -4.3750    0.0000 O   0  0
    5.0667   -5.4167    0.0000 C   0  0
    5.6667   -6.4542    0.0000 C   0  0
    6.5667   -9.0750    0.0000 C   0  0
    7.4792   -8.5542    0.0000 C   0  0
    4.7667   -5.9417    0.0000 C   0  0
    5.0667   -6.4542    0.0000 C   0  0
  2  3  2  0
  3  4  1  0
  4  7  1  0
  5  1  1  0
  6  5  1  0
  7  6  1  0
  8  1  1  0
  9  6  1  0
 10  2  1  0
 11 10  1  0
 12  2  1  0
 13  3  1  0
 14  8  1  0
 15  8  1  0
 16 17  1  0
 17 13  2  0
 16 12  2  0
M  END