
  Mrv0541 04051115152D          

 27 29  0  0  0  0            999 V2000
    1.3600   -1.3708    0.0000 P   0  0  0  0  0  0  0  0  0  0  0  0
    1.7725   -2.0853    0.0000 O   0  0  0  0  0  0  0  0  0  0  0  0
    0.6455   -1.7833    0.0000 O   0  0  0  0  0  0  0  0  0  0  0  0
    2.0744   -0.9583    0.0000 O   0  0  0  0  0  0  0  0  0  0  0  0
   -2.6544   -0.3977    0.0000 P   0  0  0  0  0  0  0  0  0  0  0  0
   -3.4749   -0.4839    0.0000 O   0  0  0  0  0  0  0  0  0  0  0  0
   -1.8340   -0.3115    0.0000 O   0  0  0  0  0  0  0  0  0  0  0  0
   -2.7407    0.4228    0.0000 O   0  0  0  0  0  0  0  0  0  0  0  0
   -2.5682   -1.2182    0.0000 O   0  0  0  0  0  0  0  0  0  0  0  0
   -1.8145   -1.5537    0.0000 C   0  0  0  0  0  0  0  0  0  0  0  0
   -1.1471   -1.0688    0.0000 C   0  0  1  0  0  0  0  0  0  0  0  0
   -1.1471   -0.2438    0.0000 O   0  0  0  0  0  0  0  0  0  0  0  0
   -0.3625   -1.3238    0.0000 C   0  0  1  0  0  0  0  0  0  0  0  0
   -0.1075   -2.1084    0.0000 O   0  0  0  0  0  0  0  0  0  0  0  0
    0.1225   -0.6563    0.0000 C   0  0  1  0  0  0  0  0  0  0  0  0
    0.9475   -0.6563    0.0000 O   0  0  0  0  0  0  0  0  0  0  0  0
   -0.3625    0.0111    0.0000 C   0  0  2  0  0  0  0  0  0  0  0  0
   -0.1075    0.7957    0.0000 N   0  0  0  0  0  0  0  0  0  0  0  0
   -0.5925    1.4632    0.0000 C   0  0  0  0  0  0  0  0  0  0  0  0
   -0.1075    2.1306    0.0000 N   0  0  0  0  0  0  0  0  0  0  0  0
    0.6771    1.8757    0.0000 C   0  0  0  0  0  0  0  0  0  0  0  0
    1.3916    2.2882    0.0000 C   0  0  0  0  0  0  0  0  0  0  0  0
    1.3916    3.1132    0.0000 N   0  0  0  0  0  0  0  0  0  0  0  0
    2.1060    1.8757    0.0000 N   0  0  0  0  0  0  0  0  0  0  0  0
    2.1060    1.0507    0.0000 C   0  0  0  0  0  0  0  0  0  0  0  0
    1.3916    0.6382    0.0000 N   0  0  0  0  0  0  0  0  0  0  0  0
    0.6771    1.0507    0.0000 C   0  0  0  0  0  0  0  0  0  0  0  0
  2  1  2  0  0  0  0
  3  1  1  0  0  0  0
  4  1  1  0  0  0  0
 16  1  1  0  0  0  0
  6  5  2  0  0  0  0
  7  5  1  0  0  0  0
  8  5  1  0  0  0  0
  9  5  1  0  0  0  0
 10  9  1  0  0  0  0
 11 10  1  1  0  0  0
 11 12  1  0  0  0  0
 13 11  1  0  0  0  0
 17 12  1  0  0  0  0
 13 14  1  6  0  0  0
 15 13  1  0  0  0  0
 15 16  1  6  0  0  0
 17 15  1  0  0  0  0
 17 18  1  1  0  0  0
 19 18  1  0  0  0  0
 27 18  1  0  0  0  0
 19 20  2  0  0  0  0
 21 20  1  0  0  0  0
 21 22  1  0  0  0  0
 27 21  2  0  0  0  0
 22 23  1  0  0  0  0
 22 24  2  0  0  0  0
 25 24  1  0  0  0  0
 25 26  2  0  0  0  0
 27 26  1  0  0  0  0
M  END