
  SciTegic04191613082D

173182  0  0  1  0            999 V2000
   22.4991   20.8428    0.0000 N   0  0
   21.5565   20.1000    0.0000 C   0  0
   21.7707   18.6146    0.0000 N   0  0
   20.5919   17.6856    0.0000 C   0  0
   20.8060   16.2002    0.0000 C   0  0
   19.6272   15.2712    0.0000 C   0  0
   19.8430   13.7742    0.0000 C   0  0  2  0  0  0
   18.3515   13.9335    0.0000 N   0  0
   16.8584   13.7894    0.0000 C   0  0
   15.4249   13.3477    0.0000 C   0  0  2  0  0  0
   15.3505   14.8584    0.0000 C   0  0
   16.6112   15.6727    0.0000 C   0  0
   16.5373   17.1717    0.0000 C   0  0
   17.7981   17.9860    0.0000 N   0  0
   17.7242   19.4850    0.0000 C   0  0
   16.6565   20.0328    0.0000 N   0  0
   18.7322   20.1361    0.0000 N   0  0
   14.1097   12.6265    0.0000 N   0  0
   12.9666   11.6552    0.0000 C   0  0
   12.2453   12.3479    0.0000 O   0  0
   12.0424   10.4738    0.0000 C   0  0  1  0  0  0
   11.3749    9.1305    0.0000 N   0  0
   10.9915    7.6803    0.0000 C   0  0
    9.8063    7.8681    0.0000 O   0  0
   10.9079    6.1826    0.0000 C   0  0  2  0  0  0
    9.3968    6.1167    0.0000 C   0  0
    8.5896    7.3820    0.0000 C   0  0
    7.0902    7.3165    0.0000 C   0  0
    6.2830    8.5818    0.0000 N   0  0
    4.7836    8.5164    0.0000 C   0  0
    4.1383    9.5281    0.0000 N   0  0
    4.2299    7.4518    0.0000 N   0  0
   11.1274    4.6988    0.0000 N   0  0
   11.6412    3.2895    0.0000 C   0  0
   10.5611    2.7666    0.0000 O   0  0
   12.4281    2.0125    0.0000 C   0  0  1  0  0  0
   13.4560    0.9200    0.0000 N   0  0
   14.6827    0.0569    0.0000 C   0  0
   14.0950   -0.9894    0.0000 O   0  0
   16.0581   -0.5417    0.0000 C   0  0  2  0  0  0
   16.6291   -1.9424    0.0000 C   0  0
   15.7095   -3.1285    0.0000 C   0  0
   16.7150   -4.2416    0.0000 C   0  0
   16.2539   -5.6690    0.0000 C   0  0
   14.7872   -5.9833    0.0000 C   0  0
   13.7816   -4.8702    0.0000 C   0  0
   14.2427   -3.4429    0.0000 C   0  0
   17.5259   -0.8512    0.0000 N   0  0
   19.0259   -0.8589    0.0000 C   0  0
   19.1333   -2.0540    0.0000 O   0  0
   20.5013   -0.5837    0.0000 C   0  0  2  0  0  0
   21.8718    0.0261    0.0000 C   0  0
   23.1020    0.8843    0.0000 N   0  0
   24.1477    1.9598    0.0000 C   0  0
   25.0837    1.2089    0.0000 O   0  0
   24.9709    3.2137    0.0000 C   0  0
   25.4807    4.6254    0.0000 C   0  0
   25.7154    6.1069    0.0000 C   0  0
   25.6471    7.6053    0.0000 C   0  0
   26.6364    7.7517    0.0000 O   0  0
   25.2786    9.0594    0.0000 N   0  0
   24.6249   10.4094    0.0000 C   0  0
   23.7128   11.6003    0.0000 C   0  0  2  0  0  0
   22.5797   12.5831    0.0000 N   0  0
   21.2719   13.3178    0.0000 C   0  0
   21.7508   14.4181    0.0000 O   0  0
   24.3909   12.9523    0.0000 C   0  0
   23.7306   13.9543    0.0000 O   0  0
   25.8891   13.0414    0.0000 N   0  0
   26.5619   14.3829    0.0000 C   0  0  2  0  0  0
   25.7387   15.6378    0.0000 C   0  0
   26.2778   16.7099    0.0000 O   0  0
   24.5406   15.5691    0.0000 O   0  0
   28.0601   14.4720    0.0000 C   0  0
   28.7329   15.8135    0.0000 C   0  0
   30.2311   15.9026    0.0000 C   0  0
   30.9039   17.2441    0.0000 C   0  0
   32.1018   17.3153    0.0000 N   0  0
   25.9568    6.6671    0.0000 C   0  0
   25.8400    6.0709    0.0000 C   0  0
   25.8546    7.5708    0.0000 C   0  0
   26.8510    7.6562    0.0000 O   0  0
   25.5851    9.0464    0.0000 N   0  0
   25.0411   10.4443    0.0000 C   0  0  2  0  0  0
   24.2425   11.7140    0.0000 C   0  0
   25.0345   12.3245    0.0000 O   0  0
   23.2180   12.8096    0.0000 N   0  0
   23.6571   13.9264    0.0000 C   0  0
   22.0046   13.6915    0.0000 C   0  0
   20.6463   14.3279    0.0000 C   0  0
   21.0498   15.4580    0.0000 O   0  0
   19.1921   14.6957    0.0000 N   0  0
   17.6946   14.7816    0.0000 C   0  0  1  0  0  0
   16.2078   14.5826    0.0000 C   0  0
   14.7856   14.1058    0.0000 N   0  0
   14.7953   15.6145    0.0000 C   0  0
   13.5036   16.3771    0.0000 C   0  0
   12.1973   15.6397    0.0000 C   0  0
   12.1827   14.1398    0.0000 C   0  0
   13.4793   13.3684    0.0000 C   0  0  2  0  0  0
   12.3362   12.3972    0.0000 C   0  0
   11.3976   11.2272    0.0000 N   0  0
   10.6973    9.9007    0.0000 C   0  0  1  0  0  0
    9.2996   10.4793    0.0000 C   0  0
    9.1024   11.9671    0.0000 C   0  0
   10.2947   12.8963    0.0000 C   0  0
   10.0965   14.3801    0.0000 C   0  0
    8.7121   14.9506    0.0000 C   0  0
    7.5260   14.0372    0.0000 C   0  0
    7.7173   12.5365    0.0000 C   0  0
    8.5139   16.4345    0.0000 C   0  0
    9.7001   17.3479    0.0000 C   0  0
   11.0844   16.7774    0.0000 C   0  0
   11.2826   15.2935    0.0000 C   0  0
   10.2607    8.4656    0.0000 C   0  0
    9.0847    8.7042    0.0000 O   0  0
   10.1036    6.9739    0.0000 N   0  0
   10.2317    5.4794    0.0000 C   0  0  1  0  0  0
    8.7430    5.2104    0.0000 C   0  0
    7.7728    6.3554    0.0000 C   0  0
    6.2959    6.0886    0.0000 C   0  0
    5.3256    7.2337    0.0000 N   0  0
    3.8487    6.9668    0.0000 C   0  0
    3.4434    5.8374    0.0000 N   0  0
    3.0729    7.8824    0.0000 N   0  0
   10.6403    4.0361    0.0000 C   0  0
    9.7083    3.6735    0.0000 O   0  0
   11.3146    2.6962    0.0000 N   0  0
   12.2303    1.5082    0.0000 C   0  0  2  0  0  0
   13.3544    0.5149    0.0000 C   0  0
   14.6460   -0.2477    0.0000 N   0  0
   16.0587   -0.7521    0.0000 C   0  0  1  0  0  0
   17.5413   -0.9800    0.0000 C   0  0
   17.4725   -2.1780    0.0000 O   0  0
   19.0402   -0.9232    0.0000 N   0  0
   15.8135   -1.7215    0.0000 C   0  0
   12.6488   -0.4558    0.0000 O   0  0
   11.5480    0.1580    0.0000 C   0  0
   12.2043   -0.8466    0.0000 C   0  0
   10.3499    0.0916    0.0000 C   0  0
   11.4758   13.2337    0.0000 O   0  0
   15.9815   15.5566    0.0000 O   0  0
   17.6402   16.2934    0.0000 C   0  0
   18.9116   17.0908    0.0000 C   0  0
   19.9719   16.5288    0.0000 O   0  0
   18.8685   18.2900    0.0000 O   0  0
   26.2111   11.3969    0.0000 C   0  0
   27.4728   10.5857    0.0000 C   0  0
   27.0912    9.1350    0.0000 C   0  0
   25.5419    4.6008    0.0000 C   0  0
   11.2255    1.0951    0.0000 C   0  0
    9.8402    1.6725    0.0000 C   0  0
    9.6447    3.1572    0.0000 C   0  0
    8.2430    3.7266    0.0000 C   0  0
    7.0562    2.8141    0.0000 C   0  0
    5.6726    3.3858    0.0000 C   0  0
    4.4858    2.4733    0.0000 C   0  0
    4.6826    0.9890    0.0000 C   0  0
    6.0662    0.4172    0.0000 C   0  0
    7.2530    1.3298    0.0000 C   0  0
    8.6366    0.7580    0.0000 C   0  0
   10.5648   10.7970    0.0000 C   0  0
    9.5532    9.6883    0.0000 C   0  0
    8.2852   10.4911    0.0000 C   0  0
    6.9555    9.7952    0.0000 N   0  0
    5.6874   10.5980    0.0000 C   0  0
    4.6242   10.0416    0.0000 N   0  0
    5.7367   11.7970    0.0000 N   0  0
   16.6229   14.9661    0.0000 O   0  0
   20.4422   20.5453    0.0000 N   0  0
   12.4829   13.2847    0.0000 H   0  0
   25.2034   11.4310    0.0000 H   0  0
   19.5225   -0.7886    0.0000 H   0  0
  2  1  2  0
  3  2  1  0
  4  3  1  0
  5  4  1  0
  6  5  1  0
  7  6  1  1
  7  8  1  0
  8  9  1  0
  9 10  1  0
 10 11  1  1
 11 12  1  0
 12 13  1  0
 13 14  1  0
 14 15  1  0
 15 16  1  0
 15 17  2  0
 10 18  1  0
 19 18  1  0
 19 20  2  0
 21 19  1  0
 22 21  1  0
 23 22  1  0
 23 24  2  0
 25 23  1  0
 25 26  1  1
 26 27  1  0
 27 28  1  0
 28 29  1  0
 29 30  1  0
 30 31  2  0
 30 32  1  0
 33 25  1  0
 34 33  1  0
 34 35  2  0
 36 34  1  0
 37 36  1  0
 38 37  1  0
 38 39  2  0
 40 38  1  0
 40 41  1  1
 41 42  1  0
 42 43  2  0
 43 44  1  0
 44 45  2  0
 45 46  1  0
 46 47  2  0
 47 42  1  0
 48 40  1  0
 49 48  1  0
 49 50  2  0
 51 49  1  0
 51 52  1  0
 52 53  1  0
 54 53  1  0
 54 55  2  0
 56 54  1  0
 57 56  1  0
 58 57  2  0
 58 59  1  0
 59 60  2  0
 59 61  1  0
 61 62  1  0
 63 62  1  0
 63 64  1  0
 64 65  1  0
 65 66  2  0
 65  7  1  0
 63 67  1  6
 67 68  2  0
 67 69  1  0
 70 69  1  6
 70 71  1  0
 71 72  2  0
 71 73  1  0
 70 74  1  0
 74 75  1  0
 75 76  1  0
 76 77  1  0
 77 78  1  0
 79 58  1  0
 80 79  2  0
 81 80  1  0
 81 82  2  0
 83 81  1  0
 83 84  1  0
 84 85  1  0
 85 86  2  0
 87 85  1  0
 87 88  1  0
 89 87  1  0
 90 89  1  0
 90 91  2  0
 92 90  1  0
 93 92  1  0
 94 93  1  0
 95 94  1  0
 96 95  1  0
 97 96  1  0
 98 97  1  0
 99 98  1  0
100 99  1  0
100101  1  0
102101  1  0
103102  1  0
103104  1  6
104105  1  0
105106  2  0
106107  1  0
108107  1  0
108109  1  0
109110  2  0
110105  1  0
111108  2  0
112111  1  0
113112  2  0
114113  1  0
107114  2  0
103115  1  0
115116  2  0
115117  1  0
117118  1  0
118119  1  6
119120  1  0
120121  1  0
121122  1  0
122123  1  0
123124  1  0
123125  2  0
118126  1  0
126127  2  0
126128  1  0
128129  1  0
129130  1  0
130131  1  0
131132  1  0
132133  1  0
133134  2  0
133135  1  0
135 51  1  0
132136  1  1
130137  2  0
129138  1  6
138139  1  0
138140  1  0
101141  2  0
100 95  1  0
 94142  2  0
 93143  1  1
143144  1  0
144145  1  0
144146  2  0
 84147  1  0
147148  1  0
148149  1  0
149 83  1  0
150 80  1  0
 56150  2  0
 36151  1  1
151152  1  0
153152  1  0
154153  2  0
155154  1  0
156155  2  0
157156  1  0
158157  2  0
159158  1  0
160159  2  0
161160  1  0
152161  2  0
155160  1  0
 21162  1  1
162163  1  0
163164  1  0
164165  1  0
165166  1  0
166167  2  0
166168  1  0
  9169  2  0
  2170  1  0
100171  1  6
 84172  1  1
 51173  1  1
M  END