
  SciTegic12231509382D

 13 14  0  0  0  0            999 V2000
    1.2990   -0.7500    0.0000 C   0  0
    1.2990    0.7500    0.0000 C   0  0
   -1.2990    0.7500    0.0000 N   0  0
    2.5987   -1.5004    0.0000 C   0  0
    3.8991   -0.7525    0.0000 N   0  0
    0.0000   -1.5000    0.0000 C   0  0
    0.0000    1.5000    0.0000 C   0  0
   -1.2990   -0.7500    0.0000 C   0  0
   -2.3383    1.3500    0.0000 C   0  0
    5.1969   -1.5045    0.0000 C   0  0
    2.5965   -3.0004    0.0000 C   0  0
    5.1945   -3.0045    0.0000 C   0  0
    3.8943   -3.7525    0.0000 C   0  0
  1  2  2  0
  1  4  1  0
  4  5  2  0
  1  6  1  0
  2  7  1  0
  3  7  1  0
  3  8  1  0
  6  8  1  0
  3  9  1  0
  5 10  1  0
  4 11  1  0
 10 12  2  0
 11 13  2  0
 12 13  1  0
M  END