
          08180812492D 1   1.00000     0.00000     0

 37 43  0     1  0            999 V2000
    9.8145   -8.9659    0.0000 C   0  0  0  0  0  0           0  0  0
    9.3854   -9.6723    0.0000 C   0  0  0  0  0  0           0  0  0
    9.7825  -10.3950    0.0000 C   0  0  0  0  0  0           0  0  0
   10.6086  -10.4126    0.0000 C   0  0  0  0  0  0           0  0  0
   10.6365   -8.9816    0.0000 C   0  0  0  0  0  0           0  0  0
   11.0412   -9.7032    0.0000 C   0  0  0  0  0  0           0  0  0
   11.8834   -8.2823    0.0000 C   0  0  2  0  0  0           0  0  0
   11.0544   -8.2703    0.0000 C   0  0  0  0  0  0           0  0  0
   12.2881   -9.0038    0.0000 C   0  0  1  0  0  0           0  0  0
   11.8661   -9.7172    0.0000 C   0  0  2  0  0  0           0  0  0
   12.2707  -10.4353    0.0000 C   0  0  2  0  0  0           0  0  0
   13.0988  -10.4463    0.0000 C   0  0  1  0  0  0           0  0  0
   13.5208   -9.7330    0.0000 C   0  0  0  0  0  0           0  0  0
   13.1146   -9.0086    0.0000 C   0  0  0  0  0  0           0  0  0
   11.3179  -10.8225    0.0000 O   0  0  0  0  0  0           0  0  0
   12.6957   -9.7153    0.0000 O   0  0  0  0  0  0           0  0  0
   12.0922   -7.4801    0.0000 N   0  0  3  0  0  0           0  0  0
   11.6467   -8.9161    0.0000 C   0  0  0  0  0  0           0  0  0
   12.2295   -8.3292    0.0000 C   0  0  0  0  0  0           0  0  0
   11.2930   -7.6924    0.0000 H   0  0  0  0  0  0           0  0  0
   12.1309   -6.6568    0.0000 C   0  0  0  0  0  0           0  0  0
   12.8633   -6.2788    0.0000 C   0  0  3  0  0  0           0  0  0
   13.6852   -6.3202    0.0000 C   0  0  0  0  0  0           0  0  0
   13.3073   -5.5878    0.0000 C   0  0  0  0  0  0           0  0  0
    9.3553  -11.0999    0.0000 O   0  0  0  0  0  0           0  0  0
   13.5023  -11.1650    0.0000 N   0  0  0  0  0  0           0  0  0
   14.3265  -11.1749    0.0000 C   0  0  0  0  0  0           0  0  0
   14.7300  -11.8935    0.0000 C   0  0  0  0  0  0           0  0  0
   14.7470  -10.4661    0.0000 O   0  0  0  0  0  0           0  0  0
   12.4793  -11.2263    0.0000 H   0  0  0  0  0  0           0  0  0
   14.3081  -12.6015    0.0000 C   0  0  0  0  0  0           0  0  0
   14.7109  -13.3196    0.0000 C   0  0  0  0  0  0           0  0  0
   15.5360  -13.3298    0.0000 C   0  0  0  0  0  0           0  0  0
   15.9564  -12.6161    0.0000 C   0  0  0  0  0  0           0  0  0
   15.5511  -11.9009    0.0000 C   0  0  0  0  0  0           0  0  0
   16.7805  -12.6230    0.0000 O   0  0  0  0  0  0           0  0  0
   17.1866  -13.3402    0.0000 C   0  0  0  0  0  0           0  0  0
  7 17  1  0     0  0
  9  7  1  0     0  0
 10 18  1  1     0  0
  7  8  1  0     0  0
 18 19  1  0     0  0
 19 17  1  0     0  0
  9 10  1  0     0  0
  7 20  1  6     0  0
  4  6  1  0     0  0
 17 21  1  0     0  0
  5  1  1  0     0  0
 21 22  1  0     0  0
 23 22  1  0     0  0
 24 23  1  0     0  0
 22 24  1  0     0  0
  5  6  2  0     0  0
  2  3  1  0     0  0
  3 25  1  0     0  0
  1  2  2  0     0  0
 12 26  1  1     0  0
  9 14  1  0     0  0
 26 27  1  0     0  0
 10 11  1  0     0  0
 27 28  1  0     0  0
 11 12  1  0     0  0
 27 29  2  0     0  0
 12 13  1  0     0  0
 11 30  1  1     0  0
 13 14  1  0     0  0
 28 31  2  0     0  0
  3  4  2  0     0  0
 31 32  1  0     0  0
  4 15  1  0     0  0
 32 33  2  0     0  0
 11 15  1  0     0  0
 33 34  1  0     0  0
  5  8  1  0     0  0
 34 35  2  0     0  0
 35 28  1  0     0  0
  9 16  1  1     0  0
 34 36  1  0     0  0
  6 10  1  0     0  0
 36 37  1  0     0  0
M  END