
  Mrv0541 04051115152D          

 26 27  0  0  0  0            999 V2000
   -0.7236   -2.4058    0.0000 O   0  0  0  0  0  0  0  0  0  0  0  0
   -0.1105   -1.8538    0.0000 C   0  0  0  0  0  0  0  0  0  0  0  0
   -0.2820   -1.0468    0.0000 O   0  0  0  0  0  0  0  0  0  0  0  0
    0.6742   -2.1087    0.0000 C   0  0  0  0  0  0  0  0  0  0  0  0
    0.9291   -2.8934    0.0000 S   0  0  0  0  0  0  0  0  0  0  0  0
    1.7541   -2.8934    0.0000 C   0  0  0  0  0  0  0  0  0  0  0  0
    2.2390   -3.5608    0.0000 Br  0  0  0  0  0  0  0  0  0  0  0  0
    2.0090   -2.1087    0.0000 C   0  0  0  0  0  0  0  0  0  0  0  0
    2.7937   -1.8538    0.0000 Br  0  0  0  0  0  0  0  0  0  0  0  0
    1.3416   -1.6238    0.0000 C   0  0  0  0  0  0  0  0  0  0  0  0
    1.3416   -0.7988    0.0000 C   0  0  0  0  0  0  0  0  0  0  0  0
    0.6271   -0.3863    0.0000 N   0  0  0  0  0  0  0  0  0  0  0  0
   -0.0873   -0.7988    0.0000 C   0  0  0  0  0  0  0  0  0  0  0  0
   -0.8720   -1.0538    0.0000 O   0  0  0  0  0  0  0  0  0  0  0  0
   -0.8018   -0.3863    0.0000 C   0  0  0  0  0  0  0  0  0  0  0  0
   -1.5163   -0.7988    0.0000 C   0  0  0  0  0  0  0  0  0  0  0  0
   -0.8018    0.4387    0.0000 C   0  0  0  0  0  0  0  0  0  0  0  0
    0.6271    0.4387    0.0000 C   0  0  0  0  0  0  0  0  0  0  0  0
    1.3416    0.8512    0.0000 O   0  0  0  0  0  0  0  0  0  0  0  0
   -0.0873    0.8512    0.0000 N   0  0  0  0  0  0  0  0  0  0  0  0
   -0.0873    1.6762    0.0000 C   0  0  0  0  0  0  0  0  0  0  0  0
   -0.8018    2.0887    0.0000 C   0  0  2  0  0  0  0  0  0  0  0  0
   -1.5163    1.6762    0.0000 N   0  0  0  0  0  0  0  0  0  0  0  0
   -0.8018    2.9137    0.0000 C   0  0  0  0  0  0  0  0  0  0  0  0
   -1.5163    3.3262    0.0000 O   0  0  0  0  0  0  0  0  0  0  0  0
   -0.0873    3.3262    0.0000 O   0  0  0  0  0  0  0  0  0  0  0  0
 22 23  1  6  0  0  0
 24 25  2  0  0  0  0
 24 22  1  0  0  0  0
 21 22  1  0  0  0  0
 24 26  1  0  0  0  0
  2  1  2  0  0  0  0
 15 16  1  0  0  0  0
 13 14  2  0  0  0  0
 15 13  1  0  0  0  0
 15 17  2  0  0  0  0
 13 12  1  0  0  0  0
 17 20  1  0  0  0  0
 11 12  1  0  0  0  0
 11 10  1  0  0  0  0
 18 12  1  0  0  0  0
  2  3  1  0  0  0  0
  4  2  1  0  0  0  0
 18 20  1  0  0  0  0
 21 20  1  0  0  0  0
 18 19  2  0  0  0  0
 10  4  2  0  0  0  0
 10  8  1  0  0  0  0
  4  5  1  0  0  0  0
  9  8  1  0  0  0  0
  8  6  2  0  0  0  0
  6  5  1  0  0  0  0
  7  6  1  0  0  0  0
M  END