
          11280714462D 1   1.00000     0.00000     0

 21 22  0     0  0            999 V2000
    3.2792   -2.4042    0.0000 C   0  0  0  0  0  0           0  0  0
    2.7542   -2.1042    0.0000 C   0  0  0  0  0  0           0  0  0
    3.2792   -3.0042    0.0000 N   0  0  3  0  0  0           0  0  0
    2.7542   -1.4917    0.0000 C   0  0  0  0  0  0           0  0  0
    2.9792   -3.9417    0.0000 N   0  0  0  0  0  0           0  0  0
    2.7917   -3.3542    0.0000 C   0  0  0  0  0  0           0  0  0
    2.2292   -2.4042    0.0000 C   0  0  0  0  0  0           0  0  0
    2.2292   -1.1917    0.0000 C   0  0  0  0  0  0           0  0  0
    3.2750   -1.1875    0.0000 O   0  0  0  0  0  0           0  0  0
    3.7667   -3.3667    0.0000 C   0  0  0  0  0  0           0  0  0
    3.5750   -3.9417    0.0000 C   0  0  0  0  0  0           0  0  0
    3.8042   -2.1000    0.0000 C   0  0  0  0  0  0           0  0  0
    1.7042   -1.5000    0.0000 C   0  0  0  0  0  0           0  0  0
    1.7042   -2.1042    0.0000 C   0  0  0  0  0  0           0  0  0
    3.8000   -1.4875    0.0000 C   0  0  0  0  0  0           0  0  0
    4.3792   -1.3292    0.0000 C   0  0  3  0  0  0           0  0  0
    5.4167   -1.7417    0.0000 N   0  0  0  0  0  0           0  0  0
    1.1792   -1.1917    0.0000 Cl  0  0  0  0  0  0           0  0  0
    4.5292   -0.7417    0.0000 O   0  0  0  0  0  0           0  0  0
    4.8125   -1.7417    0.0000 C   0  0  0  0  0  0           0  0  0
    5.7667   -2.2292    0.0000 C   0  0  0  0  0  0           0  0  0
  2  1  1  0     0  0
  3  1  1  0     0  0
  4  2  1  0     0  0
  5  6  2  0     0  0
  6  3  1  0     0  0
  7  2  2  0     0  0
  8  4  2  0     0  0
  9  4  1  0     0  0
 10  3  1  0     0  0
 11 10  2  0     0  0
 12  1  2  0     0  0
 13 14  2  0     0  0
 14  7  1  0     0  0
 15  9  1  0     0  0
 16 15  1  0     0  0
 17 20  1  0     0  0
 18 13  1  0     0  0
 19 16  1  0     0  0
 20 16  1  0     0  0
 21 17  1  0     0  0
 11  5  1  0     0  0
 13  8  1  0     0  0
M  END