
          11280715042D 1   1.00000     0.00000     0

 46 49  0     1  0            999 V2000
   -2.5083    0.8375    0.0000 C   0  0  0  0  0  0           0  0  0
   -2.5083    0.0125    0.0000 N   0  0  3  0  0  0           0  0  0
    4.6292   -1.6667    0.0000 C   0  0  0  0  0  0           0  0  0
    2.4875   -1.2500    0.0000 C   0  0  0  0  0  0           0  0  0
    5.3417   -1.2625    0.0000 C   0  0  0  0  0  0           0  0  0
    3.9167   -1.2542    0.0000 N   0  0  3  0  0  0           0  0  0
   -3.2208    1.2583    0.0000 C   0  0  3  0  0  0           0  0  0
    1.7667   -2.4792    0.0000 C   0  0  0  0  0  0           0  0  0
    3.2000   -1.6667    0.0000 C   0  0  0  0  0  0           0  0  0
    1.7667   -1.6542    0.0000 C   0  0  2  0  0  0           0  0  0
   -1.7958   -0.4000    0.0000 C   0  0  3  0  0  0           0  0  0
   -0.3708   -1.2292    0.0000 N   0  0  3  0  0  0           0  0  0
    2.4750   -2.8917    0.0000 C   0  0  0  0  0  0           0  0  0
    2.4750   -3.7167    0.0000 C   0  0  0  0  0  0           0  0  0
   -2.5083    2.4958    0.0000 C   0  0  0  0  0  0           0  0  0
    2.4917   -0.4250    0.0000 N   0  0  0  0  0  0           0  0  0
    1.0542   -1.2417    0.0000 C   0  0  0  0  0  0           0  0  0
    5.3417   -0.4417    0.0000 C   0  0  0  0  0  0           0  0  0
    6.0542   -1.6792    0.0000 C   0  0  0  0  0  0           0  0  0
   -1.7958    1.2500    0.0000 O   0  0  0  0  0  0           0  0  0
   -3.2208    2.0833    0.0000 C   0  0  0  0  0  0           0  0  0
   -1.7958   -1.2292    0.0000 C   0  0  0  0  0  0           0  0  0
   -1.0833    0.0083    0.0000 C   0  0  0  0  0  0           0  0  0
    1.7542   -4.1292    0.0000 C   0  0  0  0  0  0           0  0  0
    4.6250   -2.4917    0.0000 O   0  0  0  0  0  0           0  0  0
    6.7667   -1.2750    0.0000 C   0  0  0  0  0  0           0  0  0
    6.0542   -0.0292    0.0000 C   0  0  0  0  0  0           0  0  0
    6.7750   -0.4500    0.0000 C   0  0  0  0  0  0           0  0  0
    1.0500   -2.8875    0.0000 C   0  0  0  0  0  0           0  0  0
   -2.5083    3.3208    0.0000 O   0  0  0  0  0  0           0  0  0
    0.3417   -1.6500    0.0000 C   0  0  0  0  0  0           0  0  0
    1.0417   -3.7125    0.0000 C   0  0  0  0  0  0           0  0  0
   -1.0875   -1.6417    0.0000 C   0  0  0  0  0  0           0  0  0
   -0.3708   -0.4042    0.0000 C   0  0  0  0  0  0           0  0  0
   -1.7958    2.0833    0.0000 N   0  0  0  0  0  0           0  0  0
   -3.2208   -0.3917    0.0000 C   0  0  0  0  0  0           0  0  0
    3.1875   -4.1292    0.0000 Cl  0  0  0  0  0  0           0  0  0
    1.7542   -4.9542    0.0000 Cl  0  0  0  0  0  0           0  0  0
    6.0542    0.7958    0.0000 Cl  0  0  0  0  0  0           0  0  0
    7.4792   -1.6917    0.0000 Cl  0  0  0  0  0  0           0  0  0
    3.2042   -0.0167    0.0000 O   0  0  0  0  0  0           0  0  0
    3.9167   -0.4292    0.0000 C   0  0  0  0  0  0           0  0  0
   -3.9333    0.8375    0.0000 C   0  0  0  0  0  0           0  0  0
   -3.9333    0.0125    0.0000 C   0  0  0  0  0  0           0  0  0
   -1.0833    1.6708    0.0000 C   0  0  0  0  0  0           0  0  0
    3.9250    0.3875    0.0000 C   0  0  0  0  0  0           0  0  0
  2  1  1  0     0  0
  3  6  1  0     0  0
  4 10  1  0     0  0
  5  3  1  0     0  0
  6  9  1  0     0  0
  7  1  1  0     0  0
 10  8  1  6     0  0
  9  4  1  0     0  0
 10 17  1  0     0  0
 11  2  1  0     0  0
 12 34  1  0     0  0
 13  8  1  0     0  0
 14 13  2  0     0  0
 15 21  1  0     0  0
 16  4  2  0     0  0
 17 31  1  0     0  0
 18  5  1  0     0  0
 19  5  2  0     0  0
 20  1  2  0     0  0
  7 21  1  0     0  0
 22 11  1  0     0  0
 23 11  1  0     0  0
 24 32  2  0     0  0
 25  3  2  0     0  0
 26 19  1  0     0  0
 27 18  2  0     0  0
 28 26  2  0     0  0
 29  8  2  0     0  0
 30 15  2  0     0  0
 31 12  1  0     0  0
 32 29  1  0     0  0
 33 22  1  0     0  0
 34 23  1  0     0  0
 35 15  1  0     0  0
 36  2  1  0     0  0
 37 14  1  0     0  0
 38 24  1  0     0  0
 39 27  1  0     0  0
 40 26  1  0     0  0
 41 16  1  0     0  0
 42  6  1  0     0  0
 43  7  1  0     0  0
 44 43  1  0     0  0
 45 35  1  0     0  0
 46 41  1  0     0  0
 36 44  1  0     0  0
 33 12  1  0     0  0
 14 24  1  0     0  0
 28 27  1  0     0  0
M  END