
  SciTegic12231509382D

 33 36  0  0  0  0            999 V2000
   23.8513   -3.9332    0.0000 C   0  0
   23.0341   -3.9332    0.0000 C   0  0
   23.4427   -4.6410    0.0000 C   0  0
   17.6604   -2.0223    0.0000 O   0  0
   18.0731   -2.7322    0.0000 S   0  0
   18.4816   -2.0199    0.0000 O   0  0
   15.9544   -3.1490    0.0000 C   0  0
   15.9533   -3.9686    0.0000 C   0  0
   16.6613   -4.3775    0.0000 C   0  0
   17.3710   -3.9681    0.0000 C   0  0
   17.3682   -3.1454    0.0000 C   0  0
   16.6596   -2.7402    0.0000 C   0  0
   15.2453   -4.3766    0.0000 O   0  0
   14.5379   -3.9675    0.0000 C   0  0
   16.6611   -5.1947    0.0000 O   0  0
   15.9533   -5.6032    0.0000 C   0  0
   18.7836   -3.1401    0.0000 N   0  0
   19.4898   -2.7288    0.0000 C   0  0
   18.7867   -3.9573    0.0000 C   0  0
   20.1990   -3.1348    0.0000 C   0  0
   20.1990   -3.9508    0.0000 C   0  0
   20.9074   -4.3567    0.0000 C   0  0
   20.8998   -2.7218    0.0000 C   0  0
   21.6088   -3.1240    0.0000 C   0  0
   21.6143   -3.9457    0.0000 C   0  0
   22.3247   -4.3495    0.0000 O   0  0
   23.0287   -3.1145    0.0000 C   0  0
   22.3137   -2.7061    0.0000 C   0  0
   18.0814   -4.3654    0.0000 C   0  0
   18.0841   -5.1818    0.0000 C   0  0
   18.7939   -5.5886    0.0000 C   0  0
   19.5024   -5.1729    0.0000 C   0  0
   19.4962   -4.3579    0.0000 C   0  0
  2  1  1  0
  3  2  1  0
  5  4  2  0
  6  5  2  0
  7  8  2  0
  8  9  1  0
  9 10  2  0
 10 11  1  0
 11 12  2  0
 12  7  1  0
  8 13  1  0
 13 14  1  0
  9 15  1  0
 15 16  1  0
 11  5  1  0
  5 17  1  0
 17 18  1  0
 17 19  1  0
 18 20  1  0
 20 21  2  0
 21 22  1  0
 22 25  2  0
 24 23  2  0
 23 20  1  0
 24 25  1  0
 24 28  1  0
 25 26  1  0
 26  2  1  0
  2 27  1  0
 27 28  2  0
 19 29  2  0
 29 30  1  0
 30 31  2  0
 31 32  1  0
 32 33  2  0
 33 19  1  0
M  END