
  Mrv0541 05211314572D          

 15 16  0  0  0  0            999 V2000
   -0.7294   -1.7533    0.0000 C   0  0  0  0  0  0  0  0  0  0  0  0
   -0.7294   -0.9283    0.0000 N   0  0  0  0  0  0  0  0  0  0  0  0
   -1.4439   -0.5158    0.0000 N   0  0  0  0  0  0  0  0  0  0  0  0
   -1.4439    0.3092    0.0000 C   0  0  0  0  0  0  0  0  0  0  0  0
   -2.1583    0.7217    0.0000 C   0  0  0  0  0  0  0  0  0  0  0  0
   -0.7294    0.7217    0.0000 N   0  0  0  0  0  0  0  0  0  0  0  0
   -0.0149    0.3092    0.0000 C   0  0  0  0  0  0  0  0  0  0  0  0
    0.6995    0.7217    0.0000 C   0  0  0  0  0  0  0  0  0  0  0  0
    0.6995    1.5467    0.0000 O   0  0  0  0  0  0  0  0  0  0  0  0
    1.4140    0.3092    0.0000 N   0  0  0  0  0  0  0  0  0  0  0  0
    2.1285    0.7217    0.0000 C   0  0  0  0  0  0  0  0  0  0  0  0
    1.4140   -0.5158    0.0000 C   0  0  0  0  0  0  0  0  0  0  0  0
    2.1285   -0.9283    0.0000 O   0  0  0  0  0  0  0  0  0  0  0  0
    0.6995   -0.9283    0.0000 N   0  0  0  0  0  0  0  0  0  0  0  0
   -0.0149   -0.5158    0.0000 C   0  0  0  0  0  0  0  0  0  0  0  0
  1  2  1  0  0  0  0
  2  3  1  0  0  0  0
  3  4  2  0  0  0  0
  4  5  1  0  0  0  0
  4  6  1  0  0  0  0
  6  7  2  0  0  0  0
  7  8  1  0  0  0  0
  8  9  2  0  0  0  0
  8 10  1  0  0  0  0
 10 11  1  0  0  0  0
 10 12  1  0  0  0  0
 12 13  2  0  0  0  0
 12 14  1  0  0  0  0
 14 15  2  0  0  0  0
 15  2  1  0  0  0  0
 15  7  1  0  0  0  0
M  END