
  SciTegic01161211232D

 35 38  0  0  0  0            999 V2000
   -2.4878   -8.8485    0.0000 C   0  0
   -1.7713   -8.4352    0.0000 C   0  0
   -1.7742   -7.6047    0.0000 C   0  0
   -2.4896   -7.1955    0.0000 C   0  0
   -3.2026   -8.4357    0.0000 C   0  0
   -3.2060   -7.6068    0.0000 C   0  0
   -1.0613   -7.1895    0.0000 C   0  0
   -0.3453   -7.5993    0.0000 N   0  0
   -1.0644   -6.3645    0.0000 O   0  0
    0.3677   -7.1841    0.0000 C   0  0
    1.0837   -7.5939    0.0000 C   0  0
    1.0837   -8.4178    0.0000 C   0  0
    1.7988   -8.8275    0.0000 C   0  0
    2.5127   -8.4122    0.0000 C   0  0
    2.5070   -7.5830    0.0000 C   0  0
    1.7912   -7.1770    0.0000 C   0  0
    3.2144   -7.1666    0.0000 C   0  0
    3.9322   -7.5756    0.0000 C   0  0
    4.6431   -7.1586    0.0000 C   0  0
    4.6375   -6.3328    0.0000 C   0  0
    3.9151   -5.9257    0.0000 C   0  0
    3.2071   -6.3451    0.0000 C   0  0
    5.3604   -7.5663    0.0000 C   0  0
    5.3710   -8.3873    0.0000 N   0  0
    4.6617   -8.8127    0.0000 C   0  0
    4.6766   -9.6340    0.0000 C   0  0  2  0  0  0
    5.3977  -10.0356    0.0000 N   0  0
    6.1053   -9.6096    0.0000 C   0  0
    6.0920   -8.7821    0.0000 C   0  0
   -3.9208   -7.1948    0.0000 C   0  0
   -3.9214   -6.3698    0.0000 N   0  0
    3.9692  -10.0584    0.0000 C   0  0
    3.2293   -8.8211    0.0000 F   0  0
   -3.2088   -5.9592    0.0000 C   0  0
   -4.6394   -5.9615    0.0000 C   0  0
  3  4  2  0
 17 18  2  0
  7  9  2  0
 18 19  1  0
  4  6  1  0
 19 20  2  0
  8 10  1  0
 20 21  1  0
  5  6  2  0
 21 22  2  0
 22 17  1  0
 15 17  1  0
 10 11  1  0
 19 23  1  0
  1  2  2  0
 23 24  1  0
 24 25  1  0
 11 12  2  0
  5  1  1  0
 12 13  1  0
  2  3  1  0
 13 14  2  0
 24 29  1  0
 25 26  1  0
 26 27  1  0
 27 28  1  0
 28 29  1  0
  3  7  1  0
  6 30  1  0
 14 15  1  0
 30 31  1  0
 26 32  1  1
 15 16  2  0
 14 33  1  0
 31 34  1  0
 16 11  1  0
  7  8  1  0
 31 35  1  0
M  END