
          11280714572D 1   1.00000     0.00000     0

 35 38  0     0  0            999 V2000
    4.1375   -3.6875    0.0000 C   0  0  0  0  0  0           0  0  0
    3.4625   -3.2000    0.0000 C   0  0  0  0  0  0           0  0  0
    4.7917   -3.1917    0.0000 N   0  0  0  0  0  0           0  0  0
    3.7125   -2.4125    0.0000 N   0  0  3  0  0  0           0  0  0
    4.5375   -2.4042    0.0000 N   0  0  0  0  0  0           0  0  0
    8.0417   -6.5167    0.0000 C   0  0  0  0  0  0           0  0  0
    7.0542   -7.4167    0.0000 N   0  0  0  0  0  0           0  0  0
    7.2167   -6.6125    0.0000 N   0  0  0  0  0  0           0  0  0
    7.7667   -7.8292    0.0000 N   0  0  0  0  0  0           0  0  0
    8.3792   -7.2667    0.0000 N   0  0  0  0  0  0           0  0  0
    4.1417   -4.5042    0.0000 N   0  0  3  0  0  0           0  0  0
    2.6792   -3.4542    0.0000 C   0  0  0  0  0  0           0  0  0
    8.4417   -5.8042    0.0000 C   0  0  0  0  0  0           0  0  0
    8.0250   -5.0875    0.0000 C   0  0  0  0  0  0           0  0  0
    3.2250   -1.7500    0.0000 C   0  0  0  0  0  0           0  0  0
    7.2042   -5.0875    0.0000 C   0  0  0  0  0  0           0  0  0
    4.7292   -5.1000    0.0000 C   0  0  0  0  0  0           0  0  0
    2.5042   -4.2667    0.0000 O   0  0  0  0  0  0           0  0  0
    6.8000   -5.8042    0.0000 C   0  0  0  0  0  0           0  0  0
    6.7917   -4.3750    0.0000 C   0  0  0  0  0  0           0  0  0
    5.5542   -5.0917    0.0000 C   0  0  0  0  0  0           0  0  0
    2.0625   -2.9042    0.0000 O   0  0  0  0  0  0           0  0  0
    5.9750   -5.8125    0.0000 C   0  0  0  0  0  0           0  0  0
    5.9667   -4.3792    0.0000 C   0  0  0  0  0  0           0  0  0
    3.3792   -4.8292    0.0000 C   0  0  0  0  0  0           0  0  0
    9.2667   -5.7917    0.0000 C   0  0  0  0  0  0           0  0  0
    8.4375   -4.3667    0.0000 C   0  0  0  0  0  0           0  0  0
    3.5542   -0.9917    0.0000 C   0  0  3  0  0  0           0  0  0
    3.2750   -5.6417    0.0000 C   0  0  0  0  0  0           0  0  0
    2.5042   -5.9667    0.0000 C   0  0  0  0  0  0           0  0  0
    3.0667   -0.3292    0.0000 C   0  0  0  0  0  0           0  0  0
    4.3750   -0.9042    0.0000 C   0  0  0  0  0  0           0  0  0
    9.6792   -5.0792    0.0000 C   0  0  0  0  0  0           0  0  0
    9.2625   -4.3667    0.0000 C   0  0  0  0  0  0           0  0  0
    2.4042   -6.7792    0.0000 C   0  0  0  0  0  0           0  0  0
  2  1  2  0     0  0
  3  1  1  0     0  0
  4  2  1  0     0  0
  5  3  2  0     0  0
  6 13  1  0     0  0
  7  8  2  0     0  0
  8  6  1  0     0  0
  9 10  1  0     0  0
 10  6  2  0     0  0
 11  1  1  0     0  0
 12  2  1  0     0  0
 13 14  2  0     0  0
 14 16  1  0     0  0
 15  4  1  0     0  0
 16 20  2  0     0  0
 17 11  1  0     0  0
 18 12  2  0     0  0
 19 23  2  0     0  0
 20 24  1  0     0  0
 21 17  1  0     0  0
 22 12  1  0     0  0
 23 21  1  0     0  0
 24 21  2  0     0  0
 25 11  1  0     0  0
 26 13  1  0     0  0
 27 14  1  0     0  0
 28 15  1  0     0  0
 29 25  1  0     0  0
 30 29  1  0     0  0
 31 28  1  0     0  0
 32 28  1  0     0  0
 33 34  1  0     0  0
 34 27  2  0     0  0
 35 30  1  0     0  0
  4  5  1  0     0  0
 16 19  1  0     0  0
 33 26  2  0     0  0
  9  7  1  0     0  0
M  END