
  SciTegic04021211102D

 29 32  0  0  0  0            999 V2000
    3.0475   -4.5625    0.0000 C   0  0
    3.0463   -5.3874    0.0000 C   0  0
    3.7618   -5.7989    0.0000 C   0  0
    4.4789   -5.3869    0.0000 C   0  0
    4.4759   -4.5587    0.0000 C   0  0
    3.7599   -4.1467    0.0000 C   0  0
    5.1818   -4.1416    0.0000 C   0  0
    5.8988   -4.5562    0.0000 C   0  0
    6.6118   -4.1386    0.0000 C   0  0
    6.6090   -3.3153    0.0000 N   0  0
    5.8870   -2.9071    0.0000 C   0  0
    5.1771   -3.3228    0.0000 N   0  0
    3.7616   -6.6257    0.0000 C   0  0
    4.4765   -7.0372    0.0000 N   0  0
    5.1874   -6.6261    0.0000 C   0  0
    5.9024   -7.0375    0.0000 C   0  0
    3.7573   -3.3243    0.0000 C   0  0
    5.8806   -2.0803    0.0000 N   0  0
    6.6175   -6.6265    0.0000 C   0  0
    7.3326   -7.0379    0.0000 O   0  0
    8.0434   -6.6269    0.0000 C   0  0
    8.7552   -7.0383    0.0000 C   0  0
    9.4698   -6.6280    0.0000 C   0  0
    9.4705   -5.8003    0.0000 C   0  0
    8.7502   -5.3891    0.0000 C   0  0
    8.0386   -5.8019    0.0000 C   0  0
    8.7474   -4.5667    0.0000 S   0  0
    2.2962   -5.8205    0.0000 C   0  0
    3.0117   -7.0593    0.0000 O   0  0
 13 14  1  0
  3  4  2  0
 14 15  1  0
  7  8  2  0
 15 16  1  0
  6 17  1  0
  8  9  1  0
 11 18  1  0
  4  5  1  0
 16 19  1  0
  9 10  2  0
 19 20  1  0
  2  3  1  0
 20 21  1  0
 10 11  1  0
 21 22  2  0
  5  6  2  0
 22 23  1  0
 11 12  2  0
 23 24  2  0
 12  7  1  0
 24 25  1  0
  5  7  1  0
 25 26  2  0
 26 21  1  0
  6  1  1  0
 25 27  1  0
  9 27  1  0
  3 13  1  0
  2 28  1  0
  1  2  2  0
 13 29  2  0
M  END