
  SciTegic09261414532D

 35 40  0  0  0  0            999 V2000
    9.2188  -14.8993    0.0000 C   0  0
    9.2177  -15.7188    0.0000 C   0  0
    9.9257  -16.1278    0.0000 C   0  0
    9.9239  -14.4904    0.0000 C   0  0
   10.6325  -14.8957    0.0000 C   0  0
   10.6373  -15.7143    0.0000 C   0  0
   11.4174  -15.9627    0.0000 N   0  0
   11.8947  -15.2976    0.0000 C   0  0
   11.4096  -14.6382    0.0000 N   0  0
   11.6744  -16.7384    0.0000 C   0  0
   11.1311  -17.3489    0.0000 C   0  0
   10.3324  -17.1812    0.0000 C   0  0
    9.7894  -17.7908    0.0000 C   0  0
   10.0463  -18.5675    0.0000 C   0  0
   10.8513  -18.7310    0.0000 C   0  0
   11.3908  -18.1201    0.0000 C   0  0
   12.7111  -15.2915    0.0000 C   0  0
   13.1226  -15.9986    0.0000 C   0  0
   13.9363  -15.9957    0.0000 C   0  0
   14.3445  -15.2874    0.0000 C   0  0
   13.9330  -14.5803    0.0000 C   0  0
   13.1132  -14.5815    0.0000 C   0  0
   15.1617  -15.2857    0.0000 O   0  0
   15.5718  -15.9925    0.0000 C   0  0
   15.1647  -16.7011    0.0000 C   0  0
   15.5748  -17.4080    0.0000 N   0  0
   15.2487  -18.1539    0.0000 C   0  0
   15.8571  -18.6995    0.0000 N   0  0
   16.3923  -17.4904    0.0000 C   0  0
   16.5594  -18.2869    0.0000 C   0  0
   17.3313  -18.5388    0.0000 C   0  0
   17.9367  -17.9954    0.0000 C   0  0
   17.7650  -17.1967    0.0000 C   0  0
   16.9934  -16.9485    0.0000 C   0  0
   14.4501  -18.3274    0.0000 C   0  0
  1  2  2  0
  2  3  1  0
  3  6  2  0
  5  4  2  0
  4  1  1  0
  5  6  1  0
  6  7  1  0
  7  8  1  0
  8  9  2  0
  9  5  1  0
  7 10  1  0
 10 11  1  0
 11 12  2  0
 12 13  1  0
 13 14  2  0
 14 15  1  0
 15 16  2  0
 16 11  1  0
 17 18  2  0
 17 22  1  0
 18 19  1  0
 19 20  2  0
 20 21  1  0
 21 22  2  0
  8 17  1  0
 20 23  1  0
 23 24  1  0
 24 25  1  0
 25 26  1  0
 26 27  1  0
 27 28  2  0
 28 30  1  0
 29 26  1  0
 29 30  2  0
 30 31  1  0
 31 32  2  0
 32 33  1  0
 33 34  2  0
 34 29  1  0
 27 35  1  0
M  END