
          11280715492D 1   1.00000     0.00000     0

 24 27  0     0  0            999 V2000
   -4.9097   -2.3936    0.0000 N   0  0  0  0  0  0           0  0  0
   -4.9109   -3.2217    0.0000 C   0  0  0  0  0  0           0  0  0
   -4.1954   -3.6349    0.0000 C   0  0  0  0  0  0           0  0  0
   -3.4784   -3.2212    0.0000 C   0  0  0  0  0  0           0  0  0
   -3.4813   -2.3900    0.0000 C   0  0  0  0  0  0           0  0  0
   -4.1972   -1.9806    0.0000 C   0  0  0  0  0  0           0  0  0
   -2.7627   -3.6329    0.0000 C   0  0  0  0  0  0           0  0  0
   -1.8705   -4.6296    0.0000 N   0  0  0  0  0  0           0  0  0
   -1.4585   -3.9175    0.0000 C   0  0  0  0  0  0           0  0  0
   -2.0197   -3.2945    0.0000 N   0  0  0  0  0  0           0  0  0
   -2.6782   -4.4511    0.0000 C   0  0  0  0  0  0           0  0  0
   -3.2945   -4.9996    0.0000 C   0  0  0  0  0  0           0  0  0
   -4.0165   -4.5968    0.0000 C   0  0  0  0  0  0           0  0  0
   -4.7243   -5.0206    0.0000 C   0  0  0  0  0  0           0  0  0
   -4.7112   -5.8471    0.0000 C   0  0  0  0  0  0           0  0  0
   -3.9843   -6.2479    0.0000 C   0  0  0  0  0  0           0  0  0
   -3.2796   -5.8218    0.0000 C   0  0  0  0  0  0           0  0  0
   -5.4187   -6.2725    0.0000 Cl  0  0  0  0  0  0           0  0  0
   -3.9679   -7.0734    0.0000 O   0  0  0  0  0  0           0  0  0
   -0.0886   -4.4495    0.0000 O   0  0  0  0  0  0           0  0  0
    0.6618   -4.1117    0.0000 C   0  0  0  0  0  0           0  0  0
    0.5696   -3.2783    0.0000 C   0  0  0  0  0  0           0  0  0
   -0.2294   -3.1178    0.0000 C   0  0  0  0  0  0           0  0  0
   -0.6402   -3.8331    0.0000 C   0  0  0  0  0  0           0  0  0
  5  6  1  0     0  0
  6  1  2  0     0  0
 12 13  2  0     0  0
  1  2  1  0     0  0
 13 14  1  0     0  0
  4  7  1  0     0  0
 14 15  2  0     0  0
  3  4  1  0     0  0
 15 16  1  0     0  0
 16 17  2  0     0  0
 17 12  1  0     0  0
 11 12  1  0     0  0
  4  5  2  0     0  0
 15 18  1  0     0  0
  2  3  2  0     0  0
 16 19  1  0     0  0
  8  9  1  0     0  0
  9 10  2  0     0  0
 10  7  1  0     0  0
  7 11  2  0     0  0
 11  8  1  0     0  0
 20 21  1  0     0  0
 21 22  2  0     0  0
 22 23  1  0     0  0
 23 24  2  0     0  0
 24 20  1  0     0  0
  9 24  1  0     0  0
M  END