
  SciTegic04091415222D

 26 29  0  0  0  0            999 V2000
   14.3490  -29.1671    0.0000 C   0  0
   15.7627  -29.1635    0.0000 C   0  0
   15.0541  -28.7582    0.0000 C   0  0
   15.7655  -29.9861    0.0000 C   0  0
   15.7617  -31.6213    0.0000 C   0  0
   16.4729  -31.2090    0.0000 C   0  0
   16.4709  -30.3933    0.0000 C   0  0
   15.0550  -30.3934    0.0000 C   0  0
   14.3478  -29.9866    0.0000 C   0  0
   13.6440  -30.3956    0.0000 C   0  0
   13.6462  -31.2113    0.0000 O   0  0
   14.3581  -31.6162    0.0000 C   0  0
   15.0590  -31.2048    0.0000 C   0  0
   16.4658  -28.7535    0.0000 C   0  0
   17.1754  -29.1612    0.0000 N   0  0
   17.8810  -28.7506    0.0000 C   0  0
   17.8784  -27.9325    0.0000 N   0  0
   17.1642  -27.5268    0.0000 C   0  0
   16.4614  -27.9397    0.0000 N   0  0
   15.0516  -27.9410    0.0000 Cl  0  0
   17.1582  -26.7096    0.0000 N   0  0
   18.5901  -29.1568    0.0000 S   0  0
   19.2965  -28.7459    0.0000 C   0  0
   20.0055  -29.1522    0.0000 C   0  0
   20.7119  -28.7413    0.0000 N   0  0
   20.0082  -29.9694    0.0000 O   0  0
  1  9  2  0
  4  2  1  0
  2  3  2  0
  3  1  1  0
  4  8  1  0
 13  5  1  0
  5  6  2  0
  6  7  1  0
  7  4  2  0
  8  9  1  0
  9 10  1  0
 10 11  1  0
 11 12  1  0
 12 13  1  0
 13  8  2  0
 14 15  2  0
 15 16  1  0
 16 17  2  0
 17 18  1  0
 18 19  2  0
 19 14  1  0
  2 14  1  0
  3 20  1  0
 18 21  1  0
 16 22  1  0
 22 23  1  0
 23 24  1  0
 24 25  1  0
 24 26  2  0
M  END