
          01230816042D 1   1.00000     0.00000     0

 47 52  0     1  0            999 V2000
    6.2194   -3.6958    0.0000 C   0  0  0  0  0  0           0  0  0
    6.2182   -4.5232    0.0000 C   0  0  0  0  0  0           0  0  0
    6.9331   -4.9360    0.0000 C   0  0  0  0  0  0           0  0  0
    6.9313   -3.2830    0.0000 C   0  0  0  0  0  0           0  0  0
    7.6466   -3.6922    0.0000 C   0  0  0  0  0  0           0  0  0
    7.6501   -4.5252    0.0000 C   0  0  0  0  0  0           0  0  0
    8.3692   -4.9365    0.0000 C   0  0  0  0  0  0           0  0  0
    9.0896   -4.5193    0.0000 C   0  0  0  0  0  0           0  0  0
    7.1500   -5.6875    0.0000 N   0  0  0  0  0  0           0  0  0
    8.1500   -5.7292    0.0000 C   0  0  0  0  0  0           0  0  0
    8.3624   -3.2704    0.0000 C   0  0  0  0  0  0           0  0  0
    9.0881   -3.6857    0.0000 C   0  0  2  0  0  0           0  0  0
    9.8067   -3.2672    0.0000 N   0  0  3  0  0  0           0  0  0
    9.8058   -2.4317    0.0000 C   0  0  0  0  0  0           0  0  0
    9.0801   -2.0163    0.0000 C   0  0  1  0  0  0           0  0  0
    8.3552   -2.4366    0.0000 C   0  0  0  0  0  0           0  0  0
   10.5221   -3.6780    0.0000 C   0  0  0  0  0  0           0  0  0
    9.0778   -1.1913    0.0000 C   0  0  0  0  0  0           0  0  0
    9.7911   -0.7768    0.0000 N   0  0  0  0  0  0           0  0  0
    8.3622   -0.7808    0.0000 O   0  0  0  0  0  0           0  0  0
    9.7888    0.0481    0.0000 C   0  0  2  0  0  0           0  0  0
   10.5021    0.4626    0.0000 C   0  0  0  0  0  0           0  0  0
    9.0732    0.4587    0.0000 C   0  0  3  0  0  0           0  0  0
    9.0709    1.2836    0.0000 C   0  0  0  0  0  0           0  0  0
   11.2177    0.0521    0.0000 N   0  0  0  0  0  0           0  0  0
   10.4998    1.2876    0.0000 O   0  0  0  0  0  0           0  0  0
   11.9310    0.4666    0.0000 C   0  0  2  0  0  0           0  0  0
   12.5217   -0.0064    0.0000 C   0  0  0  0  0  0           0  0  0
   11.9287    1.2916    0.0000 C   0  0  0  0  0  0           0  0  0
   12.6421    1.7061    0.0000 C   0  0  0  0  0  0           0  0  0
   13.3551    1.2934    0.0000 C   0  0  0  0  0  0           0  0  0
   14.0679    1.7072    0.0000 C   0  0  0  0  0  0           0  0  0
   14.0661    2.5331    0.0000 C   0  0  0  0  0  0           0  0  0
   13.3454    2.9434    0.0000 C   0  0  0  0  0  0           0  0  0
   12.6356    2.5273    0.0000 C   0  0  0  0  0  0           0  0  0
   14.7789    2.9486    0.0000 F   0  0  0  0  0  0           0  0  0
   12.2083   -0.7542    0.0000 O   0  0  0  0  0  0           0  0  0
   13.3238    0.1863    0.0000 N   0  0  3  0  0  0           0  0  0
   13.9466   -0.3497    0.0000 C   0  0  1  0  0  0           0  0  0
   14.6500    0.0814    0.0000 C   0  0  0  0  0  0           0  0  0
   14.4573    0.8836    0.0000 C   0  0  0  0  0  0           0  0  0
   13.6348    0.9482    0.0000 C   0  0  0  0  0  0           0  0  0
   13.8803   -1.1721    0.0000 C   0  0  0  0  0  0           0  0  0
   13.1350   -1.5258    0.0000 O   0  0  0  0  0  0           0  0  0
   14.5593   -1.6406    0.0000 N   0  0  0  0  0  0           0  0  0
    9.8000   -4.0958    0.0000 H   0  0  0  0  0  0           0  0  0
    8.3599    0.0442    0.0000 C   0  0  0  0  0  0           0  0  0
 21 22  1  0     0  0
  7 10  2  0     0  0
 21 23  1  1     0  0
  9 10  1  0     0  0
 23 24  1  0     0  0
 11 12  1  0     0  0
 22 25  1  0     0  0
  5  6  1  0     0  0
 22 26  2  0     0  0
 25 27  1  0     0  0
  2  3  1  0     0  0
 27 28  1  0     0  0
  3  6  2  0     0  0
 27 29  1  1     0  0
  1  2  2  0     0  0
 29 30  1  0     0  0
  5 11  1  0     0  0
 30 31  2  0     0  0
 11 16  2  0     0  0
 31 32  1  0     0  0
 12 13  1  0     0  0
 32 33  2  0     0  0
 13 14  1  0     0  0
 33 34  1  0     0  0
 14 15  1  0     0  0
 34 35  2  0     0  0
 35 30  1  0     0  0
 15 16  1  0     0  0
 33 36  1  0     0  0
  6  7  1  0     0  0
 28 37  2  0     0  0
 13 17  1  0     0  0
 28 38  1  0     0  0
 38 39  1  0     0  0
  7  8  1  0     0  0
 15 18  1  1     0  0
  8 12  1  0     0  0
 18 19  1  0     0  0
 39 40  1  0     0  0
 40 41  1  0     0  0
 41 42  1  0     0  0
 42 38  1  0     0  0
  5  4  2  0     0  0
 39 43  1  1     0  0
 18 20  2  0     0  0
 43 44  2  0     0  0
  3  9  1  0     0  0
 43 45  1  0     0  0
 19 21  1  0     0  0
 12 46  1  1     0  0
  4  1  1  0     0  0
 23 47  1  0     0  0
M  END