
  SciTegic11201309402D

116124  0  0  0  0            999 V2000
   -6.1635   -8.1234    0.0000 C   0  0
   -6.9558   -9.5761    0.0000 O   0  0
    7.4174   -9.5500    0.0000 C   0  0
    7.0031  -10.2660    0.0000 O   0  0
    8.6510  -10.2721    0.0000 C   0  0  2  0  0  0
    9.4792  -10.2773    0.0000 C   0  0
    8.2367  -10.9840    0.0000 C   0  0  1  0  0  0
    7.4126  -10.9831    0.0000 C   0  0
    9.8935   -9.5611    0.0000 O   0  0
    6.1872   -8.8307    0.0000 N   0  0
    7.0084   -8.8375    0.0000 C   0  0  1  0  0  0
    7.2663   -8.0542    0.0000 C   0  0
    6.6034   -7.5706    0.0000 C   0  0
    5.9374   -8.0480    0.0000 C   0  0
   10.7128  -10.9951    0.0000 C   0  0  2  0  0  0
   11.1225  -11.7122    0.0000 C   0  0
   11.1313  -10.2833    0.0000 C   0  0
   10.7081  -12.4240    0.0000 O   0  0
   11.9468  -11.7129    0.0000 N   0  0
   11.9399  -12.5391    0.0000 C   0  0
   12.7218  -12.8062    0.0000 C   0  0
   13.2147  -12.1446    0.0000 C   0  0
   12.7391  -11.4679    0.0000 C   0  0  1  0  0  0
   13.1302  -10.7380    0.0000 C   0  0
   13.9524  -10.7142    0.0000 N   0  0
   12.6939  -10.0402    0.0000 O   0  0
   14.2352  -11.4881    0.0000 C   0  0
   15.0588  -11.4641    0.0000 C   0  0
   15.2904  -10.6740    0.0000 C   0  0
   14.6102  -10.2071    0.0000 C   0  0  1  0  0  0
   14.3196   -9.4339    0.0000 C   0  0
   13.5040   -9.2998    0.0000 O   0  0
    7.6510  -10.2677    0.0000 H   0  0
    5.7774   -9.5476    0.0000 C   0  0
    4.9534   -9.5525    0.0000 C   0  0  2  0  0  0
    6.1916  -10.2596    0.0000 O   0  0
    4.5435  -10.2652    0.0000 C   0  0
   14.4388   -8.0678    0.0000 C   0  0  2  0  0  0
   13.6148   -8.0543    0.0000 C   0  0
   14.8583   -7.3583    0.0000 C   0  0
   15.6863   -7.3452    0.0000 C   0  0
   16.1104   -8.0530    0.0000 C   0  0
   16.9365   -8.0375    0.0000 O   0  0
   13.2114   -7.3355    0.0000 N   0  0
   13.1898   -8.7639    0.0000 O   0  0
   13.5307   -6.5746    0.0000 C   0  0
    4.9577  -10.9814    0.0000 C   0  0
    3.7111   -8.8412    0.0000 C   0  0
    3.2969   -8.1292    0.0000 C   0  0
    3.3013   -9.5581    0.0000 O   0  0
    1.7481   -7.7268    0.0000 C   0  0
    1.0401   -8.1506    0.0000 C   0  0
    1.7355   -6.9030    0.0000 O   0  0
    0.3195   -7.7507    0.0000 C   0  0
   -0.3885   -8.1745    0.0000 C   0  0
   -1.1091   -7.7745    0.0000 C   0  0
   -2.5275   -7.7958    0.0000 C   0  0
   -2.5443   -6.9719    0.0000 S   0  0
   -3.9460   -7.8171    0.0000 C   0  0
   -3.9548   -6.9969    0.0000 C   0  0
   -4.6771   -6.5929    0.0000 C   0  0
   -4.6450   -8.2454    0.0000 C   0  0
   -5.3689   -7.8470    0.0000 C   0  0
   -5.3872   -7.0139    0.0000 C   0  0
   -6.1922   -6.7745    0.0000 C   0  0
   -6.6653   -7.4550    0.0000 O   0  0
   -6.4563   -5.9903    0.0000 O   0  0
   -5.7192   -8.8222    0.0000 C   0  0
   -6.1301   -9.5528    0.0000 C   0  0
   -5.6891  -10.2593    0.0000 C   0  0
   -4.8587  -10.2371    0.0000 C   0  0
   -4.4603   -9.5035    0.0000 C   0  0
   -4.8948   -8.8016    0.0000 C   0  0
   -7.3835   -8.8701    0.0000 C   0  0
   -6.9948   -8.1475    0.0000 C   0  0
   -7.4214   -7.4479    0.0000 C   0  0
   -8.2408   -7.4733    0.0000 C   0  0
   -8.6349   -8.1988    0.0000 C   0  0
   -8.2048   -8.8939    0.0000 C   0  0
    4.5479  -11.6982    0.0000 C   0  0
    4.9634  -12.4119    0.0000 O   0  0
    3.6989   -7.4021    0.0000 C   0  0
    4.1061   -6.6856    0.0000 C   0  0
    2.8750   -7.4109    0.0000 C   0  0
    2.4721   -8.1316    0.0000 N   0  0
    4.9299   -6.6768    0.0000 C   0  0
    5.3371   -5.9561    0.0000 C   0  0
    6.1652   -5.9516    0.0000 C   0  0
    6.9419   -5.2308    0.0000 C   0  0
    7.9993   -5.2277    0.0000 C   0  0
    8.4071   -5.8414    0.0000 C   0  0
    9.1461   -5.8385    0.0000 C   0  0
    9.5154   -6.4742    0.0000 C   0  0
    9.1541   -7.1127    0.0000 C   0  0
    9.5234   -7.7484    0.0000 C   0  0
   10.2625   -7.7413    0.0000 C   0  0
   10.6318   -8.3770    0.0000 C   0  0
   11.3708   -8.3742    0.0000 C   0  0
   11.7362   -7.7314    0.0000 C   0  0
   14.2406   -6.1536    0.0000 C   0  0
   14.9579   -6.5597    0.0000 O   0  0
    8.2423   -9.5555    0.0000 N   0  0
    8.6483  -11.7057    0.0000 O   0  0
    9.8878  -10.9939    0.0000 N   0  0
   14.8362   -8.7907    0.0000 N   0  0
    4.5361   -8.8408    0.0000 N   0  0
   15.7121   -8.7864    0.0000 O   0  0
   -1.8119   -8.2064    0.0000 N   0  0
   -3.2304   -8.2277    0.0000 N   0  0
   -4.4261  -10.9479    0.0000 O   0  0
   -9.4603   -8.2300    0.0000 O   0  0
    3.7222  -11.7010    0.0000 O   0  0
   14.2309   -5.3297    0.0000 N   0  0
   15.3975   -9.5905    0.0000 H   0  0
   13.7373  -11.4076    0.0000 H   0  0
    8.0033   -8.7362    0.0000 H   0  0
  6  9  2  0
 10 11  1  0
 11 12  1  0
 12 13  1  0
 13 14  1  0
 14 10  1  0
 15 16  1  0
 15 17  1  1
 16 18  2  0
 16 19  1  0
 19 20  1  0
 20 21  1  0
 21 22  1  0
 22 23  1  0
 23 19  1  0
 23 24  1  0
 24 25  1  0
 24 26  2  0
 25 27  1  0
 27 28  1  0
 28 29  1  0
 29 30  1  0
 30 25  1  0
 30 31  1  0
 31 32  2  0
  5 33  1  1
 10 34  1  0
 34 35  1  0
 34 36  2  0
 35 37  1  6
 38 39  1  0
 38 40  1  6
 40 41  1  0
 41 42  1  0
 42 43  2  0
 39 44  1  0
 39 45  2  0
 44 46  1  0
 37 47  1  0
 48 49  1  0
 48 50  2  0
 49 85  1  0
 85 51  1  0
 51 52  1  0
 51 53  2  0
 52 54  1  0
 54 55  1  0
 55 56  1  0
 57 58  2  0
 59 60  2  0
 60 61  1  0
 61 64  2  0
 63 62  2  0
 62 59  1  0
 63 64  1  0
 64 65  1  0
 65 66  1  0
 66  1  1  0
  1 63  1  0
 65 67  2  0
 68 69  2  0
 69 70  1  0
 70 71  2  0
 71 72  1  0
 72 73  2  0
 73 68  1  0
 74 75  2  0
 75 76  1  0
 76 77  2  0
 77 78  1  0
 78 79  2  0
 79 74  1  0
 47 80  1  0
 80 81  2  0
 82 83  1  0
 82 84  1  0
 84 85  1  0
 83 86  1  0
 86 87  1  0
 87 88  1  0
 88 89  1  0
 89 90  2  0
 90 91  1  0
 91 92  1  0
 92 93  1  0
 93 94  1  0
 94 95  1  0
 95 96  1  0
 96 97  1  0
 97 98  1  0
 98 99  1  0
 99 44  1  0
 46100  1  0
100101  2  0
  1 75  1  0
  1 68  1  0
 74  2  1  0
  2 69  1  0
 11  3  1  0
  3  4  2  0
  5  6  1  0
  5  7  1  0
  7  8  1  6
 42107  1  0
  6104  1  0
104 15  1  0
 56108  1  0
108 57  1  0
 57109  1  0
109 59  1  0
 31105  1  0
105 38  1  0
 71110  1  0
  7103  1  0
 78111  1  0
 35106  1  0
106 48  1  0
 80112  1  0
  3102  1  0
102  5  1  0
100113  1  0
 30114  1  1
 23115  1  1
 11116  1  6
M  END