
          11280714522D 1   1.00000     0.00000     0

 48 52  0     0  0            999 V2000
    1.8917    0.8875    0.0000 N   0  0  0  0  0  0           0  0  0
    2.2542    1.6250    0.0000 C   0  0  3  0  0  0           0  0  0
    1.0917    2.5583    0.0000 N   0  0  3  0  0  0           0  0  0
    1.0917    0.7083    0.0000 C   0  0  0  0  0  0           0  0  0
    1.8917    2.3708    0.0000 C   0  0  0  0  0  0           0  0  0
    7.7292   -4.9792    0.0000 C   0  0  0  0  0  0           0  0  0
    0.4542    1.2208    0.0000 C   0  0  0  0  0  0           0  0  0
    3.0792    1.6208    0.0000 N   0  0  0  0  0  0           0  0  0
    8.0292   -5.7625    0.0000 N   0  0  0  0  0  0           0  0  0
    0.4542    2.0458    0.0000 C   0  0  0  0  0  0           0  0  0
    6.9292   -4.7667    0.0000 N   0  0  0  0  0  0           0  0  0
    3.4875    0.9000    0.0000 C   0  0  0  0  0  0           0  0  0
    7.5042   -6.4042    0.0000 C   0  0  0  0  0  0           0  0  0
    8.1792   -4.2875    0.0000 S   0  0  0  0  0  0           0  0  0
    6.8875   -3.9500    0.0000 C   0  0  0  0  0  0           0  0  0
    0.9667   -0.1125    0.0000 C   0  0  0  0  0  0           0  0  0
    7.6542   -3.6500    0.0000 C   0  0  0  0  0  0           0  0  0
    4.3125    0.8958    0.0000 N   0  0  0  0  0  0           0  0  0
    3.5500   -2.1792    0.0000 C   0  0  0  0  0  0           0  0  0
    2.4042    3.0333    0.0000 O   0  0  0  0  0  0           0  0  0
    3.0667    0.1875    0.0000 O   0  0  0  0  0  0           0  0  0
    1.6167   -0.6292    0.0000 C   0  0  0  0  0  0           0  0  0
    4.7250    0.1833    0.0000 C   0  0  0  0  0  0           0  0  0
    4.3167   -1.8792    0.0000 O   0  0  0  0  0  0           0  0  0
    6.6917   -6.2792    0.0000 N   0  0  0  0  0  0           0  0  0
    7.8042   -7.1750    0.0000 N   0  0  0  0  0  0           0  0  0
    3.4167   -3.0000    0.0000 N   0  0  0  0  0  0           0  0  0
    2.1292   -1.9667    0.0000 O   0  0  0  0  0  0           0  0  0
    0.9125    3.3708    0.0000 C   0  0  0  0  0  0           0  0  0
    2.9042   -1.6667    0.0000 C   0  0  0  0  0  0           0  0  0
    1.4917   -1.4417    0.0000 C   0  0  0  0  0  0           0  0  0
    5.5542    0.1833    0.0000 C   0  0  0  0  0  0           0  0  0
   -0.2583    0.8083    0.0000 C   0  0  0  0  0  0           0  0  0
    5.4750   -3.7292    0.0000 S   0  0  0  0  0  0           0  0  0
    6.2417   -3.4292    0.0000 C   0  0  0  0  0  0           0  0  0
   -0.2583    2.4583    0.0000 C   0  0  0  0  0  0           0  0  0
    5.9667   -0.5292    0.0000 C   0  0  0  0  0  0           0  0  0
    0.2042   -0.4167    0.0000 C   0  0  0  0  0  0           0  0  0
    0.0792   -1.2292    0.0000 C   0  0  0  0  0  0           0  0  0
    4.7250   -1.2417    0.0000 C   0  0  0  0  0  0           0  0  0
    4.3125   -0.5292    0.0000 C   0  0  0  0  0  0           0  0  0
    4.0625   -3.5167    0.0000 C   0  0  0  0  0  0           0  0  0
    0.7292   -1.7417    0.0000 C   0  0  0  0  0  0           0  0  0
    5.5542   -1.2417    0.0000 C   0  0  0  0  0  0           0  0  0
    4.8292   -3.2167    0.0000 C   0  0  0  0  0  0           0  0  0
    6.7917   -0.5250    0.0000 C   0  0  0  0  0  0           0  0  0
   -0.9750    1.2208    0.0000 C   0  0  0  0  0  0           0  0  0
   -0.9750    2.0458    0.0000 C   0  0  0  0  0  0           0  0  0
  2  1  1  0     0  0
  3  5  1  0     0  0
  4  1  2  0     0  0
  5  2  1  0     0  0
  6 11  2  0     0  0
  7  4  1  0     0  0
  8  2  1  0     0  0
  9  6  1  0     0  0
 10  7  1  0     0  0
 11 15  1  0     0  0
 12  8  1  0     0  0
 13  9  2  0     0  0
 14 17  1  0     0  0
 15 35  1  0     0  0
 16  4  1  0     0  0
 17 15  2  0     0  0
 18 12  1  0     0  0
 19 30  1  0     0  0
 20  5  2  0     0  0
 21 12  2  0     0  0
 22 16  1  0     0  0
 23 18  1  0     0  0
 24 19  2  0     0  0
 25 13  1  0     0  0
 26 13  1  0     0  0
 27 19  1  0     0  0
 28 31  1  0     0  0
 29  3  1  0     0  0
 30 28  1  0     0  0
 31 22  2  0     0  0
 32 23  1  0     0  0
 33  7  2  0     0  0
 34 45  1  0     0  0
 35 34  1  0     0  0
 36 10  2  0     0  0
 37 32  2  0     0  0
 38 16  2  0     0  0
 39 38  1  0     0  0
 40 41  1  0     0  0
 41 23  2  0     0  0
 42 27  1  0     0  0
 43 39  2  0     0  0
 44 40  2  0     0  0
 45 42  1  0     0  0
 46 37  1  0     0  0
 47 33  1  0     0  0
 48 47  2  0     0  0
  3 10  1  0     0  0
 43 31  1  0     0  0
 48 36  1  0     0  0
 37 44  1  0     0  0
  6 14  1  0     0  0
M  END