
          11280715232D 1   1.00000     0.00000     0

 33 36  0     0  0            999 V2000
    3.9667   -1.5167    0.0000 C   0  0  0  0  0  0           0  0  0
    3.9667   -0.6917    0.0000 C   0  0  0  0  0  0           0  0  0
    6.9792   -5.8500    0.0000 C   0  0  0  0  0  0           0  0  0
    6.4500   -7.0792    0.0000 N   0  0  0  0  0  0           0  0  0
    7.1542   -6.6542    0.0000 N   0  0  0  0  0  0           0  0  0
    5.8292   -6.5417    0.0000 N   0  0  0  0  0  0           0  0  0
    6.1625   -5.7750    0.0000 N   0  0  0  0  0  0           0  0  0
    3.2542   -1.9292    0.0000 N   0  0  0  0  0  0           0  0  0
    4.6792   -1.9292    0.0000 N   0  0  3  0  0  0           0  0  0
    7.5292   -5.2292    0.0000 C   0  0  0  0  0  0           0  0  0
    4.6917   -0.2667    0.0000 C   0  0  0  0  0  0           0  0  0
    7.5292   -4.4042    0.0000 C   0  0  0  0  0  0           0  0  0
    3.2542   -0.2792    0.0000 C   0  0  0  0  0  0           0  0  0
    6.8167   -3.9917    0.0000 C   0  0  0  0  0  0           0  0  0
    4.6792   -2.7542    0.0000 C   0  0  0  0  0  0           0  0  0
    4.6875    0.5583    0.0000 O   0  0  0  0  0  0           0  0  0
    2.5417   -1.5167    0.0000 C   0  0  0  0  0  0           0  0  0
    6.8167   -3.1667    0.0000 C   0  0  0  0  0  0           0  0  0
    6.1042   -4.4042    0.0000 C   0  0  0  0  0  0           0  0  0
    5.3917   -3.1667    0.0000 C   0  0  0  0  0  0           0  0  0
    2.5417   -0.6917    0.0000 C   0  0  0  0  0  0           0  0  0
    5.4125   -0.6792    0.0000 O   0  0  0  0  0  0           0  0  0
    5.3917   -3.9917    0.0000 C   0  0  0  0  0  0           0  0  0
    6.1000   -2.7542    0.0000 C   0  0  0  0  0  0           0  0  0
    5.3917   -1.5167    0.0000 C   0  0  0  0  0  0           0  0  0
    8.2417   -5.6417    0.0000 C   0  0  0  0  0  0           0  0  0
    8.2417   -3.9917    0.0000 C   0  0  0  0  0  0           0  0  0
    1.8250   -1.9292    0.0000 C   0  0  0  0  0  0           0  0  0
    6.1000   -1.9292    0.0000 C   0  0  0  0  0  0           0  0  0
    6.8042   -1.5250    0.0000 C   0  0  0  0  0  0           0  0  0
    8.9542   -4.4042    0.0000 C   0  0  0  0  0  0           0  0  0
    8.9542   -5.2292    0.0000 C   0  0  0  0  0  0           0  0  0
    7.5167   -1.9292    0.0000 C   0  0  0  0  0  0           0  0  0
  2  1  1  0     0  0
  3 10  1  0     0  0
  4  5  2  0     0  0
  5  3  1  0     0  0
  6  7  1  0     0  0
  7  3  2  0     0  0
  8  1  2  0     0  0
  9  1  1  0     0  0
 10 12  2  0     0  0
 11  2  1  0     0  0
 12 14  1  0     0  0
 13  2  2  0     0  0
 14 18  2  0     0  0
 15  9  1  0     0  0
 16 11  2  0     0  0
 17  8  1  0     0  0
 18 24  1  0     0  0
 19 23  2  0     0  0
 20 15  1  0     0  0
 21 17  2  0     0  0
 22 11  1  0     0  0
 23 20  1  0     0  0
 24 20  2  0     0  0
 25  9  1  0     0  0
 26 10  1  0     0  0
 27 12  1  0     0  0
 28 17  1  0     0  0
 29 25  1  0     0  0
 30 29  1  0     0  0
 31 27  2  0     0  0
 32 31  1  0     0  0
 33 30  1  0     0  0
 13 21  1  0     0  0
 19 14  1  0     0  0
 26 32  2  0     0  0
  6  4  1  0     0  0
M  END