
  SciTegic01161211262D

 21 21  0  0  0  0            999 V2000
    2.5956   -2.7031    0.0000 C   0  0
    2.5973   -1.5031    0.0000 O   0  0
    1.2990   -0.7500    0.0000 C   0  0
    1.2990    0.7500    0.0000 C   0  0
    0.0000    1.5000    0.0000 C   0  0
   -1.2990    0.7500    0.0000 C   0  0
   -1.2990   -0.7500    0.0000 C   0  0
    0.0000   -1.5000    0.0000 C   0  0
   -2.5987   -1.5004    0.0000 C   0  0
   -2.7343   -2.9815    0.0000 S   0  0
   -4.2010   -3.2957    0.0000 C   0  0
   -4.9530   -1.9978    0.0000 C   0  0
   -6.1467   -1.8743    0.0000 O   0  0
   -3.9511   -0.8815    0.0000 N   0  0
   -4.2506    0.5864    0.0000 C   0  0
   -3.1278    1.5822    0.0000 C   0  0
   -3.4277    3.0527    0.0000 C   0  0
   -2.3049    4.0485    0.0000 N   0  0
   -2.5447    5.2243    0.0000 C   0  0
   -1.1665    3.6687    0.0000 C   0  0
    5.0973    1.1117    0.0000 Cl  0  0
  1  2  1  0
  2  3  1  0
  3  4  2  0
  4  5  1  0
  5  6  2  0
  6  7  1  0
  7  8  2  0
  8  3  1  0
  7  9  1  0
  9 10  1  0
 10 11  1  0
 11 12  1  0
 12 13  2  0
 12 14  1  0
 14  9  1  0
 14 15  1  0
 15 16  1  0
 16 17  1  0
 17 18  1  0
 18 19  1  0
 18 20  1  0
M  END