
  SciTegic04091414352D

 27 30  0  0  0  0            999 V2000
    3.4530   -8.3898    0.0000 C   0  0
    2.6375   -8.3800    0.0000 N   0  0
    3.7010   -9.1649    0.0000 C   0  0
    3.0357   -9.6385    0.0000 N   0  0
    2.3780   -9.1552    0.0000 C   0  0
    1.7122   -9.6274    0.0000 S   0  0
    1.9610  -10.4068    0.0000 C   0  0
    2.7779  -10.4135    0.0000 C   0  0
    6.4542   -7.9554    0.0000 C   0  0  1  0  0  0
    7.2579   -7.7856    0.0000 C   0  0  2  0  0  0
    7.3447   -6.9697    0.0000 C   0  0  1  0  0  0
    6.5941   -6.6282    0.0000 O   0  0
    6.0492   -7.2427    0.0000 C   0  0  2  0  0  0
    8.0548   -6.5580    0.0000 N   0  0
    5.2344   -7.1575    0.0000 C   0  0
    8.7689   -6.9702    0.0000 C   0  0
    9.4808   -6.5646    0.0000 C   0  0
    9.4886   -5.7453    0.0000 C   0  0
    8.7754   -5.3282    0.0000 N   0  0
    8.0635   -5.7323    0.0000 C   0  0
    7.3534   -5.3248    0.0000 O   0  0
   10.1986   -5.3377    0.0000 N   0  0
    7.8675   -8.3355    0.0000 O   0  0
    6.1209   -8.7034    0.0000 O   0  0
    4.7512   -7.8211    0.0000 N   0  0
    3.9371   -7.7298    0.0000 C   0  0
    3.6111   -6.9786    0.0000 O   0  0
  1  2  1  0
  2  5  2  0
  4  3  1  0
  3  1  2  0
  4  5  1  0
  5  6  1  0
  6  7  1  0
  7  8  2  0
  8  4  1  0
  9 10  1  0
 10 11  1  0
 11 12  1  0
 12 13  1  0
 13  9  1  0
 11 14  1  1
 13 15  1  1
 14 16  1  0
 14 20  1  0
 16 17  2  0
 17 18  1  0
 18 19  2  0
 19 20  1  0
 20 21  2  0
 18 22  1  0
 10 23  1  6
  9 24  1  6
 15 25  1  0
 25 26  1  0
 26  1  1  0
 26 27  2  0
M  END