
          11280715472D 1   1.00000     0.00000     0

 24 26  0     0  0            999 V2000
    1.8667    2.5958    0.0000 N   0  0  3  0  0  0           0  0  0
   -0.9833   -2.3542    0.0000 N   0  0  3  0  0  0           0  0  0
   -2.4125   -3.1667    0.0000 N   0  0  3  0  0  0           0  0  0
    1.1542    3.0083    0.0000 C   0  0  0  0  0  0           0  0  0
    1.8667    1.7708    0.0000 C   0  0  0  0  0  0           0  0  0
    0.4375    2.5958    0.0000 C   0  0  0  0  0  0           0  0  0
    1.1542    1.3583    0.0000 C   0  0  0  0  0  0           0  0  0
   -0.2708   -1.9417    0.0000 C   0  0  0  0  0  0           0  0  0
   -0.2708    1.3625    0.0000 O   0  0  0  0  0  0           0  0  0
    2.5875    3.0083    0.0000 C   0  0  3  0  0  0           0  0  0
    0.4417    1.7708    0.0000 C   0  0  3  0  0  0           0  0  0
   -0.9833   -3.1792    0.0000 C   0  0  0  0  0  0           0  0  0
   -1.6958   -1.9375    0.0000 C   0  0  0  0  0  0           0  0  0
   -1.7000   -3.5792    0.0000 C   0  0  0  0  0  0           0  0  0
   -2.4083   -2.3417    0.0000 C   0  0  0  0  0  0           0  0  0
   -0.2708    0.5375    0.0000 C   0  0  0  0  0  0           0  0  0
   -0.2708   -1.1167    0.0000 C   0  0  0  0  0  0           0  0  0
    0.4417    0.1333    0.0000 C   0  0  0  0  0  0           0  0  0
   -0.9833    0.1208    0.0000 C   0  0  0  0  0  0           0  0  0
   -0.9833   -0.7042    0.0000 C   0  0  0  0  0  0           0  0  0
    0.4500   -0.7042    0.0000 C   0  0  0  0  0  0           0  0  0
   -3.1333   -3.5792    0.0000 C   0  0  0  0  0  0           0  0  0
    2.5875    3.8333    0.0000 C   0  0  0  0  0  0           0  0  0
    3.3000    2.5958    0.0000 C   0  0  0  0  0  0           0  0  0
  2  8  1  0     0  0
  3 15  1  0     0  0
  4  1  1  0     0  0
  5  1  1  0     0  0
  6  4  1  0     0  0
  7  5  1  0     0  0
  8 17  1  0     0  0
  9 11  1  0     0  0
 10  1  1  0     0  0
 11  7  1  0     0  0
 12  2  1  0     0  0
 13  2  1  0     0  0
 14 12  1  0     0  0
 15 13  1  0     0  0
 16  9  1  0     0  0
 17 20  1  0     0  0
 18 16  2  0     0  0
 19 16  1  0     0  0
 20 19  2  0     0  0
 21 18  1  0     0  0
 22  3  1  0     0  0
 23 10  1  0     0  0
 24 10  1  0     0  0
 11  6  1  0     0  0
 17 21  2  0     0  0
  3 14  1  0     0  0
M  END