
          11280715042D 1   1.00000     0.00000     0

 47 50  0     1  0            999 V2000
   -2.8500    0.4958    0.0000 C   0  0  0  0  0  0           0  0  0
   -2.8500   -0.3292    0.0000 N   0  0  3  0  0  0           0  0  0
    4.2875   -2.0167    0.0000 C   0  0  0  0  0  0           0  0  0
    2.1417   -1.5917    0.0000 C   0  0  0  0  0  0           0  0  0
    5.0042   -1.6042    0.0000 C   0  0  0  0  0  0           0  0  0
   -2.8458    2.1458    0.0000 C   0  0  0  0  0  0           0  0  0
    3.5750   -1.6042    0.0000 N   0  0  3  0  0  0           0  0  0
   -3.5625    0.9083    0.0000 C   0  0  3  0  0  0           0  0  0
    1.4250   -2.8292    0.0000 C   0  0  0  0  0  0           0  0  0
    2.8542   -2.0125    0.0000 C   0  0  0  0  0  0           0  0  0
    1.4292   -2.0042    0.0000 C   0  0  1  0  0  0           0  0  0
   -3.5625    1.7333    0.0000 C   0  0  0  0  0  0           0  0  0
   -2.1333   -0.7417    0.0000 C   0  0  3  0  0  0           0  0  0
   -0.7125   -1.5792    0.0000 N   0  0  3  0  0  0           0  0  0
    2.1292   -3.2375    0.0000 C   0  0  0  0  0  0           0  0  0
    2.1292   -4.0625    0.0000 C   0  0  0  0  0  0           0  0  0
    2.1500   -0.7667    0.0000 N   0  0  0  0  0  0           0  0  0
    0.7167   -1.5875    0.0000 C   0  0  0  0  0  0           0  0  0
   -2.1333    1.7333    0.0000 N   0  0  3  0  0  0           0  0  0
    5.0042   -0.7875    0.0000 C   0  0  0  0  0  0           0  0  0
    5.7125   -2.0292    0.0000 C   0  0  0  0  0  0           0  0  0
   -2.1333    0.9083    0.0000 O   0  0  0  0  0  0           0  0  0
   -1.4208   -0.3375    0.0000 C   0  0  0  0  0  0           0  0  0
   -2.1375   -1.5750    0.0000 C   0  0  0  0  0  0           0  0  0
    1.4167   -4.4750    0.0000 C   0  0  0  0  0  0           0  0  0
    4.2792   -2.8417    0.0000 O   0  0  0  0  0  0           0  0  0
    5.7167   -0.3792    0.0000 C   0  0  0  0  0  0           0  0  0
    6.4292   -1.6167    0.0000 C   0  0  0  0  0  0           0  0  0
   -2.8458    2.9708    0.0000 O   0  0  0  0  0  0           0  0  0
    6.4292   -0.7917    0.0000 C   0  0  0  0  0  0           0  0  0
    0.7042   -3.2292    0.0000 C   0  0  0  0  0  0           0  0  0
    0.0000   -1.9917    0.0000 C   0  0  0  0  0  0           0  0  0
    0.7000   -4.0542    0.0000 C   0  0  0  0  0  0           0  0  0
   -0.7083   -0.7542    0.0000 C   0  0  0  0  0  0           0  0  0
   -1.4333   -1.9875    0.0000 C   0  0  0  0  0  0           0  0  0
   -3.5625   -0.7417    0.0000 C   0  0  0  0  0  0           0  0  0
    2.8417   -4.4750    0.0000 Cl  0  0  0  0  0  0           0  0  0
    1.4125   -5.3000    0.0000 Cl  0  0  0  0  0  0           0  0  0
    5.7167    0.4458    0.0000 Cl  0  0  0  0  0  0           0  0  0
    7.1417   -2.0375    0.0000 Cl  0  0  0  0  0  0           0  0  0
    2.8667   -0.3625    0.0000 O   0  0  0  0  0  0           0  0  0
    3.5792   -0.7792    0.0000 C   0  0  0  0  0  0           0  0  0
   -4.2708    0.4958    0.0000 C   0  0  0  0  0  0           0  0  0
   -4.2708   -0.3292    0.0000 C   0  0  0  0  0  0           0  0  0
   -1.5500    2.3333    0.0000 C   0  0  0  0  0  0           0  0  0
   -1.4208    1.3250    0.0000 C   0  0  0  0  0  0           0  0  0
    3.5792    0.0458    0.0000 C   0  0  0  0  0  0           0  0  0
  2  1  1  0     0  0
  3  7  1  0     0  0
  4 11  1  0     0  0
  5  3  1  0     0  0
  6 12  1  0     0  0
  7 10  1  0     0  0
  8  1  1  0     0  0
 11  9  1  1     0  0
 10  4  1  0     0  0
 11 18  1  0     0  0
  8 12  1  0     0  0
 13  2  1  0     0  0
 14 35  1  0     0  0
 15  9  1  0     0  0
 16 15  2  0     0  0
 17  4  2  0     0  0
 18 32  1  0     0  0
 19  6  1  0     0  0
 20  5  1  0     0  0
 21  5  2  0     0  0
 22  1  2  0     0  0
 23 13  1  0     0  0
 24 13  1  0     0  0
 25 33  2  0     0  0
 26  3  2  0     0  0
 27 20  2  0     0  0
 28 21  1  0     0  0
 29  6  2  0     0  0
 30 28  2  0     0  0
 31  9  2  0     0  0
 32 14  1  0     0  0
 33 31  1  0     0  0
 34 23  1  0     0  0
 35 24  1  0     0  0
 36  2  1  0     0  0
 37 16  1  0     0  0
 38 25  1  0     0  0
 39 27  1  0     0  0
 40 28  1  0     0  0
 41 17  1  0     0  0
 42  7  1  0     0  0
 43  8  1  0     0  0
 44 43  1  0     0  0
 45 19  1  0     0  0
 46 19  1  0     0  0
 47 41  1  0     0  0
 36 44  1  0     0  0
 34 14  1  0     0  0
 16 25  1  0     0  0
 30 27  1  0     0  0
M  END