
  SciTegic11201309402D

 42 49  0  0  0  0            999 V2000
   -0.5124   -0.2962    0.0000 N   0  0
   -0.0371   -0.9720    0.0000 C   0  0
    0.7815   -0.8962    0.0000 C   0  0
    1.1296   -0.1514    0.0000 C   0  0
    0.6541    0.5244    0.0000 C   0  0
   -4.1728    0.6964    0.0000 C   0  0
   -3.4715    1.1333    0.0000 C   0  0  2  0  0  0
   -2.7470    0.7358    0.0000 C   0  0  1  0  0  0
   -2.7278   -0.0903    0.0000 C   0  0  2  0  0  0
   -2.0069   -0.4846    0.0000 C   0  0  2  0  0  0
   -2.0453    1.1676    0.0000 C   0  0
   -3.4259   -0.5187    0.0000 C   0  0
   -4.1473   -0.1282    0.0000 C   0  0
   -4.8441   -0.5574    0.0000 C   0  0
   -4.8207   -1.3771    0.0000 C   0  0
   -4.0948   -1.7657    0.0000 C   0  0
   -3.4010   -1.3342    0.0000 C   0  0
   -1.3196    0.7690    0.0000 C   0  0
   -1.3030   -0.0568    0.0000 C   0  0
   -0.5394    1.0399    0.0000 C   0  0
   -0.0419    0.3811    0.0000 C   0  0
    1.0963    1.2437    0.0000 C   0  0
    0.5937    1.9026    0.0000 C   0  0
   -0.2218    1.7971    0.0000 C   0  0
   -2.7772    1.5615    0.0000 O   0  0
   -2.3638   -1.3203    0.0000 O   0  0
   -1.2513   -1.1396    0.0000 H   0  0
   -3.5578   -0.1091    0.0000 C   0  0
   -3.5107    1.9671    0.0000 N   0  0
   -3.9932    1.2984    0.0000 C   0  0
   -4.2395    2.3603    0.0000 C   0  0
   -4.9429    1.9267    0.0000 C   0  0
   -5.7705    1.9064    0.0000 C   0  0
   -5.3369    1.2030    0.0000 C   0  0
   -4.0679   -2.5916    0.0000 O   0  0
   -4.7697   -3.0277    0.0000 C   0  0
    0.8438   -2.5946    0.0000 S   0  0
    1.6687   -2.5946    0.0000 O   0  0
    0.0188   -2.5905    0.0000 O   0  0
    0.8417   -3.4196    0.0000 O   0  0
    0.8459   -1.7696    0.0000 C   0  0
   -4.3570    1.5980    0.0000 H   0  0
 17 12  1  0
 18 19  2  0
  2  3  1  0
  3  4  1  0
 19  1  1  0
  1 21  1  0
 20 18  1  0
  4  5  1  0
  6 13  1  0
 20 21  2  0
 21  5  1  0
  8 11  1  0
  5 22  2  0
  9 10  1  0
 22 23  1  0
 10 19  1  0
 23 24  2  0
 24 20  1  0
 18 11  1  0
  8 25  1  1
  1  2  1  0
 17 26  1  0
 10 26  1  0
 10 27  1  1
 12 13  2  0
  9 28  1  1
  6  7  1  0
  7 29  1  0
 13 14  1  0
 29 30  1  0
 28 30  1  0
 12  9  1  0
 29 31  1  0
 14 15  2  0
 31 32  1  0
 33 32  1  0
 34 33  1  0
 32 34  1  0
  8  7  1  0
 15 16  1  0
  8  9  1  0
 16 35  1  0
 16 17  2  0
 35 36  1  0
 37 39  1  0
 37 38  2  0
 37 40  2  0
 37 41  1  0
  7 42  1  6
M  END