
  CDK    9/16/09,10:8

 14 15  0  0  0  0  0  0  0  0999 V2000
    7.5612  -12.0769    0.0000 C   0  0  0  0  0  0  0  0  0  0  0  0
    7.5601  -12.9039    0.0000 C   0  0  0  0  0  0  0  0  0  0  0  0
    8.2745  -13.3165    0.0000 C   0  0  0  0  0  0  0  0  0  0  0  0
    8.2727  -11.6644    0.0000 C   0  0  0  0  0  0  0  0  0  0  0  0
    8.9878  -12.0733    0.0000 C   0  0  0  0  0  0  0  0  0  0  0  0
    8.9866  -12.9059    0.0000 C   0  0  0  0  0  0  0  0  0  0  0  0
    9.7031  -13.3210    0.0000 N   0  0  0  0  0  0  0  0  0  0  0  0
   10.4253  -12.9080    0.0000 C   0  0  0  0  0  0  0  0  0  0  0  0
   10.4265  -12.0753    0.0000 C   0  0  0  0  0  0  0  0  0  0  0  0
    9.7055  -11.6558    0.0000 C   0  0  0  0  0  0  0  0  0  0  0  0
   11.1416  -11.6648    0.0000 O   0  0  0  0  0  0  0  0  0  0  0  0
   11.1382  -13.3223    0.0000 O   0  0  0  0  0  0  0  0  0  0  0  0
    8.2702  -10.8398    0.0000 C   0  0  0  0  0  0  0  0  0  0  0  0
    8.9832  -10.4254    0.0000 C   0  0  0  0  0  0  0  0  0  0  0  0
  1  2  2  0  0  0  0 
  5  4  2  0  0  0  0 
  4  1  1  0  0  0  0 
  5 10  1  0  0  0  0 
  6  7  1  0  0  0  0 
  7  8  1  0  0  0  0 
  8  9  1  0  0  0  0 
  9 10  2  0  0  0  0 
  5  6  1  0  0  0  0 
  9 11  1  0  0  0  0 
  8 12  2  0  0  0  0 
  2  3  1  0  0  0  0 
  4 13  1  0  0  0  0 
  3  6  2  0  0  0  0 
 13 14  1  0  0  0  0 
M  END