
  CDK    9/16/09,9:46

 26 29  0  0  0  0  0  0  0  0999 V2000
   -4.2114  -14.1110    0.0000 C   0  0  0  0  0  0  0  0  0  0  0  0
   -4.2114  -14.9360    0.0000 C   0  0  0  0  0  0  0  0  0  0  0  0
   -3.5009  -15.3462    0.0000 C   0  0  0  0  0  0  0  0  0  0  0  0
   -3.5009  -13.6962    0.0000 C   0  0  0  0  0  0  0  0  0  0  0  0
   -2.7859  -14.1110    0.0000 C   0  0  0  0  0  0  0  0  0  0  0  0
   -2.7848  -14.9360    0.0000 C   0  0  0  0  0  0  0  0  0  0  0  0
   -2.0738  -15.3452    0.0000 C   0  0  0  0  0  0  0  0  0  0  0  0
   -1.3592  -14.9341    0.0000 C   0  0  0  0  0  0  0  0  0  0  0  0
   -2.0760  -13.6953    0.0000 C   0  0  0  0  0  0  0  0  0  0  0  0
   -1.3600  -14.1122    0.0000 C   0  0  0  0  0  0  0  0  0  0  0  0
   -1.3555  -12.4582    0.0000 C   0  0  0  0  0  0  0  0  0  0  0  0
   -2.0768  -12.8691    0.0000 C   0  0  0  0  0  0  0  0  0  0  0  0
   -0.6396  -12.8751    0.0000 C   0  0  0  0  0  0  0  0  0  0  0  0
   -0.6474  -13.7006    0.0000 C   0  0  0  0  0  0  0  0  0  0  0  0
    0.1353  -13.9632    0.0000 C   0  0  0  0  0  0  0  0  0  0  0  0
    0.6269  -13.2999    0.0000 C   0  0  0  0  0  0  0  0  0  0  0  0
    0.1479  -12.6275    0.0000 C   0  0  0  0  0  0  0  0  0  0  0  0
   -4.9219  -15.3462    0.0000 O   0  0  0  0  0  0  0  0  0  0  0  0
   -2.7940  -13.2906    0.0000 C   0  0  0  0  0  0  0  0  0  0  0  0
   -2.0830  -14.5121    0.0000 H   0  0  0  0  0  0  0  0  0  0  0  0
   -1.3673  -13.2906    0.0000 H   0  0  0  0  0  0  0  0  0  0  0  0
   -0.6563  -14.5166    0.0000 H   0  0  0  0  0  0  0  0  0  0  0  0
   -0.6472  -12.0509    0.0000 C   0  0  0  0  0  0  0  0  0  0  0  0
    0.4088  -11.8497    0.0000 O   0  0  0  0  0  0  0  0  0  0  0  0
    0.9344  -12.4109    0.0000 C   0  0  0  0  0  0  0  0  0  0  0  0
   -0.6489  -15.3445    0.0000 C   0  0  0  0  0  0  0  0  0  0  0  0
 13 11  1  0  0  0  0 
 11 12  1  0  0  0  0 
 13 14  1  0  0  0  0 
  1  2  1  0  0  0  0 
  1  4  1  0  0  0  0 
  2  3  1  0  0  0  0 
  5  9  1  0  0  0  0 
  6  7  1  0  0  0  0 
 14 15  1  0  0  0  0 
 15 16  1  0  0  0  0 
 16 17  1  0  0  0  0 
 17 13  1  0  0  0  0 
  7  8  1  0  0  0  0 
  2 18  2  0  0  0  0 
  8 10  1  0  0  0  0 
  5 19  1  1  0  0  0 
  9 10  1  0  0  0  0 
  9 20  1  6  0  0  0 
  3  6  2  0  0  0  0 
 10 21  1  1  0  0  0 
  5  4  1  0  0  0  0 
 14 22  1  6  0  0  0 
  5  6  1  0  0  0  0 
 13 23  1  1  0  0  0 
 17 24  1  1  0  0  0 
  9 12  1  0  0  0  0 
 17 25  1  0  0  0  0 
 10 14  1  0  0  0  0 
  8 26  1  6  0  0  0 
M  END