
  SciTegic04091415032D

 34 37  0  0  0  0            999 V2000
    2.3800   -2.9055    0.0000 C   0  0
    2.3788   -3.7251    0.0000 C   0  0
    3.0869   -4.1340    0.0000 C   0  0
    3.0851   -2.4967    0.0000 C   0  0
    3.7937   -2.9019    0.0000 C   0  0
    3.7945   -3.7209    0.0000 C   0  0
    4.5030   -4.1280    0.0000 N   0  0
    5.2113   -3.7172    0.0000 C   0  0
    5.2065   -2.8951    0.0000 C   0  0
    4.4974   -2.4917    0.0000 C   0  0
    1.6762   -2.4929    0.0000 C   0  0
    1.5906   -1.6802    0.0000 C   0  0
    0.7912   -1.5105    0.0000 C   0  0
    0.3827   -2.2183    0.0000 C   0  0
    0.9297   -2.8254    0.0000 S   0  0
    4.4931   -1.6745    0.0000 C   0  0
    5.1986   -1.2622    0.0000 O   0  0
    3.7832   -1.2697    0.0000 O   0  0
    5.9206   -4.1230    0.0000 C   0  0
    5.9237   -4.9402    0.0000 N   0  0
    6.6267   -3.7117    0.0000 O   0  0
    6.6330   -5.3461    0.0000 C   0  0  2  0  0  0
    6.6362   -6.1632    0.0000 C   0  0
    7.3392   -4.9347    0.0000 C   0  0
    8.0484   -5.3406    0.0000 C   0  0
    7.3455   -6.5691    0.0000 O   0  0
    5.9301   -6.5746    0.0000 O   0  0
    7.3487   -7.3863    0.0000 C   0  0
    8.0485   -6.1548    0.0000 C   0  0
    8.7570   -6.5605    0.0000 C   0  0
    9.4641   -6.1491    0.0000 C   0  0
    9.4582   -5.3277    0.0000 C   0  0
    8.7492   -4.9257    0.0000 C   0  0
   10.1739   -6.5540    0.0000 O   0  0
  1  2  2  0
  2  3  1  0
  3  6  2  0
  5  4  2  0
  4  1  1  0
  5  6  1  0
  6  7  1  0
  7  8  2  0
  8  9  1  0
  9 10  2  0
 10  5  1  0
 11 12  2  0
 12 13  1  0
 13 14  2  0
 14 15  1  0
 15 11  1  0
  1 11  1  0
 10 16  1  0
 16 17  2  0
 16 18  1  0
  8 19  1  0
 19 20  1  0
 19 21  2  0
 20 22  1  0
 22 23  1  1
 22 24  1  0
 24 25  1  0
 23 26  1  0
 23 27  2  0
 26 28  1  0
 25 29  2  0
 29 30  1  0
 30 31  2  0
 31 32  1  0
 32 33  2  0
 33 25  1  0
 31 34  1  0
M  END