
  SciTegic07291412072D

 51 57  0  0  0  0            999 V2000
   -2.2183   -6.5151    0.0000 N   0  0
   -1.4368   -6.7795    0.0000 C   0  0
   -1.7604   -5.1615    0.0000 C   0  0
   -0.9789   -5.4259    0.0000 N   0  0
   -0.8171   -6.2349    0.0000 C   0  0  1  0  0  0
   -2.3801   -5.7061    0.0000 C   0  0  2  0  0  0
    2.4431   -4.3208    0.0000 C   0  0
    4.7876   -5.1139    0.0000 C   0  0
    2.7667   -5.9388    0.0000 C   0  0
    4.1679   -5.6585    0.0000 C   0  0  1  0  0  0
    3.3864   -5.3941    0.0000 N   0  0
   -0.0357   -6.4992    0.0000 C   0  0
    3.6691   -3.7926    0.0000 N   0  0
    3.2480   -4.5020    0.0000 C   0  0
    5.5691   -5.3783    0.0000 N   0  0
    0.5840   -5.9546    0.0000 C   0  0
    1.9852   -5.6744    0.0000 C   0  0  2  0  0  0
    1.3655   -6.2190    0.0000 N   0  0
    2.3668   -3.4993    0.0000 C   0  0
    1.8234   -4.8654    0.0000 C   0  0
   -2.9668   -6.1682    0.0000 C   0  0
    3.1245   -3.1729    0.0000 C   0  0
   -1.9222   -4.3525    0.0000 O   0  0
   -1.2750   -7.5884    0.0000 O   0  0
   -3.1095   -5.4198    0.0000 C   0  0
    6.1888   -4.8337    0.0000 C   0  0
    4.3297   -6.4675    0.0000 C   0  0
    4.6258   -4.3049    0.0000 O   0  0
    2.4221   -6.6883    0.0000 O   0  0
    0.4223   -5.1456    0.0000 O   0  0
   -2.8271   -5.1296    0.0000 C   0  0
   -3.8061   -6.5271    0.0000 C   0  0
   -3.9133   -5.7717    0.0000 C   0  0
   -3.0718   -4.5237    0.0000 C   0  0
    6.9703   -5.0980    0.0000 C   0  0
    3.7100   -7.0121    0.0000 C   0  0
    5.7309   -6.1873    0.0000 C   0  0
    1.7052   -3.0064    0.0000 C   0  0
    3.2206   -2.3535    0.0000 C   0  0
    2.9285   -6.7477    0.0000 C   0  0
    3.8718   -7.8211    0.0000 C   0  0
    7.1321   -5.9070    0.0000 C   0  0
    7.5900   -4.5534    0.0000 C   0  0
    1.8014   -2.1870    0.0000 C   0  0
    2.5590   -1.8606    0.0000 C   0  0
    3.2521   -8.3657    0.0000 C   0  0
    8.3715   -4.8178    0.0000 C   0  0
    7.9136   -6.1714    0.0000 C   0  0
    2.3088   -7.2923    0.0000 C   0  0
    8.5333   -5.6268    0.0000 C   0  0
    2.4706   -8.1013    0.0000 C   0  0
  2  1  1  0
  6  3  1  1
  4  3  1  0
  5  2  1  0
  6  1  1  0
  7 20  1  0
 10  8  1  6
  9 17  1  0
 10 11  1  0
 11  9  1  0
  5 12  1  1
 13 14  1  0
 14  7  2  0
 15  8  1  0
 16 12  1  0
 17 18  1  0
 18 16  1  0
 19  7  1  0
 17 20  1  6
 21  1  1  0
 22 19  2  0
 23  3  2  0
 24  2  2  0
 25  6  1  0
 26 15  1  0
 27 10  1  0
 28  8  2  0
 29  9  2  0
 30 16  2  0
 31 21  1  0
 32 21  1  0
 33 32  1  0
 34 31  1  0
 35 26  1  0
 36 27  1  0
 37 15  1  0
 38 19  1  0
 39 22  1  0
 40 36  2  0
 41 36  1  0
 42 35  2  0
 43 35  1  0
 44 38  2  0
 45 44  1  0
 46 41  2  0
 47 43  2  0
 48 42  1  0
 49 40  1  0
 50 47  1  0
 51 46  1  0
  4  5  1  0
 33 25  1  0
 34 25  1  0
 13 22  1  0
 45 39  2  0
 51 49  2  0
 50 48  2  0
M  END