
  SciTegic11201309402D

 37 45  0  0  0  0            999 V2000
   -4.7820  -26.2028    0.0000 C   0  0
   -4.7832  -27.0305    0.0000 C   0  0
   -4.0703  -27.4433    0.0000 C   0  0
   -3.3509  -27.0299    0.0000 C   0  0
   -4.0723  -25.7900    0.0000 C   0  0
   -3.3528  -26.1954    0.0000 C   0  0
   -3.3718  -24.5467    0.0000 C   0  0  2  0  0  0
   -4.0850  -24.9666    0.0000 C   0  0
   -2.6523  -24.9520    0.0000 C   0  0  1  0  0  0
   -2.6491  -25.7766    0.0000 C   0  0  2  0  0  0
   -1.9373  -26.1839    0.0000 C   0  0  1  0  0  0
   -1.9438  -24.5347    0.0000 C   0  0
   -2.3752  -27.0252    0.0000 O   0  0
   -2.6584  -24.1266    0.0000 O   0  0
   -1.2275  -24.9465    0.0000 C   0  0
   -1.2252  -25.7715    0.0000 C   0  0
   -0.4434  -24.6895    0.0000 C   0  0
    1.1895  -24.5127    0.0000 C   0  0
    0.6993  -23.8481    0.0000 C   0  0
   -0.1149  -23.9401    0.0000 C   0  0
   -1.2145  -26.8749    0.0000 H   0  0
   -3.3791  -23.7209    0.0000 N   0  0
   -3.7996  -24.4291    0.0000 C   0  0
   -3.3641  -25.3641    0.0000 C   0  0
   -3.3866  -22.8959    0.0000 C   0  0
   -4.1049  -22.4900    0.0000 C   0  0
   -4.5233  -21.7751    0.0000 C   0  0
   -4.9292  -22.4933    0.0000 C   0  0
   -4.0716  -28.2683    0.0000 O   0  0
   -0.1715  -26.8135    0.0000 C   0  0
    0.6400  -27.0896    0.0000 C   0  0
    1.3175  -26.6424    0.0000 C   0  0
   -0.4394  -26.0206    0.0000 N   0  0
    0.0184  -25.3303    0.0000 C   0  0
    0.8794  -25.2550    0.0000 C   0  0
    1.4265  -25.8329    0.0000 C   0  0
   -4.2421  -24.0542    0.0000 H   0  0
 16 33  1  0
 17 15  1  0
  6 10  1  0
 17 34  2  0
  9  7  1  0
 35 18  2  0
  7  8  1  0
 18 19  1  0
  9 10  1  0
 19 20  2  0
 20 17  1  0
  4  6  1  0
 11 21  1  1
  5  1  1  0
  7 22  1  0
  5  6  2  0
 22 23  1  0
 10 24  1  1
 24 23  1  0
  9 12  1  0
 22 25  1  0
 10 11  1  0
 25 26  1  0
 27 26  1  0
 28 27  1  0
 26 28  1  0
 11 16  1  0
 15 12  1  0
  2  3  1  0
  3 29  1  0
  4 13  1  0
 11 13  1  0
  1  2  2  0
  9 14  1  1
 15 16  2  0
  3  4  2  0
  5  8  1  0
 30 31  1  0
 31 32  1  0
 30 33  1  0
 34 35  1  0
 35 36  1  0
 36 32  1  0
 33 34  1  0
  7 37  1  6
M  END