
  SciTegic11201309402D

 64 67  0  0  1  0            999 V2000
    2.8167   -5.9375    0.0000 N   0  0
    4.2292   -6.7542    0.0000 C   0  0
    4.5542   -9.8417    0.0000 N   0  0
    4.6792   -7.4417    0.0000 N   0  0
    0.5000   -6.5542    0.0000 N   0  0
    1.9917   -5.8917    0.0000 C   0  0
    4.8542   -9.0667    0.0000 C   0  0
   -0.0208   -7.2042    0.0000 C   0  0
    4.0375  -10.4875    0.0000 C   0  0  1  0  0  0
    3.5917   -6.2375    0.0000 C   0  0  2  0  0  0
    4.9000   -8.2417    0.0000 C   0  0  1  0  0  0
   -0.3583   -8.8000    0.0000 N   0  0
    1.1917   -6.1042    0.0000 C   0  0  1  0  0  0
   -0.1458   -9.5917    0.0000 C   0  0
   -0.3208   -7.9750    0.0000 C   0  0  2  0  0  0
    5.7167   -8.1542    0.0000 C   0  0
    4.5917  -11.1000    0.0000 C   0  0
    0.3042  -10.2917    0.0000 C   0  0
    2.5417  -11.1500    0.0000 S   0  0
    1.7417  -11.1542    0.0000 S   0  0
    6.4042   -8.6500    0.0000 C   0  0
    0.9417  -10.8042    0.0000 C   0  0
    4.8500   -6.2000    0.0000 O   0  0
    8.1292  -11.9875    0.0000 C   0  0
    1.8417   -5.2792    0.0000 O   0  0
   -0.7375   -6.7875    0.0000 O   0  0
    5.6625   -9.2417    0.0000 O   0  0
    3.3417  -10.9375    0.0000 C   0  0
   -1.1250   -7.8000    0.0000 C   0  0
    0.8542   -5.3542    0.0000 C   0  0
   -0.9083   -9.9292    0.0000 O   0  0
    4.3292  -11.8875    0.0000 O   0  0
    6.2167   -9.2750    0.0000 O   0  0
    8.5417  -11.2667    0.0000 O   0  0
    5.4000  -10.9292    0.0000 N   0  0
    4.0042   -5.5167    0.0000 C   0  0
    7.3125  -11.9875    0.0000 N   0  0
    7.2250   -8.5625    0.0000 N   0  0
   -1.8458   -8.2042    0.0000 C   0  0
   -3.2833   -9.0167    0.0000 C   0  0
    1.3417   -4.6792    0.0000 C   0  0
    9.3667  -12.7000    0.0000 N   0  0
   -2.5583   -7.7875    0.0000 C   0  0
   -1.8458   -9.0292    0.0000 C   0  0
   -2.5625   -9.4375    0.0000 C   0  0
   -3.2708   -8.1917    0.0000 C   0  0
    8.5417  -12.7000    0.0000 C   0  0
   -3.9958   -9.4292    0.0000 O   0  0
    1.4167  -11.4292    0.0000 C   0  0
    0.1750  -10.7125    0.0000 C   0  0
    5.9500  -11.5417    0.0000 C   0  0
    6.7542  -11.3667    0.0000 C   0  0
    3.5917   -4.8000    0.0000 C   0  0
    4.8292   -5.5167    0.0000 C   0  0
   -4.0000  -10.2542    0.0000 C   0  0
    2.1667   -4.7667    0.0000 C   0  0
    1.0042   -3.9292    0.0000 C   0  0
   -3.2875  -10.6667    0.0000 C   0  0
   -0.2375  -11.4292    0.0000 C   0  0
    1.0000  -12.1417    0.0000 C   0  0
    2.6500   -4.1000    0.0000 C   0  0
    1.4917   -3.2542    0.0000 C   0  0
    0.1750  -12.1417    0.0000 C   0  0
    2.3125   -3.3417    0.0000 C   0  0
  2 10  1  0
  3  7  1  0
  4  2  1  0
  5 13  1  0
  6  1  1  0
  7 11  1  0
  8  5  1  0
  9  3  1  0
 10  1  1  0
 11  4  1  0
 12 15  1  0
 13  6  1  0
 14 12  1  0
 15  8  1  0
 11 16  1  6
  9 17  1  1
 18 14  1  0
 19 28  1  0
 20 19  1  0
 21 16  1  0
 22 18  1  0
 23  2  2  0
 24 37  1  0
 25  6  2  0
 26  8  2  0
 27  7  2  0
  9 28  1  0
 15 29  1  6
 13 30  1  6
 31 14  2  0
 32 17  2  0
 33 21  2  0
 34 24  2  0
 35 17  1  0
 10 36  1  1
 37 52  1  0
 38 21  1  0
 39 29  1  0
 40 45  1  0
 41 30  1  0
 42 47  1  0
 43 39  2  0
 44 39  1  0
 45 44  2  0
 46 43  1  0
 47 24  1  0
 48 40  1  0
 49 22  1  0
 50 22  1  0
 51 35  1  0
 52 51  1  0
 53 36  1  0
 54 36  1  0
 55 48  1  0
 56 41  1  0
 57 41  2  0
 58 55  1  0
 59 50  1  0
 60 49  1  0
 61 56  2  0
 62 57  1  0
 63 59  1  0
 64 62  2  0
 61 64  1  0
 46 40  2  0
 22 20  1  0
 60 63  1  0
M  END