
  CDK    9/16/09,9:46

 22 24  0  0  0  0  0  0  0  0999 V2000
   -4.2002  -22.3090    0.0000 C   0  0  0  0  0  0  0  0  0  0  0  0
   -4.2015  -23.1340    0.0000 C   0  0  0  0  0  0  0  0  0  0  0  0
   -3.4908  -23.5455    0.0000 C   0  0  0  0  0  0  0  0  0  0  0  0
   -3.4928  -21.8975    0.0000 C   0  0  0  0  0  0  0  0  0  0  0  0
   -4.9127  -21.8983    0.0000 O   0  0  0  0  0  0  0  0  0  0  0  0
   -2.7777  -22.3045    0.0000 C   0  0  0  0  0  0  0  0  0  0  0  0
   -2.7777  -23.1313    0.0000 C   0  0  0  0  0  0  0  0  0  0  0  0
   -1.3488  -22.3045    0.0000 C   0  0  0  0  0  0  0  0  0  0  0  0
   -2.0656  -21.8887    0.0000 C   0  0  0  0  0  0  0  0  0  0  0  0
   -0.7702  -24.8829    0.0000 C   0  0  0  0  0  0  0  0  0  0  0  0
   -2.0655  -23.5453    0.0000 C   0  0  0  0  0  0  0  0  0  0  0  0
   -1.3488  -23.1313    0.0000 N   0  0  0  0  0  0  0  0  0  0  0  0
   -0.5450  -23.4468    0.0000 C   0  0  0  0  0  0  0  0  0  0  0  0
   -0.3126  -24.2072    0.0000 C   0  0  0  0  0  0  0  0  0  0  0  0
   -1.5751  -24.9817    0.0000 C   0  0  0  0  0  0  0  0  0  0  0  0
   -2.1746  -24.3723    0.0000 C   0  0  0  0  0  0  0  0  0  0  0  0
   -2.9999  -24.5874    0.0000 C   0  0  0  0  0  0  0  0  0  0  0  0
   -3.2269  -25.4113    0.0000 C   0  0  0  0  0  0  0  0  0  0  0  0
   -2.6221  -26.0200    0.0000 C   0  0  0  0  0  0  0  0  0  0  0  0
   -1.7991  -25.8018    0.0000 C   0  0  0  0  0  0  0  0  0  0  0  0
   -0.6442  -22.7110    0.0000 C   0  0  0  0  0  0  0  0  0  0  0  0
   -4.9135  -21.0760    0.0000 C   0  0  0  0  0  0  0  0  0  0  0  0
  1  5  1  0  0  0  0 
  6  7  1  0  0  0  0 
  2  3  1  0  0  0  0 
 15 10  1  0  0  0  0 
 16 11  1  0  0  0  0 
 12 13  1  0  0  0  0 
 13 14  1  0  0  0  0 
 14 10  1  0  0  0  0 
  3  7  2  0  0  0  0 
  1  2  2  0  0  0  0 
 15 16  2  0  0  0  0 
  6  4  2  0  0  0  0 
 16 17  1  0  0  0  0 
  6  9  1  0  0  0  0 
 17 18  2  0  0  0  0 
  7 11  1  0  0  0  0 
 18 19  1  0  0  0  0 
 12  8  1  0  0  0  0 
 19 20  2  0  0  0  0 
 20 15  1  0  0  0  0 
  8  9  1  0  0  0  0 
 12 21  1  0  0  0  0 
  4  1  1  0  0  0  0 
  5 22  1  0  0  0  0 
M  END