
          11280715312D 1   1.00000     0.00000     0

 23 26  0     0  0            999 V2000
    5.4542   -5.5875    0.0000 N   0  0  3  0  0  0           0  0  0
    5.4542   -4.7625    0.0000 C   0  0  0  0  0  0           0  0  0
    7.9000   -7.7667    0.0000 N   0  0  3  0  0  0           0  0  0
    7.2292   -7.2917    0.0000 C   0  0  0  0  0  0           0  0  0
    6.1292   -6.0667    0.0000 C   0  0  0  0  0  0           0  0  0
    7.4792   -6.5042    0.0000 C   0  0  0  0  0  0           0  0  0
    8.5625   -7.2792    0.0000 C   0  0  0  0  0  0           0  0  0
    8.3042   -6.5000    0.0000 C   0  0  0  0  0  0           0  0  0
    6.9292   -5.9000    0.0000 C   0  0  0  0  0  0           0  0  0
    5.8750   -6.8542    0.0000 C   0  0  0  0  0  0           0  0  0
    6.4250   -7.4625    0.0000 C   0  0  0  0  0  0           0  0  0
    4.7375   -4.3542    0.0000 N   0  0  0  0  0  0           0  0  0
    4.7917   -6.0750    0.0000 C   0  0  0  0  0  0           0  0  0
    6.1667   -4.3500    0.0000 O   0  0  0  0  0  0           0  0  0
    5.0542   -6.8625    0.0000 C   0  0  0  0  0  0           0  0  0
    3.3042   -6.0125    0.0000 N   0  0  0  0  0  0           0  0  0
    4.0250   -4.7667    0.0000 C   0  0  0  0  0  0           0  0  0
    7.9042   -8.5917    0.0000 C   0  0  0  0  0  0           0  0  0
    9.3500   -7.5292    0.0000 C   0  0  0  0  0  0           0  0  0
    4.0250   -5.6000    0.0000 C   0  0  0  0  0  0           0  0  0
    2.5917   -5.6000    0.0000 C   0  0  0  0  0  0           0  0  0
    3.3042   -4.3542    0.0000 C   0  0  0  0  0  0           0  0  0
    2.5917   -4.7750    0.0000 C   0  0  0  0  0  0           0  0  0
  2  1  1  0     0  0
  3  4  1  0     0  0
  4 11  2  0     0  0
  5  1  1  0     0  0
  6  9  2  0     0  0
  7  8  2  0     0  0
  8  6  1  0     0  0
  9  5  1  0     0  0
 10  5  2  0     0  0
 11 10  1  0     0  0
 12  2  1  0     0  0
 13  1  1  0     0  0
 14  2  2  0     0  0
 15 13  1  0     0  0
 16 20  1  0     0  0
 17 12  1  0     0  0
 18  3  1  0     0  0
 19  7  1  0     0  0
 20 17  2  0     0  0
 21 23  1  0     0  0
 22 17  1  0     0  0
 23 22  2  0     0  0
 15 10  1  0     0  0
  6  4  1  0     0  0
  3  7  1  0     0  0
 16 21  2  0     0  0
M  END