
  SciTegic06051315212D

 32 36  0  0  0  0            999 V2000
    4.8020   -5.4868    0.0000 C   0  0
    4.8008   -6.3152    0.0000 N   0  0
    5.5165   -6.7285    0.0000 C   0  0
    6.2336   -6.3147    0.0000 C   0  0
    6.2308   -5.4832    0.0000 C   0  0
    5.5146   -5.0737    0.0000 C   0  0
    6.8829   -4.9762    0.0000 N   0  0
    7.6316   -3.8667    0.0000 N   0  0
    6.8551   -4.1497    0.0000 C   0  0
    8.1403   -4.5188    0.0000 C   0  0
    7.6760   -5.2010    0.0000 C   0  0
    8.0347   -5.9421    0.0000 C   0  0
    8.8575   -6.0022    0.0000 C   0  0
    9.3203   -5.3151    0.0000 C   0  0
    8.9590   -4.5768    0.0000 C   0  0
    5.5163   -7.5544    0.0000 N   0  0
    4.8009   -7.9673    0.0000 C   0  0
    6.1244   -3.7683    0.0000 C   0  0
    6.0936   -2.9418    0.0000 C   0  0
    4.6989   -3.8272    0.0000 C   0  0
    5.4293   -4.2081    0.0000 C   0  0
    4.6639   -2.9977    0.0000 C   0  0
    5.3661   -2.5578    0.0000 C   0  0
    4.0918   -7.5506    0.0000 C   0  0
    3.3785   -7.9599    0.0000 C   0  0
    3.3741   -8.7861    0.0000 C   0  0
    4.0892   -9.2014    0.0000 C   0  0
    4.8086   -8.7906    0.0000 C   0  0
   10.1442   -5.3719    0.0000 O   0  0
   10.5071   -6.1139    0.0000 C   0  0
    5.3355   -1.7324    0.0000 Cl  0  0
    3.9330   -2.6130    0.0000 Cl  0  0
  1  2  2  0
  2  3  1  0
  3  4  2  0
  4  5  1  0
  5  6  2  0
  6  1  1  0
  5  7  1  0
  7 11  1  0
 10  8  1  0
  8  9  2  0
  9  7  1  0
 10 11  2  0
 11 12  1  0
 12 13  2  0
 13 14  1  0
 14 15  2  0
 15 10  1  0
  3 16  1  0
 16 17  1  0
 18 19  2  0
 19 23  1  0
 22 20  1  0
 20 21  2  0
 21 18  1  0
  9 18  1  0
 22 23  2  0
 17 24  1  0
 17 28  1  0
 24 25  1  0
 25 26  1  0
 26 27  1  0
 27 28  1  0
 14 29  1  0
 29 30  1  0
 23 31  1  0
 22 32  1  0
M  END