
          11280715212D 1   1.00000     0.00000     0

 26 27  0     1  0            999 V2000
   -0.0750    1.0125    0.0000 N   0  0  3  0  0  0           0  0  0
   -0.0750    0.1875    0.0000 C   0  0  0  0  0  0           0  0  0
    0.6417   -0.2167    0.0000 C   0  0  0  0  0  0           0  0  0
    0.6417   -1.0500    0.0000 C   0  0  0  0  0  0           0  0  0
    0.6375    1.4208    0.0000 C   0  0  2  0  0  0           0  0  0
    0.6375   -2.6917    0.0000 C   0  0  0  0  0  0           0  0  0
   -0.0750   -2.2792    0.0000 C   0  0  0  0  0  0           0  0  0
    1.3542   -2.2792    0.0000 C   0  0  0  0  0  0           0  0  0
    1.4292    1.6375    0.0000 C   0  0  0  0  0  0           0  0  0
   -0.0750   -1.4542    0.0000 C   0  0  0  0  0  0           0  0  0
    1.3500   -1.4542    0.0000 C   0  0  0  0  0  0           0  0  0
   -0.7875   -0.2167    0.0000 O   0  0  0  0  0  0           0  0  0
    1.3542    0.1875    0.0000 O   0  0  0  0  0  0           0  0  0
    2.0167    1.0583    0.0000 O   0  0  0  0  0  0           0  0  0
   -0.7833    1.4208    0.0000 C   0  0  0  0  0  0           0  0  0
    0.6375   -3.5167    0.0000 O   0  0  0  0  0  0           0  0  0
   -0.7875   -2.6917    0.0000 O   0  0  0  0  0  0           0  0  0
    2.0667   -2.6875    0.0000 O   0  0  0  0  0  0           0  0  0
    1.6417    2.4375    0.0000 O   0  0  0  0  0  0           0  0  0
    0.6375    2.2458    0.0000 C   0  0  0  0  0  0           0  0  0
    1.3500   -3.9292    0.0000 C   0  0  0  0  0  0           0  0  0
   -0.7875   -3.5167    0.0000 C   0  0  0  0  0  0           0  0  0
    2.4375    2.6583    0.0000 C   0  0  0  0  0  0           0  0  0
    2.7792   -2.2667    0.0000 C   0  0  0  0  0  0           0  0  0
   -0.7833    2.2458    0.0000 C   0  0  0  0  0  0           0  0  0
   -0.0750    2.6625    0.0000 C   0  0  0  0  0  0           0  0  0
  2  1  1  0     0  0
  3  2  1  0     0  0
  4  3  1  0     0  0
  5  1  1  0     0  0
  6  8  1  0     0  0
  7 10  1  0     0  0
  8 11  2  0     0  0
  5  9  1  1     0  0
 10  4  2  0     0  0
 11  4  1  0     0  0
 12  2  2  0     0  0
 13  3  2  0     0  0
 14  9  2  0     0  0
 15  1  1  0     0  0
 16  6  1  0     0  0
 17  7  1  0     0  0
 18  8  1  0     0  0
 19  9  1  0     0  0
 20  5  1  0     0  0
 21 16  1  0     0  0
 22 17  1  0     0  0
 23 19  1  0     0  0
 24 18  1  0     0  0
 25 15  1  0     0  0
 26 25  1  0     0  0
 20 26  1  0     0  0
  7  6  2  0     0  0
M  END