
  SciTegic01311317052D

 51 56  0  0  1  0            999 V2000
    7.3695   -4.9476    0.0000 N   0  0
    6.5968   -4.6485    0.0000 C   0  0
    6.0983   -3.3150    0.0000 C   0  0
    8.1754   -6.3434    0.0000 C   0  0
    5.0640   -5.1138    0.0000 N   0  0
    3.2943   -7.4027    0.0000 C   0  0
    8.0508   -7.1577    0.0000 N   0  0
    5.7743   -4.7108    0.0000 C   0  0  1  0  0  0
    7.9303   -5.5500    0.0000 C   0  0  2  0  0  0
    5.2758   -8.0051    0.0000 C   0  0
    4.6028   -5.7992    0.0000 C   0  0
    6.6592   -2.1062    0.0000 N   0  0
    6.0485   -8.3042    0.0000 N   0  0
    5.9363   -2.5050    0.0000 C   0  0
    2.5839   -7.8140    0.0000 N   0  0
    4.7233   -7.4069    0.0000 C   0  0  2  0  0  0
    5.5375   -3.9174    0.0000 C   0  0
    6.9167   -3.4147    0.0000 C   0  0
    4.0046   -7.8182    0.0000 C   0  0
    7.2574   -2.6670    0.0000 C   0  0
    4.4782   -6.6176    0.0000 C   0  0
    7.5814   -7.8389    0.0000 C   0  0  2  0  0  0
    6.7215   -3.8302    0.0000 O   0  0
    8.9979   -6.2728    0.0000 O   0  0
    8.6407   -5.1387    0.0000 C   0  0
    3.2943   -6.5802    0.0000 O   0  0
    4.8147   -8.6905    0.0000 O   0  0
    3.8302   -5.5001    0.0000 O   0  0
    6.8710   -8.2502    0.0000 C   0  0
    1.1507   -8.6282    0.0000 O   0  0
    8.1505   -8.4413    0.0000 C   0  0
    9.3593   -5.5500    0.0000 C   0  0
    7.9054   -9.2264    0.0000 C   0  0
    1.8694   -7.4027    0.0000 C   0  0
    2.5797   -8.6407    0.0000 C   0  0
    7.3903   -4.0877    0.0000 C   0  0
    1.8611   -9.0478    0.0000 C   0  0
    1.1590   -7.8057    0.0000 C   0  0
    8.0799   -2.5922    0.0000 C   0  0
   10.0739   -5.1387    0.0000 C   0  0
    9.3593   -6.3725    0.0000 C   0  0
    8.4662   -9.8329    0.0000 C   0  0
    7.0953   -9.4134    0.0000 C   0  0
    8.2128   -4.0171    0.0000 C   0  0
    8.5535   -3.2652    0.0000 C   0  0
   10.0739   -6.7921    0.0000 C   0  0
    8.2170  -10.6222    0.0000 C   0  0
    6.8586  -10.1985    0.0000 C   0  0
   10.7842   -5.5500    0.0000 C   0  0
   10.7842   -6.3725    0.0000 C   0  0
    7.4194  -10.8050    0.0000 C   0  0
  2  1  1  0
  3 17  1  0
  4  9  1  0
  5  8  1  0
  6 19  1  0
  7  4  1  0
  8  2  1  0
  9  1  1  0
 10 13  1  0
 11  5  1  0
 12 14  1  0
 13 29  1  0
 14  3  2  0
 15  6  1  0
 16 21  1  0
  8 17  1  1
 18  3  1  0
 16 19  1  6
 20 18  2  0
 21 11  1  0
 22  7  1  0
 23  2  2  0
 24  4  2  0
  9 25  1  1
 26  6  2  0
 27 10  2  0
 28 11  2  0
 29 22  1  0
 30 37  1  0
 22 31  1  1
 32 25  1  0
 33 31  1  0
 34 15  1  0
 35 15  1  0
 36 18  1  0
 37 35  1  0
 38 34  1  0
 39 20  1  0
 40 32  1  0
 41 32  2  0
 42 33  2  0
 43 33  1  0
 44 36  2  0
 45 44  1  0
 46 41  1  0
 47 42  1  0
 48 43  2  0
 49 40  2  0
 50 46  2  0
 51 48  1  0
 50 49  1  0
 12 20  1  0
 10 16  1  0
 45 39  2  0
 51 47  2  0
 30 38  1  0
M  END