
          11280715432D 1   1.00000     0.00000     0

 19 21  0     1  0            999 V2000
   -0.5083   -0.7292    0.0000 C   0  0  0  0  0  0           0  0  0
    0.5792    0.0375    0.0000 C   0  0  0  0  0  0           0  0  0
    0.3167   -0.7417    0.0000 N   0  0  0  0  0  0           0  0  0
   -0.0708    0.5375    0.0000 C   0  0  0  0  0  0           0  0  0
   -1.0000   -1.4000    0.0000 N   0  0  0  0  0  0           0  0  0
   -0.7458    0.0583    0.0000 S   0  0  0  0  0  0           0  0  0
   -1.8208   -1.3000    0.0000 C   0  0  0  0  0  0           0  0  0
    1.3250    0.3958    0.0000 C   0  0  0  0  0  0           0  0  0
   -0.0333    1.3208    0.0000 C   0  0  0  0  0  0           0  0  0
    1.3917    1.2125    0.0000 C   0  0  0  0  0  0           0  0  0
   -1.9208   -2.1292    0.0000 O   0  0  0  0  0  0           0  0  0
   -2.4583   -0.7375    0.0000 C   0  0  1  0  0  0           0  0  0
    0.7167    1.6833    0.0000 C   0  0  0  0  0  0           0  0  0
   -3.1750   -1.1375    0.0000 N   0  0  0  0  0  0           0  0  0
    2.0042   -0.0792    0.0000 C   0  0  0  0  0  0           0  0  0
    2.1292    1.5708    0.0000 C   0  0  0  0  0  0           0  0  0
   -2.3583    0.1000    0.0000 C   0  0  0  0  0  0           0  0  0
    2.7542    0.2875    0.0000 C   0  0  0  0  0  0           0  0  0
    2.8167    1.1125    0.0000 C   0  0  0  0  0  0           0  0  0
  2  3  1  0     0  0
  3  1  2  0     0  0
  4  6  1  0     0  0
  5  1  1  0     0  0
  6  1  1  0     0  0
  7  5  1  0     0  0
  8  2  1  0     0  0
  9  4  1  0     0  0
 10  8  1  0     0  0
 11  7  2  0     0  0
 12  7  1  0     0  0
 13  9  1  0     0  0
 14 12  1  0     0  0
 15  8  2  0     0  0
 16 10  2  0     0  0
 12 17  1  1     0  0
 18 15  1  0     0  0
 19 18  2  0     0  0
  4  2  2  0     0  0
 13 10  1  0     0  0
 19 16  1  0     0  0
M  END