
          11280715072D 1   1.00000     0.00000     0

 24 26  0     0  0            999 V2000
    3.8042   -0.6292    0.0000 C   0  0  0  0  0  0           0  0  0
    3.8167   -1.4750    0.0000 C   0  0  0  0  0  0           0  0  0
    3.0750   -0.2500    0.0000 C   0  0  0  0  0  0           0  0  0
    2.3750   -0.6875    0.0000 C   0  0  0  0  0  0           0  0  0
    3.1375   -1.8917    0.0000 C   0  0  0  0  0  0           0  0  0
    2.4042   -1.5125    0.0000 C   0  0  0  0  0  0           0  0  0
    4.5542   -1.8375    0.0000 O   0  0  0  0  0  0           0  0  0
    4.5042   -0.1917    0.0000 C   0  0  0  0  0  0           0  0  0
    1.6375   -1.8000    0.0000 O   0  0  0  0  0  0           0  0  0
    1.5792   -0.4667    0.0000 C   0  0  0  0  0  0           0  0  0
    1.1250   -1.1542    0.0000 C   0  0  0  0  0  0           0  0  0
    4.4750    0.6333    0.0000 O   0  0  0  0  0  0           0  0  0
    3.0417    0.5833    0.0000 O   0  0  0  0  0  0           0  0  0
    3.1750   -2.7167    0.0000 O   0  0  0  0  0  0           0  0  0
    4.6125   -2.6625    0.0000 C   0  0  0  0  0  0           0  0  0
    5.3417   -3.0417    0.0000 C   0  0  0  0  0  0           0  0  0
    5.2292   -0.5792    0.0000 C   0  0  0  0  0  0           0  0  0
    3.7417    1.0208    0.0000 C   0  0  0  0  0  0           0  0  0
    2.4792   -3.1625    0.0000 C   0  0  0  0  0  0           0  0  0
    6.0417   -2.6042    0.0000 C   0  0  0  0  0  0           0  0  0
    5.3750   -3.8667    0.0000 C   0  0  0  0  0  0           0  0  0
    6.7750   -2.9917    0.0000 C   0  0  0  0  0  0           0  0  0
    6.1125   -4.2542    0.0000 C   0  0  0  0  0  0           0  0  0
    6.8042   -3.8167    0.0000 C   0  0  0  0  0  0           0  0  0
  2  1  1  0     0  0
  3  1  2  0     0  0
  4  3  1  0     0  0
  5  2  2  0     0  0
  6  4  2  0     0  0
  7  2  1  0     0  0
  8  1  1  0     0  0
  9  6  1  0     0  0
 10  4  1  0     0  0
 11 10  2  0     0  0
 12  8  2  0     0  0
 13  3  1  0     0  0
 14  5  1  0     0  0
 15  7  1  0     0  0
 16 15  1  0     0  0
 17  8  1  0     0  0
 18 13  1  0     0  0
 19 14  1  0     0  0
 20 16  1  0     0  0
 21 16  2  0     0  0
 22 20  2  0     0  0
 23 21  1  0     0  0
 24 23  2  0     0  0
  6  5  1  0     0  0
 11  9  1  0     0  0
 22 24  1  0     0  0
M  END