
  SciTegic02271514372D

 37 40  0  0  0  0            999 V2000
   18.2864  -18.0101    0.0000 C   0  0
   18.2376  -15.5221    0.0000 C   0  0
   16.8695  -18.8448    0.0000 C   0  0
   17.5709  -17.6053    0.0000 C   0  0
   17.5867  -19.2469    0.0000 C   0  0
   18.9395  -15.0995    0.0000 C   0  0
   15.7540  -18.3382    0.0000 O   0  0
   19.6573  -15.4961    0.0000 C   0  0
   15.3272  -17.6321    0.0000 O   0  0
   16.1474  -17.6184    0.0000 S   0  0
   19.6745  -16.3139    0.0000 C   0  0
   18.9727  -16.7407    0.0000 C   0  0
   17.5142  -15.1270    0.0000 C   0  0
   16.8124  -15.5539    0.0000 C   0  0
   17.5474  -16.7684    0.0000 O   0  0
   16.1276  -16.7944    0.0000 N   0  0
   16.8645  -18.0247    0.0000 C   0  0
   16.8296  -16.3717    0.0000 C   0  0
   18.2972  -18.8316    0.0000 C   0  0
   18.2534  -16.3457    0.0000 C   0  0
   16.0959  -15.1609    0.0000 C   0  0
   16.0780  -14.3439    0.0000 O   0  0
   15.3615  -13.9509    0.0000 C   0  0  1  0  0  0
   14.5762  -11.9328    0.0000 O   0  0
   14.6907  -15.2120    0.0000 O   0  0
   14.6058  -12.7487    0.0000 C   0  0  2  0  0  0
   13.9346  -14.0083    0.0000 C   0  0  1  0  0  0
   16.0255  -12.7023    0.0000 O   0  0
   14.6610  -14.3920    0.0000 C   0  0  1  0  0  0
   15.3286  -13.1345    0.0000 C   0  0  2  0  0  0
   13.2414  -14.4425    0.0000 C   0  0
   13.9106  -13.1865    0.0000 O   0  0
   13.2689  -15.2621    0.0000 O   0  0
   13.8542  -11.5500    0.0000 C   0  0
   16.7457  -13.0884    0.0000 C   0  0
   17.4402  -12.6577    0.0000 O   0  0
   16.7715  -13.9052    0.0000 C   0  0
  4  1  2  0
 13  2  1  0
 14 13  2  0
 17  3  2  0
  1 19  1  0
  2  6  1  0
  5  3  1  0
 17  4  1  0
  2 20  2  0
 18 15  1  0
 10  9  2  0
 10 17  1  0
 18 14  1  0
 18 16  2  0
  8 11  1  0
 19  5  2  0
 16 10  1  0
 20 15  1  0
 12 20  1  0
  6  8  2  0
 11 12  2  0
 10  7  2  0
 14 21  1  0
 21 22  1  0
 23 22  1  1
 26 30  1  0
 26 32  1  0
 27 31  1  1
 29 27  1  0
 29 25  1  1
 31 33  1  0
 27 32  1  0
 26 24  1  6
 23 29  1  0
 30 23  1  0
 30 28  1  6
 24 34  1  0
 28 35  1  0
 35 36  2  0
 35 37  1  0
M  END