
  SciTegic04091415222D

 24 26  0  0  0  0            999 V2000
    5.2617  -29.8976    0.0000 C   0  0
    5.9670  -29.4932    0.0000 C   0  0
    5.9670  -28.6760    0.0000 C   0  0
    5.2617  -28.2633    0.0000 C   0  0
    5.2617  -30.7148    0.0000 O   0  0
    5.2617  -27.4461    0.0000 O   0  0
    4.5565  -29.4932    0.0000 C   0  0
    4.5590  -28.6778    0.0000 C   0  0
    3.8553  -28.2697    0.0000 C   0  0
    3.1485  -28.6758    0.0000 C   0  0
    3.1499  -29.4943    0.0000 C   0  0
    3.8542  -29.8988    0.0000 N   0  0
    6.6741  -29.9028    0.0000 N   0  0
    7.3824  -29.4952    0.0000 C   0  0
    8.0895  -29.9049    0.0000 C   0  0
    8.7978  -29.4973    0.0000 C   0  0
    9.5052  -29.9086    0.0000 C   0  0
   10.2130  -29.5017    0.0000 C   0  0
   10.2147  -28.6837    0.0000 C   0  0
    9.5026  -28.2742    0.0000 C   0  0
    8.7977  -28.6834    0.0000 C   0  0
   10.9224  -28.2752    0.0000 O   0  0
   10.9200  -29.9117    0.0000 Cl  0  0
    9.5009  -27.4570    0.0000 Cl  0  0
  8  4  1  0
  7  1  1  0
  1  2  1  0
  2  3  2  0
  3  4  1  0
  1  5  2  0
  4  6  2  0
  7  8  2  0
  8  9  1  0
  9 10  2  0
 10 11  1  0
 11 12  2  0
 12  7  1  0
  2 13  1  0
 13 14  1  0
 14 15  1  0
 15 16  1  0
 16 17  2  0
 17 18  1  0
 18 19  2  0
 19 20  1  0
 20 21  2  0
 21 16  1  0
 19 22  1  0
 18 23  1  0
 20 24  1  0
M  END