
  SciTegic01161211252D

 28 31  0  0  0  0            999 V2000
   -3.5969   -9.8956    0.0000 C   0  0
   -0.9977  -10.4464    0.0000 N   0  0
   -0.2831  -10.8603    0.0000 C   0  0
   -0.2843  -11.6860    0.0000 O   0  0
    0.4325  -10.4485    0.0000 C   0  0
    1.1454  -10.8633    0.0000 C   0  0
    1.8605  -10.4521    0.0000 N   0  0
    1.8622   -9.6255    0.0000 C   0  0
    1.1427   -9.2119    0.0000 C   0  0
    0.4304   -9.6253    0.0000 C   0  0
    2.5773   -9.2128    0.0000 O   0  0
    3.2923   -9.6257    0.0000 C   0  0
    3.2874  -10.4516    0.0000 C   0  0
    4.0016  -10.8646    0.0000 C   0  0
    4.7177  -10.4517    0.0000 C   0  0
    4.7152   -9.6217    0.0000 C   0  0
    4.0004   -9.2126    0.0000 C   0  0
   -1.6811  -10.9097    0.0000 C   0  0
   -2.4722  -10.6663    0.0000 C   0  0
   -0.9388   -9.6232    0.0000 C   0  0
   -2.7769   -9.9001    0.0000 N   0  0
   -1.5456   -9.0611    0.0000 C   0  0
   -2.3626   -9.1872    0.0000 C   0  0
   -4.1735   -9.3125    0.0000 C   0  0
   -4.7566   -9.8891    0.0000 C   0  0
   -4.1800  -10.4722    0.0000 C   0  0
    5.4288   -9.2065    0.0000 Cl  0  0
    5.4333  -10.8637    0.0000 Cl  0  0
  7  8  2  0
 14 15  2  0
  3  5  1  0
 15 16  1  0
  8  9  1  0
 16 17  2  0
 17 12  1  0
  2 18  1  0
  9 10  2  0
 18 19  1  0
 10  5  1  0
  2 20  1  0
  5  6  2  0
 19 21  1  0
  8 11  1  0
 20 22  1  0
  3  4  2  0
 21 23  1  0
 22 23  1  0
 21  1  1  0
  1 24  1  0
 11 12  1  0
  6  7  1  0
 12 13  2  0
 24 25  1  0
 25 26  1  0
 26  1  1  0
  2  3  1  0
 16 27  1  0
 13 14  1  0
 15 28  1  0
M  END