
          11280715382D 1   1.00000     0.00000     0

 13 13  0     0  0            999 V2000
    3.4250    1.4208    0.0000 S   0  0  3  0  0  0           0  0  0
    2.7042    1.8333    0.0000 N   0  0  0  0  0  0           0  0  0
    3.8417    2.1458    0.0000 O   0  0  0  0  0  0           0  0  0
    3.0042    0.6958    0.0000 O   0  0  0  0  0  0           0  0  0
    4.1417    1.0000    0.0000 N   0  0  0  0  0  0           0  0  0
    1.9875    1.4125    0.0000 C   0  0  0  0  0  0           0  0  0
    0.5542    0.5833    0.0000 C   0  0  0  0  0  0           0  0  0
    1.2750    1.8250    0.0000 C   0  0  0  0  0  0           0  0  0
    1.9875    0.5875    0.0000 C   0  0  0  0  0  0           0  0  0
    1.2750    0.1750    0.0000 C   0  0  0  0  0  0           0  0  0
    0.5542    1.4125    0.0000 C   0  0  0  0  0  0           0  0  0
   -0.1583    0.1750    0.0000 O   0  0  0  0  0  0           0  0  0
   -0.1583   -0.6500    0.0000 C   0  0  0  0  0  0           0  0  0
  2  1  1  0     0  0
  3  1  2  0     0  0
  4  1  2  0     0  0
  5  1  1  0     0  0
  6  2  1  0     0  0
  7 10  1  0     0  0
  8  6  2  0     0  0
  9  6  1  0     0  0
 10  9  2  0     0  0
 11  8  1  0     0  0
 12  7  1  0     0  0
 13 12  1  0     0  0
  7 11  2  0     0  0
M  END