
  SciTegic05141316372D

 38 40  0  0  0  0            999 V2000
    0.4138   -4.9317    0.0000 C   0  0  1  0  0  0
   -0.0951   -2.0521    0.0000 C   0  0  1  0  0  0
    0.5213   -2.7472    0.0000 C   0  0  1  0  0  0
    1.0220   -5.6392    0.0000 C   0  0  1  0  0  0
    0.3269    0.0869    0.0000 C   0  0  2  0  0  0
    0.5255   -3.3058    0.0000 C   0  0  1  0  0  0
    0.3393   -0.4717    0.0000 C   0  0  1  0  0  0
    1.2205   -2.8672    0.0000 O   0  0
    1.0344   -0.0290    0.0000 O   0  0
    1.7253   -5.7509    0.0000 O   0  0
   -0.1324   -2.5941    0.0000 C   0  0  2  0  0  0
   -0.3185    0.2441    0.0000 C   0  0  2  0  0  0
   -0.7902   -2.4948    0.0000 C   0  0  1  0  0  0
   -0.2813   -5.3786    0.0000 C   0  0  1  0  0  0
   -0.2813    0.7902    0.0000 C   0  0  1  0  0  0
    0.4138   -4.1208    0.0000 S   0  0
    0.3765   -5.4779    0.0000 C   0  0  1  0  0  0
   -0.9764    0.3434    0.0000 C   0  0  2  0  0  0
    0.1241   -1.2578    0.0000 O   0  0
    1.0302   -6.1977    0.0000 C   0  0  1  0  0  0
    1.6053   -5.0517    0.0000 C   0  0
    1.0964   -2.1639    0.0000 C   0  0
    0.9102    0.6702    0.0000 C   0  0
    0.8730   -1.3777    0.0000 O   0  0
    1.3901   -4.2615    0.0000 O   0  0
    0.6868    1.4604    0.0000 O   0  0
   -0.5420   -3.2933    0.0000 O   0  0
   -0.9019   -0.3351    0.0000 O   0  0
   -0.0372   -6.1853    0.0000 O   0  0
   -0.8688   -4.7952    0.0000 O   0  0
   -1.2040   -1.7791    0.0000 O   0  0
   -0.2855    1.6094    0.0000 O   0  0
   -1.5597    0.9267    0.0000 O   0  0
    0.9227   -7.0045    0.0000 O   0  0
    2.3955   -5.2627    0.0000 O   0  0
    1.7004    0.4675    0.0000 O   0  0
    1.8866   -2.3707    0.0000 O   0  0
    1.5763   -7.5092    0.0000 C   0  0
  2 13  1  0
  3  8  1  0
  4  1  1  0
  5  9  1  0
  6 16  1  6
  7 19  1  6
  8  6  1  0
  9  7  1  0
 10  4  1  0
 11  6  1  0
 12  7  1  0
 13 11  1  0
 14  1  1  0
 15 18  1  0
  1 16  1  1
 17 14  1  0
 18 12  1  0
  2 19  1  1
 20 17  1  0
  4 21  1  1
  3 22  1  1
  5 23  1  1
 24 22  2  0
 25 21  2  0
 26 23  2  0
 11 27  1  6
 12 28  1  6
 17 29  1  6
 14 30  1  1
 13 31  1  1
 15 32  1  1
 18 33  1  1
 20 34  1  6
 35 21  1  0
 36 23  1  0
 37 22  1  0
 38 34  1  0
 20 10  1  0
  2  3  1  0
 15  5  1  0
M  END