
          11280715112D 1   1.00000     0.00000     0

 20 21  0     0  0            999 V2000
    2.6667   -3.1667    0.0000 C   0  0  0  0  0  0           0  0  0
    3.1500   -2.5042    0.0000 N   0  0  0  0  0  0           0  0  0
    0.1875   -4.5917    0.0000 C   0  0  3  0  0  0           0  0  0
    3.1500   -3.8417    0.0000 N   0  0  0  0  0  0           0  0  0
    3.9292   -2.7542    0.0000 C   0  0  0  0  0  0           0  0  0
    0.6042   -3.8792    0.0000 C   0  0  0  0  0  0           0  0  0
    1.8417   -3.1667    0.0000 C   0  0  0  0  0  0           0  0  0
    3.9292   -3.5792    0.0000 C   0  0  0  0  0  0           0  0  0
    1.4292   -3.8792    0.0000 C   0  0  0  0  0  0           0  0  0
   -0.1958   -5.2417    0.0000 F   0  0  0  0  0  0           0  0  0
   -0.6708   -4.7167    0.0000 F   0  0  0  0  0  0           0  0  0
    0.4792   -5.4042    0.0000 F   0  0  0  0  0  0           0  0  0
    4.6000   -2.2750    0.0000 C   0  0  0  0  0  0           0  0  0
    6.0250   -2.1250    0.0000 N   0  0  0  0  0  0           0  0  0
    0.1917   -3.1750    0.0000 C   0  0  0  0  0  0           0  0  0
    1.4292   -2.4542    0.0000 C   0  0  0  0  0  0           0  0  0
    0.6042   -2.4625    0.0000 C   0  0  0  0  0  0           0  0  0
    5.3542   -2.6125    0.0000 C   0  0  0  0  0  0           0  0  0
    5.9375   -1.3042    0.0000 C   0  0  0  0  0  0           0  0  0
    6.6042   -0.8167    0.0000 C   0  0  0  0  0  0           0  0  0
  2  1  2  0     0  0
  3  6  1  0     0  0
  4  1  1  0     0  0
  5  2  1  0     0  0
  6  9  2  0     0  0
  7  1  1  0     0  0
  8  4  1  0     0  0
  9  7  1  0     0  0
 10  3  1  0     0  0
 11  3  1  0     0  0
 12  3  1  0     0  0
 13  5  1  0     0  0
 14 18  1  0     0  0
 15 17  2  0     0  0
 16  7  2  0     0  0
 17 16  1  0     0  0
 18 13  1  0     0  0
 19 14  1  0     0  0
 20 19  1  0     0  0
  5  8  2  0     0  0
 15  6  1  0     0  0
M  END