
  SciTegic12191611222D

 29 30  0  0  0  0            999 V2000
    2.5984   -2.7004    0.0000 O   0  0
    2.5988   -1.5004    0.0000 S   0  0
    3.6377   -2.1009    0.0000 O   0  0
    6.2384   -0.9019    0.0000 C   0  0
    5.1988   -1.5012    0.0000 C   0  0
    3.8990   -0.7508    0.0000 N   0  0
    3.9026    0.7500    0.0000 C   0  0
    4.9429    1.3482    0.0000 C   0  0
    1.2990   -0.7500    0.0000 C   0  0
    1.2990    0.7500    0.0000 C   0  0
    0.0000    1.5000    0.0000 C   0  0
   -1.2990    0.7500    0.0000 C   0  0
   -1.2990   -0.7500    0.0000 C   0  0
    0.0000   -1.5000    0.0000 C   0  0
   -2.3383    1.3500    0.0000 O   0  0
    0.0031    3.0008    0.0000 N   0  0
    1.3039    3.7494    0.0000 C   0  0
    2.3421    3.1476    0.0000 O   0  0
    1.3070    5.2502    0.0000 C   0  0
    0.0934    6.1101    0.0000 N   0  0
    0.5570    7.5366    0.0000 C   0  0
    2.0570    7.5366    0.0000 C   0  0
    2.5205    6.1100    0.0000 C   0  0
    3.9408    5.6332    0.0000 C   0  0
    2.9401    8.7469    0.0000 C   0  0
    4.1334    8.6197    0.0000 O   0  0
    2.4540    9.8440    0.0000 C   0  0
   -0.1484    8.5075    0.0000 C   0  0
    4.1795    4.4572    0.0000 C   0  0
  2  1  2  0
  3  2  2  0
  4  5  1  0
  5  6  1  0
  6  7  1  0
  7  8  1  0
  6  2  1  0
  2  9  1  0
  9 10  2  0
 11 10  1  0
 12 11  2  0
 13 12  1  0
 14 13  2  0
  9 14  1  0
 12 15  1  0
 11 16  1  0
 16 17  1  0
 17 18  2  0
 17 19  1  0
 19 20  1  0
 21 20  1  0
 22 21  2  0
 23 22  1  0
 19 23  2  0
 23 24  1  0
 22 25  1  0
 25 26  2  0
 25 27  1  0
 21 28  1  0
 24 29  1  0
M  END