
  SciTegic12121614472D

167171  0  0  0  0            999 V2000
  -22.0141   41.2972    0.0000 C   0  0
  -22.0180   39.7963    0.0000 C   0  0
  -23.3192   39.0485    0.0000 N   0  0
  -20.9802   39.1940    0.0000 O   0  0
  -23.3097   42.0532    0.0000 C   0  0
  -23.3026   43.5533    0.0000 C   0  0
  -22.0002   44.2971    0.0000 C   0  0
  -20.7047   43.5411    0.0000 C   0  0
  -20.7116   42.0411    0.0000 C   0  0
  -24.6017   44.3047    0.0000 C   0  0
  -27.1942   45.8150    0.0000 O   0  0
  -27.1999   44.3151    0.0000 C   0  0
  -25.9037   43.5600    0.0000 C   0  0
  -25.9094   42.0600    0.0000 C   0  0
  -27.2114   41.3153    0.0000 C   0  0
  -28.5076   42.0704    0.0000 C   0  0
  -28.5019   43.5703    0.0000 C   0  0
  -24.6052   45.7888    0.0000 C   0  0
  -25.9014   46.5440    0.0000 C   0  0
  -25.8865   48.0597    0.0000 C   0  0
  -24.5845   48.8045    0.0000 C   0  0
  -23.2883   48.0494    0.0000 C   0  0
  -23.2940   46.5494    0.0000 C   0  0
  -24.5797   50.0045    0.0000 O   0  0
  -29.5492   41.4744    0.0000 O   0  0
  -21.9901   45.7979    0.0000 C   0  0
  -20.9473   46.3916    0.0000 O   0  0
  -22.8529   46.3035    0.0000 O   0  0
  -87.0893    9.5423   -0.0002 C   0  0
  -87.0900    8.3423   -0.0002 C   0  0
  -85.7904    7.5915   -0.0002 N   0  0
  -88.1298    7.7432   -0.0002 O   0  0
  -84.4900    8.3408   -0.0002 C   0  0  2  0  0  0
  -83.1905    7.5901   -0.0002 C   0  0
  -84.4861    9.8416   -0.0002 C   0  0  2  0  0  0
  -83.4457   10.4396   -0.0002 O   0  0
  -85.5240   10.4440   -0.0002 C   0  0
  -83.1911    6.3901   -0.0002 O   0  0
  -81.8900    8.3394   -0.0002 N   0  0
  -80.5905    7.5886   -0.0002 C   0  0  2  0  0  0
  -79.2901    8.3379   -0.0002 C   0  0
  -80.5882    6.0878   -0.0002 C   0  0  1  0  0  0
  -81.6267    5.4866   -0.0002 C   0  0
  -79.5485    5.4887   -0.0002 O   0  0
  -77.9905    7.5872   -0.0001 N   0  0
  -79.2894    9.5379   -0.0002 O   0  0
  -76.6901    8.3365   -0.0001 C   0  0  2  0  0  0
  -75.3905    7.5857   -0.0001 C   0  0
  -76.6862    9.8373   -0.0001 C   0  0  1  0  0  0
  -77.7240   10.4397   -0.0001 C   0  0
  -75.3849   10.5851   -0.0001 C   0  0
  -75.3818   11.7851   -0.0001 C   0  0
  -74.0901    8.3350   -0.0001 N   0  0
  -75.3912    6.3857   -0.0001 O   0  0
  -72.7905    7.5843   -0.0001 C   0  0
  -71.4901    8.3336   -0.0001 C   0  0
  -70.1906    7.5828   -0.0001 N   0  0
  -71.4895    9.5336   -0.0001 O   0  0
  -68.8901    8.3321   -0.0001 C   0  0  2  0  0  0
  -67.5906    7.5814   -0.0001 C   0  0
  -68.8862    9.8329   -0.0001 C   0  0
  -67.5850   10.5808   -0.0001 C   0  0
  -67.5811   12.0816   -0.0001 S   0  0
  -66.5406   12.6795   -0.0001 C   0  0
  -67.5912    6.3814   -0.0001 O   0  0
  -66.2902    8.3307   -0.0001 N   0  0
  -64.9906    7.5799   -0.0001 C   0  0  2  0  0  0
  -63.6902    8.3292   -0.0001 C   0  0
  -62.3906    7.5785   -0.0001 N   0  0
  -63.6895    9.5292   -0.0001 O   0  0
  -61.0902    8.3278   -0.0001 C   0  0  2  0  0  0
  -59.7906    7.5770   -0.0001 C   0  0
  -61.0863    9.8286   -0.0001 C   0  0  2  0  0  0
  -60.0459   10.4265   -0.0001 O   0  0
  -62.1241   10.4310   -0.0001 C   0  0
  -59.7913    6.3770   -0.0001 O   0  0
  -58.4902    8.3263   -0.0001 N   0  0
  -57.1907    7.5756   -0.0001 C   0  0  2  0  0  0
  -55.8902    8.3249   -0.0001 C   0  0
  -57.1884    6.0748   -0.0001 C   0  0
  -55.8880    5.3255   -0.0001 C   0  0
  -55.8862    4.1255   -0.0001 C   0  0
  -54.8495    5.9267   -0.0001 C   0  0
  -54.5907    7.5741   -0.0001 N   0  0
  -55.8896    9.5249   -0.0001 O   0  0
  -53.2903    8.3234   -0.0001 C   0  0  2  0  0  0
  -51.9907    7.5727   -0.0001 C   0  0
  -53.2863    9.8242   -0.0001 C   0  0
  -51.9851   10.5721   -0.0001 C   0  0
  -51.9812   12.0729   -0.0001 C   0  0
  -50.6799   12.8207   -0.0001 C   0  0
  -50.6768   14.0207   -0.0001 N   0  0
  -50.6903    8.3220   -0.0001 N   0  0
  -64.9883    6.0791   -0.0001 C   0  0
  -63.6879    5.3298   -0.0001 C   0  0
  -63.6857    3.8290   -0.0001 S   0  0
  -62.6459    3.2299   -0.0001 C   0  0
  -51.9914    6.3727   -0.0001 O   0  0
  -49.3907    7.5712   -0.0001 C   0  0  2  0  0  0
  -48.0903    8.3205   -0.0001 C   0  0
  -49.3914    6.3712   -0.0001 C   0  0
  -46.7907    7.5698   -0.0001 N   0  0
  -48.0896    9.5205   -0.0001 O   0  0
  -45.4903    8.3191   -0.0001 C   0  0  2  0  0  0
  -44.1908    7.5683   -0.0001 C   0  0
  -45.4897    9.5191   -0.0001 C   0  0
  -44.1913    6.5683   -0.0001 O   0  0
  -42.8904    8.3176   -0.0001 N   0  0
  -41.5908    7.5669   -0.0001 C   0  0  2  0  0  0
  -40.2895    8.3147    0.0000 C   0  0
  -41.5946    6.0660   -0.0001 C   0  0
  -42.8958    5.3181   -0.0001 C   0  0
  -44.1950    6.0680   -0.0001 C   0  0
  -45.4940    5.3180   -0.0001 C   0  0
  -45.4939    3.8180   -0.0001 C   0  0
  -44.1948    3.0680   -0.0001 C   0  0
  -42.8958    3.8181   -0.0001 C   0  0
  -40.2856    9.8155    0.0000 N   0  0
  -39.2516    7.7123    0.0000 O   0  0
  -38.9844   10.5634    0.0000 C   0  0  2  0  0  0
  -38.9805   12.0642    0.0000 C   0  0
  -37.6848    9.8127    0.0000 C   0  0
  -36.3844   10.5620    0.0000 C   0  0
  -35.0848    9.8113    0.0000 C   0  0
  -33.7844   10.5606    0.0000 C   0  0
  -32.7453    9.9604    0.0000 N   0  0
  -40.0184   12.6666    0.0000 O   0  0
  -37.6793   12.8121    0.0000 N   0  0
  -37.6754   14.3129    0.0000 C   0  0  1  0  0  0
  -36.3742   15.0608    0.0000 C   0  0
  -38.9719   15.0689    0.0000 C   0  0  1  0  0  0
  -40.0135   14.4731    0.0000 C   0  0
  -38.9675   16.2689    0.0000 O   0  0
  -36.3703   16.5616    0.0000 N   0  0
  -35.3363   14.4584    0.0000 O   0  0
  -35.0691   17.3095    0.0000 C   0  0  2  0  0  0
  -35.0652   18.8103    0.0000 C   0  0
  -33.7695   16.5588    0.0000 C   0  0
  -32.4691   17.3081    0.0000 C   0  0
  -31.4300   16.7078    0.0000 C   0  0
  -32.4684   18.5081    0.0000 C   0  0
  -36.1030   19.4126    0.0000 O   0  0
  -33.7640   19.5581    0.0000 N   0  0
  -33.7601   21.0590    0.0000 C   0  0  2  0  0  0
  -32.4589   21.8068    0.0000 C   0  0
  -35.0566   21.8150    0.0000 C   0  0
  -35.0521   23.0150    0.0000 O   0  0
  -31.4210   21.2045    0.0000 O   0  0
  -32.4550   23.3076    0.0000 N   0  0
  -31.1538   24.0555    0.0000 C   0  0
  -31.1499   25.5563    0.0000 C   0  0
  -29.8487   26.3042    0.0000 C   0  0
  -29.8448   27.8050    0.0000 N   0  0
  -28.8108   25.7018    0.0000 O   0  0
  -28.5435   28.5529    0.0000 C   0  0
  -28.5397   30.0537    0.0000 C   0  0
  -27.2384   30.8016    0.0000 C   0  0
  -27.2346   32.3024    0.0000 N   0  0
  -26.2006   30.1992    0.0000 O   0  0
  -25.9333   33.0503    0.0000 C   0  0
  -25.9294   34.5511    0.0000 C   0  0
  -24.6337   32.2996    0.0000 C   0  0
  -23.5940   32.8987    0.0000 O   0  0
  -24.6344   31.0996    0.0000 N   0  0
  -24.6282   35.2990    0.0000 C   0  0
  -24.6243   36.7998    0.0000 C   0  0
  -23.3231   37.5476    0.0000 C   0  0
  1  2  1  0
  2  3  1  0
  2  4  2  0
  1  5  2  0
  5  6  1  0
  6  7  2  0
  7  8  1  0
  8  9  2  0
  9  1  1  0
  6 10  1  0
 10 13  1  0
 10 18  2  0
 12 11  1  0
 11 19  1  0
 12 13  2  0
 13 14  1  0
 14 15  2  0
 15 16  1  0
 16 17  2  0
 17 12  1  0
 18 19  1  0
 18 23  1  0
 19 20  2  0
 20 21  1  0
 21 22  1  0
 22 23  2  0
 21 24  2  0
 16 25  1  0
  7 26  1  0
 26 27  2  0
 26 28  1  0
 29 30  1  0
 30 31  1  0
 30 32  2  0
 33 31  1  1
 33 34  1  0
 33 35  1  0
 35 36  1  1
 35 37  1  0
 34 38  2  0
 34 39  1  0
 40 39  1  6
 40 41  1  0
 40 42  1  0
 42 43  1  0
 42 44  1  6
 41 45  1  0
 41 46  2  0
 47 45  1  1
 47 48  1  0
 47 49  1  0
 49 50  1  1
 49 51  1  0
 51 52  1  0
 48 53  1  0
 48 54  2  0
 53 55  1  0
 55 56  1  0
 56 57  1  0
 56 58  2  0
 57 59  1  0
 59 60  1  0
 59 61  1  1
 61 62  1  0
 62 63  1  0
 63 64  1  0
 60 65  2  0
 60 66  1  0
 66 67  1  0
 67 68  1  0
 68 69  1  0
 68 70  2  0
 71 69  1  1
 71 72  1  0
 71 73  1  0
 73 74  1  1
 73 75  1  0
 72 76  2  0
 72 77  1  0
 77 78  1  0
 78 79  1  0
 78 80  1  6
 80 81  1  0
 81 82  1  0
 81 83  1  0
 79 84  1  0
 79 85  2  0
 84 86  1  0
 86 87  1  0
 86 88  1  1
 88 89  1  0
 89 90  1  0
 90 91  1  0
 91 92  1  0
 87 93  1  0
 67 94  1  6
 94 95  1  0
 95 96  1  0
 96 97  1  0
 87 98  2  0
 93 99  1  0
 99100  1  0
 99101  1  6
100102  1  0
100103  2  0
102104  1  0
104105  1  0
104106  1  1
105107  2  0
105108  1  0
108109  1  0
109110  1  0
109111  1  6
111112  1  0
112113  2  0
113114  1  0
114115  2  0
115116  1  0
116117  2  0
117112  1  0
110118  1  0
110119  2  0
118120  1  0
120121  1  0
120122  1  6
122123  1  0
123124  1  0
124125  1  0
125126  1  0
121127  2  0
121128  1  0
129128  1  6
129130  1  0
129131  1  0
131132  1  0
131133  1  1
130134  1  0
130135  2  0
134136  1  0
136137  1  0
136138  1  6
138139  1  0
139140  1  0
139141  1  0
137142  2  0
137143  1  0
143144  1  0
144145  1  0
144146  1  1
146147  1  0
145148  2  0
145149  1  0
149150  1  0
150151  1  0
151152  1  0
152153  1  0
152154  2  0
153155  1  0
155156  1  0
156157  1  0
157158  1  0
157159  2  0
158160  1  0
160161  1  0
160162  1  0
162163  2  0
162164  1  0
161165  1  0
165166  1  0
166167  1  0
167  3  1  0
M  END