
          11280715512D 1   1.00000     0.00000     0

 38 42  0     0  0            999 V2000
   -4.3761  -16.7280    0.0000 C   0  0  0  0  0  0           0  0  0
   -4.3773  -17.5554    0.0000 C   0  0  0  0  0  0           0  0  0
   -3.6626  -17.9682    0.0000 C   0  0  0  0  0  0           0  0  0
   -3.6644  -16.3153    0.0000 C   0  0  0  0  0  0           0  0  0
   -2.9442  -17.5525    0.0000 C   0  0  0  0  0  0           0  0  0
   -2.9490  -16.7244    0.0000 C   0  0  0  0  0  0           0  0  0
   -2.3020  -16.1986    0.0000 N   0  0  3  0  0  0           0  0  0
   -2.2880  -18.0669    0.0000 C   0  0  0  0  0  0           0  0  0
   -1.4898  -16.3728    0.0000 C   0  0  0  0  0  0           0  0  0
   -1.4774  -17.8738    0.0000 N   0  0  0  0  0  0           0  0  0
   -1.1250  -17.1192    0.0000 N   0  0  3  0  0  0           0  0  0
   -0.9815  -15.7230    0.0000 O   0  0  0  0  0  0           0  0  0
   -2.4644  -18.8728    0.0000 C   0  0  0  0  0  0           0  0  0
   -3.2483  -19.1207    0.0000 C   0  0  0  0  0  0           0  0  0
   -3.4261  -19.9272    0.0000 C   0  0  0  0  0  0           0  0  0
   -2.8199  -20.4814    0.0000 C   0  0  0  0  0  0           0  0  0
   -2.0324  -20.2345    0.0000 C   0  0  0  0  0  0           0  0  0
   -1.8546  -19.4279    0.0000 N   0  0  0  0  0  0           0  0  0
   -0.3002  -17.1118    0.0000 C   0  0  0  0  0  0           0  0  0
    0.1187  -17.8226    0.0000 C   0  0  0  0  0  0           0  0  0
    0.9436  -17.8152    0.0000 N   0  0  0  0  0  0           0  0  0
   -0.2874  -18.5406    0.0000 O   0  0  0  0  0  0           0  0  0
   -2.4944  -15.3964    0.0000 C   0  0  0  0  0  0           0  0  0
   -1.8960  -14.8285    0.0000 C   0  0  0  0  0  0           0  0  0
   -2.0885  -14.0264    0.0000 N   0  0  3  0  0  0           0  0  0
   -1.1050  -15.0629    0.0000 O   0  0  0  0  0  0           0  0  0
    1.3624  -18.5259    0.0000 C   0  0  0  0  0  0           0  0  0
    0.9544  -19.2418    0.0000 C   0  0  0  0  0  0           0  0  0
    1.3725  -19.9519    0.0000 C   0  0  0  0  0  0           0  0  0
    2.1984  -19.9450    0.0000 C   0  0  0  0  0  0           0  0  0
    2.6042  -19.2220    0.0000 C   0  0  0  0  0  0           0  0  0
    2.1838  -18.5147    0.0000 C   0  0  0  0  0  0           0  0  0
    3.4291  -19.2117    0.0000 N   0  0  0  0  0  0           0  0  0
    3.8327  -18.4921    0.0000 C   0  0  0  0  0  0           0  0  0
   -1.5545  -13.4007    0.0000 C   0  0  0  0  0  0           0  0  0
   -1.9957  -12.6886    0.0000 C   0  0  0  0  0  0           0  0  0
   -2.7853  -12.8869    0.0000 C   0  0  0  0  0  0           0  0  0
   -2.8487  -13.7086    0.0000 C   0  0  0  0  0  0           0  0  0
 18 13  1  0     0  0
  7  9  1  0     0  0
 11 19  1  0     0  0
  4  1  1  0     0  0
 19 20  1  0     0  0
  8 10  2  0     0  0
 20 21  1  0     0  0
 20 22  2  0     0  0
  9 11  1  0     0  0
  7 23  1  0     0  0
 10 11  1  0     0  0
 23 24  1  0     0  0
  2  3  1  0     0  0
 24 25  1  0     0  0
  9 12  2  0     0  0
 24 26  2  0     0  0
  5  6  1  0     0  0
 21 27  1  0     0  0
  8 13  1  0     0  0
 27 28  2  0     0  0
  3  5  2  0     0  0
 28 29  1  0     0  0
  6  7  1  0     0  0
 29 30  2  0     0  0
  1  2  2  0     0  0
 30 31  1  0     0  0
  5  8  1  0     0  0
 31 32  2  0     0  0
 32 27  1  0     0  0
  6  4  2  0     0  0
 31 33  1  0     0  0
 14 13  2  0     0  0
 33 34  1  0     0  0
 14 15  1  0     0  0
 15 16  2  0     0  0
 16 17  1  0     0  0
 17 18  2  0     0  0
 25 35  1  0     0  0
 35 36  1  0     0  0
 36 37  1  0     0  0
 37 38  1  0     0  0
 38 25  1  0     0  0
M  END