
          11280714522D 1   1.00000     0.00000     0

 64 70  0     1  0            999 V2000
    8.2417   -3.0542    0.0000 N   0  0  0  0  0  0           0  0  0
    8.6000   -2.3042    0.0000 C   0  0  2  0  0  0           0  0  0
    7.4250   -1.3667    0.0000 N   0  0  3  0  0  0           0  0  0
    8.2375   -1.5500    0.0000 C   0  0  0  0  0  0           0  0  0
    7.4292   -3.2417    0.0000 C   0  0  0  0  0  0           0  0  0
    6.7750   -2.7250    0.0000 C   0  0  0  0  0  0           0  0  0
    9.4250   -2.3000    0.0000 N   0  0  0  0  0  0           0  0  0
    6.7750   -1.8917    0.0000 C   0  0  0  0  0  0           0  0  0
    9.8375   -3.0125    0.0000 C   0  0  0  0  0  0           0  0  0
    5.7292   -8.8750    0.0000 N   0  0  3  0  0  0           0  0  0
    4.9042   -8.9500    0.0000 C   0  0  0  0  0  0           0  0  0
    9.4292   -6.5792    0.0000 C   0  0  0  0  0  0           0  0  0
   10.6625   -3.0125    0.0000 N   0  0  0  0  0  0           0  0  0
    7.3667   -8.7250    0.0000 N   0  0  3  0  0  0           0  0  0
    0.0792   -3.1250    0.0000 N   0  0  3  0  0  0           0  0  0
    8.7500   -0.9042    0.0000 O   0  0  0  0  0  0           0  0  0
    7.2417   -4.0500    0.0000 C   0  0  0  0  0  0           0  0  0
    9.4292   -3.7292    0.0000 O   0  0  0  0  0  0           0  0  0
    6.0792   -8.1292    0.0000 C   0  0  0  0  0  0           0  0  0
    6.2042   -9.5500    0.0000 C   0  0  0  0  0  0           0  0  0
    8.6042   -6.5792    0.0000 O   0  0  0  0  0  0           0  0  0
    4.5667   -9.7000    0.0000 O   0  0  0  0  0  0           0  0  0
    9.8417   -5.8667    0.0000 O   0  0  0  0  0  0           0  0  0
   11.0792   -3.7250    0.0000 C   0  0  0  0  0  0           0  0  0
    0.8667   -3.3667    0.0000 C   0  0  0  0  0  0           0  0  0
    9.8417   -7.2917    0.0000 N   0  0  0  0  0  0           0  0  0
    1.0542   -4.1667    0.0000 C   0  0  0  0  0  0           0  0  0
    6.8917   -8.0500    0.0000 C   0  0  0  0  0  0           0  0  0
    7.0292   -9.4750    0.0000 C   0  0  0  0  0  0           0  0  0
    7.2375   -0.5667    0.0000 C   0  0  0  0  0  0           0  0  0
   10.6667   -4.4375    0.0000 C   0  0  0  0  0  0           0  0  0
    1.8417   -4.4042    0.0000 C   0  0  0  0  0  0           0  0  0
   10.6667   -5.8667    0.0000 C   0  0  0  0  0  0           0  0  0
    6.0542   -3.1375    0.0000 C   0  0  0  0  0  0           0  0  0
   11.0792   -5.1500    0.0000 C   0  0  0  0  0  0           0  0  0
    4.7750   -7.5292    0.0000 N   0  0  0  0  0  0           0  0  0
    2.0250   -5.2125    0.0000 C   0  0  0  0  0  0           0  0  0
    6.0542   -1.4792    0.0000 C   0  0  0  0  0  0           0  0  0
    4.4292   -8.2792    0.0000 C   0  0  0  0  0  0           0  0  0
    8.1917   -8.7292    0.0000 C   0  0  0  0  0  0           0  0  0
    8.6042   -8.0125    0.0000 C   0  0  0  0  0  0           0  0  0
    3.7917   -6.4875    0.0000 C   0  0  0  0  0  0           0  0  0
    2.8167   -5.4500    0.0000 O   0  0  0  0  0  0           0  0  0
   -0.1083   -2.3250    0.0000 C   0  0  0  0  0  0           0  0  0
   -0.5208   -3.6917    0.0000 C   0  0  0  0  0  0           0  0  0
    0.6375   -5.5417    0.0000 C   0  0  0  0  0  0           0  0  0
   12.3167   -4.4292    0.0000 C   0  0  0  0  0  0           0  0  0
    9.4292   -8.0125    0.0000 C   0  0  0  0  0  0           0  0  0
    3.9792   -7.2917    0.0000 C   0  0  0  0  0  0           0  0  0
   11.9000   -3.7167    0.0000 C   0  0  0  0  0  0           0  0  0
    0.4500   -4.7375    0.0000 C   0  0  0  0  0  0           0  0  0
    6.4542   -4.2917    0.0000 C   0  0  0  0  0  0           0  0  0
    7.8500   -4.6042    0.0000 C   0  0  0  0  0  0           0  0  0
    3.0042   -6.2500    0.0000 C   0  0  0  0  0  0           0  0  0
   11.9042   -5.1500    0.0000 C   0  0  0  0  0  0           0  0  0
    1.4292   -5.7792    0.0000 C   0  0  0  0  0  0           0  0  0
    5.3417   -2.7250    0.0000 C   0  0  0  0  0  0           0  0  0
    5.3417   -1.8917    0.0000 C   0  0  0  0  0  0           0  0  0
   -1.3083   -3.4542    0.0000 C   0  0  0  0  0  0           0  0  0
   -0.8958   -2.0875    0.0000 C   0  0  0  0  0  0           0  0  0
    6.2750   -5.0917    0.0000 C   0  0  0  0  0  0           0  0  0
    7.6667   -5.4042    0.0000 C   0  0  0  0  0  0           0  0  0
    6.8792   -5.6542    0.0000 C   0  0  0  0  0  0           0  0  0
   -1.5000   -2.6542    0.0000 C   0  0  0  0  0  0           0  0  0
  2  1  1  0     0  0
  3  4  1  0     0  0
  4  2  1  0     0  0
  5  1  2  0     0  0
  6  5  1  0     0  0
  2  7  1  6     0  0
  8  6  1  0     0  0
  9  7  1  0     0  0
 10 20  1  0     0  0
 11 10  1  0     0  0
 12 23  1  0     0  0
 13  9  1  0     0  0
 14 40  1  0     0  0
 15 25  1  0     0  0
 16  4  2  0     0  0
 17  5  1  0     0  0
 18  9  2  0     0  0
 19 28  1  0     0  0
 20 29  1  0     0  0
 21 12  2  0     0  0
 22 11  2  0     0  0
 23 33  1  0     0  0
 24 13  1  0     0  0
 25 27  1  0     0  0
 26 12  1  0     0  0
 27 32  2  0     0  0
 28 14  1  0     0  0
 29 14  1  0     0  0
 30  3  1  0     0  0
 31 24  2  0     0  0
 32 37  1  0     0  0
 33 35  1  0     0  0
 34  6  2  0     0  0
 35 31  1  0     0  0
 36 39  1  0     0  0
 37 43  1  0     0  0
 38  8  2  0     0  0
 39 11  1  0     0  0
 40 41  1  0     0  0
 41 48  1  0     0  0
 42 49  1  0     0  0
 43 54  1  0     0  0
 44 15  1  0     0  0
 45 15  1  0     0  0
 46 56  1  0     0  0
 47 50  2  0     0  0
 48 26  1  0     0  0
 49 36  1  0     0  0
 50 24  1  0     0  0
 51 46  2  0     0  0
 52 17  2  0     0  0
 53 17  1  0     0  0
 54 42  1  0     0  0
 55 47  1  0     0  0
 56 37  2  0     0  0
 57 34  1  0     0  0
 58 57  2  0     0  0
 59 45  1  0     0  0
 60 44  1  0     0  0
 61 52  1  0     0  0
 62 53  2  0     0  0
 63 62  1  0     0  0
 64 59  1  0     0  0
  8  3  1  0     0  0
 61 63  2  0     0  0
 38 58  1  0     0  0
 35 55  2  0     0  0
 19 10  1  0     0  0
 51 27  1  0     0  0
 60 64  1  0     0  0
M  END