
          11280715012D 1   1.00000     0.00000     0

 31 33  0     0  0            999 V2000
    4.1000   -1.9792    0.0000 C   0  0  3  0  0  0           0  0  0
    9.2042   -5.7042    0.0000 N   0  0  0  0  0  0           0  0  0
    5.5292   -4.4542    0.0000 C   0  0  0  0  0  0           0  0  0
    3.3792   -2.3917    0.0000 C   0  0  0  0  0  0           0  0  0
    2.6625   -3.6292    0.0000 C   0  0  0  0  0  0           0  0  0
    3.3792   -3.2167    0.0000 C   0  0  0  0  0  0           0  0  0
   10.4292   -5.1542    0.0000 N   0  0  0  0  0  0           0  0  0
   10.0167   -5.8750    0.0000 C   0  0  0  0  0  0           0  0  0
    9.1167   -4.8750    0.0000 C   0  0  0  0  0  0           0  0  0
    5.5292   -3.6292    0.0000 N   0  0  0  0  0  0           0  0  0
    2.6625   -4.4542    0.0000 C   0  0  3  0  0  0           0  0  0
    1.9417   -5.6917    0.0000 N   0  0  0  0  0  0           0  0  0
    9.8792   -4.5375    0.0000 C   0  0  0  0  0  0           0  0  0
    1.9417   -4.8750    0.0000 C   0  0  0  0  0  0           0  0  0
    4.8125   -4.8750    0.0000 N   0  0  0  0  0  0           0  0  0
    4.7500   -1.6000    0.0000 F   0  0  0  0  0  0           0  0  0
    4.9042   -2.2792    0.0000 F   0  0  0  0  0  0           0  0  0
    4.2375   -1.1250    0.0000 F   0  0  0  0  0  0           0  0  0
    6.2500   -4.8750    0.0000 N   0  0  0  0  0  0           0  0  0
    4.0917   -4.4542    0.0000 C   0  0  0  0  0  0           0  0  0
    1.9417   -3.2167    0.0000 C   0  0  0  0  0  0           0  0  0
    2.6667   -1.9667    0.0000 C   0  0  0  0  0  0           0  0  0
    3.3792   -4.8750    0.0000 C   0  0  0  0  0  0           0  0  0
    1.9417   -2.3917    0.0000 C   0  0  0  0  0  0           0  0  0
    8.4000   -4.4542    0.0000 C   0  0  0  0  0  0           0  0  0
    1.2292   -6.1125    0.0000 C   0  0  0  0  0  0           0  0  0
    1.2250   -4.4542    0.0000 C   0  0  0  0  0  0           0  0  0
    6.9667   -4.4542    0.0000 C   0  0  0  0  0  0           0  0  0
    7.6875   -4.8750    0.0000 C   0  0  0  0  0  0           0  0  0
    0.5042   -5.7000    0.0000 C   0  0  0  0  0  0           0  0  0
    0.5042   -4.8667    0.0000 C   0  0  0  0  0  0           0  0  0
  2  9  1  0     0  0
  3 15  1  0     0  0
  4  1  1  0     0  0
  5  6  2  0     0  0
  6  4  1  0     0  0
  7 13  1  0     0  0
  8  2  2  0     0  0
  9 25  1  0     0  0
 10  3  2  0     0  0
 11  5  1  0     0  0
 12 14  1  0     0  0
 13  9  2  0     0  0
 14 11  1  0     0  0
 15 20  1  0     0  0
 16  1  1  0     0  0
 17  1  1  0     0  0
 18  1  1  0     0  0
 19  3  1  0     0  0
 20 23  1  0     0  0
 21 24  2  0     0  0
 22  4  2  0     0  0
 23 11  1  0     0  0
 24 22  1  0     0  0
 25 29  1  0     0  0
 26 12  2  0     0  0
 27 14  2  0     0  0
 28 19  1  0     0  0
 29 28  1  0     0  0
 30 31  2  0     0  0
 31 27  1  0     0  0
  5 21  1  0     0  0
 30 26  1  0     0  0
  8  7  1  0     0  0
M  END