
  SciTegic04091414152D

 10 10  0  0  0  0            999 V2000
    7.8961   -2.3750    0.0000 C   0  0
    7.8961   -3.2001    0.0000 C   0  0
    8.6081   -3.6085    0.0000 C   0  0
    9.3202   -3.2001    0.0000 C   0  0
    9.3202   -2.3750    0.0000 C   0  0
    8.6081   -1.9584    0.0000 N   0  0
   10.0359   -1.9647    0.0000 O   0  0
    7.1804   -1.9647    0.0000 O   0  0
    7.1822   -3.6136    0.0000 C   0  0
    6.4715   -4.0266    0.0000 N   0  0
  1  2  1  0
  1  6  1  0
  2  3  2  0
  3  4  1  0
  4  5  2  0
  5  6  1  0
  5  7  1  0
  1  8  2  0
  2  9  1  0
  9 10  3  0
M  END