
  SciTegic04151115542D

 29 30  0  0  0  0            999 V2000
   12.4319    0.4875    0.0000 C   0  0
   12.4307   -0.3398    0.0000 C   0  0
   13.1456   -0.7527    0.0000 C   0  0
   13.8620   -0.3394    0.0000 C   0  0
   13.8591    0.4912    0.0000 C   0  0
   13.1438    0.9003    0.0000 C   0  0
   11.7173    0.8999    0.0000 O   0  0
   11.7171    1.7249    0.0000 C   0  0
   11.7159   -0.7518    0.0000 S   0  0
   11.0018   -0.3387    0.0000 N   0  0
   11.2958   -1.4625    0.0000 O   0  0
   12.2958   -1.3333    0.0000 O   0  0
   14.5771   -0.7507    0.0000 C   0  0
   15.2909   -0.3371    0.0000 C   0  0  2  0  0  0
   16.0061   -0.7485    0.0000 N   0  0
   15.2896    0.4879    0.0000 C   0  0
   16.7199   -0.3349    0.0000 C   0  0
   17.4350   -0.7462    0.0000 C   0  0
   18.1488   -0.3326    0.0000 O   0  0
   18.8639   -0.7440    0.0000 C   0  0
   18.8610   -1.5678    0.0000 C   0  0
   19.5753   -1.9791    0.0000 C   0  0
   20.2901   -1.5654    0.0000 C   0  0
   20.2861   -0.7361    0.0000 C   0  0
   19.5713   -0.3285    0.0000 C   0  0
   18.1460   -1.9794    0.0000 O   0  0
   18.1451   -2.8044    0.0000 C   0  0
   17.4301   -3.2160    0.0000 C   0  0
   18.8590   -3.2178    0.0000 C   0  0
  1  7  1  0
 14 15  1  0
  3  4  2  0
 14 16  1  1
  7  8  1  0
 15 17  1  0
 17 18  1  0
  2  9  1  0
 18 19  1  0
  4  5  1  0
 19 20  1  0
  9 10  1  0
 20 21  2  0
  2  3  1  0
 21 22  1  0
  9 11  2  0
 22 23  2  0
  5  6  2  0
 23 24  1  0
  9 12  2  0
 24 25  2  0
 25 20  1  0
  6  1  1  0
 21 26  1  0
  4 13  1  0
 26 27  1  0
  1  2  2  0
 27 28  1  0
 13 14  1  0
 27 29  1  0
M  END