
  Mrv0541 04051115152D          

 12 13  0  0  0  0            999 V2000
    1.0115    0.8178    0.0000 C   0  0  0  0  0  0  0  0  0  0  0  0
   -1.1319    0.4053    0.0000 C   0  0  0  0  0  0  0  0  0  0  0  0
    1.0115   -0.8322    0.0000 C   0  0  0  0  0  0  0  0  0  0  0  0
   -1.1319   -0.4197    0.0000 C   0  0  0  0  0  0  0  0  0  0  0  0
    1.7260    0.4053    0.0000 C   0  0  0  0  0  0  0  0  0  0  0  0
   -0.4175   -0.8322    0.0000 N   0  0  0  0  0  0  0  0  0  0  0  0
    0.2970    0.4053    0.0000 C   0  0  0  0  0  0  0  0  0  0  0  0
    0.2970   -0.4197    0.0000 C   0  0  0  0  0  0  0  0  0  0  0  0
   -0.4175    0.8178    0.0000 C   0  0  0  0  0  0  0  0  0  0  0  0
    1.7260   -0.4197    0.0000 C   0  0  0  0  0  0  0  0  0  0  0  0
   -1.8464    0.8178    0.0000 O   0  0  0  0  0  0  0  0  0  0  0  0
   -1.8464   -0.8322    0.0000 O   0  0  0  0  0  0  0  0  0  0  0  0
  1  5  2  0  0  0  0
  7  1  1  0  0  0  0
  2  4  1  0  0  0  0
  9  2  2  0  0  0  0
  2 11  1  0  0  0  0
  8  3  1  0  0  0  0
 10  3  2  0  0  0  0
  4  6  1  0  0  0  0
  4 12  2  0  0  0  0
 10  5  1  0  0  0  0
  8  6  1  0  0  0  0
  7  8  2  0  0  0  0
  7  9  1  0  0  0  0
M  END