
          11280715182D 1   1.00000     0.00000     0

 25 27  0     0  0            999 V2000
    4.0500   -7.1875    0.0000 N   0  0  3  0  0  0           0  0  0
    8.1667   -5.7750    0.0000 C   0  0  0  0  0  0           0  0  0
    3.2250   -7.1875    0.0000 C   0  0  0  0  0  0           0  0  0
    5.6875   -7.1917    0.0000 N   0  0  3  0  0  0           0  0  0
    4.4542   -7.9000    0.0000 C   0  0  0  0  0  0           0  0  0
    4.4542   -6.4750    0.0000 C   0  0  0  0  0  0           0  0  0
    7.7542   -5.0542    0.0000 O   0  0  0  0  0  0           0  0  0
    2.8125   -6.4750    0.0000 C   0  0  0  0  0  0           0  0  0
   10.6417   -5.7875    0.0000 N   0  0  0  0  0  0           0  0  0
    8.9917   -5.7792    0.0000 C   0  0  0  0  0  0           0  0  0
    7.7542   -6.4875    0.0000 N   0  0  0  0  0  0           0  0  0
    5.2750   -7.9000    0.0000 C   0  0  0  0  0  0           0  0  0
    5.2792   -6.4792    0.0000 C   0  0  0  0  0  0           0  0  0
    6.9292   -6.4792    0.0000 C   0  0  0  0  0  0           0  0  0
    3.2250   -5.7542    0.0000 O   0  0  0  0  0  0           0  0  0
    6.5125   -7.1917    0.0000 C   0  0  0  0  0  0           0  0  0
    2.8125   -7.8917    0.0000 C   0  0  0  0  0  0           0  0  0
   10.2250   -6.5000    0.0000 C   0  0  0  0  0  0           0  0  0
   10.2292   -5.0667    0.0000 C   0  0  0  0  0  0           0  0  0
    9.4000   -6.4917    0.0000 C   0  0  0  0  0  0           0  0  0
    9.4042   -5.0667    0.0000 C   0  0  0  0  0  0           0  0  0
    2.0000   -6.4750    0.0000 C   0  0  0  0  0  0           0  0  0
    2.8125   -5.0417    0.0000 C   0  0  0  0  0  0           0  0  0
    1.9917   -7.8917    0.0000 C   0  0  0  0  0  0           0  0  0
    1.5917   -7.1792    0.0000 C   0  0  0  0  0  0           0  0  0
  2 11  1  0     0  0
  3  1  1  0     0  0
  4 13  1  0     0  0
  5  1  1  0     0  0
  6  1  1  0     0  0
  7  2  2  0     0  0
  8  3  1  0     0  0
  9 19  1  0     0  0
 10  2  1  0     0  0
 11 14  1  0     0  0
 12  5  1  0     0  0
 13  6  1  0     0  0
 14 16  1  0     0  0
 15  8  1  0     0  0
 16  4  1  0     0  0
 17  3  2  0     0  0
 18 20  1  0     0  0
 19 21  2  0     0  0
 20 10  2  0     0  0
 21 10  1  0     0  0
 22  8  2  0     0  0
 23 15  1  0     0  0
 24 17  1  0     0  0
 25 24  2  0     0  0
 12  4  1  0     0  0
 22 25  1  0     0  0
 18  9  2  0     0  0
M  END