
  SciTegic09261415472D

  6  6  0  0  0  0            999 V2000
   13.6707   -5.5055    0.0000 N   0  0
   13.9221   -6.2899    0.0000 N   0  0
   13.2564   -6.7719    0.0000 C   0  0
   12.5906   -6.2899    0.0000 C   0  0
   12.8463   -5.5055    0.0000 C   0  0
   13.2564   -7.6000    0.0000 C   0  0
  1  2  1  0
  2  3  2  0
  3  4  1  0
  4  5  2  0
  1  5  1  0
  3  6  1  0
M  END