
          11280715092D 1   1.00000     0.00000     0

 37 40  0     1  0            999 V2000
    4.2917   -2.4792    0.0000 N   0  0  3  0  0  0           0  0  0
    4.2917   -3.3042    0.0000 C   0  0  1  0  0  0           0  0  0
    5.0125   -3.7167    0.0000 C   0  0  0  0  0  0           0  0  0
    4.9542   -1.9917    0.0000 C   0  0  0  0  0  0           0  0  0
    7.1417   -1.9375    0.0000 C   0  0  0  0  0  0           0  0  0
    6.3542   -1.6792    0.0000 N   0  0  0  0  0  0           0  0  0
    5.0167   -4.5417    0.0000 N   0  0  0  0  0  0           0  0  0
    3.6250   -1.9917    0.0000 C   0  0  0  0  0  0           0  0  0
    7.7500   -1.3792    0.0000 C   0  0  3  0  0  0           0  0  0
    3.8792   -1.2042    0.0000 C   0  0  0  0  0  0           0  0  0
    5.7417   -2.2417    0.0000 C   0  0  0  0  0  0           0  0  0
    4.7042   -1.2042    0.0000 C   0  0  0  0  0  0           0  0  0
    5.6375   -3.5750    0.0000 O   0  0  0  0  0  0           0  0  0
    7.3167   -2.7417    0.0000 O   0  0  0  0  0  0           0  0  0
    7.5750   -0.5750    0.0000 C   0  0  0  0  0  0           0  0  0
    8.5375   -1.6292    0.0000 C   0  0  3  0  0  0           0  0  0
    5.7292   -4.9500    0.0000 C   0  0  0  0  0  0           0  0  0
    3.5792   -3.7167    0.0000 C   0  0  0  0  0  0           0  0  0
    5.7292   -5.7750    0.0000 C   0  0  0  0  0  0           0  0  0
    5.7292   -7.4292    0.0000 C   0  0  0  0  0  0           0  0  0
    2.8667   -3.3042    0.0000 N   0  0  0  0  0  0           0  0  0
    5.0167   -8.6667    0.0000 N   0  0  0  0  0  0           0  0  0
    6.4500   -6.1875    0.0000 C   0  0  0  0  0  0           0  0  0
    5.0167   -6.1875    0.0000 C   0  0  0  0  0  0           0  0  0
    5.0167   -7.0167    0.0000 C   0  0  0  0  0  0           0  0  0
    6.4500   -7.0167    0.0000 C   0  0  0  0  0  0           0  0  0
    5.7292   -8.2542    0.0000 C   0  0  0  0  0  0           0  0  0
    8.1875   -0.0167    0.0000 C   0  0  0  0  0  0           0  0  0
    6.7917   -0.3292    0.0000 C   0  0  0  0  0  0           0  0  0
    9.1417   -1.0667    0.0000 C   0  0  0  0  0  0           0  0  0
    8.7042   -2.4292    0.0000 C   0  0  0  0  0  0           0  0  0
    6.6125    0.4750    0.0000 C   0  0  0  0  0  0           0  0  0
    8.0125    0.7833    0.0000 C   0  0  0  0  0  0           0  0  0
    9.4917   -2.6875    0.0000 C   0  0  0  0  0  0           0  0  0
    9.9292   -1.3250    0.0000 C   0  0  0  0  0  0           0  0  0
   10.1042   -2.1292    0.0000 C   0  0  0  0  0  0           0  0  0
    7.2250    1.0375    0.0000 C   0  0  0  0  0  0           0  0  0
  2  1  1  0     0  0
  3  2  1  0     0  0
  4  1  1  0     0  0
  5  6  1  0     0  0
  6 11  1  0     0  0
  7  3  1  0     0  0
  8  1  1  0     0  0
  9  5  1  0     0  0
 10  8  2  0     0  0
 11  4  1  0     0  0
 12  4  2  0     0  0
 13  3  2  0     0  0
 14  5  2  0     0  0
 15  9  1  0     0  0
 16  9  1  0     0  0
 17  7  1  0     0  0
  2 18  1  1     0  0
 19 17  1  0     0  0
 20 25  1  0     0  0
 21 18  1  0     0  0
 22 27  1  0     0  0
 23 19  2  0     0  0
 24 19  1  0     0  0
 25 24  2  0     0  0
 26 23  1  0     0  0
 27 20  1  0     0  0
 28 15  2  0     0  0
 29 15  1  0     0  0
 30 16  1  0     0  0
 31 16  1  0     0  0
 32 29  2  0     0  0
 33 28  1  0     0  0
 34 31  1  0     0  0
 35 30  1  0     0  0
 36 34  1  0     0  0
 37 32  1  0     0  0
 10 12  1  0     0  0
 26 20  2  0     0  0
 36 35  1  0     0  0
 37 33  2  0     0  0
M  END