
  SciTegic12231509382D

 30 33  0  0  0  0            999 V2000
   -2.2020   -0.7795    0.0000 O   0  0
   -0.7731   -1.6045    0.0000 O   0  0
    2.7993   -0.3670    0.0000 O   0  0
    4.2282    0.4580    0.0000 O   0  0
   -3.4594    1.6774    0.0000 N   0  0
    0.6559   -0.7795    0.0000 N   0  0
   -2.9165    0.4580    0.0000 C   0  0
   -2.3034    1.0100    0.0000 C   0  0
   -3.6310    0.8705    0.0000 C   0  0
   -2.6390    1.7637    0.0000 C   0  0
   -2.9165   -0.3670    0.0000 C   0  0
   -1.4829    0.9238    0.0000 C   0  0
   -4.3454    0.4580    0.0000 C   0  0
   -2.1540    2.4311    0.0000 C   0  0
   -3.6310   -0.7795    0.0000 C   0  0
   -4.3454   -0.3670    0.0000 C   0  0
   -0.9980    1.5912    0.0000 C   0  0
   -1.3336    2.3449    0.0000 C   0  0
   -1.4876   -0.3670    0.0000 C   0  0
   -0.7731   -0.7795    0.0000 C   0  0
    3.5137   -0.7795    0.0000 C   0  0
   -0.0586   -0.3670    0.0000 C   0  0
    4.2282   -0.3670    0.0000 C   0  0
    3.5137   -1.6045    0.0000 C   0  0
    4.9427   -0.7795    0.0000 C   0  0
    4.2282   -2.0170    0.0000 C   0  0
    4.9427   -1.6045    0.0000 C   0  0
    2.0848   -0.7795    0.0000 C   0  0
    1.3703   -0.3670    0.0000 C   0  0
    4.9427    0.8705    0.0000 C   0  0
  1 11  1  0
  1 19  1  0
  2 20  1  0
  3 21  1  0
  3 28  1  0
  4 23  1  0
  4 30  1  0
  5  9  1  0
  5 10  1  0
  6 22  1  0
  6 29  1  0
  7  8  1  0
  7  9  2  0
  7 11  1  0
  8 10  2  0
  8 12  1  0
  9 13  1  0
 10 14  1  0
 11 15  2  0
 12 17  2  0
 13 16  2  0
 14 18  2  0
 15 16  1  0
 17 18  1  0
 19 20  1  0
 20 22  1  0
 21 23  2  0
 21 24  1  0
 23 25  1  0
 24 26  2  0
 25 27  2  0
 26 27  1  0
 28 29  1  0
M  END