
  SciTegic01111613442D

 25 27  0  0  1  0            999 V2000
    4.4028    0.2427    0.0000 N   0  0
    2.9467    0.5893    0.0000 C   0  0  1  0  0  0
    4.0387   -1.2480    0.0000 C   0  0
    2.5654   -0.9014    0.0000 C   0  0  1  0  0  0
    5.1654    1.5080    0.0000 C   0  0  2  0  0  0
    2.8254    2.0454    0.0000 S   0  0
    4.1948    2.6347    0.0000 C   0  0
    1.2905   -1.6806    0.0000 N   0  0
    1.3272   -3.1809    0.0000 C   0  0
    6.6590    1.6292    0.0000 C   0  0
    0.0467   -3.9637    0.0000 C   0  0  1  0  0  0
    4.6661   -2.2710    0.0000 O   0  0
    2.3809   -3.7550    0.0000 O   0  0
    7.3417    0.6422    0.0000 O   0  0
    0.0833   -5.4641    0.0000 C   0  0
   -1.0071   -3.3896    0.0000 N   0  0
    7.1727    2.7136    0.0000 O   0  0
    5.3472    2.9691    0.0000 C   0  0
    3.3052    3.4401    0.0000 C   0  0
   -1.1954   -6.2483    0.0000 C   0  0
    1.4018   -6.1795    0.0000 C   0  0
   -1.1556   -7.7478    0.0000 C   0  0
    1.4415   -7.6790    0.0000 C   0  0
    0.1628   -8.4631    0.0000 C   0  0
    1.9502    0.6729    0.0000 H   0  0
  2  1  1  0
  3  1  1  0
  4  3  1  0
  5  1  1  0
  6  2  1  0
  7  5  1  0
  4  8  1  1
  9  8  1  0
  5 10  1  6
 11  9  1  0
 12  3  2  0
 13  9  2  0
 14 10  2  0
 15 11  1  0
 11 16  1  1
 17 10  1  0
 18  7  1  0
 19  7  1  0
 20 15  2  0
 21 15  1  0
 22 20  1  0
 23 21  2  0
 24 23  1  0
  2 25  1  6
  6  7  1  0
  2  4  1  0
 22 24  2  0
M  END