
          08180812492D 1   1.00000     0.00000     0

 45 48  0     1  0            999 V2000
   -1.8980   -2.3324    0.0000 C   0  0  2  0  0  0           0  0  0
   -1.8968   -3.1580    0.0000 N   0  0  0  0  0  0           0  0  0
   -1.1831   -1.9164    0.0000 C   0  0  0  0  0  0           0  0  0
   -0.4669   -2.3302    0.0000 O   0  0  0  0  0  0           0  0  0
   -1.1844   -1.0907    0.0000 N   0  0  3  0  0  0           0  0  0
   -0.4701   -0.6843    0.0000 C   0  0  2  0  0  0           0  0  0
   -1.9029   -0.6875    0.0000 C   0  0  0  0  0  0           0  0  0
   -0.4712    0.1366    0.0000 C   0  0  0  0  0  0           0  0  0
   -1.9005    0.1407    0.0000 C   0  0  0  0  0  0           0  0  0
   -1.1852    0.5532    0.0000 C   0  0  0  0  0  0           0  0  0
   -1.1844    1.3756    0.0000 C   0  0  0  0  0  0           0  0  0
   -1.8980    1.7864    0.0000 C   0  0  0  0  0  0           0  0  0
   -2.6141    1.3729    0.0000 C   0  0  0  0  0  0           0  0  0
   -2.6115    0.5519    0.0000 C   0  0  0  0  0  0           0  0  0
    0.2409   -1.0958    0.0000 C   0  0  0  0  0  0           0  0  0
    0.2399   -1.9214    0.0000 O   0  0  0  0  0  0           0  0  0
    0.9569   -0.6859    0.0000 N   0  0  0  0  0  0           0  0  0
    1.6719   -1.0975    0.0000 C   0  0  0  0  0  0           0  0  0
    2.3880   -0.6875    0.0000 C   0  0  0  0  0  0           0  0  0
    3.1031   -1.0991    0.0000 C   0  0  0  0  0  0           0  0  0
    3.8191   -0.6892    0.0000 C   0  0  0  0  0  0           0  0  0
   -2.6143   -1.9187    0.0000 C   0  0  0  0  0  0           0  0  0
   -3.3292   -2.3346    0.0000 C   0  0  0  0  0  0           0  0  0
   -4.0433   -1.9209    0.0000 C   0  0  0  0  0  0           0  0  0
   -4.7578   -2.3363    0.0000 C   0  0  0  0  0  0           0  0  0
   -4.7569   -3.1628    0.0000 C   0  0  0  0  0  0           0  0  0
   -4.0357   -3.5723    0.0000 C   0  0  0  0  0  0           0  0  0
   -3.3241   -3.1587    0.0000 C   0  0  0  0  0  0           0  0  0
   -5.4712   -3.5755    0.0000 O   0  0  0  0  0  0           0  0  0
   -4.0439   -1.0953    0.0000 C   0  0  0  0  0  0           0  0  0
   -2.6062   -3.5653    0.0000 C   0  0  0  0  0  0           0  0  0
    4.5290   -1.1026    0.0000 C   0  0  1  0  0  0           0  0  0
    4.5261   -1.9240    0.0000 C   0  0  0  0  0  0           0  0  0
    5.2420   -0.6944    0.0000 N   0  0  0  0  0  0           0  0  0
    5.2450    0.1271    0.0000 C   0  0  0  0  0  0           0  0  0
    5.9579    0.5352    0.0000 C   0  0  0  0  0  0           0  0  0
    4.5350    0.5404    0.0000 O   0  0  0  0  0  0           0  0  0
    6.6673    0.1188    0.0000 C   0  0  0  0  0  0           0  0  0
    7.3797    0.5262    0.0000 C   0  0  0  0  0  0           0  0  0
    7.3831    1.3486    0.0000 C   0  0  0  0  0  0           0  0  0
    6.6683    1.7617    0.0000 C   0  0  0  0  0  0           0  0  0
    5.9587    1.3520    0.0000 C   0  0  0  0  0  0           0  0  0
    8.0955    1.7577    0.0000 F   0  0  0  0  0  0           0  0  0
    3.8138   -2.3354    0.0000 O   0  0  0  0  0  0           0  0  0
    5.2366   -2.3405    0.0000 O   0  0  0  0  0  0           0  0  0
  1 22  1  1     0  0
 10 11  1  0     0  0
 22 23  1  0     0  0
  1  3  1  0     0  0
 23 24  2  0     0  0
 11 12  2  0     0  0
 24 25  1  0     0  0
  1  2  1  0     0  0
 25 26  2  0     0  0
 12 13  1  0     0  0
 26 27  1  0     0  0
  5  7  1  0     0  0
 27 28  2  0     0  0
 28 23  1  0     0  0
 13 14  2  0     0  0
 26 29  1  0     0  0
 14  9  1  0     0  0
 24 30  1  0     0  0
  6  8  1  0     0  0
 28 31  1  0     0  0
  6 15  1  6     0  0
 32 21  1  6     0  0
  9  7  1  0     0  0
 32 33  1  0     0  0
 15 16  2  0     0  0
 32 34  1  0     0  0
  3  4  2  0     0  0
 34 35  1  0     0  0
 15 17  1  0     0  0
 35 36  1  0     0  0
 10  8  1  0     0  0
 35 37  2  0     0  0
 17 18  1  0     0  0
 36 38  2  0     0  0
 38 39  1  0     0  0
 18 19  1  0     0  0
 39 40  2  0     0  0
  3  5  1  0     0  0
 40 41  1  0     0  0
 19 20  1  0     0  0
 41 42  2  0     0  0
 42 36  1  0     0  0
  9 10  2  0     0  0
 40 43  1  0     0  0
 21 20  1  0     0  0
  5  6  1  0     0  0
 33 44  1  0     0  0
 33 45  2  0     0  0
M  END