
  CDK    6/4/10,11:41

 27 28  0  0  0  0  0  0  0  0999 V2000
   -2.6541   -5.5014    0.0000 C   0  0  0  0  0  0  0  0  0  0  0  0
   -2.6553   -6.3296    0.0000 C   0  0  0  0  0  0  0  0  0  0  0  0
   -1.9398   -6.7429    0.0000 C   0  0  0  0  0  0  0  0  0  0  0  0
   -1.2225   -6.3291    0.0000 C   0  0  0  0  0  0  0  0  0  0  0  0
   -1.2254   -5.4978    0.0000 C   0  0  0  0  0  0  0  0  0  0  0  0
   -1.9416   -5.0882    0.0000 C   0  0  0  0  0  0  0  0  0  0  0  0
   -0.5118   -5.0822    0.0000 N   0  0  0  0  0  0  0  0  0  0  0  0
   -3.3708   -6.7420    0.0000 S   0  0  0  0  0  0  0  0  0  0  0  0
   -4.0917   -7.1490    0.0000 N   0  0  0  0  0  0  0  0  0  0  0  0
   -2.9616   -7.4593    0.0000 O   0  0  0  0  0  0  0  0  0  0  0  0
   -3.7782   -6.0236    0.0000 O   0  0  0  0  0  0  0  0  0  0  0  0
   -4.0996   -7.9747    0.0000 C   0  0  0  0  0  0  0  0  0  0  0  0
   -4.7693   -8.4571    0.0000 N   0  0  0  0  0  0  0  0  0  0  0  0
   -4.5217   -9.2450    0.0000 N   0  0  0  0  0  0  0  0  0  0  0  0
   -3.6959   -9.2529    0.0000 C   0  0  0  0  0  0  0  0  0  0  0  0
   -3.4332   -8.4700    0.0000 S   0  0  0  0  0  0  0  0  0  0  0  0
    0.2049   -5.4924    0.0000 C   0  0  0  0  0  0  0  0  0  0  0  0
    0.2081   -6.3182    0.0000 O   0  0  0  0  0  0  0  0  0  0  0  0
    0.9176   -5.0760    0.0000 C   0  0  0  0  0  0  0  0  0  0  0  0
    1.6309   -5.4848    0.0000 C   0  0  0  0  0  0  0  0  0  0  0  0
    2.3441   -5.0719    0.0000 C   0  0  0  0  0  0  0  0  0  0  0  0
    3.0573   -5.4806    0.0000 C   0  0  0  0  0  0  0  0  0  0  0  0
    3.7705   -5.0677    0.0000 C   0  0  0  0  0  0  0  0  0  0  0  0
    4.4838   -5.4764    0.0000 C   0  0  0  0  0  0  0  0  0  0  0  0
    5.1970   -5.0634    0.0000 C   0  0  0  0  0  0  0  0  0  0  0  0
    5.9102   -5.4723    0.0000 C   0  0  0  0  0  0  0  0  0  0  0  0
    6.6234   -5.0593    0.0000 C   0  0  0  0  0  0  0  0  0  0  0  0
  1  2  2  0  0  0  0 
  5  7  1  0  0  0  0 
  3  4  2  0  0  0  0 
 13 14  1  0  0  0  0 
 14 15  2  0  0  0  0 
 15 16  1  0  0  0  0 
 16 12  1  0  0  0  0 
  2  8  1  0  0  0  0 
  7 17  1  0  0  0  0 
 17 18  2  0  0  0  0 
  8  9  1  0  0  0  0 
 17 19  1  0  0  0  0 
  4  5  1  0  0  0  0 
 19 20  1  0  0  0  0 
  8 10  2  0  0  0  0 
 20 21  1  0  0  0  0 
  2  3  1  0  0  0  0 
 21 22  1  0  0  0  0 
  8 11  2  0  0  0  0 
 22 23  1  0  0  0  0 
  5  6  2  0  0  0  0 
 23 24  1  0  0  0  0 
  9 12  1  0  0  0  0 
 24 25  1  0  0  0  0 
 12 13  2  0  0  0  0 
 25 26  1  0  0  0  0 
  6  1  1  0  0  0  0 
 26 27  1  0  0  0  0 
M  END