
  SciTegic01161211252D

 30 33  0  0  0  0            999 V2000
   -2.6560  -16.8034    0.0000 N   0  0
   -1.9945  -16.3103    0.0000 C   0  0
   -2.2590  -15.5286    0.0000 C   0  0
   -3.0842  -15.5387    0.0000 N   0  0
   -3.3294  -16.3259    0.0000 C   0  0
   -4.0436  -16.7317    0.0000 C   0  0
   -4.7545  -16.3111    0.0000 C   0  0
   -5.4719  -16.7165    0.0000 C   0  0
   -5.4797  -17.5422    0.0000 C   0  0
   -4.7641  -17.9608    0.0000 C   0  0
   -4.0495  -17.5531    0.0000 C   0  0
   -1.8550  -14.8091    0.0000 C   0  0
   -1.0302  -14.7991    0.0000 N   0  0
   -2.2760  -14.0998    0.0000 O   0  0
   -0.6265  -14.0798    0.0000 N   0  0
    0.2003  -14.0751    0.0000 C   0  0
    0.6042  -13.3618    0.0000 C   0  0
    0.1870  -12.6532    0.0000 C   0  0
   -0.6390  -12.6595    0.0000 C   0  0
   -1.0469  -13.3826    0.0000 C   0  0
   -2.6438  -17.6262    0.0000 C   0  0
   -3.3547  -18.0467    0.0000 C   0  0
   -3.3450  -18.8707    0.0000 C   0  0
   -2.6252  -19.2751    0.0000 C   0  0
   -1.9136  -18.8496    0.0000 C   0  0
   -1.9268  -18.0270    0.0000 C   0  0
   -6.2001  -17.9491    0.0000 Cl  0  0
   -2.6140  -20.0999    0.0000 Cl  0  0
   -4.7463  -15.4863    0.0000 Cl  0  0
   -1.2069  -16.5556    0.0000 I   0  0
  2  3  2  0
 13 15  1  0
 15 16  1  0
  7  8  1  0
  3  4  1  0
  8  9  2  0
  4  5  2  0
  9 10  1  0
 15 20  1  0
 16 17  1  0
 17 18  1  0
 18 19  1  0
 19 20  1  0
  5  1  1  0
 10 11  2  0
 21 22  2  0
 11  6  1  0
 22 23  1  0
  5  6  1  0
 23 24  2  0
  1  2  1  0
 24 25  1  0
  3 12  1  0
 25 26  2  0
 26 21  1  0
  1 21  1  0
  9 27  1  0
 12 13  1  0
 24 28  1  0
  6  7  2  0
  7 29  1  0
 12 14  2  0
  2 30  1  0
M  END