
          11280715122D 1   1.00000     0.00000     0

 31 34  0     0  0            999 V2000
    6.6667   -5.9000    0.0000 C   0  0  0  0  0  0           0  0  0
    6.1417   -7.1292    0.0000 N   0  0  0  0  0  0           0  0  0
    6.8500   -6.7042    0.0000 N   0  0  0  0  0  0           0  0  0
    5.5250   -6.5917    0.0000 N   0  0  0  0  0  0           0  0  0
    3.6625   -0.7375    0.0000 C   0  0  0  0  0  0           0  0  0
    5.8542   -5.8250    0.0000 N   0  0  0  0  0  0           0  0  0
    3.6625   -1.5667    0.0000 C   0  0  0  0  0  0           0  0  0
    7.2167   -5.2792    0.0000 C   0  0  0  0  0  0           0  0  0
    4.3792   -0.3167    0.0000 C   0  0  0  0  0  0           0  0  0
    4.3750   -1.9792    0.0000 N   0  0  3  0  0  0           0  0  0
    7.2167   -4.4542    0.0000 C   0  0  0  0  0  0           0  0  0
    6.5125   -4.0417    0.0000 C   0  0  0  0  0  0           0  0  0
    4.3667   -2.8042    0.0000 C   0  0  0  0  0  0           0  0  0
    4.3792    0.5125    0.0000 O   0  0  0  0  0  0           0  0  0
    2.2292   -1.5667    0.0000 N   0  0  0  0  0  0           0  0  0
    6.5042   -3.2125    0.0000 C   0  0  0  0  0  0           0  0  0
    5.7917   -4.4542    0.0000 C   0  0  0  0  0  0           0  0  0
    5.0875   -3.2167    0.0000 C   0  0  0  0  0  0           0  0  0
    5.1042   -0.7292    0.0000 O   0  0  0  0  0  0           0  0  0
    2.9417   -1.9792    0.0000 C   0  0  0  0  0  0           0  0  0
    2.9417   -0.3250    0.0000 C   0  0  0  0  0  0           0  0  0
    5.7917   -2.8000    0.0000 C   0  0  0  0  0  0           0  0  0
    5.0792   -4.0417    0.0000 C   0  0  0  0  0  0           0  0  0
    5.0792   -1.5667    0.0000 C   0  0  0  0  0  0           0  0  0
    7.9292   -5.6917    0.0000 C   0  0  0  0  0  0           0  0  0
    7.9292   -4.0417    0.0000 C   0  0  0  0  0  0           0  0  0
    2.2292   -0.7417    0.0000 C   0  0  0  0  0  0           0  0  0
    5.7917   -1.9792    0.0000 C   0  0  0  0  0  0           0  0  0
    8.6417   -4.4417    0.0000 C   0  0  0  0  0  0           0  0  0
    8.6500   -5.2792    0.0000 C   0  0  0  0  0  0           0  0  0
    6.5000   -1.5667    0.0000 C   0  0  0  0  0  0           0  0  0
  2  3  2  0     0  0
  3  1  1  0     0  0
  4  6  1  0     0  0
  5  7  1  0     0  0
  6  1  2  0     0  0
  7 10  1  0     0  0
  8  1  1  0     0  0
  9  5  1  0     0  0
 10 13  1  0     0  0
 11  8  2  0     0  0
 12 11  1  0     0  0
 13 18  1  0     0  0
 14  9  2  0     0  0
 15 20  1  0     0  0
 16 12  2  0     0  0
 17 12  1  0     0  0
 18 23  1  0     0  0
 19  9  1  0     0  0
 20  7  2  0     0  0
 21  5  2  0     0  0
 22 16  1  0     0  0
 23 17  2  0     0  0
 24 10  1  0     0  0
 25  8  1  0     0  0
 26 11  1  0     0  0
 27 15  2  0     0  0
 28 24  1  0     0  0
 29 30  1  0     0  0
 30 25  2  0     0  0
 31 28  1  0     0  0
  4  2  1  0     0  0
 29 26  2  0     0  0
 22 18  2  0     0  0
 21 27  1  0     0  0
M  END