
  SciTegic01061111512D

 48 51  0  0  0  0            999 V2000
   11.7958   -8.0667    0.0000 C   0  0  2  0  0  0
   11.7958   -8.8917    0.0000 C   0  0  1  0  0  0
   12.5079   -9.3000    0.0000 C   0  0  1  0  0  0
   13.2199   -8.8917    0.0000 C   0  0  2  0  0  0
   13.2199   -8.0667    0.0000 C   0  0  2  0  0  0
   12.5079   -7.6500    0.0000 O   0  0
   11.0802   -7.6563    0.0000 C   0  0
   11.0777   -6.8313    0.0000 O   0  0
   11.0820   -9.3052    0.0000 O   0  0
   12.5079  -10.1250    0.0000 N   0  0
   11.7934  -10.5375    0.0000 C   0  0
   11.7934  -11.3625    0.0000 C   0  0
   11.0789  -10.1250    0.0000 O   0  0
   11.0757  -11.7716    0.0000 C   0  0
   11.0754  -12.5959    0.0000 C   0  0
   11.7904  -13.0092    0.0000 C   0  0
   12.5072  -12.5923    0.0000 C   0  0
   12.5041  -11.7694    0.0000 C   0  0
   10.3607  -13.0080    0.0000 O   0  0
    9.6464  -12.5952    0.0000 C   0  0
   13.2232  -13.0023    0.0000 O   0  0
   13.9362  -12.5872    0.0000 C   0  0
   13.9337   -9.3052    0.0000 O   0  0
   13.9355   -7.6563    0.0000 S   0  0
   13.9380   -6.8313    0.0000 C   0  0  2  0  0  0
   14.6537   -6.4237    0.0000 O   0  0
   14.6581   -5.6023    0.0000 C   0  0  1  0  0  0
   13.9467   -5.1838    0.0000 C   0  0  1  0  0  0
   13.2292   -5.5930    0.0000 C   0  0  1  0  0  0
   13.2231   -6.4206    0.0000 C   0  0  1  0  0  0
   14.5208   -7.4125    0.0000 H   0  0
   15.3753   -5.1946    0.0000 C   0  0
   16.0870   -5.6119    0.0000 O   0  0
   13.9522   -4.3589    0.0000 O   0  0
   12.5173   -5.1760    0.0000 N   0  0
   12.5226   -4.3510    0.0000 C   0  0
   11.8107   -3.9340    0.0000 C   0  0
   13.2396   -3.9430    0.0000 O   0  0
   11.8211   -3.1086    0.0000 C   0  0
   11.1101   -2.6917    0.0000 C   0  0
   10.3921   -3.0997    0.0000 C   0  0
   10.3895   -3.9290    0.0000 C   0  0
   11.1011   -4.3422    0.0000 C   0  0
    9.6738   -4.3394    0.0000 O   0  0
   11.1158   -1.8667    0.0000 O   0  0
    8.9605   -3.9249    0.0000 C   0  0
   10.4041   -1.4493    0.0000 C   0  0
   12.5076   -6.8313    0.0000 O   0  0
  4  5  1  0
  5 24  1  6
 11 12  1  0
 24 25  1  0
 25 26  1  0
  5  6  1  0
 11 13  2  0
 12 14  2  0
  1  7  1  1
 25 30  1  0
 26 27  1  0
 27 28  1  0
 28 29  1  0
 29 30  1  0
 14 15  1  0
 25 31  1  6
  1  2  1  0
 27 32  1  1
 15 16  2  0
 32 33  1  0
  7  8  1  0
 28 34  1  1
 16 17  1  0
 29 35  1  1
  1  6  1  0
 35 36  1  0
 17 18  2  0
 36 37  1  0
 18 12  1  0
 36 38  2  0
  2  9  1  1
 37 39  2  0
 15 19  1  0
 39 40  1  0
  2  3  1  0
 40 41  2  0
 19 20  1  0
 41 42  1  0
  3 10  1  1
 42 43  2  0
 43 37  1  0
 17 21  1  0
 42 44  1  0
  3  4  1  0
 40 45  1  0
 21 22  1  0
 44 46  1  0
 10 11  1  0
 45 47  1  0
  4 23  1  6
 30 48  1  6
M  END