
  Mrv0541 05211314572D          

 38 41  0  0  0  0            999 V2000
    0.7810    0.1159    0.0000 C   0  0  0  0  0  0  0  0  0  0  0  0
   -0.0440    0.1159    0.0000 C   0  0  0  0  0  0  0  0  0  0  0  0
   -0.4565   -0.5986    0.0000 C   0  0  0  0  0  0  0  0  0  0  0  0
   -1.2815   -0.5986    0.0000 N   0  0  0  0  0  0  0  0  0  0  0  0
   -0.0440   -1.3131    0.0000 O   0  0  0  0  0  0  0  0  0  0  0  0
   -1.6940   -1.3131    0.0000 C   0  0  0  0  0  0  0  0  0  0  0  0
   -2.5190   -1.3131    0.0000 C   0  0  0  0  0  0  0  0  0  0  0  0
   -2.9315   -0.5986    0.0000 N   0  0  0  0  0  0  0  0  0  0  0  0
   -2.5190    0.1159    0.0000 C   0  0  0  0  0  0  0  0  0  0  0  0
   -1.6940    0.1159    0.0000 C   0  0  0  0  0  0  0  0  0  0  0  0
   -3.7565   -0.5986    0.0000 C   0  0  0  0  0  0  0  0  0  0  0  0
   -4.1690   -1.3131    0.0000 C   0  0  0  0  0  0  0  0  0  0  0  0
   -4.9940   -1.3131    0.0000 C   0  0  0  0  0  0  0  0  0  0  0  0
   -5.4065   -0.5986    0.0000 C   0  0  0  0  0  0  0  0  0  0  0  0
   -4.9940    0.1159    0.0000 C   0  0  0  0  0  0  0  0  0  0  0  0
   -4.1690    0.1159    0.0000 C   0  0  0  0  0  0  0  0  0  0  0  0
    1.1935    0.8303    0.0000 N   0  0  0  0  0  0  0  0  0  0  0  0
    0.7810    1.5448    0.0000 C   0  0  0  0  0  0  0  0  0  0  0  0
    2.0185    0.8303    0.0000 C   0  0  0  0  0  0  0  0  0  0  0  0
    2.4310    0.1159    0.0000 C   0  0  0  0  0  0  0  0  0  0  0  0
    3.2560    0.1159    0.0000 C   0  0  0  0  0  0  0  0  0  0  0  0
    4.5256    0.5284    0.0000 C   0  0  0  0  0  0  0  0  0  0  0  0
    3.7410    0.7833    0.0000 C   0  0  0  0  0  0  0  0  0  0  0  0
    3.5694    1.5903    0.0000 C   0  0  0  0  0  0  0  0  0  0  0  0
    4.1825    2.1423    0.0000 C   0  0  0  0  0  0  0  0  0  0  0  0
    4.9672    1.8874    0.0000 C   0  0  0  0  0  0  0  0  0  0  0  0
    5.1387    1.0804    0.0000 C   0  0  0  0  0  0  0  0  0  0  0  0
    3.7410   -0.5516    0.0000 C   0  0  0  0  0  0  0  0  0  0  0  0
    4.5256   -0.2966    0.0000 C   0  0  0  0  0  0  0  0  0  0  0  0
    5.1387   -0.8487    0.0000 C   0  0  0  0  0  0  0  0  0  0  0  0
    4.9672   -1.6556    0.0000 C   0  0  0  0  0  0  0  0  0  0  0  0
    4.1825   -1.9106    0.0000 C   0  0  0  0  0  0  0  0  0  0  0  0
    3.5694   -1.3586    0.0000 C   0  0  0  0  0  0  0  0  0  0  0  0
   -5.4065    0.8303    0.0000 C   0  0  0  0  0  0  0  0  0  0  0  0
   -5.8190    1.5448    0.0000 F   0  0  0  0  0  0  0  0  0  0  0  0
   -4.6920    1.2428    0.0000 F   0  0  0  0  0  0  0  0  0  0  0  0
   -6.1209    0.4178    0.0000 F   0  0  0  0  0  0  0  0  0  0  0  0
    7.3780    0.0000    0.0000 Cl  0  0  0  0  0  0  0  0  0  0  0  0
 17 18  1  0  0  0  0
  7  8  1  0  0  0  0
 17 19  1  0  0  0  0
  8  9  1  0  0  0  0
 19 20  1  0  0  0  0
  9 10  1  0  0  0  0
 20 21  1  0  0  0  0
 21 23  1  0  0  0  0
 22 29  1  0  0  0  0
 28 21  1  0  0  0  0
 22 23  2  0  0  0  0
  4  6  1  0  0  0  0
  8 11  1  0  0  0  0
  2  3  1  0  0  0  0
 11 12  2  0  0  0  0
  1  2  1  0  0  0  0
 12 13  1  0  0  0  0
 22 27  1  0  0  0  0
 23 24  1  0  0  0  0
 24 25  2  0  0  0  0
 25 26  1  0  0  0  0
 26 27  2  0  0  0  0
 28 29  2  0  0  0  0
  3  4  1  0  0  0  0
 13 14  2  0  0  0  0
 14 15  1  0  0  0  0
  3  5  2  0  0  0  0
 15 16  2  0  0  0  0
 28 33  1  0  0  0  0
 29 30  1  0  0  0  0
 30 31  2  0  0  0  0
 31 32  1  0  0  0  0
 32 33  2  0  0  0  0
 16 11  1  0  0  0  0
 15 34  1  0  0  0  0
  4 10  1  0  0  0  0
 34 35  1  0  0  0  0
  1 17  1  0  0  0  0
 34 36  1  0  0  0  0
  6  7  1  0  0  0  0
 34 37  1  0  0  0  0
M  END