
  SciTegic08171211382D

121111  0  0  0  0            999 V2000
    0.0000    0.0000    0.0000 Na  0  3
    1.0018    0.0000    0.0000 Na  0  3
    2.0036    0.0000    0.0000 Na  0  3
    3.0054    0.0000    0.0000 Na  0  3
    0.0000   -1.6500    0.0000 Na  0  3
    1.0018   -1.6500    0.0000 Na  0  3
    2.0036   -1.6500    0.0000 Na  0  3
    3.0054   -1.6500    0.0000 Na  0  3
    0.0000   -3.3000    0.0000 Na  0  3
    1.0018   -3.3000    0.0000 Na  0  3
    2.0036   -3.3000    0.0000 Na  0  3
    3.0054   -3.3000    0.0000 Na  0  3
    0.0000  -10.4331    0.0000 Na  0  3
   11.3029  -10.5934    0.0000 O   0  0
   11.0329  -11.3729    0.0000 C   0  0  2  0  0  0
   10.2228  -11.5288    0.0000 C   0  0  1  0  0  0
    9.6827  -10.9052    0.0000 O   0  0
    9.9527  -12.3084    0.0000 C   0  0  1  0  0  0
    9.1426  -12.4643    0.0000 O   0  0
   10.4928  -12.9320    0.0000 C   0  0  2  0  0  0
   10.2228  -13.7116    0.0000 O   0  0
   11.3029  -12.7761    0.0000 C   0  0  2  0  0  0
   11.5730  -11.9965    0.0000 O   0  0
   11.8430  -13.3997    0.0000 C   0  0
   12.6532  -13.2438    0.0000 O   0  0
   12.9232  -12.4643    0.0000 S   0  0
   12.1437  -12.1942    0.0000 O   0  0
   13.7028  -12.7343    0.0000 O   0  0
   13.1933  -11.6847    0.0000 O   0  5
   10.7629  -14.3352    0.0000 S   0  0
   11.3865  -13.7951    0.0000 O   0  0
   10.1392  -14.8753    0.0000 O   0  0
   11.3029  -14.9588    0.0000 O   0  5
    8.8725  -13.2438    0.0000 S   0  0
    9.6521  -13.5139    0.0000 O   0  0
    8.0930  -12.9738    0.0000 O   0  0
    8.6025  -14.0234    0.0000 O   0  5
    8.8725  -11.0611    0.0000 C   0  0  2  0  0  0
    8.3325  -10.4374    0.0000 C   0  0  1  0  0  0
    8.6025   -9.6579    0.0000 O   0  0
    7.5223  -10.5934    0.0000 C   0  0  1  0  0  0
    6.9822   -9.9697    0.0000 O   0  0
    7.2523  -11.3729    0.0000 C   0  0  2  0  0  0
    6.4421  -11.5288    0.0000 O   0  0
    7.7924  -11.9965    0.0000 C   0  0  2  0  0  0
    8.6025  -11.8406    0.0000 O   0  0
    7.5223  -12.7761    0.0000 C   0  0
    8.0624  -13.3997    0.0000 O   0  0
    7.7924  -14.1793    0.0000 S   0  0
    7.0128  -13.9092    0.0000 O   0  0
    7.5223  -14.9588    0.0000 O   0  0
    8.5719  -14.4493    0.0000 O   0  5
    6.1721  -12.3084    0.0000 S   0  0
    6.9516  -12.5784    0.0000 O   0  0
    5.3925  -12.0383    0.0000 O   0  0
    5.9021  -13.0879    0.0000 O   0  5
    9.4126   -9.5020    0.0000 S   0  0
    9.5685  -10.3121    0.0000 O   0  0
   10.2228   -9.3461    0.0000 O   0  0
    9.2567   -8.6918    0.0000 O   0  5
    6.1721  -10.1256    0.0000 C   0  0  2  0  0  0
    5.6320   -9.5020    0.0000 C   0  0  1  0  0  0
    5.9021   -8.7224    0.0000 O   0  0
    4.8219   -9.6579    0.0000 C   0  0  1  0  0  0
    4.2818   -9.0343    0.0000 O   0  0
    4.5518  -10.4374    0.0000 C   0  0  2  0  0  0
    3.7417  -10.5934    0.0000 O   0  0
    5.0919  -11.0611    0.0000 C   0  0  2  0  0  0
    5.9021  -10.9052    0.0000 O   0  0
    4.8219  -11.8406    0.0000 C   0  0
    5.3620  -12.4643    0.0000 O   0  0
    5.0919  -13.2438    0.0000 S   0  0
    4.8219  -14.0234    0.0000 O   0  0
    5.8715  -13.5139    0.0000 O   0  0
    4.3124  -12.9738    0.0000 O   0  5
    3.4717  -11.3729    0.0000 S   0  0
    4.2512  -11.6430    0.0000 O   0  0
    2.6921  -11.1029    0.0000 O   0  0
    3.2016  -12.1525    0.0000 O   0  5
    6.7122   -8.5665    0.0000 S   0  0
    6.8681   -9.3767    0.0000 O   0  0
    7.5223   -8.4106    0.0000 O   0  0
    6.5563   -7.7564    0.0000 O   0  5
    4.5518   -8.2547    0.0000 C   0  0  2  0  0  0
    4.0117   -7.6311    0.0000 C   0  0  1  0  0  0
    3.2016   -7.7870    0.0000 O   0  0
    4.2818   -6.8515    0.0000 C   0  0  1  0  0  0
    3.7417   -6.2279    0.0000 O   0  0
    5.0919   -6.6956    0.0000 C   0  0  2  0  0  0
    5.3620   -5.9160    0.0000 O   0  0
    5.6320   -7.3192    0.0000 C   0  0  2  0  0  0
    5.3620   -8.0988    0.0000 O   0  0
    6.4421   -7.1633    0.0000 C   0  0
    6.9822   -7.7870    0.0000 O   0  0
    7.7924   -7.6311    0.0000 S   0  0
    7.6365   -6.8209    0.0000 O   0  0
    7.9483   -8.4412    0.0000 O   0  0
    8.6025   -7.4751    0.0000 O   0  5
    6.1721   -5.7601    0.0000 S   0  0
    6.3280   -6.5703    0.0000 O   0  0
    6.0162   -4.9500    0.0000 O   0  0
    6.9822   -5.6042    0.0000 O   0  5
    2.9316   -6.3838    0.0000 S   0  0
    2.7757   -5.5736    0.0000 O   0  0
    3.0875   -7.1939    0.0000 O   0  0
    2.1214   -6.5397    0.0000 O   0  5
    2.9316   -8.5665    0.0000 S   0  0
    3.7111   -8.8366    0.0000 O   0  0
    2.6615   -9.3461    0.0000 O   0  0
    2.1520   -8.2965    0.0000 O   0  5
   10.7629   -9.9697    0.0000 C   0  0
   11.0329   -9.1902    0.0000 C   0  0
   11.8430   -9.0343    0.0000 C   0  0
   12.3831   -9.6579    0.0000 C   0  0
   13.1933   -9.5020    0.0000 C   0  0
   13.7333  -10.1256    0.0000 C   0  0
   14.5435   -9.9697    0.0000 C   0  0
   15.0836  -10.5934    0.0000 C   0  0
    3.7417   -8.4106    0.0000 H   0  0
    6.4421   -9.3461    0.0000 H   0  0
   10.4928  -10.7493    0.0000 H   0  0
 15 14  1  1
 15 16  1  0
 16 17  1  6
 16 18  1  0
 18 19  1  6
 18 20  1  0
 20 21  1  1
 20 22  1  0
 22 23  1  0
 22 24  1  6
 24 25  1  0
 15 23  1  0
 26 27  2  0
 26 28  2  0
 26 29  1  0
 25 26  1  0
 30 31  2  0
 30 32  2  0
 30 33  1  0
 21 30  1  0
 34 35  2  0
 34 36  2  0
 34 37  1  0
 19 34  1  0
 38 39  1  0
 39 40  1  6
 39 41  1  0
 41 42  1  6
 41 43  1  0
 43 44  1  1
 43 45  1  0
 45 46  1  0
 45 47  1  6
 47 48  1  0
 38 46  1  0
 49 50  2  0
 49 51  2  0
 49 52  1  0
 48 49  1  0
 53 54  2  0
 53 55  2  0
 53 56  1  0
 44 53  1  0
 57 58  2  0
 57 59  2  0
 57 60  1  0
 40 57  1  0
 61 62  1  0
 62 63  1  6
 62 64  1  0
 64 65  1  6
 64 66  1  0
 66 67  1  1
 66 68  1  0
 68 69  1  0
 68 70  1  6
 70 71  1  0
 61 69  1  0
 72 73  2  0
 72 74  2  0
 72 75  1  0
 71 72  1  0
 76 77  2  0
 76 78  2  0
 76 79  1  0
 67 76  1  0
 80 81  2  0
 80 82  2  0
 80 83  1  0
 63 80  1  0
 84 85  1  0
 85 86  1  1
 85 87  1  0
 87 88  1  1
 87 89  1  0
 89 90  1  6
 89 91  1  0
 91 92  1  0
 91 93  1  1
 93 94  1  0
 84 92  1  0
 95 96  2  0
 95 97  2  0
 95 98  1  0
 94 95  1  0
 99100  2  0
 99101  2  0
 99102  1  0
 90 99  1  0
103104  2  0
103105  2  0
103106  1  0
 88103  1  0
107108  2  0
107109  2  0
107110  1  0
 86107  1  0
 84 65  1  6
 42 61  1  0
 38 17  1  1
111112  1  0
112113  1  0
113114  1  0
114115  1  0
115116  1  0
116117  1  0
117118  1  0
 14111  1  0
 84119  1  1
 61120  1  6
 16121  1  1
M  CHG  8   1   1   2   1   3   1   4   1   5   1   6   1   7   1   8   1
M  CHG  8   9   1  10   1  11   1  12   1  13   1  29  -1  33  -1  37  -1
M  CHG  8  52  -1  56  -1  60  -1  75  -1  79  -1  83  -1  98  -1 102  -1
M  CHG  2 106  -1 110  -1
M  END