
  Mrv0541 04051115152D          

 11 12  0  0  0  0            999 V2000
    2.2299   -0.3045    0.0000 C   0  0  0  0  0  0  0  0  0  0  0  0
   -1.8975    0.1080    0.0000 C   0  0  0  0  0  0  0  0  0  0  0  0
    0.8010    0.5205    0.0000 C   0  0  0  0  0  0  0  0  0  0  0  0
   -1.4126   -0.5594    0.0000 C   0  0  0  0  0  0  0  0  0  0  0  0
    0.0865    0.9330    0.0000 C   0  0  0  0  0  0  0  0  0  0  0  0
    0.0865   -0.7170    0.0000 C   0  0  0  0  0  0  0  0  0  0  0  0
   -1.4126    0.7755    0.0000 N   0  0  0  0  0  0  0  0  0  0  0  0
    1.5155   -0.7170    0.0000 O   0  0  0  0  0  0  0  0  0  0  0  0
    0.8010   -0.3045    0.0000 C   0  0  0  0  0  0  0  0  0  0  0  0
   -0.6279   -0.3045    0.0000 C   0  0  0  0  0  0  0  0  0  0  0  0
   -0.6279    0.5205    0.0000 C   0  0  0  0  0  0  0  0  0  0  0  0
  1  8  1  0  0  0  0
  2  7  1  0  0  0  0
  2  4  2  0  0  0  0
  3  9  2  0  0  0  0
  3  5  1  0  0  0  0
  4 10  1  0  0  0  0
  5 11  2  0  0  0  0
  6  9  1  0  0  0  0
  6 10  2  0  0  0  0
 11  7  1  0  0  0  0
  9  8  1  0  0  0  0
 10 11  1  0  0  0  0
M  END