
  SciTegic12011114592D

 41 46  0  0  0  0            999 V2000
    6.5324  -20.7821    0.0000 N   0  0
    7.2479  -20.3722    0.0000 C   0  0
    7.2508  -19.5458    0.0000 N   0  0
    6.5321  -19.1312    0.0000 C   0  0
    6.5316  -18.3057    0.0000 N   0  0
    7.2466  -17.8924    0.0000 C   0  0
    7.9614  -20.7873    0.0000 S   0  0
    8.6777  -20.3771    0.0000 C   0  0
    9.3869  -20.7953    0.0000 C   0  0
   10.1027  -20.3857    0.0000 C   0  0
   10.1060  -19.5594    0.0000 C   0  0
    9.3875  -19.1444    0.0000 C   0  0
    8.6746  -19.5563    0.0000 C   0  0
   10.8217  -19.1482    0.0000 N   0  0
    8.0329  -18.1407    0.0000 C   0  0
    8.5121  -17.4686    0.0000 C   0  0
    8.0212  -16.8051    0.0000 N   0  0
    7.2383  -17.0670    0.0000 N   0  0
    9.3376  -17.4614    0.0000 C   0  0
    5.0448  -19.2921    0.0000 C   0  0
    4.5634  -19.9536    0.0000 C   0  0
    5.0439  -20.6157    0.0000 C   0  0
    5.8221  -20.3635    0.0000 N   0  0
    5.8227  -19.5453    0.0000 C   0  0
   11.5357  -19.5623    0.0000 C   0  0
   12.2514  -19.1511    0.0000 C   0  0
   12.9654  -19.5658    0.0000 N   0  0
   11.5340  -20.3878    0.0000 O   0  0
   12.9568  -20.3867    0.0000 C   0  0
   13.7391  -20.6502    0.0000 C   0  0  1  0  0  0
   14.2314  -19.9877    0.0000 C   0  0  2  0  0  0
   13.7535  -19.3148    0.0000 C   0  0
   15.0569  -19.9966    0.0000 O   0  0
   13.9858  -21.4375    0.0000 O   0  0
   14.8109  -21.4622    0.0000 C   0  0
   15.1995  -22.1892    0.0000 C   0  0
   16.0238  -22.2141    0.0000 C   0  0
   16.4586  -21.5114    0.0000 C   0  0
   16.0630  -20.7820    0.0000 C   0  0
   15.2399  -20.7606    0.0000 C   0  0
   14.7644  -22.8907    0.0000 F   0  0
 16 19  1  0
 23 24  1  0
  8  9  2  0
  4 24  1  0
 21 22  2  0
  9 10  1  0
  1  2  2  0
 10 11  2  0
 20 21  1  0
 22 23  1  0
 24 20  2  0
  4  5  1  0
 14 25  1  0
 11 12  1  0
 25 26  1  0
 23  1  1  0
 26 27  1  0
 12 13  2  0
 25 28  2  0
 27 29  1  0
 13  8  1  0
  5  6  1  0
 11 14  1  0
 17 18  1  0
 29 30  1  0
 30 31  1  0
 31 32  1  0
 32 27  1  0
  2  3  1  0
 31 33  1  6
 15 16  2  0
 30 34  1  1
  2  7  1  0
 34 35  1  0
 35 36  2  0
  7  8  1  0
 36 37  1  0
  6 15  1  0
 37 38  2  0
 16 17  1  0
 38 39  1  0
 18  6  2  0
 39 40  2  0
 40 35  1  0
  3  4  2  0
 36 41  1  0
M  END