
          11280714482D 1   1.00000     0.00000     0

 47 50  0     0  0            999 V2000
   10.6042    0.3500    0.0000 C   0  0  0  0  0  0           0  0  0
   11.0292   -0.3542    0.0000 C   0  0  0  0  0  0           0  0  0
    9.7792    0.3458    0.0000 C   0  0  0  0  0  0           0  0  0
   11.8542   -0.3417    0.0000 N   0  3  0  0  0  0           0  0  0
   10.8542    1.1458    0.0000 N   0  0  0  0  0  0           0  0  0
   10.6250   -1.0750    0.0000 C   0  0  0  0  0  0           0  0  0
    9.5167    1.1333    0.0000 N   0  0  0  0  0  0           0  0  0
   10.1792    1.6250    0.0000 O   0  0  0  0  0  0           0  0  0
    9.3792   -0.3667    0.0000 C   0  0  0  0  0  0           0  0  0
    9.8000   -1.0792    0.0000 C   0  0  0  0  0  0           0  0  0
   -0.5208   -3.3292    0.0000 N   0  0  3  0  0  0           0  0  0
   -1.3458   -3.3292    0.0000 C   0  0  0  0  0  0           0  0  0
   12.2792   -1.0500    0.0000 O   0  5  0  0  0  0           0  0  0
   12.2625    0.3833    0.0000 O   0  0  0  0  0  0           0  0  0
   -1.7625   -2.6167    0.0000 N   0  0  0  0  0  0           0  0  0
    4.8167    1.7000    0.0000 C   0  0  0  0  0  0           0  0  0
   -0.0958   -4.0417    0.0000 C   0  0  0  0  0  0           0  0  0
   -0.1083   -2.6125    0.0000 C   0  0  0  0  0  0           0  0  0
    4.4042    2.4125    0.0000 O   0  0  0  0  0  0           0  0  0
    8.5542   -0.3875    0.0000 N   0  0  0  0  0  0           0  0  0
    4.4042    0.9833    0.0000 N   0  0  0  0  0  0           0  0  0
   -0.5083   -4.7667    0.0000 C   0  0  0  0  0  0           0  0  0
   -0.1208   -1.1792    0.0000 N   0  0  3  0  0  0           0  0  0
   -0.5250   -1.8917    0.0000 C   0  0  0  0  0  0           0  0  0
   -1.3208   -6.2042    0.0000 C   0  0  0  0  0  0           0  0  0
   -1.3333   -4.7750    0.0000 C   0  0  0  0  0  0           0  0  0
   -0.0875   -5.4875    0.0000 C   0  0  0  0  0  0           0  0  0
   -1.7375   -5.4917    0.0000 C   0  0  0  0  0  0           0  0  0
   -0.5000   -6.2042    0.0000 C   0  0  0  0  0  0           0  0  0
   -1.7333   -6.9375    0.0000 O   0  0  0  0  0  0           0  0  0
   -1.7583   -4.0542    0.0000 C   0  0  0  0  0  0           0  0  0
    5.6417    1.7083    0.0000 C   0  0  0  0  0  0           0  0  0
   -2.5833   -2.6167    0.0000 C   0  0  0  0  0  0           0  0  0
    8.1292    0.3208    0.0000 C   0  0  0  0  0  0           0  0  0
    0.7042   -1.1792    0.0000 C   0  0  0  0  0  0           0  0  0
    3.5792    0.9833    0.0000 C   0  0  0  0  0  0           0  0  0
   -0.5375   -0.4667    0.0000 C   0  0  0  0  0  0           0  0  0
   -2.5625   -6.9500    0.0000 C   0  0  0  0  0  0           0  0  0
    6.0667    0.9958    0.0000 C   0  0  0  0  0  0           0  0  0
    1.1167   -0.4625    0.0000 C   0  0  0  0  0  0           0  0  0
    3.1750    0.2625    0.0000 C   0  0  0  0  0  0           0  0  0
    7.3125    0.3083    0.0000 C   0  0  0  0  0  0           0  0  0
    2.3500    0.2583    0.0000 C   0  0  0  0  0  0           0  0  0
    1.9417   -0.4542    0.0000 C   0  0  0  0  0  0           0  0  0
    6.8875    1.0125    0.0000 C   0  0  0  0  0  0           0  0  0
   -2.5833   -4.0542    0.0000 C   0  0  0  0  0  0           0  0  0
   -3.0000   -3.3417    0.0000 C   0  0  0  0  0  0           0  0  0
  2  1  1  0     0  0
  3  1  1  0     0  0
  4  2  1  0     0  0
  5  1  2  0     0  0
  6  2  2  0     0  0
  7  3  2  0     0  0
  8  5  1  0     0  0
  9  3  1  0     0  0
 10  9  2  0     0  0
 11 18  1  0     0  0
 12 11  1  0     0  0
 13  4  1  0     0  0
 14  4  2  0     0  0
 15 12  2  0     0  0
 16 32  1  0     0  0
 17 11  1  0     0  0
 18 24  1  0     0  0
 19 16  2  0     0  0
 20  9  1  0     0  0
 21 16  1  0     0  0
 22 17  1  0     0  0
 23 35  1  0     0  0
 24 23  1  0     0  0
 25 29  1  0     0  0
 26 22  2  0     0  0
 27 22  1  0     0  0
 28 26  1  0     0  0
 29 27  2  0     0  0
 30 25  1  0     0  0
 31 12  1  0     0  0
 32 39  1  0     0  0
 33 15  1  0     0  0
 34 20  1  0     0  0
 35 40  1  0     0  0
 36 21  1  0     0  0
 37 23  1  0     0  0
 38 30  1  0     0  0
 39 45  1  0     0  0
 40 44  1  0     0  0
 41 36  1  0     0  0
 42 34  1  0     0  0
 43 41  1  0     0  0
 44 43  1  0     0  0
 45 42  1  0     0  0
 46 31  2  0     0  0
 47 46  1  0     0  0
  8  7  1  0     0  0
 10  6  1  0     0  0
 28 25  2  0     0  0
 33 47  2  0     0  0
M  CHG  2   4   1  13  -1
M  END