
          11280714462D 1   1.00000     0.00000     0

 33 37  0     0  0            999 V2000
    6.4667   -0.5000    0.0000 C   0  0  0  0  0  0           0  0  0
    5.2417    0.2333    0.0000 N   0  0  3  0  0  0           0  0  0
    6.8875    0.2125    0.0000 C   0  0  0  0  0  0           0  0  0
    5.6417   -0.4917    0.0000 C   0  0  0  0  0  0           0  0  0
    6.4792    0.9333    0.0000 N   0  0  0  0  0  0           0  0  0
    5.6542    0.9375    0.0000 C   0  0  0  0  0  0           0  0  0
    7.0167   -1.1167    0.0000 C   0  0  0  0  0  0           0  0  0
    7.6917    0.0333    0.0000 S   0  0  0  0  0  0           0  0  0
    7.7750   -0.7917    0.0000 C   0  0  0  0  0  0           0  0  0
    1.5292   -0.4625    0.0000 N   0  0  3  0  0  0           0  0  0
    4.4167    0.2333    0.0000 C   0  0  0  0  0  0           0  0  0
    0.7042   -0.4625    0.0000 C   0  0  0  0  0  0           0  0  0
    3.1750   -0.4750    0.0000 N   0  0  3  0  0  0           0  0  0
    5.2292   -1.2042    0.0000 O   0  0  0  0  0  0           0  0  0
    5.2417    1.6583    0.0000 O   0  0  0  0  0  0           0  0  0
    6.8375   -1.9292    0.0000 C   0  0  0  0  0  0           0  0  0
    1.9375    0.2458    0.0000 C   0  0  0  0  0  0           0  0  0
    1.9375   -1.1792    0.0000 C   0  0  0  0  0  0           0  0  0
    0.2917    0.2500    0.0000 C   0  0  0  0  0  0           0  0  0
    4.0000   -0.4792    0.0000 C   0  0  0  0  0  0           0  0  0
    2.7667    0.2458    0.0000 C   0  0  0  0  0  0           0  0  0
    2.7542   -1.1875    0.0000 C   0  0  0  0  0  0           0  0  0
    0.7125    0.9625    0.0000 O   0  0  0  0  0  0           0  0  0
    0.2917   -1.1792    0.0000 C   0  0  0  0  0  0           0  0  0
    6.0417   -2.1667    0.0000 C   0  0  0  0  0  0           0  0  0
    7.4417   -2.4792    0.0000 C   0  0  0  0  0  0           0  0  0
   -0.5208    0.2500    0.0000 C   0  0  0  0  0  0           0  0  0
    1.5375    0.9583    0.0000 C   0  0  0  0  0  0           0  0  0
   -0.5333   -1.1750    0.0000 C   0  0  0  0  0  0           0  0  0
    5.8667   -2.9750    0.0000 C   0  0  0  0  0  0           0  0  0
    7.2667   -3.2792    0.0000 C   0  0  0  0  0  0           0  0  0
   -0.9375   -0.4542    0.0000 C   0  0  0  0  0  0           0  0  0
    6.4750   -3.5375    0.0000 C   0  0  0  0  0  0           0  0  0
  2  4  1  0     0  0
  3  1  2  0     0  0
  4  1  1  0     0  0
  5  3  1  0     0  0
  6  2  1  0     0  0
  7  1  1  0     0  0
  8  3  1  0     0  0
  9  7  2  0     0  0
 10 18  1  0     0  0
 11  2  1  0     0  0
 12 10  1  0     0  0
 13 20  1  0     0  0
 14  4  2  0     0  0
 15  6  2  0     0  0
 16  7  1  0     0  0
 17 21  1  0     0  0
 18 22  1  0     0  0
 19 12  2  0     0  0
 20 11  1  0     0  0
 21 13  1  0     0  0
 22 13  1  0     0  0
 23 19  1  0     0  0
 24 12  1  0     0  0
 25 16  2  0     0  0
 26 16  1  0     0  0
 27 19  1  0     0  0
 28 23  1  0     0  0
 29 24  2  0     0  0
 30 25  1  0     0  0
 31 26  2  0     0  0
 32 29  1  0     0  0
 33 31  1  0     0  0
  8  9  1  0     0  0
  6  5  1  0     0  0
 33 30  2  0     0  0
 10 17  1  0     0  0
 32 27  2  0     0  0
M  END