
  SciTegic04071410272D

 33 35  0  0  0  0            999 V2000
   18.0007   -6.5437    0.0000 C   0  0  1  0  0  0
   19.0857   -7.3539    0.0000 C   0  0  2  0  0  0
   18.5610   -6.9214    0.0000 C   0  0
   17.5752   -6.9214    0.0000 C   0  0  1  0  0  0
   17.4354   -6.0969    0.0000 N   0  3
   18.9431   -6.5254    0.0000 C   0  0
   17.0472   -7.6415    0.0000 C   0  0
   17.6792   -7.2605    0.0000 C   0  0
   19.4999   -8.0675    0.0000 C   0  0
   20.3250   -8.0656    0.0000 C   0  0
   20.7392   -8.7791    0.0000 C   0  0
   20.5350   -7.2631    0.0000 C   0  0
   20.7451   -6.4606    0.0000 N   0  0
   21.1184   -7.8464    0.0000 C   0  0
   20.3271   -9.4913    0.0000 C   0  0
   20.7406  -10.2043    0.0000 C   0  0
   21.5665  -10.2028    0.0000 C   0  0
   21.9772   -9.4823    0.0000 C   0  0
   21.5614   -8.7722    0.0000 C   0  0
   21.7037   -8.4268    0.0000 C   0  0
   22.4964   -8.2083    0.0000 C   0  0
   22.7042   -7.4109    0.0000 C   0  0
   22.1128   -6.8322    0.0000 C   0  0
   21.3222   -7.0537    0.0000 C   0  0
   16.6347   -5.8797    0.0000 C   0  0
   17.8432   -5.3796    0.0000 C   0  0
   17.4258   -4.6679    0.0000 C   0  0
   17.8335   -3.9506    0.0000 C   0  0
   18.6585   -3.9450    0.0000 C   0  0
   19.4804   -3.9361    0.0000 N   0  0
   18.6765   -6.0547    0.0000 Br  0  5
   16.7724   -6.7314    0.0000 H   0  0
   18.2639   -5.7618    0.0000 H   0  0
  1  6  1  0
 11 15  2  0
  6  2  1  0
 15 16  1  0
  4  7  1  0
 16 17  2  0
  1  8  1  0
 17 18  1  0
  7  8  1  0
 18 19  2  0
 19 11  1  0
 14 20  2  0
  2  9  1  6
 20 21  1  0
 21 22  2  0
  9 10  1  0
 22 23  1  0
  2  3  1  0
 23 24  2  0
 24 14  1  0
 10 11  1  0
  5 25  1  0
  3  4  1  0
  5 26  1  0
 10 12  1  0
 26 27  1  0
  4  5  1  0
 27 28  1  0
 12 13  3  0
 28 29  1  0
  5  1  1  0
 29 30  3  0
 10 14  1  0
  4 32  1  1
  1 33  1  6
M  CHG  2   5   1  31  -1
M  END