
  SciTegic06051313522D

176185  0  0  0  0            999 V2000
   30.1378  -15.7837    0.0000 C   0  0  2  0  0  0
   29.7511  -17.0613    0.0000 C   0  0
   30.5761  -17.0468    0.0000 C   0  0
   30.8184  -16.2559    0.0000 C   0  0
   29.4843  -16.2803    0.0000 N   0  0
   28.6968  -16.0412    0.0000 C   0  0
   28.5100  -15.2360    0.0000 O   0  0
   28.0919  -16.6033    0.0000 C   0  0  1  0  0  0
   27.3043  -16.3642    0.0000 N   0  0
   28.2788  -17.4085    0.0000 C   0  0
   26.7035  -16.9261    0.0000 C   0  0
   25.9119  -16.6872    0.0000 C   0  0  2  0  0  0
   26.8904  -17.7315    0.0000 O   0  0
   25.7250  -15.8820    0.0000 C   0  0
   25.3111  -17.2492    0.0000 N   0  0
   24.9374  -15.6430    0.0000 C   0  0
   24.7505  -14.8378    0.0000 C   0  0
   23.9587  -14.5987    0.0000 N   0  0
   23.7719  -13.7935    0.0000 C   0  0
   22.9843  -13.5544    0.0000 N   0  0
   24.3768  -13.2314    0.0000 N   0  0
   24.5193  -17.0102    0.0000 C   0  0
   23.9186  -17.5722    0.0000 C   0  0  1  0  0  0
   24.3325  -16.2049    0.0000 O   0  0
   23.1269  -17.3332    0.0000 N   0  0
   24.1056  -18.3773    0.0000 C   0  0
   22.5262  -17.8952    0.0000 C   0  0
   24.8718  -18.6652    0.0000 C   0  0
   25.0949  -19.4565    0.0000 N   0  0
   25.5613  -18.2138    0.0000 C   0  0
   26.2023  -18.7264    0.0000 C   0  0
   25.9108  -19.4897    0.0000 C   0  0
   26.4288  -20.1198    0.0000 C   0  0
   27.2339  -19.9884    0.0000 C   0  0
   27.5215  -19.2188    0.0000 C   0  0
   27.0008  -18.5895    0.0000 C   0  0
   21.7344  -17.6561    0.0000 C   0  0  2  0  0  0
   22.7130  -18.7004    0.0000 O   0  0
   21.5517  -16.8509    0.0000 C   0  0
   21.1338  -18.2182    0.0000 N   0  0
   20.7599  -16.6120    0.0000 C   0  0
   20.3420  -17.9791    0.0000 C   0  0
   19.7412  -18.5454    0.0000 C   0  0  1  0  0  0
   20.1593  -17.1781    0.0000 O   0  0
   20.5730  -15.8108    0.0000 C   0  0
   19.7856  -15.5677    0.0000 N   0  0
   19.5987  -14.7666    0.0000 C   0  0
   18.8069  -14.5235    0.0000 N   0  0
   20.1993  -14.2004    0.0000 N   0  0
   18.9494  -18.3021    0.0000 N   0  0
   19.9281  -19.3464    0.0000 C   0  0
   20.7157  -19.5854    0.0000 O   0  0
   18.3488  -18.8642    0.0000 C   0  0
   17.5612  -18.6251    0.0000 C   0  0
   18.5357  -19.6694    0.0000 O   0  0
   28.9466  -17.8863    0.0000 C   0  0
   28.8581  -18.7049    0.0000 C   0  0
   29.5247  -19.1868    0.0000 C   0  0
   30.2779  -18.8474    0.0000 C   0  0
   30.3545  -18.0275    0.0000 C   0  0
   29.6907  -17.5512    0.0000 C   0  0
    1.0238  -18.9571    0.0000 C   0  0
    1.0255  -19.7857    0.0000 C   0  0
    1.7384  -20.1989    0.0000 C   0  0
    1.7370  -18.5441    0.0000 C   0  0
    2.4490  -18.9558    0.0000 C   0  0
    2.4478  -19.7836    0.0000 C   0  0
    3.1641  -20.1937    0.0000 O   0  0
    3.1560  -18.5406    0.0000 C   0  0
    3.8797  -18.9494    0.0000 C   0  0
    3.8783  -19.7774    0.0000 C   0  0
    4.6018  -20.1858    0.0000 C   0  0
    5.3202  -19.7682    0.0000 C   0  0
    5.3127  -18.9355    0.0000 C   0  0
    0.3086  -20.1974    0.0000 O   0  0
    6.0364  -20.1770    0.0000 O   0  0
    3.1584  -17.7156    0.0000 C   0  0
    3.8692  -17.3060    0.0000 C   0  0
    3.8670  -16.4820    0.0000 C   0  0
    3.1495  -16.0698    0.0000 C   0  0
    2.4321  -16.4906    0.0000 C   0  0
    2.4416  -17.3167    0.0000 C   0  0
    3.1411  -15.2447    0.0000 C   0  0
    3.8544  -14.8291    0.0000 N   0  0
    2.4235  -14.8393    0.0000 O   0  0
    4.5883  -17.7166    0.0000 C   0  0
    4.5906  -18.5417    0.0000 C   0  0
    4.1704  -18.4239    0.0000 O   0  0
    5.3889  -17.5064    0.0000 O   0  0
    3.8501  -14.0042    0.0000 C   0  0
    4.5647  -13.5844    0.0000 C   0  0
    4.5604  -12.7593    0.0000 C   0  0
    5.2722  -12.3437    0.0000 C   0  0
    5.2681  -11.5188    0.0000 C   0  0  2  0  0  0
    5.9799  -11.1032    0.0000 N   0  0
    4.5481  -11.1092    0.0000 C   0  0
    4.5440  -10.2841    0.0000 N   0  0
    3.8334  -11.5288    0.0000 O   0  0
    6.6881  -10.6807    0.0000 C   0  0
    7.4060  -11.0866    0.0000 C   0  0
    6.6797   -9.8557    0.0000 O   0  0
    8.1156  -10.6675    0.0000 C   0  0
    8.8337  -11.0733    0.0000 C   0  0
    9.5475  -10.6542    0.0000 C   0  0
   10.2654  -11.0601    0.0000 C   0  0
   10.9751  -10.6410    0.0000 N   0  0
   11.6931  -11.0427    0.0000 C   0  0
   12.4028  -10.6236    0.0000 C   0  0
   11.7013  -11.8676    0.0000 O   0  0
   13.1207  -11.0294    0.0000 C   0  0
   13.8345  -10.6102    0.0000 C   0  0
   14.5484  -11.0162    0.0000 C   0  0
   15.2622  -10.5970    0.0000 C   0  0
   15.9801  -11.0028    0.0000 N   0  0
   16.6898  -10.5796    0.0000 C   0  0
   17.4078  -10.9896    0.0000 C   0  0  2  0  0  0
   16.6815   -9.7544    0.0000 O   0  0
   17.4160  -11.8147    0.0000 C   0  0
   18.1175  -10.5663    0.0000 N   0  0
   18.8395  -10.9722    0.0000 C   0  0
   19.5492  -10.5531    0.0000 C   0  0  1  0  0  0
   18.8479  -11.7971    0.0000 O   0  0
   16.7064  -12.2296    0.0000 C   0  0
   16.7147  -13.0588    0.0000 C   0  0
   16.0051  -13.4780    0.0000 N   0  0
   16.0133  -14.3030    0.0000 C   0  0
   15.3036  -14.7222    0.0000 N   0  0
   16.7313  -14.7090    0.0000 N   0  0
   20.2672  -10.9589    0.0000 N   0  0
   19.5410   -9.7280    0.0000 C   0  0
   20.2506   -9.3089    0.0000 C   0  0
   20.2423   -8.4838    0.0000 C   0  0
   20.9519   -8.0647    0.0000 N   0  0
   20.9435   -7.2396    0.0000 C   0  0
   21.6532   -6.8205    0.0000 N   0  0
   20.2257   -6.8337    0.0000 N   0  0
   20.9769  -10.5397    0.0000 C   0  0
   21.6948  -10.9457    0.0000 C   0  0
   20.9685   -9.7147    0.0000 O   0  0
   22.4045  -10.5265    0.0000 N   0  0
   23.1265  -10.9323    0.0000 C   0  0
   23.8362  -10.5091    0.0000 C   0  0  1  0  0  0
   23.1349  -11.7574    0.0000 O   0  0
   24.5542  -10.9149    0.0000 N   0  0
   23.8280   -9.6839    0.0000 C   0  0  1  0  0  0
   24.5376   -9.2648    0.0000 C   0  0
   23.1099   -9.2823    0.0000 O   0  0
   25.2639  -10.4958    0.0000 C   0  0
   25.2555   -9.6707    0.0000 O   0  0
   25.9818  -10.9017    0.0000 C   0  0
   26.6914  -10.4826    0.0000 N   0  0
   27.4137  -10.8884    0.0000 C   0  0
   28.1233  -10.4692    0.0000 C   0  0  1  0  0  0
   27.4219  -11.7134    0.0000 O   0  0
   28.8759  -10.7949    0.0000 N   0  0
   29.4197  -10.1783    0.0000 C   0  0
   29.0006   -9.4687    0.0000 C   0  0
   28.1972   -9.6451    0.0000 C   0  0
   29.0553  -11.6027    0.0000 C   0  0
   29.8393  -11.8491    0.0000 C   0  0  1  0  0  0
   30.0187  -12.6527    0.0000 N   0  0
   30.4482  -11.2917    0.0000 C   0  0
   31.2364  -11.5379    0.0000 C   0  0
   31.8453  -10.9806    0.0000 C   0  0
   32.6293  -11.2311    0.0000 N   0  0
   33.2381  -10.6737    0.0000 C   0  0
   34.0264  -10.9200    0.0000 N   0  0
   33.0589   -9.8658    0.0000 N   0  0
   30.8068  -12.9033    0.0000 C   0  0
   30.9862  -13.7069    0.0000 C   0  0  1  0  0  0
   31.4157  -12.3459    0.0000 O   0  0
   30.3774  -14.2643    0.0000 N   0  0
   31.7745  -13.9574    0.0000 C   0  0
   30.5568  -15.0722    0.0000 C   0  0
   31.3449  -15.3184    0.0000 O   0  0
   28.4465  -12.1601    0.0000 O   0  0
  2  3  1  0
  3  4  1  0
  1  4  1  0
  1  5  1  0
  5  2  1  0
  5  6  1  0
  6  7  2  0
  6  8  1  0
  8  9  1  0
  8 10  1  6
  9 11  1  0
 11 12  1  0
 11 13  2  0
 12 14  1  1
 12 15  1  0
 14 16  1  0
 16 17  1  0
 17 18  1  0
 18 19  1  0
 19 20  2  0
 19 21  1  0
 15 22  1  0
 22 23  1  0
 22 24  2  0
 23 25  1  0
 23 26  1  6
 25 27  1  0
 26 28  1  0
 28 29  1  0
 29 32  1  0
 31 30  1  0
 30 28  2  0
 31 32  2  0
 32 33  1  0
 33 34  2  0
 34 35  1  0
 35 36  2  0
 36 31  1  0
 27 37  1  0
 27 38  2  0
 37 39  1  1
 37 40  1  0
 39 41  1  0
 40 42  1  0
 42 43  1  0
 42 44  2  0
 41 45  1  0
 45 46  1  0
 46 47  1  0
 47 48  1  0
 47 49  2  0
 43 50  1  0
 43 51  1  6
 51 52  1  0
 50 53  1  0
 53 54  1  0
 53 55  2  0
 10 56  1  0
 56 57  2  0
 57 58  1  0
 58 59  2  0
 59 60  1  0
 60 61  2  0
 61 56  1  0
 62 63  2  0
 63 64  1  0
 64 67  2  0
 66 65  2  0
 65 62  1  0
 66 67  1  0
 67 68  1  0
 68 71  1  0
 70 69  1  0
 69 66  1  0
 70 71  1  0
 71 72  1  0
 72 73  2  0
 73 74  1  0
 74 87  2  0
 87 70  1  0
 63 75  1  0
 73 76  1  0
 69 77  1  0
 77 78  2  0
 78 79  1  0
 79 80  2  0
 80 81  1  0
 81 82  2  0
 82 77  1  0
 80 83  1  0
 83 84  1  0
 83 85  2  0
 78 86  1  0
 86 88  1  0
 69 88  1  0
 86 89  2  0
 84 90  1  0
 90 91  1  0
 91 92  1  0
 92 93  1  0
 94 93  1  1
 94 95  1  0
 94 96  1  0
 96 97  1  0
 96 98  2  0
 95 99  1  0
 99100  1  0
 99101  2  0
100102  1  0
102103  1  0
103104  1  0
104105  1  0
105106  1  0
106107  1  0
107108  1  0
107109  2  0
108110  1  0
110111  1  0
111112  1  0
112113  1  0
113114  1  0
114115  1  0
115116  1  0
115117  2  0
116118  1  1
116119  1  0
119120  1  0
120121  1  0
120122  2  0
118123  1  0
123124  1  0
124125  1  0
125126  1  0
126127  2  0
126128  1  0
121129  1  0
121130  1  6
130131  1  0
131132  1  0
132133  1  0
133134  1  0
134135  1  0
134136  2  0
129137  1  0
137138  1  0
137139  2  0
138140  1  0
140141  1  0
141142  1  0
141143  2  0
142144  1  6
142145  1  0
145146  1  0
145147  1  6
144148  1  0
148149  2  0
148150  1  0
150151  1  0
151152  1  0
153152  1  6
152154  2  0
153155  1  0
155156  1  0
156157  1  0
157158  1  0
153158  1  0
155159  1  0
159160  1  0
160161  1  0
160162  1  6
162163  1  0
163164  1  0
164165  1  0
165166  1  0
166167  1  0
166168  2  0
161169  1  0
169170  1  0
169171  2  0
170172  1  0
170173  1  6
172174  1  0
174175  2  0
159176  2  0
  1174  1  6
M  END