
          11280714522D 1   1.00000     0.00000     0

 30 33  0     0  0            999 V2000
    2.3792   -6.7542    0.0000 C   0  0  0  0  0  0           0  0  0
    3.0500   -6.2750    0.0000 N   0  0  0  0  0  0           0  0  0
    3.7250   -6.7542    0.0000 C   0  0  0  0  0  0           0  0  0
    2.1250   -6.0792    0.0000 C   0  0  3  0  0  0           0  0  0
    2.2750   -5.3917    0.0000 C   0  0  3  0  0  0           0  0  0
    0.8125   -6.1625    0.0000 C   0  0  3  0  0  0           0  0  0
    4.3875   -6.4792    0.0000 C   0  0  0  0  0  0           0  0  0
    1.1500   -6.9542    0.0000 O   0  0  0  0  0  0           0  0  0
    2.6375   -7.5417    0.0000 O   0  0  0  0  0  0           0  0  0
    1.4875   -5.6167    0.0000 C   0  0  3  0  0  0           0  0  0
    3.4625   -7.5417    0.0000 C   0  0  0  0  0  0           0  0  0
    2.7500   -5.8667    0.0000 C   0  0  0  0  0  0           0  0  0
    5.0375   -6.8875    0.0000 N   0  0  0  0  0  0           0  0  0
    3.2250   -5.3917    0.0000 C   0  0  0  0  0  0           0  0  0
    0.8917   -3.9167    0.0000 C   0  0  0  0  0  0           0  0  0
    0.5375   -5.6250    0.0000 C   0  0  0  0  0  0           0  0  0
    4.4750   -5.7292    0.0000 O   0  0  0  0  0  0           0  0  0
    1.0125   -5.1417    0.0000 C   0  0  0  0  0  0           0  0  0
    2.7875   -4.6875    0.0000 C   0  0  0  0  0  0           0  0  0
    0.0917   -4.1292    0.0000 O   0  0  0  0  0  0           0  0  0
    2.1917   -4.1000    0.0000 C   0  0  0  0  0  0           0  0  0
    1.4875   -4.5042    0.0000 C   0  0  0  0  0  0           0  0  0
    1.1125   -3.1167    0.0000 O   0  0  0  0  0  0           0  0  0
    5.8375   -6.6750    0.0000 C   0  0  3  0  0  0           0  0  0
    4.0500   -5.3667    0.0000 C   0  0  0  0  0  0           0  0  0
    3.1875   -3.9542    0.0000 C   0  0  0  0  0  0           0  0  0
    6.4167   -7.2542    0.0000 C   0  0  0  0  0  0           0  0  0
    6.0500   -5.8750    0.0000 C   0  0  0  0  0  0           0  0  0
    4.4500   -4.6417    0.0000 C   0  0  0  0  0  0           0  0  0
    4.0125   -3.9417    0.0000 C   0  0  0  0  0  0           0  0  0
  2  1  2  0     0  0
  3  2  1  0     0  0
  4  1  1  0     0  0
  5  4  1  0     0  0
  6  4  1  0     0  0
  7  3  1  0     0  0
  8  6  1  0     0  0
  9  1  1  0     0  0
 10  5  1  0     0  0
 11  9  1  0     0  0
 12  5  1  0     0  0
 13  7  1  0     0  0
 14 12  1  0     0  0
 15 22  1  0     0  0
 16  6  1  0     0  0
 17  7  2  0     0  0
 18 16  1  0     0  0
 19 14  2  0     0  0
 20 15  2  0     0  0
 21 19  1  0     0  0
 22 21  1  0     0  0
 23 15  1  0     0  0
 24 13  1  0     0  0
 25 14  1  0     0  0
 26 19  1  0     0  0
 27 24  1  0     0  0
 28 24  1  0     0  0
 29 25  2  0     0  0
 30 29  1  0     0  0
 11  3  2  0     0  0
 10  8  1  0     0  0
 10 18  1  0     0  0
 30 26  2  0     0  0
M  END