
  CDK    9/16/09,9:58

 36 39  0  0  0  0  0  0  0  0999 V2000
   10.8831   -7.2680    0.0000 C   0  0  0  0  0  0  0  0  0  0  0  0
   10.8902   -8.0930    0.0000 C   0  0  0  0  0  0  0  0  0  0  0  0
   11.6054   -8.4971    0.0000 C   0  0  0  0  0  0  0  0  0  0  0  0
   11.6124   -9.3221    0.0000 C   0  0  0  0  0  0  0  0  0  0  0  0
   10.9021   -9.7394    0.0000 C   0  0  0  0  0  0  0  0  0  0  0  0
   10.1848   -9.3318    0.0000 C   0  0  0  0  0  0  0  0  0  0  0  0
   10.1799   -8.5104    0.0000 C   0  0  0  0  0  0  0  0  0  0  0  0
   10.1679   -6.8640    0.0000 O   0  0  0  0  0  0  0  0  0  0  0  0
   11.5934   -6.8506    0.0000 N   0  0  0  0  0  0  0  0  0  0  0  0
   12.3107   -7.2582    0.0000 C   0  0  0  0  0  0  0  0  0  0  0  0
   13.8279   -5.7603    0.0000 S   0  0  0  0  0  0  0  0  0  0  0  0
   14.2792   -6.4487    0.0000 C   0  0  0  0  0  0  0  0  0  0  0  0
   13.7696   -7.0932    0.0000 N   0  0  0  0  0  0  0  0  0  0  0  0
   12.9970   -6.8034    0.0000 C   0  0  0  0  0  0  0  0  0  0  0  0
   13.0331   -5.9829    0.0000 C   0  0  0  0  0  0  0  0  0  0  0  0
   15.1053   -6.4863    0.0000 C   0  0  0  0  0  0  0  0  0  0  0  0
   15.6185   -5.8396    0.0000 C   0  0  0  0  0  0  0  0  0  0  0  0
   16.3911   -6.1295    0.0000 C   0  0  0  0  0  0  0  0  0  0  0  0
   16.3536   -6.9556    0.0000 C   0  0  0  0  0  0  0  0  0  0  0  0
   15.5603   -7.1725    0.0000 S   0  0  0  0  0  0  0  0  0  0  0  0
    9.4816  -10.5743    0.0000 C   0  0  0  0  0  0  0  0  0  0  0  0
    8.7713  -10.9917    0.0000 C   0  0  0  0  0  0  0  0  0  0  0  0
    8.7783  -11.8166    0.0000 C   0  0  0  0  0  0  0  0  0  0  0  0
   10.1989  -10.9819    0.0000 O   0  0  0  0  0  0  0  0  0  0  0  0
    9.4745   -9.7492    0.0000 N   0  0  0  0  0  0  0  0  0  0  0  0
    8.0540  -10.5841    0.0000 N   0  0  0  0  0  0  0  0  0  0  0  0
    8.0490   -9.7626    0.0000 C   0  0  0  0  0  0  0  0  0  0  0  0
   12.3157   -8.0797    0.0000 O   0  0  0  0  0  0  0  0  0  0  0  0
   13.0330   -8.4873    0.0000 C   0  0  0  0  0  0  0  0  0  0  0  0
   13.7433   -8.0699    0.0000 C   0  0  0  0  0  0  0  0  0  0  0  0
   14.4606   -8.4775    0.0000 C   0  0  0  0  0  0  0  0  0  0  0  0
   14.4676   -9.3025    0.0000 C   0  0  0  0  0  0  0  0  0  0  0  0
   13.7574   -9.7200    0.0000 C   0  0  0  0  0  0  0  0  0  0  0  0
   13.0400   -9.3123    0.0000 C   0  0  0  0  0  0  0  0  0  0  0  0
   15.1829   -9.7066    0.0000 O   0  0  0  0  0  0  0  0  0  0  0  0
   15.8931   -9.2892    0.0000 C   0  0  0  0  0  0  0  0  0  0  0  0
  1  2  1  0  0  0  0 
  2  3  1  0  0  0  0 
  3  4  2  0  0  0  0 
  4  5  1  0  0  0  0 
  5  6  2  0  0  0  0 
  6  7  1  0  0  0  0 
  2  7  2  0  0  0  0 
  1  8  2  0  0  0  0 
  1  9  1  0  0  0  0 
 11 12  1  0  0  0  0 
 12 13  2  0  0  0  0 
 13 14  1  0  0  0  0 
 14 15  2  0  0  0  0 
 11 15  1  0  0  0  0 
 16 17  2  0  0  0  0 
 17 18  1  0  0  0  0 
 18 19  2  0  0  0  0 
 19 20  1  0  0  0  0 
 16 20  1  0  0  0  0 
 12 16  1  0  0  0  0 
 10 14  1  0  0  0  0 
  9 10  1  0  0  0  0 
 21 22  1  0  0  0  0 
 22 23  1  6  0  0  0 
 21 24  2  0  0  0  0 
 21 25  1  0  0  0  0 
 26 27  1  0  0  0  0 
 22 26  1  0  0  0  0 
  6 25  1  0  0  0  0 
 29 30  1  0  0  0  0 
 30 31  2  0  0  0  0 
 31 32  1  0  0  0  0 
 32 33  2  0  0  0  0 
 33 34  1  0  0  0  0 
 29 34  2  0  0  0  0 
 28 29  1  0  0  0  0 
 35 36  1  0  0  0  0 
 32 35  1  0  0  0  0 
  3 28  1  0  0  0  0 
M  END