
  SciTegic04151115542D

 21 22  0  0  0  0            999 V2000
   -4.6431    1.7959    0.0000 C   0  0
   -4.6443    0.9685    0.0000 C   0  0
   -3.9294    0.5556    0.0000 C   0  0
   -3.2130    0.9690    0.0000 C   0  0
   -3.2159    1.7995    0.0000 C   0  0
   -3.9312    2.2086    0.0000 C   0  0
   -3.9296   -0.2694    0.0000 F   0  0
   -5.3590    0.5566    0.0000 Cl  0  0
   -2.5029    2.2147    0.0000 N   0  0
   -1.7869    1.8049    0.0000 C   0  0
   -1.0740    2.2201    0.0000 C   0  0
   -1.7838    0.9799    0.0000 O   0  0
   -0.3580    1.8103    0.0000 N   0  0
   -1.0771    3.0451    0.0000 O   0  0
    0.3549    2.2255    0.0000 C   0  0
    1.0669    1.8148    0.0000 C   0  0
    1.7776    2.2264    0.0000 N   0  0
    1.7788    3.0518    0.0000 C   0  0
    1.0629    3.4638    0.0000 C   0  0
    0.3459    3.0504    0.0000 C   0  0
    2.4921    1.8139    0.0000 C   0  0
  2  3  1  0
 10 11  1  0
  5  6  2  0
 10 12  2  0
  6  1  1  0
 11 13  1  0
  1  2  2  0
 11 14  2  0
  3  7  1  0
 13 15  1  0
 15 16  1  0
  3  4  2  0
  2  8  1  0
  5  9  1  0
  4  5  1  0
 15 20  1  0
 16 17  1  0
 17 18  1  0
 18 19  1  0
 19 20  1  0
  9 10  1  0
 17 21  1  0
M  END