
  SciTegic01161211252D

 24 26  0  0  0  0            999 V2000
   16.0167  -15.5958    0.0000 C   0  0
   16.0167  -16.4208    0.0000 C   0  0
   16.7287  -16.8292    0.0000 C   0  0
   17.4407  -16.4208    0.0000 C   0  0
   17.4407  -15.5958    0.0000 N   0  0
   16.7287  -15.1792    0.0000 C   0  0
   15.3010  -15.1854    0.0000 C   0  0
   15.2986  -14.3604    0.0000 O   0  0
   14.5877  -15.6000    0.0000 C   0  0
   13.8721  -15.1896    0.0000 C   0  0
   13.1588  -15.6042    0.0000 C   0  0
   12.4438  -15.1905    0.0000 C   0  0
   11.7311  -15.6044    0.0000 C   0  0
   11.7330  -16.4303    0.0000 C   0  0
   12.4537  -16.8405    0.0000 C   0  0
   13.1636  -16.4242    0.0000 C   0  0
   18.1546  -16.8344    0.0000 N   0  0
   18.1534  -17.6594    0.0000 C   0  0
   12.4399  -14.3672    0.0000 C   0  0
   12.4393  -13.5422    0.0000 N   0  0
   17.4890  -18.1420    0.0000 C   0  0
   17.7428  -18.9270    0.0000 C   0  0
   18.5678  -18.9282    0.0000 C   0  0
   18.8238  -18.1440    0.0000 C   0  0
 11 12  2  0
  5  6  2  0
 12 13  1  0
 13 14  2  0
  1  7  1  0
 14 15  1  0
  1  2  2  0
 15 16  2  0
 16 11  1  0
  7  8  2  0
  4 17  1  0
  1  6  1  0
 17 18  1  0
  7  9  1  0
  2  3  1  0
 19 20  3  0
 12 19  1  0
 18 21  1  0
  9 10  2  0
  3  4  2  0
 10 11  1  0
  4  5  1  0
 21 22  1  0
 22 23  1  0
 23 24  1  0
 24 18  1  0
M  END