
          11280715402D 1   1.00000     0.00000     0

 45 49  0     0  0            999 V2000
    9.6667    2.5708    0.0000 S   0  0  3  0  0  0           0  0  0
   10.3917    1.3333    0.0000 C   0  0  0  0  0  0           0  0  0
   14.0500   -2.5667    0.0000 S   0  0  3  0  0  0           0  0  0
   10.3917    2.1583    0.0000 N   0  0  0  0  0  0           0  0  0
   11.1125    0.9208    0.0000 C   0  0  0  0  0  0           0  0  0
    9.6792    0.9208    0.0000 N   0  0  0  0  0  0           0  0  0
   10.3917   -0.3167    0.0000 N   0  0  0  0  0  0           0  0  0
    9.6792    0.0958    0.0000 C   0  0  0  0  0  0           0  0  0
   11.1125    0.0958    0.0000 C   0  0  0  0  0  0           0  0  0
   14.8417   -2.3292    0.0000 C   0  0  0  0  0  0           0  0  0
   11.8250    1.3375    0.0000 O   0  0  0  0  0  0           0  0  0
    8.9667   -0.3167    0.0000 C   0  0  3  0  0  0           0  0  0
    8.9542    2.1583    0.0000 C   0  0  0  0  0  0           0  0  0
    8.1417   -0.3167    0.0000 C   0  0  0  0  0  0           0  0  0
    8.5542   -1.0292    0.0000 C   0  0  0  0  0  0           0  0  0
   15.4292   -2.9167    0.0000 S   0  0  0  0  0  0           0  0  0
   12.5417    0.9333    0.0000 C   0  0  0  0  0  0           0  0  0
   10.0792    3.2833    0.0000 O   0  0  0  0  0  0           0  0  0
    8.9542    2.9833    0.0000 O   0  0  0  0  0  0           0  0  0
   13.6167   -1.8542    0.0000 O   0  0  0  0  0  0           0  0  0
   14.4667   -3.2750    0.0000 O   0  0  0  0  0  0           0  0  0
   13.2625   -2.7917    0.0000 N   0  0  0  0  0  0           0  0  0
   15.2125   -1.5917    0.0000 C   0  0  0  0  0  0           0  0  0
    6.7917    0.9458    0.0000 C   0  0  3  0  0  0           0  0  0
    7.5125    1.3500    0.0000 C   0  0  0  0  0  0           0  0  0
   16.1667   -2.5375    0.0000 C   0  0  0  0  0  0           0  0  0
   13.2417    1.3458    0.0000 C   0  0  0  0  0  0           0  0  0
   16.0292   -1.7167    0.0000 C   0  0  0  0  0  0           0  0  0
    8.9417    1.3375    0.0000 C   0  0  0  0  0  0           0  0  0
    8.2417    2.5833    0.0000 C   0  0  0  0  0  0           0  0  0
    7.5167    2.1750    0.0000 C   0  0  0  0  0  0           0  0  0
    8.2292    0.9333    0.0000 C   0  0  0  0  0  0           0  0  0
   11.8292   -0.3167    0.0000 O   0  0  0  0  0  0           0  0  0
   13.2417    2.1708    0.0000 O   0  0  0  0  0  0           0  0  0
   12.5417   -1.5542    0.0000 C   0  0  0  0  0  0           0  0  0
   12.5417   -2.3792    0.0000 C   0  0  0  0  0  0           0  0  0
   12.5417    0.1083    0.0000 C   0  0  0  0  0  0           0  0  0
    6.0792    1.3583    0.0000 C   0  0  0  0  0  0           0  0  0
    6.7875    0.1208    0.0000 C   0  0  0  0  0  0           0  0  0
    6.5875    1.7458    0.0000 C   0  0  0  0  0  0           0  0  0
   11.8292   -1.1417    0.0000 C   0  0  0  0  0  0           0  0  0
   13.9625    0.9458    0.0000 C   0  0  0  0  0  0           0  0  0
   12.5250    2.5833    0.0000 C   0  0  0  0  0  0           0  0  0
   13.2542   -0.3042    0.0000 C   0  0  0  0  0  0           0  0  0
   13.9667    0.1125    0.0000 C   0  0  0  0  0  0           0  0  0
  2  4  1  0     0  0
  3 22  1  0     0  0
  4  1  1  0     0  0
  5  2  2  0     0  0
  6  2  1  0     0  0
  7  8  1  0     0  0
  8  6  2  0     0  0
  9  5  1  0     0  0
 10  3  1  0     0  0
 11  5  1  0     0  0
 12  8  1  0     0  0
 13  1  1  0     0  0
 14 12  1  0     0  0
 15 12  1  0     0  0
 16 10  1  0     0  0
 17 11  1  0     0  0
 18  1  2  0     0  0
 19  1  2  0     0  0
 20  3  2  0     0  0
 21  3  2  0     0  0
 22 36  1  0     0  0
 23 10  2  0     0  0
 24 25  1  0     0  0
 25 31  2  0     0  0
 26 16  1  0     0  0
 27 17  1  0     0  0
 28 23  1  0     0  0
 29 13  1  0     0  0
 30 13  2  0     0  0
 31 30  1  0     0  0
 32 29  2  0     0  0
 33  9  1  0     0  0
 34 27  1  0     0  0
 35 41  1  0     0  0
 36 35  1  0     0  0
 37 17  2  0     0  0
 38 24  1  0     0  0
 39 24  1  0     0  0
 40 24  1  0     0  0
 41 33  1  0     0  0
 42 27  2  0     0  0
 43 34  1  0     0  0
 44 37  1  0     0  0
 45 44  2  0     0  0
 25 32  1  0     0  0
  9  7  2  0     0  0
 14 15  1  0     0  0
 45 42  1  0     0  0
 28 26  2  0     0  0
M  END