
  CDK    9/16/09,10:4

 16 16  0  0  0  0  0  0  0  0999 V2000
   -3.7917  -20.0542    0.0000 C   0  0  0  0  0  0  0  0  0  0  0  0
   -3.0772  -19.6417    0.0000 C   0  0  0  0  0  0  0  0  0  0  0  0
   -2.3627  -20.0542    0.0000 C   0  0  0  0  0  0  0  0  0  0  0  0
   -1.6483  -19.6417    0.0000 C   0  0  0  0  0  0  0  0  0  0  0  0
   -0.9338  -20.0542    0.0000 N   0  0  0  0  0  0  0  0  0  0  0  0
   -0.2193  -19.6417    0.0000 C   0  0  0  0  0  0  0  0  0  0  0  0
    0.4952  -20.0542    0.0000 N   0  0  0  0  0  0  0  0  0  0  0  0
   -0.2193  -18.8167    0.0000 N   0  0  0  0  0  0  0  0  0  0  0  0
    1.2096  -19.6417    0.0000 C   0  0  0  0  0  0  0  0  0  0  0  0
    1.9241  -20.0542    0.0000 C   0  0  0  0  0  0  0  0  0  0  0  0
    1.2096  -18.8167    0.0000 O   0  0  0  0  0  0  0  0  0  0  0  0
   -4.5784  -19.8061    0.0000 N   0  0  0  0  0  0  0  0  0  0  0  0
   -5.0575  -20.4777    0.0000 C   0  0  0  0  0  0  0  0  0  0  0  0
   -4.5668  -21.1410    0.0000 N   0  0  0  0  0  0  0  0  0  0  0  0
   -3.7845  -20.8791    0.0000 C   0  0  0  0  0  0  0  0  0  0  0  0
    1.9241  -20.8792    0.0000 C   0  0  0  0  0  0  0  0  0  0  0  0
  7  9  1  0  0  0  0 
  4  5  1  0  0  0  0 
  9 10  1  0  0  0  0 
  2  3  1  0  0  0  0 
  9 11  2  0  0  0  0 
  1 12  1  0  0  0  0 
  5  6  1  0  0  0  0 
  1  2  1  0  0  0  0 
  6  7  2  0  0  0  0 
  3  4  1  0  0  0  0 
 12 13  2  0  0  0  0 
 13 14  1  0  0  0  0 
 14 15  1  0  0  0  0 
 15  1  2  0  0  0  0 
  6  8  1  0  0  0  0 
 10 16  1  0  0  0  0 
M  END