
  SciTegic11201309402D

 29 30  0  0  1  0            999 V2000
    1.7042   -0.7667    0.0000 N   0  0
    0.9917    0.4708    0.0000 N   0  0
    0.9917   -0.3542    0.0000 C   0  0
    7.4167   -1.7792    0.0000 P   0  0
    1.7042   -2.4792    0.0000 C   0  0  2  0  0  0
    2.4167   -0.3542    0.0000 C   0  0
    2.4167    0.4708    0.0000 C   0  0
    1.7042    0.8833    0.0000 C   0  0
    6.5917   -1.7792    0.0000 O   0  0
    8.2417   -1.7792    0.0000 O   0  0
    5.7667   -1.7792    0.0000 P   0  0
    9.0667   -1.7792    0.0000 P   0  0
    2.2292   -3.3042    0.0000 C   0  0
    3.2042   -3.3042    0.0000 C   0  0
    2.7125   -2.0625    0.0000 O   0  0
    3.7042   -2.5000    0.0000 C   0  0  1  0  0  0
    7.4125   -0.9542    0.0000 O   0  0
    0.2792   -0.7667    0.0000 O   0  0
    4.9417   -1.7792    0.0000 O   0  0
    5.7625   -0.9542    0.0000 O   0  0
    9.0625   -0.9542    0.0000 O   0  0
    7.4125   -2.6042    0.0000 O   0  0
    3.1292    0.8833    0.0000 F   0  0
    4.1167   -1.7792    0.0000 C   0  0
    1.7042    1.7083    0.0000 N   0  0
    1.7417   -4.1542    0.0000 F   0  0
    5.7625   -2.6042    0.0000 O   0  0
    9.0625   -2.6042    0.0000 O   0  0
    9.8917   -1.7792    0.0000 O   0  0
  2  3  1  0
  3  1  1  0
  4  9  1  0
  5  1  1  1
  6  1  1  0
  7  6  2  0
  8  7  1  0
  9 11  1  0
 10  4  1  0
 11 19  1  0
 12 10  1  0
  5 13  1  0
 14 13  2  0
 15  5  1  0
 16 15  1  0
 17  4  2  0
 18  3  2  0
 19 24  1  0
 20 11  2  0
 21 12  2  0
 22  4  1  0
 23  7  1  0
 16 24  1  1
 25  8  1  0
 26 13  1  0
 27 11  1  0
 28 12  1  0
 29 12  1  0
  8  2  2  0
 16 14  1  0
M  END