
  SciTegic11201309402D

125136  0  0  0  0            999 V2000
   30.6703  -16.4905    0.0000 C   0  0
   30.1587  -17.1377    0.0000 C   0  0
   30.8060  -17.6493    0.0000 C   0  0
   31.3175  -17.0020    0.0000 C   0  0
   27.2307  -13.8594    0.0000 C   0  0  1  0  0  0
   27.9041  -14.3360    0.0000 N   0  0
   28.5667  -13.8443    0.0000 C   0  0
   28.3017  -13.0604    0.0000 C   0  0
   27.4775  -13.0734    0.0000 C   0  0
   24.1902  -19.4581    0.0000 N   0  0
   24.9028  -19.0456    0.0000 C   0  0  2  0  0  0
   25.6154  -19.4540    0.0000 C   0  0
   26.3278  -19.0415    0.0000 N   0  0
   27.0404  -19.4498    0.0000 C   0  0  2  0  0  0
   27.7529  -19.0373    0.0000 C   0  0
   28.4654  -19.4456    0.0000 N   0  0
   24.9010  -18.2206    0.0000 C   0  0
   24.1856  -17.8097    0.0000 C   0  0
   24.1838  -16.9846    0.0000 C   0  0
   23.4684  -16.5736    0.0000 C   0  0
   23.4665  -15.7487    0.0000 C   0  0
   24.1801  -15.3346    0.0000 C   0  0
   24.1783  -14.5095    0.0000 C   0  0
   25.6172  -20.2790    0.0000 O   0  0
   27.0422  -20.2748    0.0000 C   0  0
   27.4487  -20.9832    0.0000 C   0  0
   27.7510  -18.2123    0.0000 O   0  0
   28.5584  -20.2616    0.0000 C   0  0
   29.3622  -20.4298    0.0000 C   0  0
   29.7706  -19.7172    0.0000 C   0  0
   29.2191  -19.1087    0.0000 C   0  0  1  0  0  0
   27.0356  -21.6890    0.0000 C   0  0
   27.4415  -22.3969    0.0000 C   0  0
   28.2591  -22.3994    0.0000 C   0  0
   28.6691  -21.6882    0.0000 C   0  0
   28.2609  -20.9832    0.0000 C   0  0
   29.7988  -18.5206    0.0000 C   0  0
   30.5972  -18.7284    0.0000 O   0  0
   29.5795  -17.7253    0.0000 N   0  0
   29.9394  -16.3423    0.0000 C   0  0
   30.5186  -15.7548    0.0000 O   0  0
   29.1410  -16.1346    0.0000 N   0  0
   28.9218  -15.3392    0.0000 C   0  0  2  0  0  0
   28.1233  -15.1313    0.0000 C   0  0
   29.5010  -14.7516    0.0000 C   0  0
   30.2994  -14.9594    0.0000 C   0  0
   30.8786  -14.3718    0.0000 C   0  0
   31.6769  -14.5796    0.0000 N   0  0
   32.2561  -13.9920    0.0000 C   0  0
   33.0545  -14.1999    0.0000 N   0  0
   32.0369  -13.1967    0.0000 N   0  0
   26.4489  -14.1230    0.0000 C   0  0
   26.2862  -14.9318    0.0000 O   0  0
   25.8297  -13.5777    0.0000 N   0  0
   27.5442  -15.7189    0.0000 O   0  0
   25.0278  -13.7871    0.0000 C   0  0
   27.0268  -23.1101    0.0000 F   0  0
   29.4941  -21.6874    0.0000 F   0  0
   23.4753  -19.0465    0.0000 C   0  0
   22.7612  -19.4599    0.0000 C   0  0  1  0  0  0
   23.4743  -18.2215    0.0000 O   0  0
   22.0462  -19.0482    0.0000 N   0  0
   21.3323  -19.4616    0.0000 C   0  0
   20.6173  -19.0499    0.0000 C   0  0  2  0  0  0
   21.3333  -20.2866    0.0000 O   0  0
   20.6163  -18.2249    0.0000 C   0  0
   19.9033  -19.4633    0.0000 N   0  0
   22.7622  -20.2849    0.0000 C   0  0
   23.4772  -20.6965    0.0000 C   0  0
   23.5650  -21.5128    0.0000 N   0  0
   24.2310  -20.3560    0.0000 C   0  0
   24.7839  -20.9683    0.0000 C   0  0
   24.3721  -21.6811    0.0000 C   0  0
   24.7834  -22.3919    0.0000 C   0  0
   25.6064  -22.3912    0.0000 C   0  0
   26.0163  -21.6737    0.0000 C   0  0
   25.6025  -20.9658    0.0000 C   0  0
   19.9013  -17.8132    0.0000 C   0  0
   19.9004  -16.9882    0.0000 C   0  0
   20.6143  -16.5749    0.0000 N   0  0
   20.6133  -15.7498    0.0000 C   0  0
   21.3273  -15.3364    0.0000 N   0  0
   19.8983  -15.3381    0.0000 N   0  0
   19.1883  -19.0516    0.0000 C   0  0
   18.4743  -19.4650    0.0000 C   0  0
   19.1873  -18.2265    0.0000 O   0  0
   17.7593  -19.0533    0.0000 O   0  0
   17.0453  -19.4667    0.0000 C   0  0
   16.3303  -19.0550    0.0000 C   0  0
   15.6164  -19.4684    0.0000 O   0  0
   14.9014  -19.0567    0.0000 C   0  0
   14.1873  -19.4702    0.0000 C   0  0
   13.4723  -19.0584    0.0000 O   0  0
   12.7583  -19.4719    0.0000 C   0  0
   12.0433  -19.0602    0.0000 C   0  0
   11.3293  -19.4735    0.0000 N   0  0
   10.6143  -19.0619    0.0000 C   0  0
    9.9004  -19.4752    0.0000 O   0  0
   10.6133  -18.2368    0.0000 C   0  0
   11.3257  -17.8260    0.0000 C   0  0
   11.3251  -17.0017    0.0000 C   0  0
   10.6096  -16.5893    0.0000 C   0  0
    9.8932  -17.0071    0.0000 C   0  0
    9.8973  -17.8300    0.0000 C   0  0
   10.6075  -15.7643    0.0000 C   0  0
   10.6076  -14.1172    0.0000 O   0  0
   11.3213  -14.5318    0.0000 C   0  0
   11.3205  -15.3520    0.0000 C   0  0
   12.0294  -15.7609    0.0000 C   0  0
   12.7394  -15.3508    0.0000 C   0  0
   12.7362  -14.5275    0.0000 C   0  0
   12.0268  -14.1223    0.0000 C   0  0
    9.8908  -15.3580    0.0000 C   0  0
    9.8933  -14.5337    0.0000 C   0  0
    9.1817  -14.1211    0.0000 C   0  0
    8.4672  -14.5317    0.0000 C   0  0
    8.4688  -15.3592    0.0000 C   0  0
    9.1808  -15.7681    0.0000 C   0  0
   13.4489  -14.1120    0.0000 O   0  0
    7.7529  -14.1192    0.0000 O   0  0
   11.4023  -15.9747    0.0000 O   0  0
   12.0356  -16.5830    0.0000 C   0  0
   12.8551  -16.6788    0.0000 O   0  0
   30.2189  -19.1297    0.0000 H   0  0
   26.5162  -13.1597    0.0000 H   0  0
  2  1  1  0
  2  3  1  0
  3  4  1  0
  4  1  1  0
  5  6  1  0
  6  7  1  0
  7  8  1  0
  8  9  1  0
  9  5  1  0
 11 10  1  1
 11 12  1  0
 12 13  1  0
 13 14  1  0
 14 15  1  0
 15 16  1  0
 11 17  1  0
 17 18  1  0
 18 19  1  0
 19 20  1  0
 20 21  1  0
 21 22  1  0
 22 23  1  0
 12 24  2  0
 14 25  1  6
 25 26  1  0
 15 27  2  0
 16 28  1  0
 28 29  1  0
 29 30  1  0
 30 31  1  0
 31 16  1  0
 26 32  2  0
 32 33  1  0
 33 34  2  0
 34 35  1  0
 35 36  2  0
 36 26  1  0
 31 37  1  0
 37 38  2  0
 37 39  1  0
 39  2  1  0
  2 40  1  0
 40 41  2  0
 40 42  1  0
 42 43  1  0
 43 44  1  0
 44  6  1  0
 43 45  1  6
 45 46  1  0
 46 47  1  0
 47 48  1  0
 48 49  1  0
 49 50  1  0
 49 51  2  0
  5 52  1  0
 52 53  2  0
 52 54  1  0
 44 55  2  0
 54 56  1  0
 23 56  1  0
 33 57  1  0
 35 58  1  0
 10 59  1  0
 59 60  1  0
 59 61  2  0
 60 62  1  6
 62 63  1  0
 63 64  1  0
 63 65  2  0
 64 66  1  1
 64 67  1  0
 60 68  1  0
 68 69  1  0
 69 70  1  0
 70 73  1  0
 72 71  1  0
 71 69  2  0
 72 73  2  0
 73 74  1  0
 74 75  2  0
 75 76  1  0
 76 77  2  0
 77 72  1  0
 66 78  1  0
 78 79  1  0
 79 80  1  0
 80 81  1  0
 81 82  1  0
 81 83  2  0
 67 84  1  0
 84 85  1  0
 84 86  2  0
 85 87  1  0
 87 88  1  0
 88 89  1  0
 89 90  1  0
 90 91  1  0
 91 92  1  0
 92 93  1  0
 93 94  1  0
 94 95  1  0
 95 96  1  0
 96 97  1  0
 97 98  2  0
 97 99  1  0
 99100  2  0
100101  1  0
101102  2  0
102103  1  0
103104  2  0
104 99  1  0
102105  1  0
105108  1  0
105113  1  0
107106  1  0
106114  1  0
107108  2  0
108109  1  0
109110  2  0
110111  1  0
111112  2  0
112107  1  0
113114  2  0
114115  1  0
115116  2  0
116117  1  0
117118  2  0
118113  1  0
111119  1  0
116120  1  0
105121  1  0
101122  1  0
122121  1  0
122123  2  0
 31124  1  1
  5125  1  1
M  END