
  SciTegic01111613442D

 25 27  0  0  0  0            999 V2000
    1.7138   -1.2033    0.0000 N   0  0
    2.5889    0.0182    0.0000 C   0  0
    1.7138    1.2033    0.0000 C   0  0
    0.2917   -0.7475    0.0000 C   0  0
    0.2917    0.7475    0.0000 C   0  0
    2.1855   -2.6254    0.0000 C   0  0
    2.1812    2.6271    0.0000 C   0  0
   -1.0028   -1.5132    0.0000 C   0  0
    3.6552   -2.9294    0.0000 C   0  0
    3.6500    2.9355    0.0000 C   0  0
   -1.0028    1.5132    0.0000 C   0  0
    1.3877   -3.5218    0.0000 O   0  0
    4.0244    4.0756    0.0000 O   0  0
    4.1295   -4.3524    0.0000 C   0  0
    4.6506   -1.8071    0.0000 C   0  0
    3.7889    0.0269    0.0000 C   0  0
   -2.3155    0.7475    0.0000 C   0  0
   -2.3155   -0.7475    0.0000 C   0  0
    6.5944   -3.5310    0.0000 C   0  0
    4.4505    2.0415    0.0000 O   0  0
    5.5991   -4.6533    0.0000 C   0  0
    6.1201   -2.1080    0.0000 C   0  0
    7.7700   -3.7717    0.0000 Cl  0  0
   -3.6187    1.4919    0.0000 O   0  0
   -3.6251    2.6919    0.0000 C   0  0
  2  1  1  0
  3  2  2  0
  4  1  1  0
  5  4  2  0
  6  1  1  0
  7  3  1  0
  8  4  1  0
  9  6  1  0
 10  7  1  0
 11  5  1  0
 12  6  2  0
 13 10  2  0
 14  9  1  0
 15  9  2  0
 16  2  1  0
 17 18  1  0
 18  8  2  0
 19 21  1  0
 20 10  1  0
 21 14  2  0
 22 15  1  0
 23 19  1  0
 24 17  1  0
 25 24  1  0
  3  5  1  0
 19 22  2  0
 17 11  2  0
M  END