
  SciTegic10311316212D

 26 29  0  0  0  0            999 V2000
   -2.2686  -26.7857    0.0000 C   0  0
   -2.2674  -27.6052    0.0000 C   0  0
   -1.5639  -28.0142    0.0000 C   0  0
   -1.5622  -26.3768    0.0000 C   0  0
   -0.8510  -26.7821    0.0000 C   0  0
   -0.8513  -27.6007    0.0000 C   0  0
   -0.0781  -27.8535    0.0000 S   0  0
    0.4105  -27.1910    0.0000 C   0  0
   -0.0777  -26.5289    0.0000 C   0  0
   -2.9754  -28.0124    0.0000 N   0  0
   -3.7150  -27.6794    0.0000 C   0  0
   -4.2655  -28.2863    0.0000 N   0  0
   -3.8564  -28.9944    0.0000 N   0  0
   -3.0544  -28.8250    0.0000 C   0  0
   -2.4549  -29.3690    0.0000 C   0  0
   -2.6213  -30.1690    0.0000 C   0  0
   -2.0223  -30.7160    0.0000 C   0  0
   -1.2405  -30.4642    0.0000 C   0  0
   -1.0709  -29.6603    0.0000 C   0  0
   -1.6769  -29.1168    0.0000 C   0  0
   -3.8841  -26.8800    0.0000 S   0  0
    1.2257  -27.1886    0.0000 C   0  0
    1.6345  -27.8961    0.0000 O   0  0
    1.6340  -26.4807    0.0000 O   0  0
    0.1813  -25.7516    0.0000 Cl  0  0
   -0.2956  -29.4056    0.0000 Br  0  0
  1  2  2  0
  2  3  1  0
  3  6  2  0
  5  4  2  0
  4  1  1  0
  5  6  1  0
  6  7  1  0
  7  8  1  0
  8  9  2  0
  9  5  1  0
 10 11  1  0
 11 12  2  0
 12 13  1  0
 13 14  2  0
 14 10  1  0
  2 10  1  0
 15 16  2  0
 16 17  1  0
 17 18  2  0
 18 19  1  0
 19 20  2  0
 20 15  1  0
 14 15  1  0
 11 21  1  0
 22 23  1  0
 22 24  2  0
  8 22  1  0
  9 25  1  0
 19 26  1  0
M  END