
  CDK    6/4/10,11:41

 33 35  0  0  0  0  0  0  0  0999 V2000
   13.9321   -7.5178    0.0000 C   0  0  0  0  0  0  0  0  0  0  0  0
   14.6484   -7.9282    0.0000 C   0  0  0  0  0  0  0  0  0  0  0  0
   14.6484   -8.7531    0.0000 C   0  0  0  0  0  0  0  0  0  0  0  0
   13.9321   -9.1677    0.0000 C   0  0  0  0  0  0  0  0  0  0  0  0
   13.2240   -8.7531    0.0000 C   0  0  0  0  0  0  0  0  0  0  0  0
   13.2240   -7.9282    0.0000 N   0  0  0  0  0  0  0  0  0  0  0  0
   15.4332   -9.0089    0.0000 C   0  0  0  0  0  0  0  0  0  0  0  0
   15.9197   -8.3427    0.0000 C   0  0  0  0  0  0  0  0  0  0  0  0
   15.4332   -7.6765    0.0000 S   0  0  0  0  0  0  0  0  0  0  0  0
   15.6890   -9.7897    0.0000 C   0  0  0  0  0  0  0  0  0  0  0  0
   15.1387  -10.4071    0.0000 O   0  0  0  0  0  0  0  0  0  0  0  0
   16.4993   -9.9654    0.0000 O   0  0  0  0  0  0  0  0  0  0  0  0
   12.5075   -7.5178    0.0000 C   0  0  0  0  0  0  0  0  0  0  0  0
   11.7912   -7.9282    0.0000 C   0  0  0  0  0  0  0  0  0  0  0  0
   11.7912   -8.7531    0.0000 C   0  0  0  0  0  0  0  0  0  0  0  0
   12.5075   -6.6928    0.0000 O   0  0  0  0  0  0  0  0  0  0  0  0
   11.0748   -9.1677    0.0000 C   0  0  0  0  0  0  0  0  0  0  0  0
   11.0748   -9.9927    0.0000 C   0  0  0  0  0  0  0  0  0  0  0  0
   10.3625  -10.4031    0.0000 C   0  0  0  0  0  0  0  0  0  0  0  0
    9.6462   -9.9927    0.0000 C   0  0  0  0  0  0  0  0  0  0  0  0
    9.6462   -9.1677    0.0000 C   0  0  0  0  0  0  0  0  0  0  0  0
   10.3625   -8.7531    0.0000 C   0  0  0  0  0  0  0  0  0  0  0  0
   11.0748   -7.5178    0.0000 N   0  0  0  0  0  0  0  0  0  0  0  0
   11.0748   -6.6928    0.0000 C   0  0  0  0  0  0  0  0  0  0  0  0
   10.3625   -6.2782    0.0000 O   0  0  0  0  0  0  0  0  0  0  0  0
   11.7912   -6.2782    0.0000 O   0  0  0  0  0  0  0  0  0  0  0  0
   11.7912   -5.4533    0.0000 C   0  0  0  0  0  0  0  0  0  0  0  0
   11.7912   -4.6283    0.0000 C   0  0  0  0  0  0  0  0  0  0  0  0
   12.6162   -5.4533    0.0000 C   0  0  0  0  0  0  0  0  0  0  0  0
   10.9662   -5.4533    0.0000 C   0  0  0  0  0  0  0  0  0  0  0  0
   16.7447   -8.3427    0.0000 N   0  0  0  0  0  0  0  0  0  0  0  0
   16.7509  -10.7502    0.0000 C   0  0  0  0  0  0  0  0  0  0  0  0
   17.5570  -10.9217    0.0000 C   0  0  0  0  0  0  0  0  0  0  0  0
  1  2  1  0  0  0  0 
  2  3  2  0  0  0  0 
  3  4  1  0  0  0  0 
  4  5  1  0  0  0  0 
  5  6  1  0  0  0  0 
  1  6  1  0  0  0  0 
  7  8  2  0  0  0  0 
  8  9  1  0  0  0  0 
  2  9  1  0  0  0  0 
  3  7  1  0  0  0  0 
 10 11  2  0  0  0  0 
 10 12  1  0  0  0  0 
  7 10  1  0  0  0  0 
 13 14  1  0  0  0  0 
 14 15  1  0  0  0  0 
 13 16  2  0  0  0  0 
 17 18  1  0  0  0  0 
 18 19  2  0  0  0  0 
 19 20  1  0  0  0  0 
 20 21  2  0  0  0  0 
 21 22  1  0  0  0  0 
 17 22  2  0  0  0  0 
 15 17  1  0  0  0  0 
 24 25  2  0  0  0  0 
 27 28  1  0  0  0  0 
 27 30  1  0  0  0  0 
 27 29  1  0  0  0  0 
 26 27  1  0  0  0  0 
 24 26  1  0  0  0  0 
 23 24  1  0  0  0  0 
 14 23  1  6  0  0  0 
  6 13  1  0  0  0  0 
  8 31  1  0  0  0  0 
 32 33  1  0  0  0  0 
 12 32  1  0  0  0  0 
M  END