
  CDK    9/16/09,9:51

 23 25  0  0  0  0  0  0  0  0999 V2000
   -4.5864   -0.3656    0.0000 C   0  0  0  0  0  0  0  0  0  0  0  0
   -4.9799   -1.0960    0.0000 N   0  0  0  0  0  0  0  0  0  0  0  0
   -4.5465   -1.7980    0.0000 C   0  0  0  0  0  0  0  0  0  0  0  0
   -3.7179   -1.7760    0.0000 C   0  0  0  0  0  0  0  0  0  0  0  0
   -3.3244   -1.0456    0.0000 N   0  0  0  0  0  0  0  0  0  0  0  0
   -3.7596   -0.3374    0.0000 C   0  0  0  0  0  0  0  0  0  0  0  0
   -2.4997   -1.0221    0.0000 C   0  0  0  0  0  0  0  0  0  0  0  0
   -2.0671   -1.7246    0.0000 C   0  0  0  0  0  0  0  0  0  0  0  0
   -2.3841   -2.4862    0.0000 C   0  0  0  0  0  0  0  0  0  0  0  0
   -1.7555   -3.0206    0.0000 S   0  0  0  0  0  0  0  0  0  0  0  0
   -1.0531   -2.5878    0.0000 C   0  0  0  0  0  0  0  0  0  0  0  0
   -1.2475   -1.7861    0.0000 C   0  0  0  0  0  0  0  0  0  0  0  0
   -0.7136   -1.1571    0.0000 C   0  0  0  0  0  0  0  0  0  0  0  0
    0.0980   -1.3051    0.0000 O   0  0  0  0  0  0  0  0  0  0  0  0
   -0.9913   -0.3803    0.0000 C   0  0  0  0  0  0  0  0  0  0  0  0
   -0.4582    0.2454    0.0000 C   0  0  0  0  0  0  0  0  0  0  0  0
   -0.7354    1.0217    0.0000 C   0  0  0  0  0  0  0  0  0  0  0  0
   -1.5477    1.1702    0.0000 C   0  0  0  0  0  0  0  0  0  0  0  0
   -2.0825    0.5363    0.0000 C   0  0  0  0  0  0  0  0  0  0  0  0
   -1.8024   -0.2375    0.0000 C   0  0  0  0  0  0  0  0  0  0  0  0
   -1.8266    1.9467    0.0000 Cl  0  0  0  0  0  0  0  0  0  0  0  0
   -5.8045   -1.1203    0.0000 C   0  0  0  0  0  0  0  0  0  0  0  0
   -0.2901   -2.9018    0.0000 N   0  0  0  0  0  0  0  0  0  0  0  0
 10 11  1  0  0  0  0 
 11 12  2  0  0  0  0 
 12  8  1  0  0  0  0 
  5  6  1  0  0  0  0 
 12 13  1  0  0  0  0 
 13 14  2  0  0  0  0 
  5  7  1  0  0  0  0 
 13 15  1  0  0  0  0 
  1  2  1  0  0  0  0 
 15 16  2  0  0  0  0 
  7  8  1  0  0  0  0 
 16 17  1  0  0  0  0 
  8  9  2  0  0  0  0 
 17 18  2  0  0  0  0 
  1  6  1  0  0  0  0 
 18 19  1  0  0  0  0 
  2  3  1  0  0  0  0 
 19 20  2  0  0  0  0 
 20 15  1  0  0  0  0 
  3  4  1  0  0  0  0 
 18 21  1  0  0  0  0 
  4  5  1  0  0  0  0 
  2 22  1  0  0  0  0 
  9 10  1  0  0  0  0 
 11 23  1  0  0  0  0 
M  END