
  SciTegic05161214222D

 61 63  0  0  0  0            999 V2000
   16.1252  -12.2796    0.0000 C   0  0
   16.8400  -11.8676    0.0000 C   0  0
   11.8458  -11.4625    0.0000 C   0  0
   11.8458  -12.2875    0.0000 C   0  0
   12.5579  -12.6958    0.0000 O   0  0
   13.2699  -12.2875    0.0000 C   0  0
   13.2699  -11.4625    0.0000 C   0  0
   12.5579  -11.0458    0.0000 C   0  0
   11.1281  -11.0573    0.0000 S   0  0
   10.7198  -11.7741    0.0000 O   0  0
   11.5448  -11.7693    0.0000 O   0  0
    8.2611   -6.1208    0.0000 C   0  0
    8.2599   -6.9482    0.0000 C   0  0
    8.9747   -7.3610    0.0000 C   0  0
    8.9729   -5.7080    0.0000 C   0  0
    9.6883   -6.1172    0.0000 C   0  0
    9.6891   -6.9440    0.0000 C   0  0
   10.4044   -7.3550    0.0000 N   0  0
   11.1194   -6.9402    0.0000 C   0  0
   11.1146   -6.1102    0.0000 C   0  0
   10.3987   -5.7030    0.0000 C   0  0
   11.8355   -7.3499    0.0000 C   0  0
   10.3944   -4.8780    0.0000 C   0  0
    8.9766   -8.1860    0.0000 O   0  0
    9.6921   -8.5969    0.0000 C   0  0
    9.6940   -9.4219    0.0000 C   0  0
    8.9779   -9.8317    0.0000 C   0  0
    8.9794  -10.6559    0.0000 C   0  0
    9.6954  -11.0676    0.0000 C   0  0
   10.4113  -10.6490    0.0000 C   0  0
   10.4062   -9.8261    0.0000 C   0  0
    8.2638   -9.4185    0.0000 Cl  0  0
   11.1179   -9.4088    0.0000 Cl  0  0
   11.8402  -10.6406    0.0000 N   0  0
   13.2691  -10.6323    0.0000 C   0  0
   13.9848  -11.0426    0.0000 N   0  0
   13.2666   -9.8073    0.0000 O   0  0
   13.9838  -11.8675    0.0000 C   0  0
   14.6954  -12.2778    0.0000 C   0  0
   15.4110  -11.8666    0.0000 N   0  3
   15.4105  -11.0406    0.0000 C   0  0
   14.6943  -10.6258    0.0000 C   0  0
   17.5541  -12.2806    0.0000 N   0  3
   17.5536  -13.1056    0.0000 C   0  0
   18.2689  -11.8686    0.0000 C   0  0
   17.5458  -11.4542    0.0000 C   0  0
   15.9917  -11.2750    0.0000 C   0  0
   17.0659   -9.0551    0.0000 F   0  0
   17.7803   -8.6426    0.0000 C   0  0
   18.4948   -9.0551    0.0000 F   0  0
   17.7742   -9.4634    0.0000 F   0  0
   17.7834   -7.8176    0.0000 C   0  0
   18.4994   -7.4078    0.0000 O   0  5
   17.0705   -7.4024    0.0000 O   0  0
   13.6909   -9.2738    0.0000 F   0  0
   14.4053   -8.8613    0.0000 C   0  0
   15.1198   -9.2738    0.0000 F   0  0
   14.3992   -9.6821    0.0000 F   0  0
   14.4084   -8.0363    0.0000 C   0  0
   15.1244   -7.6265    0.0000 O   0  5
   13.6955   -7.6211    0.0000 O   0  0
 14 24  1  0
  5  6  1  0
 24 25  1  0
 13 14  1  0
 25 26  1  0
 14 17  2  0
 26 27  2  0
  6  7  1  0
 27 28  1  0
 16 15  2  0
 28 29  2  0
 15 12  1  0
 29 30  1  0
  7  8  1  0
 30 31  2  0
 31 26  1  0
 10  9  2  0
 27 32  1  0
 16 17  1  0
 31 33  1  0
 30  9  1  0
  9 11  2  0
  9 34  1  0
 34  8  1  0
 17 18  1  0
  8 35  1  0
 35 36  1  0
 18 19  2  0
 35 37  2  0
 36 38  1  0
  1  2  1  0
 19 20  1  0
  3  4  1  0
 20 21  2  0
 21 16  1  0
 36 42  1  0
 38 39  1  0
 39 40  1  0
 40 41  1  0
 41 42  1  0
 40  1  1  0
  3  8  1  0
  2 43  1  0
 19 22  1  0
 43 44  1  0
  4  5  1  0
 43 45  1  0
 21 23  1  0
 43 46  1  0
 12 13  2  0
 40 47  1  0
 48 49  1  0
 49 51  1  0
 49 52  1  0
 49 50  1  0
 52 53  1  0
 52 54  2  0
 55 56  1  0
 56 58  1  0
 56 59  1  0
 56 57  1  0
 59 60  1  0
 59 61  2  0
M  CHG  4  40   1  43   1  53  -1  60  -1
M  END