
          11280715132D 1   1.00000     0.00000     0

 31 33  0     0  0            999 V2000
   -1.7250   -0.8625    0.0000 C   0  0  0  0  0  0           0  0  0
   -1.7250   -0.2625    0.0000 C   0  0  0  0  0  0           0  0  0
   -2.2458   -1.1625    0.0000 N   0  0  3  0  0  0           0  0  0
   -2.7583   -0.2625    0.0000 N   0  0  3  0  0  0           0  0  0
   -2.7583   -0.8625    0.0000 C   0  0  0  0  0  0           0  0  0
   -2.2458    0.0375    0.0000 C   0  0  0  0  0  0           0  0  0
   -1.1583   -1.0417    0.0000 N   0  0  0  0  0  0           0  0  0
    3.0042   -1.3167    0.0000 S   0  0  3  0  0  0           0  0  0
   -1.1583   -0.0750    0.0000 N   0  0  0  0  0  0           0  0  0
   -0.8000   -0.5625    0.0000 C   0  0  0  0  0  0           0  0  0
    0.7542   -0.5125    0.0000 C   0  0  0  0  0  0           0  0  0
    2.4417   -1.1167    0.0000 C   0  0  0  0  0  0           0  0  0
   -3.2833   -1.1542    0.0000 O   0  0  0  0  0  0           0  0  0
    0.2917   -0.9000    0.0000 N   0  0  0  0  0  0           0  0  0
    2.7125   -1.8375    0.0000 O   0  0  0  0  0  0           0  0  0
    3.3000   -0.7917    0.0000 O   0  0  0  0  0  0           0  0  0
   -2.2500    0.6375    0.0000 O   0  0  0  0  0  0           0  0  0
    1.3167   -0.7125    0.0000 C   0  0  0  0  0  0           0  0  0
    3.5292   -1.6125    0.0000 F   0  0  0  0  0  0           0  0  0
    0.6417    0.0833    0.0000 O   0  0  0  0  0  0           0  0  0
   -0.2000   -0.5625    0.0000 C   0  0  0  0  0  0           0  0  0
   -2.2458   -1.7625    0.0000 C   0  0  0  0  0  0           0  0  0
   -3.2833    0.0375    0.0000 C   0  0  0  0  0  0           0  0  0
    1.9875   -1.5042    0.0000 C   0  0  0  0  0  0           0  0  0
    2.3375   -0.5250    0.0000 C   0  0  0  0  0  0           0  0  0
    1.4167   -1.3042    0.0000 C   0  0  0  0  0  0           0  0  0
    1.7667   -0.3250    0.0000 C   0  0  0  0  0  0           0  0  0
   -2.7708   -2.0542    0.0000 C   0  0  0  0  0  0           0  0  0
   -3.2833    0.6375    0.0000 C   0  0  0  0  0  0           0  0  0
   -2.7708   -2.6542    0.0000 C   0  0  0  0  0  0           0  0  0
   -3.8000    0.9375    0.0000 C   0  0  0  0  0  0           0  0  0
  2  1  2  0     0  0
  3  1  1  0     0  0
  4  5  1  0     0  0
  5  3  1  0     0  0
  6  2  1  0     0  0
  7  1  1  0     0  0
  8 12  1  0     0  0
  9  2  1  0     0  0
 10  7  1  0     0  0
 11 14  1  0     0  0
 12 25  1  0     0  0
 13  5  2  0     0  0
 14 21  1  0     0  0
 15  8  2  0     0  0
 16  8  2  0     0  0
 17  6  2  0     0  0
 18 11  1  0     0  0
 19  8  1  0     0  0
 20 11  2  0     0  0
 21 10  1  0     0  0
 22  3  1  0     0  0
 23  4  1  0     0  0
 24 26  1  0     0  0
 25 27  2  0     0  0
 26 18  2  0     0  0
 27 18  1  0     0  0
 28 22  1  0     0  0
 29 23  1  0     0  0
 30 28  1  0     0  0
 31 29  1  0     0  0
  9 10  2  0     0  0
  4  6  1  0     0  0
 12 24  2  0     0  0
M  END