
  SciTegic11201309402D

 45 48  0  0  0  0            999 V2000
   -2.9583  -21.0292    0.0000 N   0  0
   -2.2439  -20.6167    0.0000 C   0  0  2  0  0  0
   -1.5294  -21.0292    0.0000 C   0  0
   -0.8149  -20.6167    0.0000 N   0  0
   -1.5294  -21.8542    0.0000 O   0  0
   -0.1032  -21.0268    0.0000 C   0  0  1  0  0  0
    0.6091  -20.6178    0.0000 C   0  0
   -0.8195  -19.7884    0.0000 C   0  0
   -0.1009  -19.3777    0.0000 C   0  0
    0.6094  -19.7941    0.0000 C   0  0
    1.3230  -19.3872    0.0000 C   0  0
    1.3275  -18.5641    0.0000 C   0  0
    0.6125  -18.1496    0.0000 C   0  0
   -0.0982  -18.5589    0.0000 C   0  0
   -0.1039  -21.8518    0.0000 C   0  0
   -0.8187  -22.2637    0.0000 O   0  0
    0.6103  -22.2648    0.0000 N   0  0
    1.3251  -21.8529    0.0000 C   0  0  2  0  0  0
    2.0392  -22.2660    0.0000 C   0  0
    2.7540  -21.8540    0.0000 N   0  0
    2.0386  -23.0910    0.0000 O   0  0
    1.3257  -21.0279    0.0000 C   0  0
    2.0405  -20.6160    0.0000 C   0  0
    2.0412  -19.7910    0.0000 C   0  0
    2.7560  -19.3790    0.0000 C   0  0
    3.4701  -19.7921    0.0000 N   0  0
   -2.2439  -19.7917    0.0000 C   0  0
   -2.9583  -19.3792    0.0000 C   0  0
   -2.9556  -18.5531    0.0000 C   0  0
   -3.6692  -18.1407    0.0000 C   0  0
   -4.3846  -18.5532    0.0000 C   0  0
   -4.3820  -19.3825    0.0000 C   0  0
   -3.6678  -19.7912    0.0000 C   0  0
   -3.6651  -20.6162    0.0000 C   0  0
   -2.2403  -18.1419    0.0000 C   0  0
   -5.0997  -18.1417    0.0000 O   0  0
    3.4682  -22.2671    0.0000 C   0  0
    4.1849  -19.3801    0.0000 C   0  0
    4.1855  -18.5551    0.0000 O   0  0
    3.4632  -23.0927    0.0000 C   0  0
    4.1765  -23.5057    0.0000 C   0  0
    4.8923  -23.0937    0.0000 C   0  0
    4.8903  -22.2645    0.0000 C   0  0
    4.1764  -21.8552    0.0000 C   0  0
    4.8990  -19.7932    0.0000 C   0  0
 18 22  1  1
 10 11  1  0
 22 23  1  0
  2  3  1  0
 23 24  1  0
 11 12  2  0
 24 25  1  0
  2  1  1  1
 25 26  1  0
 12 13  1  0
  2 27  1  0
  3  4  1  0
 27 28  1  0
 13 14  2  0
 28 29  2  0
 14  9  1  0
 29 30  1  0
  4  8  1  0
 30 31  2  0
  6 15  1  1
 31 32  1  0
  6  7  1  0
 32 33  2  0
 33 28  1  0
 15 16  2  0
 33 34  1  0
  7 10  1  0
 29 35  1  0
 15 17  1  0
 31 36  1  0
  9  8  1  0
 20 37  1  0
 17 18  1  0
 26 38  1  0
 38 39  2  0
 18 19  1  0
 37 40  2  0
  3  5  2  0
 40 41  1  0
 19 20  1  0
 41 42  2  0
  9 10  2  0
 42 43  1  0
 19 21  2  0
 43 44  2  0
 44 37  1  0
  6  4  1  0
 38 45  1  0
M  END