
  SciTegic07101214422D

111118  0  0  0  0            999 V2000
   -4.3556   -1.5000    0.0000 C   0  0
   -4.3568   -2.3273    0.0000 C   0  0
   -3.6419   -2.7402    0.0000 C   0  0
   -2.9255   -2.3269    0.0000 C   0  0
   -3.6437   -1.0872    0.0000 C   0  0
   -2.9320   -1.4981    0.0000 C   0  0
   -2.9398    0.1433    0.0000 C   0  0
   -3.6464   -0.2699    0.0000 N   0  0
   -2.2234   -0.2657    0.0000 C   0  0
   -2.2182   -1.0890    0.0000 N   0  0
   -1.4335   -1.3385    0.0000 C   0  0
   -0.9538   -0.6694    0.0000 N   0  0
   -1.4420   -0.0064    0.0000 N   0  0
   -1.1737   -2.1215    0.0000 O   0  0
   -2.9440    0.9683    0.0000 N   0  0
   -2.2317    1.3845    0.0000 C   0  0
   -2.2360    2.2095    0.0000 O   0  0
   -1.5151    0.9757    0.0000 C   0  0
   -0.1312   -0.6636    0.0000 C   0  0
    0.2852   -1.3771    0.0000 C   0  0
    1.1095   -1.3722    0.0000 C   0  0
    1.5182   -0.6546    0.0000 C   0  0
    1.0968    0.0596    0.0000 C   0  0
    0.2739    0.0512    0.0000 C   0  0
    2.3432   -0.6482    0.0000 O   0  0
    2.7612   -1.3595    0.0000 C   0  0
   -0.8028    1.3919    0.0000 C   0  0
   -0.0862    0.9830    0.0000 C   0  0
    0.6262    1.3992    0.0000 N   0  0
   -0.0819    0.1581    0.0000 O   0  0
    1.3427    0.9904    0.0000 C   0  0
    2.0551    1.4066    0.0000 C   0  0
    2.7717    0.9978    0.0000 O   0  0
    3.4840    1.4140    0.0000 C   0  0
    4.2006    1.0052    0.0000 C   0  0
    4.9129    1.4214    0.0000 O   0  0
    5.6295    1.0125    0.0000 C   0  0
    6.3418    1.4287    0.0000 C   0  0
    7.0584    1.0199    0.0000 N   0  0
    7.7708    1.4361    0.0000 C   0  0
    7.7665    2.2611    0.0000 O   0  0
    8.4874    1.0273    0.0000 C   0  0
    9.1997    1.4435    0.0000 C   0  0
    9.9163    1.0347    0.0000 O   0  0
   10.6286    1.4509    0.0000 C   0  0
   11.3452    1.0420    0.0000 C   0  0
   12.0575    1.4582    0.0000 O   0  0
   12.7741    1.0494    0.0000 C   0  0
   13.4865    1.4656    0.0000 C   0  0
   14.2030    1.0568    0.0000 O   0  0
   14.9154    1.4730    0.0000 C   0  0
   15.6320    1.0642    0.0000 C   0  0
   16.3443    1.4804    0.0000 O   0  0
   17.0609    1.0715    0.0000 C   0  0
   17.7732    1.4877    0.0000 C   0  0
   18.4898    1.0789    0.0000 O   0  0
   19.2022    1.4951    0.0000 C   0  0
   19.9187    1.0863    0.0000 C   0  0
   20.6311    1.5025    0.0000 O   0  0
   21.3477    1.0937    0.0000 C   0  0
   22.0600    1.5098    0.0000 C   0  0
   22.7766    1.1010    0.0000 O   0  0
   23.4889    1.5172    0.0000 C   0  0
   24.2055    1.1084    0.0000 C   0  0
   24.9178    1.5246    0.0000 O   0  0
   25.6344    1.1158    0.0000 C   0  0
   26.3468    1.5320    0.0000 C   0  0
   27.0634    1.1232    0.0000 O   0  0
   27.7757    1.5393    0.0000 C   0  0
   28.4923    1.1305    0.0000 C   0  0
   29.2046    1.5467    0.0000 O   0  0
   29.9212    1.1379    0.0000 C   0  0
   30.6335    1.5541    0.0000 C   0  0
   31.3501    1.1453    0.0000 O   0  0
   32.0625    1.5615    0.0000 C   0  0
   32.7790    1.1527    0.0000 C   0  0
   33.4914    1.5688    0.0000 O   0  0
   34.2080    1.1600    0.0000 C   0  0
   34.9203    1.5762    0.0000 C   0  0
   35.6369    1.1674    0.0000 N   0  0
   36.3492    1.5836    0.0000 C   0  0
   37.0658    1.1748    0.0000 C   0  0
   36.3450    2.4086    0.0000 O   0  0
   37.0681    0.3489    0.0000 C   0  0
   37.7839   -0.0598    0.0000 C   0  0
   38.4972    0.3564    0.0000 C   0  0
   38.4903    1.1857    0.0000 C   0  0
   37.7740    1.5907    0.0000 C   0  0
   39.2143   -0.0514    0.0000 C   0  0
   40.6430   -0.8700    0.0000 O   0  0
   39.9287   -1.2836    0.0000 C   0  0
   39.2188   -0.8758    0.0000 C   0  0
   38.5127   -1.2866    0.0000 C   0  0
   38.5153   -2.1051    0.0000 C   0  0
   39.2300   -2.5111    0.0000 C   0  0
   39.9331   -2.0979    0.0000 C   0  0
   39.9220    0.3683    0.0000 C   0  0
   40.6393   -0.0444    0.0000 C   0  0
   41.3533    0.3703    0.0000 C   0  0
   41.3511    1.1977    0.0000 C   0  0
   40.6291    1.6085    0.0000 C   0  0
   39.9181    1.1914    0.0000 C   0  0
   42.0638    1.6134    0.0000 N   0  3
   42.7801    1.2040    0.0000 C   0  0
   42.0601    2.4383    0.0000 C   0  0
   39.2360   -3.3360    0.0000 N   0  0
   38.5246   -3.7537    0.0000 C   0  0
   39.9535   -3.7433    0.0000 C   0  0
   38.4833    2.0125    0.0000 C   0  0
   39.1943    2.4310    0.0000 O   0  5
   37.7654    2.4190    0.0000 O   0  0
 53 54  1  0
 10 11  1  0
 54 55  1  0
 25 26  1  0
 55 56  1  0
 11 12  1  0
 56 57  1  0
 18 27  1  0
 57 58  1  0
 12 13  1  0
 58 59  1  0
 27 28  1  0
 59 60  1  0
 13  9  2  0
 60 61  1  0
 28 29  1  0
 61 62  1  0
  6 10  1  0
 62 63  1  0
 28 30  2  0
 63 64  1  0
 11 14  2  0
 64 65  1  0
 29 31  1  0
 65 66  1  0
  1  2  2  0
 66 67  1  0
 31 32  1  0
 67 68  1  0
  7 15  1  0
 68 69  1  0
 32 33  1  0
 69 70  1  0
  9  7  1  0
 70 71  1  0
 33 34  1  0
 71 72  1  0
 15 16  1  0
 72 73  1  0
 34 35  1  0
 73 74  1  0
  3  4  2  0
 74 75  1  0
 35 36  1  0
 75 76  1  0
 16 17  2  0
 76 77  1  0
 36 37  1  0
 77 78  1  0
  7  8  2  0
 78 79  1  0
 37 38  1  0
 79 80  1  0
 16 18  1  0
 80 81  1  0
 38 39  1  0
 81 82  1  0
  8  5  1  0
 81 83  2  0
 39 40  1  0
 82 84  2  0
  9 10  1  0
 84 85  1  0
 40 41  2  0
 85 86  2  0
 19 20  2  0
 86 87  1  0
 40 42  1  0
 87 88  2  0
 88 82  1  0
  4  6  1  0
 86 89  1  0
 89 92  1  0
 42 43  1  0
 89 97  2  0
 91 90  1  0
 90 98  1  0
 20 21  1  0
 43 44  1  0
 91 92  2  0
  5  1  1  0
 92 93  1  0
 44 45  1  0
 93 94  2  0
 21 22  2  0
 94 95  1  0
 45 46  1  0
 95 96  2  0
 96 91  1  0
 46 47  1  0
 97 98  1  0
 22 23  1  0
 98 99  2  0
 47 48  1  0
 99100  1  0
  2  3  1  0
100101  1  0
 48 49  1  0
101102  2  0
102 97  1  0
 23 24  2  0
100103  2  0
 49 50  1  0
103104  1  0
 24 19  1  0
103105  1  0
 50 51  1  0
 95106  1  0
 12 19  1  0
106107  1  0
 51 52  1  0
106108  1  0
  5  6  2  0
 87109  1  0
 52 53  1  0
109110  1  0
 22 25  1  0
109111  2  0
M  CHG  2 103   1 110  -1
M  END