
  SciTegic07091215302D

 27 30  0  0  0  0            999 V2000
    0.4820    3.2118    0.0000 C   0  0  2  0  0  0
    1.1965    3.6243    0.0000 C   0  0
    1.1965    4.4494    0.0000 C   0  0
    0.4820    4.8619    0.0000 C   0  0
   -0.2325    4.4494    0.0000 C   0  0
   -0.2325    3.6243    0.0000 N   0  0
    0.4820    2.3868    0.0000 C   0  0
    1.1965    1.9743    0.0000 C   0  0
    1.1965    1.1493    0.0000 N   0  0
    0.4820    0.7368    0.0000 C   0  0
    0.4820   -0.0882    0.0000 C   0  0
    1.1965   -0.5007    0.0000 S   0  0
    1.9109   -0.0882    0.0000 C   0  0
    1.9109    0.7368    0.0000 C   0  0
    2.6254    1.1493    0.0000 C   0  0
    3.3399    0.7368    0.0000 C   0  0
    3.3399   -0.0882    0.0000 C   0  0
    2.6254   -0.5007    0.0000 C   0  0
   -0.2325    1.1493    0.0000 C   0  0
   -0.9469    0.7369    0.0000 C   0  0
   -0.9469   -0.0881    0.0000 C   0  0
   -0.2325   -0.5007    0.0000 C   0  0
   -1.6614    1.1494    0.0000 S   0  3
   -2.3759    0.7369    0.0000 C   0  0
   -1.6614    1.9744    0.0000 O   0  5
   -0.9469    3.2118    0.0000 C   0  0
   -0.2325    2.7993    0.0000 H   0  0
  1  2  1  0
  2  3  1  0
  3  4  1  0
  4  5  1  0
  5  6  1  0
  6  1  1  0
  1  7  1  0
  7  8  1  0
  8  9  1  0
  9 10  1  0
 14  9  1  0
 11 12  1  0
 12 13  1  0
 18 13  2  0
 13 14  1  0
 14 15  2  0
 15 16  1  0
 16 17  2  0
 17 18  1  0
 10 19  1  0
 11 10  2  0
 22 11  1  0
 19 20  2  0
 20 21  1  0
 21 22  2  0
 20 23  1  0
 23 24  1  0
 23 25  1  0
  6 26  1  0
  1 27  1  6
M  CHG  2  23   1  25  -1
M  END