
          11280715502D 1   1.00000     0.00000     0

 29 32  0     0  0            999 V2000
   -1.4633   -1.9732    0.0000 C   0  0  3  0  0  0           0  0  0
   -1.4633   -2.7982    0.0000 C   0  0  0  0  0  0           0  0  0
   -0.7508   -3.2044    0.0000 C   0  0  0  0  0  0           0  0  0
   -0.0383   -2.7982    0.0000 N   0  0  3  0  0  0           0  0  0
   -0.0383   -1.9732    0.0000 C   0  0  0  0  0  0           0  0  0
   -0.7508   -1.5546    0.0000 C   0  0  0  0  0  0           0  0  0
   -2.1796   -1.5608    0.0000 C   0  0  0  0  0  0           0  0  0
   -2.8933   -1.9774    0.0000 C   0  0  0  0  0  0           0  0  0
   -3.6522   -1.6399    0.0000 C   0  0  0  0  0  0           0  0  0
   -4.1997   -2.2557    0.0000 N   0  0  0  0  0  0           0  0  0
   -3.7872   -2.9695    0.0000 C   0  0  0  0  0  0           0  0  0
   -2.9807   -2.7963    0.0000 N   0  0  0  0  0  0           0  0  0
    0.6761   -3.2096    0.0000 C   0  0  0  0  0  0           0  0  0
    1.3875   -2.8003    0.0000 C   0  0  0  0  0  0           0  0  0
    2.1020   -3.2117    0.0000 C   0  0  0  0  0  0           0  0  0
    2.8175   -2.8023    0.0000 O   0  0  0  0  0  0           0  0  0
    3.5320   -3.2138    0.0000 C   0  0  0  0  0  0           0  0  0
    3.5280   -4.0388    0.0000 C   0  0  0  0  0  0           0  0  0
    4.2416   -4.4543    0.0000 C   0  0  0  0  0  0           0  0  0
    4.9581   -4.0407    0.0000 C   0  0  0  0  0  0           0  0  0
    4.9567   -3.2115    0.0000 C   0  0  0  0  0  0           0  0  0
    4.2426   -2.8039    0.0000 C   0  0  0  0  0  0           0  0  0
    5.6731   -4.4554    0.0000 C   0  0  0  0  0  0           0  0  0
    6.3881   -4.0409    0.0000 N   0  0  3  0  0  0           0  0  0
    7.0935   -4.4598    0.0000 C   0  0  0  0  0  0           0  0  0
    7.8065   -4.0488    0.0000 C   0  0  0  0  0  0           0  0  0
    7.8107   -3.2236    0.0000 C   0  0  0  0  0  0           0  0  0
    7.0960   -2.8109    0.0000 C   0  0  0  0  0  0           0  0  0
    6.3810   -3.2194    0.0000 C   0  0  0  0  0  0           0  0  0
 13 14  1  0     0  0
  1  7  1  0     0  0
 14 15  1  0     0  0
  1  2  1  0     0  0
 15 16  1  0     0  0
  7  8  1  0     0  0
 16 17  1  0     0  0
  8  9  2  0     0  0
 17 18  2  0     0  0
  1  6  1  0     0  0
 18 19  1  0     0  0
  2  3  1  0     0  0
 19 20  2  0     0  0
  3  4  1  0     0  0
 20 21  1  0     0  0
  4  5  1  0     0  0
 21 22  2  0     0  0
 22 17  1  0     0  0
  9 10  1  0     0  0
 20 23  1  0     0  0
 10 11  1  0     0  0
 23 24  1  0     0  0
 24 25  1  0     0  0
 11 12  2  0     0  0
 12  8  1  0     0  0
  5  6  1  0     0  0
  4 13  1  0     0  0
 24 29  1  0     0  0
 25 26  1  0     0  0
 26 27  1  0     0  0
 27 28  1  0     0  0
 28 29  1  0     0  0
M  END