
          11280714442D 1   1.00000     0.00000     0

  6  5  0     0  0            999 V2000
    4.8917   -2.9292    0.0000 N   0  0  0  0  0  0           0  0  0
    4.1750   -3.3417    0.0000 O   0  0  0  0  0  0           0  0  0
    3.4625   -2.9292    0.0000 C   0  0  0  0  0  0           0  0  0
    2.7417   -3.3417    0.0000 C   0  0  0  0  0  0           0  0  0
    2.0292   -2.9292    0.0000 C   0  0  0  0  0  0           0  0  0
    1.3167   -3.3417    0.0000 C   0  0  0  0  0  0           0  0  0
  2  1  1  0     0  0
  3  2  1  0     0  0
  4  3  1  0     0  0
  5  4  1  0     0  0
  6  5  1  0     0  0
M  END