
  SciTegic12231509382D

 40 44  0  0  0  0            999 V2000
    0.3027   -2.4916    0.0000 C   0  0
    0.3016   -3.3190    0.0000 C   0  0
    1.0164   -3.7319    0.0000 C   0  0
    1.7328   -3.3185    0.0000 C   0  0
    1.7300   -2.4880    0.0000 C   0  0
    1.0146   -2.0789    0.0000 C   0  0
    1.0162   -4.5569    0.0000 F   0  0
    2.4480   -3.7299    0.0000 F   0  0
    2.4429   -2.0728    0.0000 C   0  0  1  0  0  0
    2.3805   -1.2531    0.0000 C   0  0
    2.9833   -0.6870    0.0000 N   0  0
    3.1295   -2.5342    0.0000 C   0  0
    3.7990   -0.8019    0.0000 C   0  0
    3.9177   -2.2859    0.0000 C   0  0
    4.2127   -1.5143    0.0000 C   0  0  1  0  0  0
    2.7340    0.0994    0.0000 C   0  0
    3.2904    0.7085    0.0000 C   0  0
    3.0410    1.4949    0.0000 F   0  0
    4.0961    0.5312    0.0000 F   0  0
    4.2596   -0.1174    0.0000 O   0  0
    5.0350   -1.4481    0.0000 N   0  0
    5.7458   -1.8583    0.0000 C   0  0
    5.7459   -2.6833    0.0000 O   0  0
    6.4603   -1.4457    0.0000 N   0  0
    7.1736   -1.8622    0.0000 C   0  0
    7.8859   -1.4531    0.0000 C   0  0
    7.8901   -0.6278    0.0000 C   0  0
    7.1757   -0.2132    0.0000 C   0  0
    6.4572   -0.6239    0.0000 C   0  0
    8.6061   -0.2179    0.0000 N   0  0
    9.5055    0.7702    0.0000 N   0  0
    8.6975    0.5988    0.0000 C   0  0
    3.8708    1.3000    0.0000 F   0  0
    8.0864    1.1531    0.0000 O   0  0
    9.9171    0.0539    0.0000 C   0  0
    9.3613   -0.5554    0.0000 C   0  0
    9.6115   -1.3392    0.0000 C   0  0
   10.4170   -1.5150    0.0000 C   0  0
   10.9719   -0.9007    0.0000 C   0  0
   10.7188   -0.1192    0.0000 N   0  0
  3  4  1  0
  9 10  1  0
 21 22  1  0
 22 23  2  0
 10 11  1  0
 22 24  1  0
 24 25  1  0
  4  5  2  0
  9 12  1  0
  1  2  1  0
 11 13  1  0
  5  6  1  0
 24 29  1  0
 25 26  1  0
 26 27  1  0
 27 28  1  0
 28 29  1  0
 12 14  1  0
 27 30  1  0
  6  1  2  0
 13 15  1  0
 30 36  1  0
 35 31  1  0
 31 32  2  0
 32 30  1  0
 14 15  1  0
 17 33  1  0
 32 34  1  0
 11 16  1  0
  3  7  1  0
 35 36  2  0
 16 17  1  0
 36 37  1  0
  2  3  2  0
 37 38  2  0
 17 18  1  0
 38 39  1  0
  4  8  1  0
 39 40  2  0
 40 35  1  0
 17 19  1  0
 13 20  2  0
  9  5  1  1
 15 21  1  6
M  END