
  SciTegic01091216402D

 41 42  0  0  0  0            999 V2000
   14.7193  -11.3018    0.0000 C   0  0  1  0  0  0
   14.7193  -12.1301    0.0000 C   0  0  1  0  0  0
   15.4348  -12.5381    0.0000 C   0  0  2  0  0  0
   16.1503  -12.1301    0.0000 C   0  0
   16.1494  -11.2995    0.0000 C   0  0  1  0  0  0
   15.4348  -10.8813    0.0000 O   0  0
   16.1474  -10.4704    0.0000 C   0  0
   15.4285  -10.0559    0.0000 O   0  0
   15.4348  -13.3665    0.0000 O   0  0
   14.0061  -12.5433    0.0000 N   0  0
   14.0043  -10.8875    0.0000 C   0  0  1  0  0  0
   14.0018  -10.0592    0.0000 C   0  0  1  0  0  0
   14.0073  -13.3717    0.0000 C   0  0
   13.2900  -13.7889    0.0000 C   0  0
   14.7217  -13.7868    0.0000 O   0  0
   13.2876  -11.3059    0.0000 O   0  0
   14.7152  -10.4733    0.0000 H   0  0
   13.2828   -9.6492    0.0000 C   0  0
   14.7145   -9.6450    0.0000 O   0  0
   13.2804   -8.8208    0.0000 N   0  0
   12.5653   -8.4108    0.0000 C   0  0
   12.5629   -7.5865    0.0000 O   0  0
   11.8527   -8.8249    0.0000 C   0  0
   11.1369   -8.4143    0.0000 C   0  0
   10.4249   -8.8277    0.0000 C   0  0
   10.4268   -9.6529    0.0000 C   0  0
   11.1468  -10.0627    0.0000 C   0  0
   11.8559   -9.6468    0.0000 C   0  0
   16.8606  -10.0573    0.0000 O   0  5
   16.8589  -11.7096    0.0000 O   0  0
   17.5730  -11.2980    0.0000 C   0  0
   18.2864  -11.7105    0.0000 C   0  0
   18.2834  -12.5350    0.0000 C   0  0
   18.9962  -12.9473    0.0000 C   0  0
   19.7112  -12.5357    0.0000 C   0  0
   19.7090  -11.7071    0.0000 C   0  0
   18.9957  -11.2985    0.0000 C   0  0
   18.9933  -10.4742    0.0000 F   0  0
   20.4216  -11.2930    0.0000 F   0  0
   12.5748  -13.3792    0.0000 F   0  0
   15.0523   -8.4502    0.0000 Na  0  3
 18 20  1  0
  1  6  1  0
 20 21  1  0
  2 10  1  1
 21 22  2  0
  2  3  1  0
 21 23  1  0
  1 11  1  0
 23 24  2  0
  3  4  1  0
 24 25  1  0
 11 12  1  0
 25 26  2  0
  4  5  1  0
 26 27  1  0
 10 13  1  0
 27 28  2  0
 28 23  1  0
  5  6  1  0
  7 29  1  0
 13 14  1  0
  5 30  1  0
 30 31  1  0
 13 15  2  0
 31 32  1  0
  5  7  1  1
 32 33  2  0
 11 16  1  6
 33 34  1  0
 34 35  2  0
  1 17  1  1
 35 36  1  0
  7  8  2  0
 36 37  2  0
 37 32  1  0
 12 18  1  0
 37 38  1  0
  1  2  1  0
 36 39  1  0
 12 19  1  1
 14 40  1  0
  3  9  1  6
M  CHG  2  29  -1  41   1
M  END