
  SciTegic02181312462D

 33 35  0  0  0  0            999 V2000
   14.6961  -11.7867    0.0000 C   0  0
   13.9963  -12.1654    0.0000 N   0  3
   13.3228  -11.7521    0.0000 C   0  0
   13.3395  -10.9624    0.0000 C   0  0
   14.0361  -10.5788    0.0000 C   0  0
   14.0540   -9.7851    0.0000 C   0  0
   14.7497   -9.4055    0.0000 C   0  0
   15.4283   -9.8157    0.0000 C   0  0
   15.4105  -10.6094    0.0000 C   0  0
   14.7139  -10.9930    0.0000 C   0  0
   14.0477  -12.9595    0.0000 C   0  0
   15.3747  -12.1968    0.0000 C   0  0
   16.1241   -9.4361    0.0000 O   0  0
   16.1420   -8.6424    0.0000 C   0  0
   14.7676   -8.6118    0.0000 O   0  0
   15.4641   -8.2282    0.0000 C   0  0
   11.2372  -12.1565    0.0000 C   0  0
   11.9274  -11.7603    0.0000 C   0  0
   12.6134  -12.1565    0.0000 C   0  0
   12.6134  -12.9490    0.0000 C   0  0
   11.9274  -13.3493    0.0000 C   0  0
   11.2372  -12.9490    0.0000 C   0  0
   10.5511  -11.7603    0.0000 C   0  0
    9.8651  -12.1565    0.0000 C   0  0
    9.1749  -11.7603    0.0000 C   0  0
    9.1749  -10.9679    0.0000 C   0  0
    9.8651  -10.5675    0.0000 C   0  0
   10.5511  -10.9679    0.0000 C   0  0
    8.4668  -10.5600    0.0000 C   0  0
    8.4660   -9.7428    0.0000 C   0  0
    7.7595  -10.9693    0.0000 C   0  0
    7.8830   -9.9755    0.0000 C   0  0
   13.4310  -13.8594    0.0000 I   0  5
  1  2  2  0
  2  3  1  0
  3  4  2  0
  4  5  1  0
  5  6  1  0
  6  7  2  0
  7  8  1  0
  8  9  2  0
  9 10  1  0
  1 10  1  0
  5 10  2  0
  2 11  1  0
  1 12  1  0
 13 14  1  0
  8 13  1  0
 15 16  1  0
  7 15  1  0
 17 18  1  0
 18 19  2  0
 19 20  1  0
 20 21  2  0
 21 22  1  0
 17 22  2  0
 23 24  1  0
 24 25  2  0
 25 26  1  0
 26 27  2  0
 27 28  1  0
 23 28  2  0
 17 23  1  0
 19  3  1  0
 26 29  1  0
 29 30  1  0
 29 31  1  0
 29 32  1  0
M  CHG  2   2   1  33  -1
M  END