
          11280715022D 1   1.00000     0.00000     0

 23 25  0     0  0            999 V2000
    5.3125   -2.9417    0.0000 C   0  0  0  0  0  0           0  0  0
    5.1167   -6.2417    0.0000 N   0  3  0  0  0  0           0  0  0
    5.7792   -3.3167    0.0000 C   0  0  3  0  0  0           0  0  0
    5.3125   -2.3417    0.0000 C   0  0  0  0  0  0           0  0  0
    4.7917   -3.2417    0.0000 C   0  0  0  0  0  0           0  0  0
    4.9792   -6.8250    0.0000 N   0  5  0  0  0  0           0  0  0
    4.2750   -2.9417    0.0000 C   0  0  0  0  0  0           0  0  0
    6.6250   -2.6417    0.0000 N   0  0  3  0  0  0           0  0  0
    4.2750   -2.3417    0.0000 C   0  0  0  0  0  0           0  0  0
    4.7917   -2.0417    0.0000 C   0  0  0  0  0  0           0  0  0
    5.2500   -5.6542    0.0000 N   0  0  0  0  0  0           0  0  0
    6.3667   -3.1792    0.0000 C   0  0  0  0  0  0           0  0  0
    5.6500   -3.9042    0.0000 C   0  0  0  0  0  0           0  0  0
    5.7792   -1.9667    0.0000 C   0  0  0  0  0  0           0  0  0
    6.0875   -4.3042    0.0000 C   0  0  0  0  0  0           0  0  0
    5.0750   -4.0792    0.0000 C   0  0  0  0  0  0           0  0  0
    6.3667   -2.1042    0.0000 C   0  0  0  0  0  0           0  0  0
    5.3792   -5.0667    0.0000 C   0  0  0  0  0  0           0  0  0
    3.7542   -2.0417    0.0000 I   0  0  0  0  0  0           0  0  0
    3.7542   -3.2417    0.0000 O   0  0  0  0  0  0           0  0  0
    4.9417   -4.6625    0.0000 C   0  0  0  0  0  0           0  0  0
    5.9542   -4.8917    0.0000 C   0  0  0  0  0  0           0  0  0
    7.2250   -2.6375    0.0000 C   0  0  0  0  0  0           0  0  0
  2 11  2  0     0  0
  3  1  1  0     0  0
  4  1  1  0     0  0
  5  1  2  0     0  0
  6  2  2  0     0  0
  7  5  1  0     0  0
  8 12  1  0     0  0
  9  7  2  0     0  0
 10  4  2  0     0  0
 11 18  1  0     0  0
 12  3  1  0     0  0
 13  3  1  0     0  0
 14  4  1  0     0  0
 15 13  1  0     0  0
 16 13  2  0     0  0
 17 14  1  0     0  0
 18 21  2  0     0  0
 19  9  1  0     0  0
 20  7  1  0     0  0
 21 16  1  0     0  0
 22 15  2  0     0  0
 23  8  1  0     0  0
  9 10  1  0     0  0
  8 17  1  0     0  0
 18 22  1  0     0  0
M  CHG  2   2   1   6  -1
M  END