
  SciTegic10311217562D

 43 41  0  0  0  0            999 V2000
    2.2250   -3.3417    0.0000 C   0  0  2  0  0  0
    2.2250   -4.1667    0.0000 C   0  0  1  0  0  0
    2.9370   -4.5750    0.0000 C   0  0  2  0  0  0
    3.6490   -4.1667    0.0000 O   0  0
    3.6490   -3.3417    0.0000 C   0  0  1  0  0  0
    2.9370   -2.9250    0.0000 C   0  0  1  0  0  0
    4.3647   -2.9313    0.0000 C   0  0
    1.5093   -2.9313    0.0000 O   0  0
    1.5111   -4.5802    0.0000 O   0  0
    2.9370   -2.1000    0.0000 O   0  0
    2.9370   -5.4000    0.0000 O   0  0
    5.0779   -3.3459    0.0000 N   0  0
    3.6515   -5.8125    0.0000 C   0  0
    5.7936   -2.9355    0.0000 C   0  0
    6.5069   -3.3501    0.0000 C   0  0
    5.7960   -2.1105    0.0000 O   0  0
    7.2226   -2.9397    0.0000 N   0  0
    7.9358   -3.3543    0.0000 C   0  0
    8.6515   -2.9439    0.0000 O   0  0
    2.2225   -1.6875    0.0000 S   0  0
    1.5080   -2.1000    0.0000 O   0  5
    1.8041   -0.9709    0.0000 O   0  0
    2.6291   -0.9709    0.0000 O   0  0
    0.7960   -3.3459    0.0000 S   0  0
    0.0804   -2.9355    0.0000 O   0  5
    0.3791   -4.0584    0.0000 O   0  0
    1.2041   -4.0584    0.0000 O   0  0
    1.5123   -5.4052    0.0000 S   0  0
    0.7984   -5.8188    0.0000 O   0  5
    2.3333   -5.4042    0.0000 O   0  0
    1.9166   -6.1167    0.0000 O   0  0
    7.2238   -2.1170    0.0000 C   0  0
    7.9334   -4.1793    0.0000 C   0  0
    7.9389   -1.7056    0.0000 C   0  0
    7.9401   -0.8806    0.0000 C   0  0
    8.6577   -0.4740    0.0000 C   0  0
    8.6593    0.3502    0.0000 C   0  0
    7.9449    0.7646    0.0000 C   0  0
    7.2274    0.3488    0.0000 C   0  0
    7.2294   -0.4741    0.0000 C   0  0
    0.0583   -1.2750    0.0000 Na  0  3
   -0.5333   -5.4292    0.0000 Na  0  3
   -1.0042   -3.1500    0.0000 Na  0  3
  3  4  1  0
  3 11  1  6
 20 22  2  0
  4  5  1  0
 20 23  2  0
  7 12  1  0
  8 24  1  0
  5  6  1  0
 24 25  1  0
 11 13  1  0
 24 26  2  0
 24 27  2  0
 12 14  1  0
  5  7  1  1
  9 28  1  0
 14 15  1  0
 28 29  1  0
  1  2  1  0
 28 30  2  0
 14 16  2  0
 28 31  2  0
  1  8  1  1
 15 17  1  0
 17 32  1  0
  1  6  1  0
 18 33  1  0
 17 18  1  0
 32 34  1  0
  2  9  1  1
 34 35  1  0
 18 19  2  0
 35 36  2  0
  2  3  1  0
 36 37  1  0
 10 20  1  0
 37 38  2  0
  6 10  1  6
 38 39  1  0
 20 21  1  0
 39 40  2  0
 40 35  1  0
M  CHG  6  21  -1  25  -1  29  -1  41   1  42   1  43   1
M  END