
          11280715362D 1   1.00000     0.00000     0

 36 39  0     1  0            999 V2000
    0.4292   -1.9292    0.0000 C   0  0  1  0  0  0           0  0  0
    0.4667   -1.1042    0.0000 C   0  0  2  0  0  0           0  0  0
    1.0667   -2.4500    0.0000 N   0  0  3  0  0  0           0  0  0
   -0.3708   -2.1417    0.0000 C   0  0  0  0  0  0           0  0  0
    3.3792    0.5833    0.0000 C   0  0  0  0  0  0           0  0  0
   -0.2958   -0.8125    0.0000 C   0  0  2  0  0  0           0  0  0
    2.5625    0.5708    0.0000 C   0  0  0  0  0  0           0  0  0
    4.6667   -1.5167    0.0000 C   0  0  0  0  0  0           0  0  0
   -0.5083   -0.0125    0.0000 O   0  0  0  0  0  0           0  0  0
    4.6250   -0.1292    0.0000 N   0  0  0  0  0  0           0  0  0
   -0.8208   -1.4542    0.0000 C   0  0  0  0  0  0           0  0  0
    5.2792   -1.2750    0.0000 O   0  0  0  0  0  0           0  0  0
    3.7792    1.2958    0.0000 C   0  0  0  0  0  0           0  0  0
    2.1500   -0.1417    0.0000 C   0  0  0  0  0  0           0  0  0
    2.1292    1.2875    0.0000 C   0  0  0  0  0  0           0  0  0
    2.3417   -0.7750    0.0000 C   0  0  0  0  0  0           0  0  0
    3.0542   -0.9625    0.0000 C   0  0  0  0  0  0           0  0  0
    1.1667   -0.6625    0.0000 O   0  0  0  0  0  0           0  0  0
    0.0792    0.5708    0.0000 C   0  0  0  0  0  0           0  0  0
    0.9042    0.5625    0.0000 C   0  0  0  0  0  0           0  0  0
    4.6792   -2.2125    0.0000 O   0  0  0  0  0  0           0  0  0
    1.3125    1.2833    0.0000 C   0  0  0  0  0  0           0  0  0
    1.3250   -0.1542    0.0000 C   0  0  0  0  0  0           0  0  0
    3.8000   -0.1292    0.0000 C   0  0  0  0  0  0           0  0  0
    1.8125   -2.1042    0.0000 C   0  0  0  0  0  0           0  0  0
    0.8792   -3.2542    0.0000 C   0  0  0  0  0  0           0  0  0
    1.7792   -1.1500    0.0000 C   0  0  0  0  0  0           0  0  0
    4.0917   -1.1792    0.0000 C   0  0  0  0  0  0           0  0  0
    5.0292    0.5958    0.0000 C   0  0  0  0  0  0           0  0  0
    3.3667   -1.4625    0.0000 C   0  0  0  0  0  0           0  0  0
    4.6042    1.3083    0.0000 C   0  0  0  0  0  0           0  0  0
    3.3667    2.0208    0.0000 C   0  0  0  0  0  0           0  0  0
    2.5542   -2.4667    0.0000 C   0  0  0  0  0  0           0  0  0
    1.3917   -3.9042    0.0000 C   0  0  0  0  0  0           0  0  0
    2.7375   -3.2667    0.0000 C   0  0  0  0  0  0           0  0  0
    2.2167   -3.9125    0.0000 C   0  0  0  0  0  0           0  0  0
  2  1  1  0     0  0
  1  3  1  1     0  0
  4  1  1  0     0  0
  5  7  1  0     0  0
  6  2  1  0     0  0
  7 14  2  0     0  0
  8 28  1  0     0  0
  6  9  1  1     0  0
 10 24  1  0     0  0
 11  4  1  0     0  0
 12  8  2  0     0  0
 13  5  1  0     0  0
 14 23  1  0     0  0
 15 22  2  0     0  0
 16 27  1  0     0  0
 17 16  2  0     0  0
  2 18  1  6     0  0
 19  9  1  0     0  0
 20 19  1  0     0  0
 21  8  1  0     0  0
 22 20  1  0     0  0
 23 20  2  0     0  0
 24  5  2  0     0  0
 25  3  1  0     0  0
 26  3  1  0     0  0
 27 18  1  0     0  0
 28 30  1  0     0  0
 29 10  2  0     0  0
 30 17  1  0     0  0
 31 13  2  0     0  0
 32 13  1  0     0  0
 33 25  1  0     0  0
 34 26  1  0     0  0
 35 33  1  0     0  0
 36 34  1  0     0  0
 11  6  1  0     0  0
 36 35  1  0     0  0
 15  7  1  0     0  0
 31 29  1  0     0  0
M  END