
  SciTegic05171617282D

 40 44  0  0  0  0            999 V2000
    2.5956   -2.7031    0.0000 C   0  0
    2.5973   -1.5031    0.0000 N   0  0
    3.6375   -0.9049    0.0000 C   0  0
    1.2990   -0.7500    0.0000 C   0  0
    1.2990    0.7500    0.0000 C   0  0
    0.0000    1.5000    0.0000 C   0  0
   -1.2990    0.7500    0.0000 C   0  0
   -2.6003    1.4977    0.0000 O   0  0
   -3.8990    0.7455    0.0000 C   0  0
   -3.8939   -0.7546    0.0000 C   0  0
   -5.1903   -1.5091    0.0000 C   0  0
   -5.1862   -2.7091    0.0000 O   0  0
   -6.4920   -0.7636    0.0000 C   0  0
   -6.4972    0.7364    0.0000 C   0  0
   -7.5385    1.3328    0.0000 O   0  0
   -5.2007    1.4909    0.0000 C   0  0
   -5.2060    2.9916    0.0000 C   0  0
   -3.9968    3.8576    0.0000 C   0  0
   -4.4675    5.2818    0.0000 C   0  0
   -5.9675    5.2743    0.0000 N   0  0
   -6.4238    3.8453    0.0000 O   0  0
   -3.5955    6.5002    0.0000 C   0  0
   -2.4013    6.3829    0.0000 O   0  0
   -4.2149    7.8673    0.0000 N   0  0
   -3.3414    9.0877    0.0000 C   0  0
   -3.9584   10.4550    0.0000 C   0  0
   -3.0829   11.6730    0.0000 C   0  0
   -1.5904   11.5238    0.0000 N   0  0
   -0.9733   10.1566    0.0000 C   0  0
   -1.8488    8.9386    0.0000 C   0  0
   -0.7144   12.7424    0.0000 C   0  0
   -1.3293   14.1107    0.0000 C   0  0
   -0.4519   15.3273    0.0000 C   0  0
    1.0405   15.1757    0.0000 C   0  0
    0.5228   16.2583    0.0000 F   0  0
    2.2311   15.0265    0.0000 F   0  0
    1.6554   13.8076    0.0000 C   0  0
    0.7779   12.5909    0.0000 C   0  0
   -1.2990   -0.7500    0.0000 C   0  0
    0.0000   -1.5000    0.0000 C   0  0
  1  2  1  0
  2  3  1  0
  2  4  1  0
  4  5  2  0
  5  6  1  0
  6  7  2  0
  7  8  1  0
  8  9  1  0
  9 10  2  0
 10 11  1  0
 11 12  1  0
 11 13  2  0
 13 14  1  0
 14 15  1  0
 14 16  2  0
  9 16  1  0
 16 17  1  0
 17 18  2  0
 18 19  1  0
 19 20  2  0
 20 21  1  0
 17 21  1  0
 19 22  1  0
 22 23  2  0
 22 24  1  0
 24 25  1  0
 25 26  1  0
 26 27  1  0
 27 28  1  0
 28 29  1  0
 29 30  1  0
 25 30  1  0
 28 31  1  0
 31 32  1  0
 32 33  1  0
 33 34  1  0
 34 35  1  0
 34 36  1  0
 34 37  1  0
 37 38  1  0
 31 38  1  0
  7 39  1  0
 39 40  2  0
  4 40  1  0
M  END