
  Mrv0541 09091309592D          

 29 30  0  0  0  0            999 V2000
   -5.1346   -1.8469    0.0000 C   0  0  0  0  0  0  0  0  0  0  0  0
   -5.1360   -2.6745    0.0000 C   0  0  0  0  0  0  0  0  0  0  0  0
   -4.4230   -3.0874    0.0000 C   0  0  0  0  0  0  0  0  0  0  0  0
   -3.7037   -2.6740    0.0000 C   0  0  0  0  0  0  0  0  0  0  0  0
   -3.7068   -1.8430    0.0000 C   0  0  0  0  0  0  0  0  0  0  0  0
   -4.4250   -1.4342    0.0000 C   0  0  0  0  0  0  0  0  0  0  0  0
   -5.8509   -3.0860    0.0000 I   0  0  0  0  0  0  0  0  0  0  0  0
   -4.4244   -3.9124    0.0000 O   0  0  0  0  0  0  0  0  0  0  0  0
   -5.1395   -4.3237    0.0000 C   0  0  0  0  0  0  0  0  0  0  0  0
   -4.4288   -0.6093    0.0000 O   0  0  0  0  0  0  0  0  0  0  0  0
   -3.7164   -0.1934    0.0000 C   0  0  0  0  0  0  0  0  0  0  0  0
   -2.9945   -1.4270    0.0000 C   0  0  0  0  0  0  0  0  0  0  0  0
   -2.2780   -1.8359    0.0000 C   0  0  0  0  0  0  0  0  0  0  0  0
   -1.5656   -1.4198    0.0000 N   0  0  0  0  0  0  0  0  0  0  0  0
   -1.5697   -0.5950    0.0000 C   0  0  0  0  0  0  0  0  0  0  0  0
   -0.8573   -0.1789    0.0000 C   0  0  0  0  0  0  0  0  0  0  0  0
   -0.1412   -0.5904    0.0000 C   0  0  0  0  0  0  0  0  0  0  0  0
    0.5707   -0.1752    0.0000 C   0  0  0  0  0  0  0  0  0  0  0  0
    0.5670    0.6506    0.0000 C   0  0  0  0  0  0  0  0  0  0  0  0
   -0.1545    1.0594    0.0000 C   0  0  0  0  0  0  0  0  0  0  0  0
   -0.8635    0.6417    0.0000 C   0  0  0  0  0  0  0  0  0  0  0  0
   -1.5813    1.0484    0.0000 O   0  0  0  0  0  0  0  0  0  0  0  0
   -1.5880    1.8733    0.0000 C   0  0  0  0  0  0  0  0  0  0  0  0
   -1.5949    2.6995    0.0000 H   0  0  0  0  0  0  0  0  0  0  0  0
   -0.7630    1.8801    0.0000 H   0  0  0  0  0  0  0  0  0  0  0  0
   -2.4128    1.8652    0.0000 H   0  0  0  0  0  0  0  0  0  0  0  0
   -3.0065    0.2246    0.0000 H   0  0  0  0  0  0  0  0  0  0  0  0
   -3.2992   -0.9051    0.0000 H   0  0  0  0  0  0  0  0  0  0  0  0
   -4.1325    0.5188    0.0000 H   0  0  0  0  0  0  0  0  0  0  0  0
  2  7  1  0  0  0  0
 14 15  1  0  0  0  0
  3  4  2  0  0  0  0
 15 16  1  0  0  0  0
  3  8  1  0  0  0  0
 16 17  2  0  0  0  0
 17 18  1  0  0  0  0
  8  9  1  0  0  0  0
 18 19  2  0  0  0  0
  4  5  1  0  0  0  0
 19 20  1  0  0  0  0
  6 10  1  0  0  0  0
 20 21  2  0  0  0  0
 21 16  1  0  0  0  0
  2  3  1  0  0  0  0
 21 22  1  0  0  0  0
 10 11  1  0  0  0  0
 22 23  1  0  0  0  0
  5  6  2  0  0  0  0
 23 24  1  0  0  0  0
  5 12  1  0  0  0  0
 23 25  1  0  0  0  0
  6  1  1  0  0  0  0
 23 26  1  0  0  0  0
 12 13  1  0  0  0  0
 11 27  1  0  0  0  0
  1  2  2  0  0  0  0
 11 28  1  0  0  0  0
 13 14  1  0  0  0  0
 11 29  1  0  0  0  0
M  ISO  6  24   3  25   3  26   3  27   3  28   3  29   3
M  END