
          11280715452D 1   1.00000     0.00000     0

 17 19  0     0  0            999 V2000
    1.5875   -1.2042    0.0000 N   0  0  0  0  0  0           0  0  0
   -1.2625    0.4458    0.0000 C   0  0  3  0  0  0           0  0  0
   -0.5500    0.0250    0.0000 C   0  0  0  0  0  0           0  0  0
    0.8750   -0.8000    0.0000 C   0  0  0  0  0  0           0  0  0
    0.1667    0.4458    0.0000 C   0  0  0  0  0  0           0  0  0
    0.8792    0.0250    0.0000 C   0  0  0  0  0  0           0  0  0
    2.3000   -0.8042    0.0000 C   0  0  0  0  0  0           0  0  0
   -1.2583    1.2625    0.0000 O   0  0  0  0  0  0           0  0  0
   -1.9750    0.0250    0.0000 O   0  0  0  0  0  0           0  0  0
   -0.5500   -0.8000    0.0000 C   0  0  0  0  0  0           0  0  0
    0.1667   -1.2167    0.0000 C   0  0  0  0  0  0           0  0  0
    1.5875    0.4250    0.0000 C   0  0  0  0  0  0           0  0  0
    3.0125   -1.2167    0.0000 N   0  0  0  0  0  0           0  0  0
    2.3000    0.0208    0.0000 C   0  0  0  0  0  0           0  0  0
   -2.6833    1.2833    0.0000 C   0  0  0  0  0  0           0  0  0
   -2.6875    0.4458    0.0000 C   0  0  0  0  0  0           0  0  0
   -1.9708    1.6833    0.0000 C   0  0  0  0  0  0           0  0  0
  2  3  1  0     0  0
  3 10  2  0     0  0
  4  1  1  0     0  0
  5  6  2  0     0  0
  6  4  1  0     0  0
  7  1  2  0     0  0
  8  2  1  0     0  0
  9  2  1  0     0  0
 10 11  1  0     0  0
 11  4  2  0     0  0
 12 14  2  0     0  0
 13  7  1  0     0  0
 14  7  1  0     0  0
 15 16  1  0     0  0
 16  9  1  0     0  0
 17  8  1  0     0  0
  6 12  1  0     0  0
  5  3  1  0     0  0
 17 15  1  0     0  0
M  END