
  CDK    9/16/09,10:4

 30 33  0  0  0  0  0  0  0  0999 V2000
    7.6098    1.3913    0.0000 C   0  0  0  0  0  0  0  0  0  0  0  0
    7.2046    0.6708    0.0000 C   0  0  0  0  0  0  0  0  0  0  0  0
    7.6259   -0.0383    0.0000 C   0  0  0  0  0  0  0  0  0  0  0  0
    8.4319    1.4033    0.0000 C   0  0  0  0  0  0  0  0  0  0  0  0
    8.4552   -0.0269    0.0000 C   0  0  0  0  0  0  0  0  0  0  0  0
    8.8556    0.6972    0.0000 C   0  0  0  0  0  0  0  0  0  0  0  0
    9.6765    0.8395    0.0000 N   0  0  0  0  0  0  0  0  0  0  0  0
    8.7757   -0.7959    0.0000 C   0  0  0  0  0  0  0  0  0  0  0  0
   10.2991    0.2908    0.0000 C   0  0  0  0  0  0  0  0  0  0  0  0
    9.5766   -1.0237    0.0000 N   0  0  0  0  0  0  0  0  0  0  0  0
   10.2524   -0.5380    0.0000 C   0  0  0  0  0  0  0  0  0  0  0  0
    9.9006    1.6327    0.0000 C   0  0  0  0  0  0  0  0  0  0  0  0
    8.3602   -1.5016    0.0000 C   0  0  0  0  0  0  0  0  0  0  0  0
    7.5349   -1.4925    0.0000 C   0  0  0  0  0  0  0  0  0  0  0  0
    7.1161   -2.2016    0.0000 C   0  0  0  0  0  0  0  0  0  0  0  0
    7.5216   -2.9203    0.0000 C   0  0  0  0  0  0  0  0  0  0  0  0
    8.3502   -2.9254    0.0000 C   0  0  0  0  0  0  0  0  0  0  0  0
    8.7651   -2.2157    0.0000 C   0  0  0  0  0  0  0  0  0  0  0  0
   11.0596    0.6088    0.0000 O   0  0  0  0  0  0  0  0  0  0  0  0
   10.9750   -0.9346    0.0000 N   0  0  0  0  0  0  0  0  0  0  0  0
   11.6798   -0.5072    0.0000 C   0  0  0  0  0  0  0  0  0  0  0  0
   12.4024   -0.9037    0.0000 N   0  0  0  0  0  0  0  0  0  0  0  0
   11.6620    0.3169    0.0000 O   0  0  0  0  0  0  0  0  0  0  0  0
   13.1072   -0.4763    0.0000 C   0  0  0  0  0  0  0  0  0  0  0  0
   13.8310   -0.8762    0.0000 C   0  0  0  0  0  0  0  0  0  0  0  0
   14.5353   -0.4494    0.0000 C   0  0  0  0  0  0  0  0  0  0  0  0
   14.5179    0.3756    0.0000 C   0  0  0  0  0  0  0  0  0  0  0  0
   13.7902    0.7719    0.0000 C   0  0  0  0  0  0  0  0  0  0  0  0
   13.0889    0.3429    0.0000 C   0  0  0  0  0  0  0  0  0  0  0  0
   13.7696    1.5959    0.0000 I   0  0  0  0  0  0  0  0  0  0  0  0
 14 15  1  0  0  0  0 
  1  2  2  0  0  0  0 
 15 16  2  0  0  0  0 
  5  8  1  0  0  0  0 
 16 17  1  0  0  0  0 
  6  4  2  0  0  0  0 
 17 18  2  0  0  0  0 
 18 13  1  0  0  0  0 
  8 13  1  0  0  0  0 
  7  9  1  0  0  0  0 
  9 19  2  0  0  0  0 
  4  1  1  0  0  0  0 
 11 20  1  1  0  0  0 
  8 10  2  0  0  0  0 
 20 21  1  0  0  0  0 
 21 22  1  0  0  0  0 
  9 11  1  0  0  0  0 
 21 23  2  0  0  0  0 
 10 11  1  0  0  0  0 
 22 24  1  0  0  0  0 
  2  3  1  0  0  0  0 
 24 25  2  0  0  0  0 
  7 12  1  0  0  0  0 
 25 26  1  0  0  0  0 
  5  6  1  0  0  0  0 
 26 27  2  0  0  0  0 
  3  5  2  0  0  0  0 
 27 28  1  0  0  0  0 
 13 14  2  0  0  0  0 
 28 29  2  0  0  0  0 
 29 24  1  0  0  0  0 
  6  7  1  0  0  0  0 
 28 30  1  0  0  0  0 
M  ISO  1  30 125
M  END