
  SciTegic08041117222D

 18 19  0  0  0  0            999 V2000
   21.8831   -4.3504    0.0000 N   0  0
   21.8820   -5.1776    0.0000 C   0  0
   22.5964   -5.5903    0.0000 C   0  0
   23.3123   -5.1767    0.0000 C   0  0
   23.3094   -4.3470    0.0000 C   0  0
   22.5947   -3.9377    0.0000 C   0  0
   22.5924   -3.1127    0.0000 N   0  0
   21.2176   -5.6660    0.0000 N   0  0
   24.0278   -5.5875    0.0000 N   0  0
   24.1197   -6.4037    0.0000 C   0  0
   24.9270   -6.5734    0.0000 C   0  0
   25.3378   -5.8578    0.0000 C   0  0  2  0  0  0
   24.7843   -5.2462    0.0000 C   0  0
   26.1581   -5.7696    0.0000 N   0  0
   26.4918   -5.0152    0.0000 C   0  0
   20.4621   -5.3347    0.0000 C   0  0
   19.7975   -5.8234    0.0000 C   0  0
   20.3712   -4.5149    0.0000 C   0  0
  4  9  1  0
  9 10  1  0
  4  5  1  0
  2  3  1  0
  5  6  2  0
  6  1  1  0
 10 11  1  0
 11 12  1  0
 12 13  1  0
 13  9  1  0
  1  2  2  0
 12 14  1  6
  6  7  1  0
 14 15  1  0
  3  4  2  0
  8 16  1  0
  2  8  1  0
 16 17  1  0
 16 18  1  0
M  END