
  SciTegic06051313522D

 54 59  0  0  0  0            999 V2000
    2.8834  -17.5671    0.0000 C   0  0  2  0  0  0
    2.8834  -18.3922    0.0000 C   0  0  1  0  0  0
    3.5954  -18.8005    0.0000 C   0  0  1  0  0  0
    4.3075  -18.3922    0.0000 C   0  0  2  0  0  0
    4.3075  -17.5671    0.0000 C   0  0  1  0  0  0
    3.5954  -17.1505    0.0000 O   0  0
    5.0232  -17.1567    0.0000 O   0  0
    5.0214  -18.8057    0.0000 O   0  0
    3.5954  -19.6255    0.0000 O   0  0
    2.1695  -18.8057    0.0000 O   0  0
    2.1677  -17.1567    0.0000 C   0  0
    2.8809  -20.0380    0.0000 C   0  0
    2.8809  -20.8630    0.0000 C   0  0
    2.1633  -21.2722    0.0000 C   0  0
    2.1629  -22.0964    0.0000 C   0  0
    2.8780  -22.5099    0.0000 C   0  0
    3.5948  -22.0929    0.0000 C   0  0
    3.5917  -21.2700    0.0000 C   0  0
    2.8790  -23.3348    0.0000 O   0  0
    2.1652  -23.7483    0.0000 C   0  0
    1.4534  -23.3325    0.0000 C   0  0
    0.7399  -23.7453    0.0000 C   0  0
    0.7406  -24.5711    0.0000 C   0  0
    1.4607  -24.9825    0.0000 C   0  0
    2.1712  -24.5674    0.0000 C   0  0
    5.0164  -16.3267    0.0000 C   0  0  1  0  0  0
    5.7294  -15.9097    0.0000 C   0  0  1  0  0  0
    5.7261  -15.0883    0.0000 C   0  0  2  0  0  0
    5.0109  -14.6765    0.0000 C   0  0  1  0  0  0
    4.2972  -15.0922    0.0000 O   0  0
    4.2988  -15.9199    0.0000 C   0  0  2  0  0  0
    5.0092  -13.8496    0.0000 O   0  0
    4.3011  -13.4263    0.0000 C   0  0
    3.5804  -13.8279    0.0000 C   0  0
    2.8723  -13.4046    0.0000 C   0  0
    2.1516  -13.8063    0.0000 N   0  0
    1.4434  -13.3830    0.0000 N   0  3
    0.7350  -12.9663    0.0000 N   0  5
    6.4396  -14.6740    0.0000 N   0  0
    7.1976  -15.0058    0.0000 C   0  0
    6.5272  -13.8516    0.0000 C   0  0
    7.3337  -13.6778    0.0000 C   0  0
    7.7471  -14.3906    0.0000 C   0  0
    8.5692  -14.3879    0.0000 C   0  0
    8.9789  -13.6732    0.0000 C   0  0
    8.5605  -12.9597    0.0000 C   0  0
    7.7397  -12.9659    0.0000 C   0  0
    5.9137  -13.2999    0.0000 O   0  0
    7.3732  -15.8119    0.0000 O   0  0
    6.4459  -16.3188    0.0000 O   0  0
    5.5960  -16.9088    0.0000 H   0  0
    3.5863  -16.3360    0.0000 C   0  0
    2.8698  -15.9270    0.0000 O   0  0
    1.4544  -17.5713    0.0000 O   0  0
  1  2  1  0
  1  6  1  0
  2  3  1  0
  3  4  1  0
  4  5  1  0
  5  6  1  0
  5  7  1  1
  4  8  1  6
  3  9  1  1
  2 10  1  1
  1 11  1  1
  9 12  1  0
 12 13  1  0
 13 14  2  0
 14 15  1  0
 15 16  2  0
 16 17  1  0
 17 18  2  0
 18 13  1  0
 16 19  1  0
 19 20  1  0
 20 21  2  0
 21 22  1  0
 22 23  2  0
 23 24  1  0
 24 25  2  0
 25 20  1  0
  7 26  1  0
 26 27  1  0
 26 31  1  0
 27 28  1  0
 28 29  1  0
 29 30  1  0
 30 31  1  0
 29 32  1  1
 32 33  1  0
 33 34  1  0
 34 35  1  0
 35 36  1  0
 36 37  2  0
 37 38  2  0
 28 39  1  6
 39 40  1  0
 40 43  1  0
 42 41  1  0
 41 39  1  0
 42 43  2  0
 43 44  1  0
 44 45  2  0
 45 46  1  0
 46 47  2  0
 47 42  1  0
 41 48  2  0
 40 49  2  0
 27 50  1  1
 26 51  1  1
 31 52  1  1
 52 53  1  0
 11 54  1  0
M  CHG  2  37   1  38  -1
M  END