
  SciTegic10301317112D

 33 33  0  0  0  0            999 V2000
   -4.6875    0.6458    0.0000 S   0  0
   -1.3958    0.6583    0.0000 C   0  0
   -3.8625    0.6458    0.0000 C   0  0
    6.1667   -3.4500    0.0000 C   0  0
    4.9417   -2.7042    0.0000 N   0  0
    4.1167   -2.7042    0.0000 C   0  0
   -0.9833   -0.0542    0.0000 N   0  0
   -4.6958   -0.1792    0.0000 O   0  0
   -4.6875    1.4708    0.0000 O   0  0
    0.2625   -0.7542    0.0000 C   0  0
    2.3917   -1.3292    0.0000 C   0  0
    5.3417   -3.4292    0.0000 C   0  0  1  0  0  0
   -2.2208    0.6583    0.0000 C   0  0
   -5.5208    0.6500    0.0000 N   0  0
    2.8792   -2.0000    0.0000 N   0  0
    1.0875   -0.7542    0.0000 N   0  0
   -0.9875    1.3750    0.0000 O   0  0
    6.5917   -2.7417    0.0000 O   0  0
    3.7167   -3.4250    0.0000 O   0  0
   -0.1458   -1.4750    0.0000 O   0  0
    2.7292   -0.5792    0.0000 O   0  0
   -3.4625    1.3583    0.0000 C   0  0
   -3.4500   -0.0667    0.0000 C   0  0
   -2.6333   -0.0625    0.0000 C   0  0
   -2.6458    1.3708    0.0000 C   0  0
   -0.1583   -0.0417    0.0000 C   0  0
    3.7042   -1.9917    0.0000 C   0  0
    1.5750   -1.4167    0.0000 C   0  0
    6.5542   -4.1750    0.0000 O   0  0
    4.9042   -4.1292    0.0000 C   0  0
    5.3042   -4.8542    0.0000 C   0  0
    4.8667   -5.5625    0.0000 C   0  0
    5.2667   -6.2875    0.0000 C   0  0
  2 13  1  0
  3  1  1  0
  4 12  1  0
  5  6  1  0
  6 27  1  0
  7  2  1  0
  8  1  2  0
  9  1  2  0
 10 26  1  0
 11 28  1  0
 12  5  1  0
 13 24  2  0
 14  1  1  0
 15 11  1  0
 16 10  1  0
 17  2  2  0
 18  4  2  0
 19  6  2  0
 20 10  2  0
 21 11  2  0
 22  3  1  0
 23  3  2  0
 24 23  1  0
 25 22  2  0
 26  7  1  0
 27 15  1  0
 28 16  1  0
 29  4  1  0
 12 30  1  6
 31 30  1  0
 32 31  1  0
 33 32  1  0
 25 13  1  0
M  END