
          11280715222D 1   1.00000     0.00000     0

 27 29  0     0  0            999 V2000
    4.7750   -1.9917    0.0000 S   0  0  3  0  0  0           0  0  0
    4.0750   -2.4042    0.0000 C   0  0  0  0  0  0           0  0  0
    2.6875   -2.4042    0.0000 C   0  0  0  0  0  0           0  0  0
    2.6875   -3.2125    0.0000 C   0  0  0  0  0  0           0  0  0
    3.3792   -2.0000    0.0000 C   0  0  0  0  0  0           0  0  0
    3.3792   -3.6167    0.0000 C   0  0  0  0  0  0           0  0  0
    4.0875   -3.2125    0.0000 C   0  0  0  0  0  0           0  0  0
    1.9875   -2.0000    0.0000 C   0  0  3  0  0  0           0  0  0
    1.9875   -3.6167    0.0000 C   0  0  3  0  0  0           0  0  0
    5.4667   -2.4000    0.0000 C   0  0  0  0  0  0           0  0  0
    7.5542   -3.6167    0.0000 C   0  0  0  0  0  0           0  0  0
    5.6917   -1.3292    0.0000 O   0  0  0  0  0  0           0  0  0
    3.9167   -1.3292    0.0000 O   0  0  0  0  0  0           0  0  0
    6.8542   -3.2125    0.0000 C   0  0  0  0  0  0           0  0  0
    1.2917   -2.4042    0.0000 C   0  0  0  0  0  0           0  0  0
    1.2917   -3.2125    0.0000 C   0  0  0  0  0  0           0  0  0
    7.3292   -4.4042    0.0000 O   0  0  0  0  0  0           0  0  0
    6.1625   -2.0000    0.0000 C   0  0  0  0  0  0           0  0  0
    5.4667   -3.2042    0.0000 C   0  0  0  0  0  0           0  0  0
    6.1542   -3.6125    0.0000 C   0  0  0  0  0  0           0  0  0
    6.8625   -2.4042    0.0000 C   0  0  0  0  0  0           0  0  0
    8.2417   -3.2125    0.0000 O   0  0  0  0  0  0           0  0  0
    4.7750   -3.6167    0.0000 C   0  0  0  0  0  0           0  0  0
    2.5542   -1.4292    0.0000 C   0  0  0  0  0  0           0  0  0
    1.2792   -1.5917    0.0000 C   0  0  0  0  0  0           0  0  0
    2.6750   -4.0167    0.0000 C   0  0  0  0  0  0           0  0  0
    1.2792   -4.0167    0.0000 C   0  0  0  0  0  0           0  0  0
  2  1  1  0     0  0
  3  5  1  0     0  0
  4  6  1  0     0  0
  5  2  2  0     0  0
  6  7  2  0     0  0
  7  2  1  0     0  0
  8  3  1  0     0  0
  9  4  1  0     0  0
 10  1  1  0     0  0
 11 14  1  0     0  0
 12  1  2  0     0  0
 13  1  2  0     0  0
 14 20  2  0     0  0
 15  8  1  0     0  0
 16  9  1  0     0  0
 17 11  2  0     0  0
 18 10  1  0     0  0
 19 10  2  0     0  0
 20 19  1  0     0  0
 21 18  2  0     0  0
 22 11  1  0     0  0
 23  7  1  0     0  0
 24  8  1  0     0  0
 25  8  1  0     0  0
 26  9  1  0     0  0
 27  9  1  0     0  0
 21 14  1  0     0  0
  3  4  2  0     0  0
 15 16  1  0     0  0
M  END