
          11280714492D 1   1.00000     0.00000     0

 33 35  0     0  0            999 V2000
    3.7667   -2.6000    0.0000 N   0  0  0  0  0  0           0  0  0
    4.3167   -3.2125    0.0000 C   0  0  0  0  0  0           0  0  0
    3.0125   -2.9375    0.0000 C   0  0  0  0  0  0           0  0  0
    2.3000   -2.5250    0.0000 C   0  0  0  0  0  0           0  0  0
    3.1000   -3.7542    0.0000 O   0  0  0  0  0  0           0  0  0
    2.3000   -1.7000    0.0000 C   0  0  0  0  0  0           0  0  0
    3.9042   -3.9250    0.0000 C   0  0  0  0  0  0           0  0  0
    5.1375   -3.1250    0.0000 C   0  0  0  0  0  0           0  0  0
    3.0125   -1.2875    0.0000 C   0  0  0  0  0  0           0  0  0
    3.0125   -0.4625    0.0000 C   0  0  0  0  0  0           0  0  0
    5.8750   -0.4542    0.0000 C   0  0  0  0  0  0           0  0  0
    3.7250   -0.0417    0.0000 C   0  0  0  0  0  0           0  0  0
    5.4750   -2.3667    0.0000 O   0  0  0  0  0  0           0  0  0
    6.5875   -0.0417    0.0000 O   0  0  0  0  0  0           0  0  0
    5.6250   -3.7917    0.0000 N   0  0  0  0  0  0           0  0  0
    4.4417   -0.4625    0.0000 C   0  0  0  0  0  0           0  0  0
    5.1542   -0.0417    0.0000 C   0  0  0  0  0  0           0  0  0
    9.3667   -4.0875    0.0000 C   0  0  0  0  0  0           0  0  0
    5.8750   -1.2792    0.0000 O   0  0  0  0  0  0           0  0  0
    7.7417   -4.2792    0.0000 C   0  0  0  0  0  0           0  0  0
   10.1917   -4.0875    0.0000 Cl  0  0  0  0  0  0           0  0  0
    8.8750   -3.4292    0.0000 C   0  0  0  0  0  0           0  0  0
    9.0417   -4.8417    0.0000 C   0  0  0  0  0  0           0  0  0
    8.0625   -3.5292    0.0000 C   0  0  0  0  0  0           0  0  0
    8.2292   -4.9292    0.0000 C   0  0  0  0  0  0           0  0  0
    6.4417   -3.7042    0.0000 C   0  0  0  0  0  0           0  0  0
    1.5792   -1.2875    0.0000 C   0  0  0  0  0  0           0  0  0
    1.5792   -2.9375    0.0000 C   0  0  0  0  0  0           0  0  0
    2.3000   -0.0417    0.0000 C   0  0  0  0  0  0           0  0  0
    6.9292   -4.3750    0.0000 C   0  0  0  0  0  0           0  0  0
    3.7250    0.7833    0.0000 C   0  0  0  0  0  0           0  0  0
    2.3000    0.7750    0.0000 C   0  0  0  0  0  0           0  0  0
    3.0125    1.1958    0.0000 C   0  0  0  0  0  0           0  0  0
  2  1  1  0     0  0
  3  1  2  0     0  0
  4  3  1  0     0  0
  5  3  1  0     0  0
  6  4  2  0     0  0
  7  2  2  0     0  0
  8  2  1  0     0  0
  9  6  1  0     0  0
 10  9  1  0     0  0
 11 17  1  0     0  0
 12 10  2  0     0  0
 13  8  2  0     0  0
 14 11  2  0     0  0
 15  8  1  0     0  0
 16 12  1  0     0  0
 17 16  1  0     0  0
 18 23  2  0     0  0
 19 11  1  0     0  0
 20 30  1  0     0  0
 21 18  1  0     0  0
 22 24  2  0     0  0
 23 25  1  0     0  0
 24 20  1  0     0  0
 25 20  2  0     0  0
 26 15  1  0     0  0
 27  6  1  0     0  0
 28  4  1  0     0  0
 29 10  1  0     0  0
 30 26  1  0     0  0
 31 12  1  0     0  0
 32 29  2  0     0  0
 33 32  1  0     0  0
  7  5  1  0     0  0
 33 31  2  0     0  0
 18 22  1  0     0  0
M  END