
          08180812492D 1   1.00000     0.00000     0

 29 31  0     0  0            999 V2000
    0.1486   -0.8708    0.0000 C   0  0  0  0  0  0           0  0  0
    0.1474   -1.6982    0.0000 C   0  0  0  0  0  0           0  0  0
    0.8622   -2.1110    0.0000 C   0  0  0  0  0  0           0  0  0
    1.5787   -1.6977    0.0000 C   0  0  0  0  0  0           0  0  0
    1.5758   -0.8672    0.0000 C   0  0  0  0  0  0           0  0  0
    0.8604   -0.4580    0.0000 C   0  0  0  0  0  0           0  0  0
   -0.5674   -2.1101    0.0000 C   0  0  0  0  0  0           0  0  0
   -1.2815   -1.6970    0.0000 N   0  0  3  0  0  0           0  0  0
   -0.5680   -2.9351    0.0000 O   0  0  0  0  0  0           0  0  0
   -1.2815   -0.8724    0.0000 C   0  0  0  0  0  0           0  0  0
   -1.9915   -0.4594    0.0000 C   0  0  0  0  0  0           0  0  0
   -2.7087   -0.8678    0.0000 N   0  0  3  0  0  0           0  0  0
   -2.7114   -1.6938    0.0000 C   0  0  0  0  0  0           0  0  0
   -1.9968   -2.1113    0.0000 C   0  0  0  0  0  0           0  0  0
    2.2887   -0.4520    0.0000 O   0  0  0  0  0  0           0  0  0
    2.2856    0.3730    0.0000 C   0  0  0  0  0  0           0  0  0
    3.0003    0.7834    0.0000 C   0  0  0  0  0  0           0  0  0
    2.9975    1.6076    0.0000 C   0  0  0  0  0  0           0  0  0
    2.2810    2.0182    0.0000 C   0  0  0  0  0  0           0  0  0
    1.5657    1.5986    0.0000 C   0  0  0  0  0  0           0  0  0
    1.5720    0.7758    0.0000 C   0  0  0  0  0  0           0  0  0
    2.2938   -2.1091    0.0000 C   0  0  0  0  0  0           0  0  0
    3.0076   -1.6954    0.0000 N   0  0  0  0  0  0           0  0  0
    3.7227   -2.1068    0.0000 C   0  0  0  0  0  0           0  0  0
    2.2768    2.8432    0.0000 S   0  0  0  0  0  0           0  0  0
    2.9891    3.2594    0.0000 C   0  0  0  0  0  0           0  0  0
   -3.4213   -0.4521    0.0000 C   0  0  3  0  0  0           0  0  0
   -3.4175    0.3729    0.0000 C   0  0  0  0  0  0           0  0  0
   -4.1377   -0.8613    0.0000 C   0  0  0  0  0  0           0  0  0
 13 14  1  0     0  0
  2  7  1  0     0  0
  5 15  1  0     0  0
  3  4  2  0     0  0
 15 16  1  0     0  0
  7  8  1  0     0  0
 16 17  2  0     0  0
 17 18  1  0     0  0
  7  9  2  0     0  0
 18 19  2  0     0  0
  8 10  1  0     0  0
 19 20  1  0     0  0
  4  5  1  0     0  0
 20 21  2  0     0  0
 21 16  1  0     0  0
  2  3  1  0     0  0
  4 22  1  0     0  0
  5  6  2  0     0  0
 22 23  1  0     0  0
  6  1  1  0     0  0
 23 24  1  0     0  0
  1  2  2  0     0  0
 19 25  1  0     0  0
  8 14  1  0     0  0
 25 26  1  0     0  0
 10 11  1  0     0  0
 12 27  1  0     0  0
 11 12  1  0     0  0
 27 28  1  0     0  0
 12 13  1  0     0  0
 27 29  1  0     0  0
M  END