
  SciTegic08261113352D

 20 21  0  0  0  0            999 V2000
    1.4948   -2.3215    0.0000 N   0  0
    5.8288   -2.2589    0.0000 C   0  0
    6.5427   -2.6722    0.0000 N   0  0
    1.3570   -3.6367    0.0000 N   0  0
    0.9437   -2.9227    0.0000 C   0  0
    2.2463   -2.6597    0.0000 C   0  0
    2.1587   -3.4739    0.0000 C   0  0
    7.2650   -2.2589    0.0000 C   0  0  1  0  0  0
    5.8288   -1.4322    0.0000 O   0  0
    7.9790   -2.6722    0.0000 C   0  0
    5.1148   -2.6597    0.0000 O   0  0
    2.9686   -2.2463    0.0000 C   0  0
    7.2650   -1.4322    0.0000 C   0  0
    8.6972   -2.2589    0.0000 C   0  0
    7.9707   -3.4989    0.0000 C   0  0
    4.4008   -2.2463    0.0000 C   0  0
    3.6826   -2.6597    0.0000 C   0  0
    8.6847   -3.9123    0.0000 C   0  0
    9.4112   -2.6722    0.0000 C   0  0
    9.3986   -3.4989    0.0000 C   0  0
  2 11  1  0
  3  2  1  0
  4  5  1  0
  5  1  2  0
  6  1  1  0
  7  6  2  0
  8  3  1  0
  9  2  2  0
 10  8  1  0
 11 16  1  0
 12  6  1  0
  8 13  1  6
 14 10  1  0
 15 10  1  0
 16 17  1  0
 17 12  1  0
 18 15  1  0
 19 14  1  0
 20 18  1  0
  4  7  1  0
 19 20  1  0
M  END