
  SciTegic02271514512D

 42 45  0  0  0  0            999 V2000
   -3.0459  -15.7866    0.0000 C   0  0
   -3.4504  -15.0809    0.0000 C   0  0
   -3.8668  -15.7841    0.0000 C   0  0
   -4.9692  -13.8510    0.0000 C   0  0
   -4.1520  -13.8551    0.0000 C   0  0
   -4.5642  -13.1453    0.0000 C   0  0
   -2.0333  -12.6334    0.0000 C   0  0
   -2.0322  -13.4529    0.0000 C   0  0
   -1.3287  -13.8619    0.0000 C   0  0
   -0.6186  -13.4525    0.0000 C   0  0
   -0.6158  -12.6298    0.0000 C   0  0
   -1.3269  -12.2245    0.0000 C   0  0
    0.0920  -12.2186    0.0000 C   0  0
    0.8013  -12.6245    0.0000 N   0  0
    0.0889  -11.4014    0.0000 O   0  0
    1.5074  -12.2132    0.0000 C   0  0
    2.2167  -12.6191    0.0000 C   0  0
    2.2166  -13.4352    0.0000 C   0  0
    2.9251  -13.8411    0.0000 C   0  0
    3.6322  -13.4297    0.0000 C   0  0
    3.6265  -12.6083    0.0000 C   0  0
    2.9175  -12.2062    0.0000 C   0  0
    4.3312  -12.1946    0.0000 C   0  0
    5.0419  -12.5980    0.0000 C   0  0  2  0  0  0
    5.7466  -12.1843    0.0000 C   0  0
    1.5096  -13.8450    0.0000 O   0  0
    1.5110  -14.6622    0.0000 C   0  0
    0.8039  -15.0719    0.0000 C   0  0
    0.8053  -15.8891    0.0000 C   0  0
    6.4578  -12.5872    0.0000 O   0  0
    5.7411  -11.3667    0.0000 O   0  0
    5.0478  -13.4152    0.0000 C   0  0
    5.7585  -13.8186    0.0000 C   0  0
    5.7607  -14.6362    0.0000 C   0  0
    6.4705  -15.0396    0.0000 C   0  0
    7.1762  -14.6258    0.0000 C   0  0
    7.1676  -13.8044    0.0000 C   0  0
    6.4572  -13.4047    0.0000 C   0  0
   -2.7439  -13.8610    0.0000 N   0  0
   -3.4494  -13.4513    0.0000 C   0  0
   -4.1584  -14.6734    0.0000 C   0  0
   -2.7382  -14.6785    0.0000 C   0  0
  2  1  1  0
  3  2  1  0
  5  4  1  0
  6  5  1  0
  7  8  2  0
  8  9  1  0
  9 10  2  0
 10 11  1  0
 11 12  2  0
 12  7  1  0
 11 13  1  0
 13 14  1  0
 13 15  2  0
 14 16  1  0
 16 17  1  0
 17 18  2  0
 18 19  1  0
 19 20  2  0
 20 21  1  0
 21 22  2  0
 22 17  1  0
 21 23  1  0
 23 24  1  0
 24 25  1  0
 18 26  1  0
 26 27  1  0
 27 28  1  0
 28 29  1  0
 25 30  1  0
 25 31  2  0
 24 32  1  6
 32 33  1  0
 33 34  2  0
 34 35  1  0
 35 36  2  0
 36 37  1  0
 37 38  2  0
 38 33  1  0
  8 39  1  0
 39 40  1  0
 39 42  1  0
 40  5  1  0
  5 41  1  0
 41  2  1  0
  2 42  1  0
M  END