
  SciTegic12191611332D

 19 20  0  0  0  0            999 V2000
    1.2990   -0.7500    0.0000 C   0  0
    1.2990    0.7500    0.0000 C   0  0
    0.0000    1.5000    0.0000 C   0  0
   -1.2990    0.7500    0.0000 C   0  0
   -1.2990   -0.7500    0.0000 C   0  0
    0.0000   -1.5000    0.0000 C   0  0
    0.0000    2.7000    0.0000 O   0  0
    2.5987    1.5004    0.0000 C   0  0
    3.9511    0.8815    0.0000 C   0  0
    4.9530    1.9978    0.0000 C   0  0
    4.2010    3.2957    0.0000 N   0  0
    2.7342    2.9815    0.0000 N   0  0
    6.4433    1.8436    0.0000 C   0  0
    7.1468    2.8158    0.0000 F   0  0
    5.9533    2.9390    0.0000 F   0  0
    7.0568    0.4739    0.0000 C   0  0
    8.2504    0.3504    0.0000 F   0  0
    6.3533   -0.4983    0.0000 F   0  0
    7.5468   -0.6215    0.0000 F   0  0
  1  2  2  0
  2  3  1  0
  3  4  2  0
  4  5  1  0
  5  6  2  0
  6  1  1  0
  3  7  1  0
  2  8  1  0
  8  9  1  0
  9 10  2  0
 10 11  1  0
 11 12  1  0
 12  8  2  0
 10 13  1  0
 13 14  1  0
 13 15  1  0
 13 16  1  0
 16 17  1  0
 16 18  1  0
 16 19  1  0
M  END