
  SciTegic01161211242D

 24 25  0  0  0  0            999 V2000
    3.9565    0.9958    0.0000 N   0  0
   -1.4468   -0.3048    0.0000 C   0  0
    5.4639    0.9943    0.0000 C   0  0
    3.1599   -0.3718    0.0000 C   0  0
    3.1997    2.3367    0.0000 C   0  0
   -2.9477   -0.3055    0.0000 C   0  0
    0.8099    0.9958    0.0000 C   0  0
    1.6065    2.3367    0.0000 C   0  0
    1.5799   -0.3718    0.0000 C   0  0
   -0.6962    0.9949    0.0000 O   0  0
    6.0655    2.0327    0.0000 N   0  0
   -0.8467   -1.3439    0.0000 O   0  0
    2.2040    1.9119    0.0000 C   0  0
    2.2040    0.1593    0.0000 C   0  0
   -3.6983   -1.6051    0.0000 C   0  0
    6.0627   -0.0456    0.0000 N   0  0
   -3.6956    0.9957    0.0000 C   0  0
    8.7163   -0.9347    0.0000 Cl  0  0
   -3.0943    2.0342    0.0000 O   0  0
   -5.1983   -1.6080    0.0000 C   0  0
   -2.9458   -2.9028    0.0000 C   0  0
   -3.6934   -4.2033    0.0000 C   0  0
   -5.9458   -2.9085    0.0000 C   0  0
   -5.1934   -4.2061    0.0000 C   0  0
  1  3  1  0
  1  4  1  0
  1  5  1  0
  2  6  1  0
  5  8  1  0
  7  8  1  0
  4  9  1  0
  7  9  1  0
  2 10  1  0
  7 10  1  0
  3 11  2  0
  2 12  2  0
  5 13  1  0
  4 14  1  0
 13 14  1  0
  6 15  1  0
  3 16  1  0
  6 17  1  0
 17 19  1  0
 15 20  1  0
 15 21  2  0
 21 22  1  0
 20 23  2  0
 22 24  2  0
 23 24  1  0
M  END