
  SciTegic01161211252D

 42 46  0  0  0  0            999 V2000
    8.4854  -10.6090    0.0000 C   0  0
    7.7728  -11.0206    0.0000 C   0  0
    7.0586  -10.6049    0.0000 C   0  0
    7.0620   -9.7850    0.0000 C   0  0
    8.4853   -9.7876    0.0000 C   0  0
    7.7765   -9.3779    0.0000 C   0  0
    7.9471   -8.5772    0.0000 N   0  0
    8.7614   -8.4920    0.0000 O   0  0
    9.0939   -9.2401    0.0000 N   0  0
   -2.1045  -11.2923    0.0000 C   0  0
   -2.8289  -10.8926    0.0000 C   0  0
   -2.8439  -10.0672    0.0000 C   0  0
   -1.3986  -10.8694    0.0000 C   0  0
   -1.4101  -10.0453    0.0000 C   0  0
   -2.1370   -9.6426    0.0000 C   0  0
   -1.9787   -8.8268    0.0000 N   0  0
   -1.1538   -8.7252    0.0000 C   0  0
   -0.8025   -9.4783    0.0000 C   0  0
   -0.7544   -8.0071    0.0000 C   0  0
   -1.1812   -7.2998    0.0000 C   0  0
   -0.7821   -6.5786    0.0000 C   0  0
    0.0437   -6.5636    0.0000 C   0  0
    0.4687   -7.2757    0.0000 C   0  0
    0.0671   -7.9939    0.0000 C   0  0
   -0.0812   -9.8819    0.0000 C   0  0
   -0.0700  -10.7068    0.0000 O   0  0
    0.6276   -9.4597    0.0000 C   0  0
    0.6165   -8.6348    0.0000 O   0  0
    1.3476   -9.8625    0.0000 N   0  0
    2.0565   -9.4403    0.0000 C   0  0
    2.7765   -9.8431    0.0000 C   0  0
    3.4853   -9.4210    0.0000 C   0  0
   -2.0898  -12.1171    0.0000 N   0  0
   -1.3681  -12.5168    0.0000 C   0  0
   -0.6485  -12.9190    0.0000 S   0  0
    4.2053   -9.8237    0.0000 C   0  0
    4.9141   -9.4016    0.0000 C   0  0
    5.6341   -9.8044    0.0000 C   0  0
    6.3429   -9.3822    0.0000 N   0  0
    9.2041  -11.0195    0.0000 N   0  3
    9.9185  -10.6068    0.0000 O   0  0
    9.2043  -11.8445    0.0000 O   0  5
  4  6  1  0
 20 21  1  0
  5  6  1  0
 21 22  2  0
 10 11  2  0
 22 23  1  0
  1  2  2  0
 23 24  2  0
 24 19  1  0
 17 19  1  0
 11 12  1  0
 18 25  1  0
 12 15  2  0
 25 26  2  0
  5  1  1  0
 25 27  1  0
 14 13  2  0
 27 28  2  0
 13 10  1  0
 27 29  1  0
 14 15  1  0
 29 30  1  0
  2  3  1  0
 30 31  1  0
 31 32  1  0
  3  4  2  0
 10 33  1  0
  6  7  2  0
 33 34  2  0
  7  8  1  0
 34 35  2  0
 15 16  1  0
 32 36  1  0
 16 17  1  0
 36 37  1  0
 17 18  2  0
 37 38  1  0
 18 14  1  0
 38 39  1  0
 39  4  1  0
  8  9  1  0
  9  5  2  0
 19 20  2  0
 40 41  2  0
 40 42  1  0
  1 40  1  0
M  CHG  2  40   1  42  -1
M  END