
          11280715192D 1   1.00000     0.00000     0

 23 25  0     0  0            999 V2000
    3.3167   -3.1917    0.0000 C   0  0  0  0  0  0           0  0  0
    2.8000   -2.8917    0.0000 O   0  0  0  0  0  0           0  0  0
    1.7667   -2.9000    0.0000 C   0  0  3  0  0  0           0  0  0
    1.2417   -2.0000    0.0000 N   0  0  3  0  0  0           0  0  0
    3.3250   -3.7917    0.0000 N   0  0  0  0  0  0           0  0  0
    2.2792   -3.1917    0.0000 C   0  0  3  0  0  0           0  0  0
    1.7667   -2.3000    0.0000 C   0  0  0  0  0  0           0  0  0
    3.8417   -2.8917    0.0000 O   0  0  0  0  0  0           0  0  0
    0.2125   -1.3917    0.0000 O   0  0  0  0  0  0           0  0  0
    3.8417   -4.0917    0.0000 C   0  0  0  0  0  0           0  0  0
    0.7292   -2.3000    0.0000 C   0  0  0  0  0  0           0  0  0
    1.2500   -1.4000    0.0000 C   0  0  0  0  0  0           0  0  0
    1.2500   -3.2000    0.0000 C   0  0  0  0  0  0           0  0  0
    0.2042   -1.9917    0.0000 C   0  0  0  0  0  0           0  0  0
    0.7292   -1.1000    0.0000 C   0  0  0  0  0  0           0  0  0
    2.2917   -3.7917    0.0000 C   0  0  0  0  0  0           0  0  0
    3.8417   -4.6917    0.0000 C   0  0  0  0  0  0           0  0  0
    4.3542   -3.7875    0.0000 C   0  0  0  0  0  0           0  0  0
    1.2500   -3.8000    0.0000 C   0  0  0  0  0  0           0  0  0
    1.7667   -4.0917    0.0000 C   0  0  0  0  0  0           0  0  0
    4.8792   -4.0792    0.0000 C   0  0  0  0  0  0           0  0  0
    4.3667   -4.9875    0.0000 C   0  0  0  0  0  0           0  0  0
    4.8792   -4.6875    0.0000 C   0  0  0  0  0  0           0  0  0
  2  1  1  0     0  0
  3  6  1  0     0  0
  4  7  1  0     0  0
  5  1  1  0     0  0
  6  2  1  0     0  0
  7  3  1  0     0  0
  8  1  2  0     0  0
  9 15  1  0     0  0
 10  5  1  0     0  0
 11  4  1  0     0  0
 12  4  1  0     0  0
 13  3  1  0     0  0
 14 11  1  0     0  0
 15 12  1  0     0  0
 16  6  1  0     0  0
 17 10  2  0     0  0
 18 10  1  0     0  0
 19 20  1  0     0  0
 20 16  1  0     0  0
 21 18  2  0     0  0
 22 17  1  0     0  0
 23 21  1  0     0  0
 22 23  2  0     0  0
 13 19  1  0     0  0
 14  9  1  0     0  0
M  END