
          11280715382D 1   1.00000     0.00000     0

 33 35  0     1  0            999 V2000
    4.5875   -6.1417    0.0000 N   0  0  3  0  0  0           0  0  0
    5.3875   -6.0042    0.0000 C   0  0  0  0  0  0           0  0  0
    4.0875   -4.8292    0.0000 C   0  0  0  0  0  0           0  0  0
    5.7667   -5.2542    0.0000 C   0  0  1  0  0  0           0  0  0
    4.0917   -5.6542    0.0000 C   0  0  0  0  0  0           0  0  0
    5.4042   -4.4792    0.0000 C   0  0  1  0  0  0           0  0  0
    3.3625   -3.5792    0.0000 C   0  0  3  0  0  0           0  0  0
    3.3667   -4.4167    0.0000 C   0  0  0  0  0  0           0  0  0
    4.6042   -4.3292    0.0000 C   0  0  0  0  0  0           0  0  0
    4.3375   -6.9292    0.0000 C   0  0  0  0  0  0           0  0  0
    6.5917   -5.2667    0.0000 O   0  0  0  0  0  0           0  0  0
    3.5292   -7.1042    0.0000 C   0  0  0  0  0  0           0  0  0
    6.9917   -5.9917    0.0000 C   0  0  0  0  0  0           0  0  0
    5.9042   -3.8167    0.0000 C   0  0  0  0  0  0           0  0  0
    5.8750   -6.6667    0.0000 O   0  0  0  0  0  0           0  0  0
    2.9667   -6.4917    0.0000 O   0  0  0  0  0  0           0  0  0
    6.5750   -6.6917    0.0000 O   0  0  0  0  0  0           0  0  0
    2.6917   -3.0417    0.0000 F   0  0  0  0  0  0           0  0  0
    3.3625   -2.8292    0.0000 F   0  0  0  0  0  0           0  0  0
    4.0292   -3.0417    0.0000 F   0  0  0  0  0  0           0  0  0
    5.5917   -3.0667    0.0000 C   0  0  0  0  0  0           0  0  0
    6.7250   -3.9417    0.0000 C   0  0  0  0  0  0           0  0  0
    3.2792   -7.8917    0.0000 N   0  0  0  0  0  0           0  0  0
    6.9167   -2.5167    0.0000 C   0  0  0  0  0  0           0  0  0
    3.3667   -6.0667    0.0000 C   0  0  0  0  0  0           0  0  0
    6.0917   -2.4167    0.0000 C   0  0  0  0  0  0           0  0  0
    7.2292   -3.2792    0.0000 C   0  0  0  0  0  0           0  0  0
    2.6542   -4.8292    0.0000 C   0  0  0  0  0  0           0  0  0
    7.4167   -1.8667    0.0000 O   0  0  0  0  0  0           0  0  0
    2.6542   -5.6542    0.0000 C   0  0  0  0  0  0           0  0  0
    7.8167   -6.0042    0.0000 C   0  0  0  0  0  0           0  0  0
    2.4792   -8.0667    0.0000 C   0  0  0  0  0  0           0  0  0
    8.2375   -1.9792    0.0000 C   0  0  0  0  0  0           0  0  0
  2  1  1  0     0  0
  3  5  1  0     0  0
  4  2  1  0     0  0
  5  1  1  0     0  0
  6  4  1  0     0  0
  7  8  1  0     0  0
  8  3  2  0     0  0
  9  3  1  0     0  0
 10  1  1  0     0  0
  4 11  1  1     0  0
 12 10  1  0     0  0
 13 11  1  0     0  0
  6 14  1  1     0  0
 15  2  2  0     0  0
 16 12  2  0     0  0
 17 13  2  0     0  0
 18  7  1  0     0  0
 19  7  1  0     0  0
 20  7  1  0     0  0
 21 14  1  0     0  0
 22 14  2  0     0  0
 23 12  1  0     0  0
 24 27  2  0     0  0
 25  5  2  0     0  0
 26 21  2  0     0  0
 27 22  1  0     0  0
 28 30  2  0     0  0
 29 24  1  0     0  0
 30 25  1  0     0  0
 31 13  1  0     0  0
 32 23  1  0     0  0
 33 29  1  0     0  0
  6  9  1  0     0  0
  8 28  1  0     0  0
 24 26  1  0     0  0
M  END