
          11280715382D 1   1.00000     0.00000     0

 34 36  0     1  0            999 V2000
    4.9292   -6.2542    0.0000 N   0  0  3  0  0  0           0  0  0
    5.7292   -6.1167    0.0000 C   0  0  0  0  0  0           0  0  0
    6.1125   -5.3625    0.0000 C   0  0  1  0  0  0           0  0  0
    4.4292   -5.7667    0.0000 C   0  0  0  0  0  0           0  0  0
    4.4292   -4.9375    0.0000 C   0  0  0  0  0  0           0  0  0
    5.7417   -4.5875    0.0000 C   0  0  1  0  0  0           0  0  0
    4.9417   -4.4375    0.0000 C   0  0  0  0  0  0           0  0  0
    2.2875   -3.7042    0.0000 C   0  0  0  0  0  0           0  0  0
    4.6792   -7.0417    0.0000 C   0  0  0  0  0  0           0  0  0
    6.9375   -5.3792    0.0000 O   0  0  0  0  0  0           0  0  0
    3.7125   -6.1792    0.0000 C   0  0  0  0  0  0           0  0  0
    7.3375   -6.1000    0.0000 C   0  0  0  0  0  0           0  0  0
    6.2500   -3.9292    0.0000 C   0  0  0  0  0  0           0  0  0
    6.2167   -6.7792    0.0000 O   0  0  0  0  0  0           0  0  0
    3.7125   -4.5250    0.0000 C   0  0  0  0  0  0           0  0  0
    2.2875   -4.5292    0.0000 O   0  0  0  0  0  0           0  0  0
    3.0000   -4.9375    0.0000 C   0  0  0  0  0  0           0  0  0
    3.0000   -3.2875    0.0000 O   0  0  0  0  0  0           0  0  0
    6.9167   -6.8042    0.0000 O   0  0  0  0  0  0           0  0  0
    1.5667   -3.2917    0.0000 N   0  0  0  0  0  0           0  0  0
    5.9292   -3.1792    0.0000 C   0  0  0  0  0  0           0  0  0
    7.0667   -4.0500    0.0000 C   0  0  0  0  0  0           0  0  0
    3.8750   -7.2167    0.0000 C   0  0  0  0  0  0           0  0  0
    3.0000   -5.7667    0.0000 C   0  0  0  0  0  0           0  0  0
    3.6250   -8.0042    0.0000 N   0  0  3  0  0  0           0  0  0
    7.2542   -2.6292    0.0000 C   0  0  0  0  0  0           0  0  0
    7.5667   -3.3917    0.0000 C   0  0  0  0  0  0           0  0  0
    6.4292   -2.5250    0.0000 C   0  0  0  0  0  0           0  0  0
    7.7542   -1.9792    0.0000 O   0  0  0  0  0  0           0  0  0
    8.1625   -6.1125    0.0000 C   0  0  0  0  0  0           0  0  0
    1.5667   -2.4667    0.0000 C   0  0  0  0  0  0           0  0  0
    4.1792   -8.6125    0.0000 C   0  0  0  0  0  0           0  0  0
    2.8167   -8.1792    0.0000 C   0  0  0  0  0  0           0  0  0
    8.5792   -2.0875    0.0000 C   0  0  0  0  0  0           0  0  0
  2  1  1  0     0  0
  3  2  1  0     0  0
  4  1  1  0     0  0
  5  4  1  0     0  0
  6  3  1  0     0  0
  7  5  1  0     0  0
  8 16  1  0     0  0
  9  1  1  0     0  0
  3 10  1  1     0  0
 11  4  2  0     0  0
 12 10  1  0     0  0
  6 13  1  1     0  0
 14  2  2  0     0  0
 15  5  2  0     0  0
 16 17  1  0     0  0
 17 24  2  0     0  0
 18  8  2  0     0  0
 19 12  2  0     0  0
 20  8  1  0     0  0
 21 13  1  0     0  0
 22 13  2  0     0  0
 23  9  1  0     0  0
 24 11  1  0     0  0
 25 23  1  0     0  0
 26 27  2  0     0  0
 27 22  1  0     0  0
 28 21  2  0     0  0
 29 26  1  0     0  0
 30 12  1  0     0  0
 31 20  1  0     0  0
 32 25  1  0     0  0
 33 25  1  0     0  0
 34 29  1  0     0  0
  6  7  1  0     0  0
 15 17  1  0     0  0
 26 28  1  0     0  0
M  END