
  SciTegic01161211262D

 25 27  0  0  0  0            999 V2000
    4.6875   -2.6333    0.0000 N   0  0
    5.4750   -2.4000    0.0000 C   0  0
    5.4917   -1.5708    0.0000 C   0  0
    4.7125   -1.3000    0.0000 N   0  3
    4.4125   -3.4125    0.0000 C   0  0  1  0  0  0
    6.1792   -2.8292    0.0000 N   0  0
    4.2167   -1.9583    0.0000 C   0  0
    6.2167   -1.1708    0.0000 C   0  0
    6.9250   -1.6000    0.0000 N   0  0
    4.8792   -4.0958    0.0000 C   0  0  1  0  0  0
    6.9083   -2.4292    0.0000 C   0  0
    3.6208   -3.6542    0.0000 O   0  0
    1.5000   -5.0667    0.0000 P   0  0
    3.6000   -4.4792    0.0000 C   0  0  1  0  0  0
    4.3792   -4.7542    0.0000 C   0  0  1  0  0  0
    2.9250   -4.9500    0.0000 C   0  0
    2.1792   -4.5958    0.0000 O   0  0
    6.2333   -0.3458    0.0000 O   0  0
    0.9125   -5.6458    0.0000 O   0  0
    2.0292   -5.6958    0.0000 O   0  5
    0.9708   -4.4292    0.0000 O   0  0
    7.6125   -2.8583    0.0000 N   0  0
    4.4708   -0.5083    0.0000 C   0  0
    5.7042   -4.1167    0.0000 O   0  0
    4.6167   -5.5417    0.0000 O   0  0
  2  1  1  0
  3  2  2  0
  4  7  2  0
  5  1  1  1
  6  2  1  0
  7  1  1  0
  8  3  1  0
  9 11  1  0
 10  5  1  0
 11  6  2  0
 12  5  1  0
 13 17  1  0
 14 12  1  0
 15 10  1  0
 14 16  1  1
 17 16  1  0
 18  8  2  0
 19 13  1  0
 20 13  1  0
 21 13  2  0
 22 11  1  0
 23  4  1  0
 10 24  1  6
 15 25  1  6
  4  3  1  0
 15 14  1  0
  8  9  1  0
M  CHG  2   4   1  20  -1
M  END