
  SciTegic03291108512D

 23 26  0  0  0  0            999 V2000
   -1.1000    1.9697    0.0000 S   0  0
    0.3991   -0.3478    0.0000 S   0  0
    0.0041   -0.5914    0.0000 F   0  0
    1.1136    0.8897    0.0000 N   0  0
    0.3991    2.1272    0.0000 N   0  0
    1.8673   -0.4247    0.0000 N   0  0
    1.1998   -1.5808    0.0000 N   0  0
    2.4193   -1.0378    0.0000 N   0  0
    2.0068   -1.7523    0.0000 N   0  0
   -0.3153    0.8897    0.0000 C   0  0
   -1.1000    0.6348    0.0000 C   0  0
   -0.3153    1.7147    0.0000 C   0  0
    0.3991    0.4772    0.0000 C   0  0
   -1.3549   -0.1498    0.0000 C   0  0
   -1.5849    1.3022    0.0000 C   0  0
    1.1136   -0.7603    0.0000 C   0  0
   -0.8029   -0.7629    0.0000 C   0  0
    1.1136    1.7147    0.0000 C   0  0
   -2.1619   -0.3214    0.0000 C   0  0
   -1.0578   -1.5476    0.0000 C   0  0
   -2.4168   -1.1060    0.0000 C   0  0
   -1.8648   -1.7191    0.0000 C   0  0
    2.0388    0.3822    0.0000 C   0  0
  1 12  1  0
  1 15  1  0
  2 13  1  0
  2 16  1  0
  3 17  1  0
  4 13  1  0
  4 18  2  0
  5 12  2  0
  5 18  1  0
  6  8  1  0
  6 16  1  0
  6 23  1  0
  7  9  1  0
  7 16  2  0
  8  9  2  0
 10 11  1  0
 10 12  1  0
 10 13  2  0
 11 14  1  0
 11 15  2  0
 14 17  2  0
 14 19  1  0
 17 20  1  0
 19 21  2  0
 20 22  2  0
 21 22  1  0
M  END