
  SciTegic04201611242D

 43 45  0  0  0  0            999 V2000
   11.4928   16.1957    0.0000 C   0  0
   11.4886   14.6842    0.0000 N   0  0
   12.9009   16.6675    0.0000 N   0  0
   12.9344   14.2287    0.0000 C   0  0  1  0  0  0
   13.7883   15.4437    0.0000 C   0  0  2  0  0  0
   15.2341   13.5049    0.0000 S   0  0
   13.8033   13.0330    0.0000 C   0  0  1  0  0  0
   15.2059   14.9923    0.0000 C   0  0
   10.5197   16.8980    0.0000 O   0  0
   13.3351   11.6071    0.0000 C   0  0
   14.3741   16.2542    0.0000 H   0  0
   12.3503   13.4170    0.0000 H   0  0
   11.8663   11.2987    0.0000 C   0  0
   11.3981    9.8728    0.0000 C   0  0
    9.9293    9.5644    0.0000 C   0  0
    9.4611    8.1385    0.0000 C   0  0
    7.9923    7.8301    0.0000 N   0  5
   10.2615    7.2445    0.0000 O   0  0
    7.5241    6.4042    0.0000 S   0  0
    6.0553    6.0958    0.0000 N   0  0
    8.6986    6.6502    0.0000 O   0  0
    8.3245    5.5101    0.0000 O   0  0
    5.5870    4.6698    0.0000 C   0  0
    4.1182    4.3614    0.0000 C   0  0
    2.1812    2.6271    0.0000 C   0  0
    3.6500    2.9355    0.0000 O   0  0
    1.7138    1.2033    0.0000 N   0  0
    1.7138   -1.2033    0.0000 N   0  0
    2.5889    0.0182    0.0000 C   0  0
    0.2917   -0.7475    0.0000 C   0  0
    0.2917    0.7475    0.0000 C   0  0
   -1.0028    1.5132    0.0000 N   0  0
   -2.3155    0.7475    0.0000 C   0  0
   -2.3155   -0.7475    0.0000 N   0  0
   -1.0028   -1.5132    0.0000 C   0  0
   -0.9991   -2.7132    0.0000 N   0  0
   20.3340    7.7797    0.0000 N   0  3
   19.0341    8.5297    0.0000 C   0  0
   21.6340    8.5297    0.0000 C   0  0
   20.3371    6.2789    0.0000 C   0  0
   17.9946    7.9300    0.0000 C   0  0
   22.6735    7.9300    0.0000 C   0  0
   21.3772    5.6803    0.0000 C   0  0
  2  1  1  0
  3  1  1  0
  4  2  1  0
  5  3  1  0
  6  8  1  0
  7  4  1  0
  8  5  1  0
  9  1  2  0
  7 10  1  1
  5 11  1  6
  4 12  1  6
  5  4  1  0
  6  7  1  0
 10 13  1  0
 13 14  1  0
 14 15  1  0
 15 16  1  0
 16 17  1  0
 16 18  2  0
 17 19  1  0
 19 20  1  0
 19 21  2  0
 19 22  2  0
 20 23  1  0
 24 23  1  0
 25 26  1  0
 26 24  1  0
 25 27  1  0
 27 31  1  0
 30 28  1  0
 28 29  2  0
 29 27  1  0
 30 31  2  0
 30 35  1  0
 31 32  1  0
 32 33  2  0
 33 34  1  0
 34 35  2  0
 35 36  1  0
 37 38  1  0
 37 39  1  0
 37 40  1  0
 38 41  1  0
 39 42  1  0
 40 43  1  0
M  CHG  2  17  -1  37   1
M  END