
          11290715122D 1   1.00000     0.00000     0

 31 34  0     0  0            999 V2000
   -4.6431  -22.1375    0.0000 C   0  0  0  0  0  0           0  0  0
   -4.6443  -22.9648    0.0000 C   0  0  0  0  0  0           0  0  0
   -3.9294  -23.3777    0.0000 C   0  0  0  0  0  0           0  0  0
   -3.9312  -21.7247    0.0000 C   0  0  0  0  0  0           0  0  0
   -3.2159  -22.1338    0.0000 C   0  0  0  0  0  0           0  0  0
   -3.2125  -22.9623    0.0000 C   0  0  0  0  0  0           0  0  0
   -2.4972  -23.3713    0.0000 C   0  0  0  0  0  0           0  0  0
   -1.7808  -22.9564    0.0000 C   0  0  0  0  0  0           0  0  0
   -1.7842  -22.1280    0.0000 C   0  0  0  0  0  0           0  0  0
   -2.5040  -21.7144    0.0000 C   0  0  3  0  0  0           0  0  0
   -2.5086  -20.8894    0.0000 N   0  0  0  0  0  0           0  0  0
   -1.7964  -20.4730    0.0000 C   0  0  0  0  0  0           0  0  0
   -1.8009  -19.6480    0.0000 O   0  0  0  0  0  0           0  0  0
   -1.0796  -20.8815    0.0000 C   0  0  0  0  0  0           0  0  0
   -0.3675  -20.4651    0.0000 C   0  0  0  0  0  0           0  0  0
    0.3493  -20.8737    0.0000 C   0  0  0  0  0  0           0  0  0
    1.0615  -20.4573    0.0000 C   0  0  0  0  0  0           0  0  0
    1.7782  -20.8658    0.0000 C   0  0  0  0  0  0           0  0  0
    2.4904  -20.4494    0.0000 N   0  0  3  0  0  0           0  0  0
    3.2020  -20.8610    0.0000 C   0  0  0  0  0  0           0  0  0
    3.9121  -20.4481    0.0000 C   0  0  0  0  0  0           0  0  0
    3.9118  -19.6227    0.0000 N   0  0  3  0  0  0           0  0  0
    3.1952  -19.2120    0.0000 C   0  0  0  0  0  0           0  0  0
    2.4789  -19.6266    0.0000 C   0  0  0  0  0  0           0  0  0
    4.6255  -19.2090    0.0000 C   0  0  0  0  0  0           0  0  0
    5.3394  -19.6234    0.0000 C   0  0  0  0  0  0           0  0  0
    6.0527  -19.2103    0.0000 C   0  0  0  0  0  0           0  0  0
    6.0517  -18.3845    0.0000 C   0  0  0  0  0  0           0  0  0
    5.3315  -17.9734    0.0000 C   0  0  0  0  0  0           0  0  0
    4.6212  -18.3888    0.0000 C   0  0  0  0  0  0           0  0  0
    3.9045  -17.9801    0.0000 C   0  0  0  0  0  0           0  0  0
 14 15  1  0     0  0
  5  4  2  0     0  0
 15 16  1  0     0  0
  4  1  1  0     0  0
 16 17  1  0     0  0
  5 10  1  0     0  0
 17 18  1  0     0  0
  6  7  1  0     0  0
 18 19  1  0     0  0
 19 20  1  0     0  0
  7  8  1  0     0  0
  8  9  1  0     0  0
  9 10  1  0     0  0
  5  6  1  0     0  0
 10 11  1  0     0  0
 19 24  1  0     0  0
 20 21  1  0     0  0
 21 22  1  0     0  0
 22 23  1  0     0  0
 23 24  1  0     0  0
 22 25  1  0     0  0
 11 12  1  0     0  0
 25 26  2  0     0  0
  2  3  1  0     0  0
 26 27  1  0     0  0
 12 13  2  0     0  0
 27 28  2  0     0  0
  3  6  2  0     0  0
 28 29  1  0     0  0
 12 14  1  0     0  0
 29 30  2  0     0  0
 30 25  1  0     0  0
  1  2  2  0     0  0
 30 31  1  0     0  0
M  END