
          11280715122D 1   1.00000     0.00000     0

 35 38  0     0  0            999 V2000
    6.6667   -6.4167    0.0000 C   0  0  0  0  0  0           0  0  0
    6.1375   -7.6417    0.0000 N   0  0  0  0  0  0           0  0  0
    6.8417   -7.2250    0.0000 N   0  0  0  0  0  0           0  0  0
    5.5167   -7.1125    0.0000 N   0  0  0  0  0  0           0  0  0
    5.2917    0.3083    0.0000 C   0  0  3  0  0  0           0  0  0
    5.0792   -0.4917    0.0000 C   0  0  0  0  0  0           0  0  0
    3.6542   -2.0875    0.0000 C   0  0  0  0  0  0           0  0  0
    5.8500   -6.3417    0.0000 N   0  0  0  0  0  0           0  0  0
    4.2792   -0.7125    0.0000 N   0  0  0  0  0  0           0  0  0
    7.2167   -5.8000    0.0000 C   0  0  0  0  0  0           0  0  0
    4.3667   -2.5000    0.0000 N   0  0  3  0  0  0           0  0  0
    3.6542   -1.2542    0.0000 C   0  0  0  0  0  0           0  0  0
    7.2167   -4.9750    0.0000 C   0  0  0  0  0  0           0  0  0
    2.9417   -2.5000    0.0000 N   0  0  0  0  0  0           0  0  0
    6.5042   -4.5625    0.0000 C   0  0  0  0  0  0           0  0  0
    4.3667   -3.3250    0.0000 C   0  0  0  0  0  0           0  0  0
    5.6667   -1.0750    0.0000 O   0  0  0  0  0  0           0  0  0
    5.4792    1.0333    0.0000 F   0  0  0  0  0  0           0  0  0
    6.0792    0.6625    0.0000 F   0  0  0  0  0  0           0  0  0
    4.7792    1.0083    0.0000 F   0  0  0  0  0  0           0  0  0
    6.5042   -3.7292    0.0000 C   0  0  0  0  0  0           0  0  0
    5.7917   -4.9750    0.0000 C   0  0  0  0  0  0           0  0  0
    5.0792   -3.7375    0.0000 C   0  0  0  0  0  0           0  0  0
    5.0792   -4.5625    0.0000 C   0  0  0  0  0  0           0  0  0
    5.7875   -3.3167    0.0000 C   0  0  0  0  0  0           0  0  0
    5.0792   -2.0875    0.0000 C   0  0  0  0  0  0           0  0  0
    7.9292   -6.2125    0.0000 C   0  0  0  0  0  0           0  0  0
    7.9292   -4.5625    0.0000 C   0  0  0  0  0  0           0  0  0
    2.9417   -0.8417    0.0000 C   0  0  0  0  0  0           0  0  0
    2.2292   -2.0875    0.0000 C   0  0  0  0  0  0           0  0  0
    5.7875   -2.5000    0.0000 C   0  0  0  0  0  0           0  0  0
    2.2292   -1.2625    0.0000 C   0  0  0  0  0  0           0  0  0
    8.6417   -5.8000    0.0000 C   0  0  0  0  0  0           0  0  0
    8.6417   -4.9667    0.0000 C   0  0  0  0  0  0           0  0  0
    6.4917   -2.0917    0.0000 C   0  0  0  0  0  0           0  0  0
  2  3  2  0     0  0
  3  1  1  0     0  0
  4  8  1  0     0  0
  5  6  1  0     0  0
  6  9  1  0     0  0
  7 11  1  0     0  0
  8  1  2  0     0  0
  9 12  1  0     0  0
 10  1  1  0     0  0
 11 16  1  0     0  0
 12  7  1  0     0  0
 13 10  2  0     0  0
 14  7  2  0     0  0
 15 13  1  0     0  0
 16 23  1  0     0  0
 17  6  2  0     0  0
 18  5  1  0     0  0
 19  5  1  0     0  0
 20  5  1  0     0  0
 21 15  2  0     0  0
 22 15  1  0     0  0
 23 24  1  0     0  0
 24 22  2  0     0  0
 25 21  1  0     0  0
 26 11  1  0     0  0
 27 10  1  0     0  0
 28 13  1  0     0  0
 29 12  2  0     0  0
 30 14  1  0     0  0
 31 26  1  0     0  0
 32 30  2  0     0  0
 33 27  2  0     0  0
 34 33  1  0     0  0
 35 31  1  0     0  0
  2  4  1  0     0  0
 28 34  2  0     0  0
 23 25  2  0     0  0
 32 29  1  0     0  0
M  END