
  SciTegic10311316212D

 30 31  0  0  0  0            999 V2000
   30.7789  -15.2914    0.0000 P   0  0
   29.9617  -15.2914    0.0000 O   0  0
   30.3703  -15.9991    0.0000 O   0  0
   31.4866  -15.7000    0.0000 C   0  0
   32.1943  -15.2914    0.0000 C   0  0
   30.7789  -14.4742    0.0000 O   0  0
   32.9020  -15.7000    0.0000 C   0  0
   33.6098  -15.2914    0.0000 N   0  0
   34.3175  -15.7000    0.0000 C   0  0
   33.6098  -14.4742    0.0000 O   0  0
   34.3175  -16.5172    0.0000 O   0  0
   31.4866  -16.5172    0.0000 C   0  0
   30.7766  -16.9239    0.0000 C   0  0
   30.7763  -17.7403    0.0000 C   0  0
   31.4845  -18.1498    0.0000 C   0  0
   32.1946  -17.7368    0.0000 C   0  0
   32.1914  -16.9217    0.0000 C   0  0
   32.9037  -18.1429    0.0000 Cl  0  0
   31.4856  -18.9669    0.0000 Cl  0  0
   35.0252  -15.2914    0.0000 C   0  0
   35.7317  -15.7042    0.0000 C   0  0
   36.4389  -15.2963    0.0000 C   0  0
   36.4393  -14.4782    0.0000 C   0  0
   35.7267  -14.0698    0.0000 C   0  0
   35.0223  -14.4800    0.0000 C   0  0
   35.7294  -16.5214    0.0000 O   0  0
   36.4359  -16.9320    0.0000 C   0  0
   36.4336  -17.7492    0.0000 F   0  0
   37.1448  -16.5254    0.0000 F   0  0
   37.1409  -17.3385    0.0000 F   0  0
  2  1  1  0
  1  3  1  0
  4  5  1  0
  4  1  1  0
  1  6  2  0
  5  7  1  0
  7  8  1  0
  8  9  1  0
  8 10  1  0
  9 11  2  0
  4 12  1  0
 12 13  2  0
 13 14  1  0
 14 15  2  0
 15 16  1  0
 16 17  2  0
 17 12  1  0
 16 18  1  0
 15 19  1  0
  9 20  1  0
 20 21  2  0
 21 22  1  0
 22 23  2  0
 23 24  1  0
 24 25  2  0
 25 20  1  0
 21 26  1  0
 26 27  1  0
 27 28  1  0
 27 29  1  0
 27 30  1  0
M  END