
  SciTegic12231509382D

 13 13  0  0  0  0            999 V2000
    5.0972    1.4279    0.0000 O   0  0
    6.5261    0.6029    0.0000 O   0  0
    2.2393   -1.0471    0.0000 N   0  0
    5.0972    0.6029    0.0000 C   0  0
    4.3827   -0.6346    0.0000 C   0  0
    5.8116    0.1904    0.0000 C   0  0
    4.3827    0.1904    0.0000 C   0  0
    5.0972   -1.0471    0.0000 C   0  0
    5.8116   -0.6346    0.0000 C   0  0
    3.6682   -1.0471    0.0000 C   0  0
    2.9538   -0.6346    0.0000 C   0  0
    4.3827    1.8404    0.0000 C   0  0
    2.9538    0.1904    0.0000 C   0  0
  1  4  1  0
  1 12  1  0
  2  6  1  0
  3 11  1  0
  4  6  2  0
  4  7  1  0
  5  7  2  0
  5  8  1  0
  5 10  1  0
  6  9  1  0
  8  9  2  0
 10 11  1  0
 11 13  1  0
M  END