
  SciTegic09291413392D

 44 45  0  0  0  0            999 V2000
    9.4056  -21.5351    0.0000 C   0  0
    8.5890  -21.5667    0.0000 C   0  0
    8.2081  -22.2897    0.0000 O   0  0
    8.1533  -20.8754    0.0000 O   0  0
    7.3915  -22.3213    0.0000 C   0  0
    7.0106  -23.0443    0.0000 C   0  0
    6.9558  -21.6300    0.0000 C   0  0
    6.5810  -22.3593    0.0000 C   0  0
    9.8413  -22.2264    0.0000 C   0  0
    9.4604  -22.9494    0.0000 O   0  0
   10.6578  -22.1948    0.0000 O   0  0
    9.8961  -23.6408    0.0000 C   0  0
    9.5152  -24.3638    0.0000 C   0  0
   10.7126  -23.6091    0.0000 C   0  0
   10.3471  -24.3227    0.0000 C   0  0
   10.2025  -16.8143    0.0000 O   0  0
    9.5369  -17.2952    0.0000 C   0  0
    9.7898  -18.0773    0.0000 C   0  0
   10.6111  -18.0773    0.0000 C   0  0
   10.8654  -17.2965    0.0000 C   0  0
   11.6428  -17.0444    0.0000 O   0  0
   11.0912  -18.7386    0.0000 C   0  0
    9.1212  -16.5832    0.0000 C   0  0
    9.1164  -17.9954    0.0000 C   0  0
    8.2993  -17.9812    0.0000 O   0  0
    8.3040  -16.5854    0.0000 O   0  0
    7.8935  -15.8787    0.0000 C   0  0
    7.0763  -15.8809    0.0000 C   0  0
    8.3003  -15.1699    0.0000 O   0  0
   10.6697  -19.4390    0.0000 C   0  0
    9.8520  -19.4227    0.0000 C   0  0
    9.4308  -20.1221    0.0000 C   0  0
    9.8266  -20.8380    0.0000 C   0  0
   10.6479  -20.8502    0.0000 C   0  0
   11.0655  -20.1502    0.0000 C   0  0
    6.6659  -15.1743    0.0000 C   0  0
    5.8487  -15.1764    0.0000 C   0  0
    7.0726  -14.4655    0.0000 C   0  0
    6.6621  -13.7588    0.0000 C   0  0
    7.0689  -13.0501    0.0000 C   0  0
    5.8450  -13.7610    0.0000 C   0  0
    5.4420  -15.8852    0.0000 C   0  0
    4.6248  -15.8873    0.0000 C   0  0
    5.8524  -16.5918    0.0000 C   0  0
  1  2  1  0
  2  3  1  0
  2  4  2  0
  3  5  1  0
  5  6  1  0
  5  7  1  0
  5  8  1  0
  1  9  1  0
  9 10  1  0
  9 11  2  0
 10 12  1  0
 12 13  1  0
 12 14  1  0
 12 15  1  0
 17 18  1  0
 16 17  1  0
 18 19  1  0
 19 20  1  0
 20 16  1  0
 20 21  2  0
 19 22  2  0
 17 23  1  0
 17 24  1  0
 24 25  1  0
 23 26  1  0
 26 27  1  0
 27 28  1  0
 27 29  2  0
 22 30  1  0
 30 31  2  0
 31 32  1  0
 32 33  2  0
 33 34  1  0
 34 35  2  0
 35 30  1  0
 28 36  1  0
 36 37  1  0
 36 38  1  0
 38 39  1  0
 39 40  1  0
 39 41  1  0
 37 42  1  0
 42 43  1  0
 42 44  1  0
 33  1  1  0
M  END