
  SciTegic01161211242D

 34 38  0  0  0  0            999 V2000
   19.0267   -7.0867    0.0000 S   0  0
   18.3576   -7.5717    0.0000 C   0  0
   18.6091   -8.3592    0.0000 N   0  0
   19.4333   -8.3626    0.0000 C   0  0
   19.6902   -7.5774    0.0000 C   0  0
   19.9829   -8.9745    0.0000 C   0  0
   20.7903   -8.8054    0.0000 C   0  0
   21.0481   -8.0243    0.0000 C   0  0
   20.4977   -7.4083    0.0000 C   0  0
   17.5333   -7.5682    0.0000 N   0  0
   17.2765   -8.3535    0.0000 C   0  0
   17.9391   -8.8401    0.0000 C   0  0
   13.7057   -8.7742    0.0000 C   0  0
   13.7045   -9.6014    0.0000 C   0  0
   14.4193  -10.0143    0.0000 C   0  0
   15.1356   -9.6010    0.0000 C   0  0
   15.1327   -8.7705    0.0000 C   0  0
   14.4174   -8.3615    0.0000 C   0  0
   12.9898  -10.0134    0.0000 N   0  0
   12.2757   -9.6003    0.0000 C   0  0
   11.5610  -10.0122    0.0000 N   0  0
   12.2764   -8.7754    0.0000 O   0  0
   10.8468   -9.5987    0.0000 C   0  0
   10.5731   -8.8194    0.0000 C   0  0
    9.7474   -8.8351    0.0000 C   0  0
    9.5085   -9.6259    0.0000 O   0  0
   10.1874  -10.0963    0.0000 N   0  0
    9.2491   -8.1776    0.0000 C   0  0
    9.6246   -7.4430    0.0000 C   0  0
    8.4252   -8.2196    0.0000 C   0  0
    8.7231   -7.5321    0.0000 C   0  0
   15.8457   -8.3554    0.0000 N   0  0
   16.5616   -8.7651    0.0000 C   0  0
   16.5568   -9.5866    0.0000 O   0  0
  4  5  1  0
 16 17  1  0
  1  5  1  0
 17 18  2  0
 18 13  1  0
  6  7  1  0
 14 19  1  0
  7  8  2  0
 19 20  1  0
  8  9  1  0
 20 21  1  0
  5  9  2  0
 20 22  2  0
  4  6  2  0
 21 23  1  0
 24 25  2  0
 10 11  1  0
 11 12  2  0
  2 10  2  0
  3 12  1  0
 23 24  1  0
 25 26  1  0
 26 27  1  0
 27 23  2  0
 25 28  1  0
  1  2  1  0
 28 29  1  0
 13 14  2  0
 28 30  1  0
  2  3  1  0
 28 31  1  0
 14 15  1  0
 17 32  1  0
  3  4  1  0
 32 33  1  0
 15 16  2  0
 33 34  2  0
 33 11  1  0
M  END