
  SciTegic01091215432D

 23 24  0  0  0  0            999 V2000
   24.9712    0.1269    0.0000 S   0  0
   24.5614   -0.5891    0.0000 O   0  0
   25.3864   -0.5860    0.0000 O   0  0
   20.6861    0.1125    0.0000 C   0  0
   20.6849   -0.7148    0.0000 C   0  0
   21.3997   -1.1277    0.0000 C   0  0
   22.1162   -0.7144    0.0000 C   0  0
   22.1133    0.1162    0.0000 C   0  0
   21.3979    0.5253    0.0000 C   0  0
   22.8262    0.5314    0.0000 C   0  0
   23.5422    0.1216    0.0000 C   0  0
   24.2552    0.5367    0.0000 N   0  0
   25.6841    0.5421    0.0000 C   0  0
   26.3961    0.1306    0.0000 C   0  0
   27.1085    0.5451    0.0000 C   0  0
   27.1058    1.3709    0.0000 C   0  0
   26.3848    1.7806    0.0000 C   0  0
   25.6753    1.3637    0.0000 C   0  0
   27.8182    1.7871    0.0000 Cl  0  0
   21.3995   -1.9527    0.0000 C   0  0
   20.6850   -2.3650    0.0000 C   0  0
   20.6847   -3.1900    0.0000 C   0  0
   19.9695   -3.6043    0.0000 O   0  0
 11 12  1  0
 12  1  1  0
  6  7  2  0
  1 13  1  0
  2  1  2  0
 13 14  2  0
  7  8  1  0
 14 15  1  0
  4  5  2  0
 15 16  2  0
  8  9  2  0
 16 17  1  0
  9  4  1  0
 17 18  2  0
 18 13  1  0
  1  3  2  0
 16 19  1  0
  8 10  1  0
  6 20  1  0
  5  6  1  0
 20 21  1  0
 10 11  1  0
 21 22  1  0
 22 23  1  0
M  END