
  SciTegic02271217242D

 23 25  0  0  0  0            999 V2000
    9.4387  -20.7895    0.0000 S   0  0
    8.6747  -20.4360    0.0000 O   0  0
    8.7501  -21.2735    0.0000 O   0  0
    9.8523  -21.5101    0.0000 C   0  0
    9.4239  -22.2354    0.0000 C   0  0
    9.8395  -22.9665    0.0000 C   0  0
   10.6813  -22.9718    0.0000 C   0  0
   11.1057  -22.2397    0.0000 C   0  0
   10.6876  -21.5114    0.0000 C   0  0
    9.7166  -19.9924    0.0000 C   0  0
    8.4090  -19.3261    0.0000 N   0  0
   10.5014  -19.7381    0.0000 C   0  0
   11.2153  -20.1502    0.0000 N   0  0
   11.9292  -19.7381    0.0000 C   0  0
   11.9292  -18.9141    0.0000 C   0  0
   11.2153  -18.5020    0.0000 C   0  0
   10.5014  -18.9141    0.0000 N   0  0
    9.7179  -18.6588    0.0000 N   0  0
    9.2330  -19.3261    0.0000 C   0  0
   12.6433  -20.1502    0.0000 C   0  0
   11.2153  -17.6780    0.0000 C   0  0
    7.9927  -18.6051    0.0000 C   0  0
   12.6503  -18.4978    0.0000 N   0  0
  5  6  1  0
 10  1  1  0
  6  7  2  0
  7  8  1  0
  1  4  1  0
  8  9  2  0
  9  4  1  0
  2  1  2  0
 12 13  1  0
 13 14  2  0
 14 15  1  0
 15 16  2  0
 16 17  1  0
 12 17  1  0
 18 19  2  0
 19 10  1  0
 17 18  1  0
 12 10  2  0
 14 20  1  0
 16 21  1  0
 11 19  1  0
  4  5  2  0
 11 22  1  0
  1  3  2  0
 15 23  1  0
M  END