
  SciTegic08041117222D

 19 20  0  0  0  0            999 V2000
   11.2061   -9.8143    0.0000 N   0  0
   11.2050  -10.6415    0.0000 C   0  0
   11.9193  -11.0543    0.0000 C   0  0
   12.6352  -10.6410    0.0000 C   0  0
   12.6325   -9.8109    0.0000 N   0  0
   11.9176   -9.4015    0.0000 C   0  0
   11.9154   -8.5765    0.0000 N   0  0
   10.5406  -11.1299    0.0000 N   0  0
   13.3503  -11.0524    0.0000 N   0  0
   13.3467  -11.8822    0.0000 C   0  0
   14.0577  -12.2934    0.0000 C   0  0
   14.7739  -11.8833    0.0000 N   0  0
   14.7746  -11.0574    0.0000 C   0  0
   14.0590  -10.6416    0.0000 C   0  0
   15.4875  -12.2974    0.0000 C   0  0
    9.7850  -10.7986    0.0000 C   0  0
    9.1203  -11.2873    0.0000 C   0  0
    8.3648  -10.9560    0.0000 C   0  0
    9.2112  -12.1073    0.0000 C   0  0
  9 10  1  0
  4  5  1  0
  2  3  1  0
  5  6  2  0
  6  1  1  0
  1  2  2  0
  9 14  1  0
 10 11  1  0
 11 12  1  0
 12 13  1  0
 13 14  1  0
  6  7  1  0
 12 15  1  0
  3  4  2  0
  8 16  1  0
  2  8  1  0
 16 17  1  0
 17 18  1  0
  4  9  1  0
 17 19  1  0
M  END