
          05270816392D 1   1.00000     0.00000     0

 19 19  0     0  0            999 V2000
    8.1656  -14.6384    0.0000 N   0  0  0  0  0  0           0  0  0
    8.1642  -15.4660    0.0000 C   0  0  0  0  0  0           0  0  0
    8.8772  -15.8788    0.0000 C   0  0  0  0  0  0           0  0  0
    9.5965  -15.4654    0.0000 C   0  0  0  0  0  0           0  0  0
    9.5933  -14.6344    0.0000 C   0  0  0  0  0  0           0  0  0
    8.8752  -14.2256    0.0000 C   0  0  0  0  0  0           0  0  0
    8.8713  -13.4006    0.0000 N   0  0  0  0  0  0           0  0  0
   10.3057  -14.2183    0.0000 C   0  0  0  0  0  0           0  0  0
   11.0222  -14.6273    0.0000 N   0  3  0  0  0  0           0  0  0
   11.1146  -15.4426    0.0000 C   0  0  0  0  0  0           0  0  0
   11.9224  -15.6101    0.0000 C   0  0  0  0  0  0           0  0  0
   12.3314  -14.8936    0.0000 S   0  0  0  0  0  0           0  0  0
   11.7762  -14.2834    0.0000 C   0  0  0  0  0  0           0  0  0
    7.4493  -15.8774    0.0000 C   0  0  0  0  0  0           0  0  0
   10.5051  -15.9986    0.0000 C   0  0  0  0  0  0           0  0  0
   12.2616  -16.3621    0.0000 C   0  0  0  0  0  0           0  0  0
   11.7801  -17.0319    0.0000 C   0  0  0  0  0  0           0  0  0
   12.1193  -17.7839    0.0000 O   0  0  0  0  0  0           0  0  0
   10.6695  -13.3231    0.0000 Cl  0  5  0  0  0  0           0  0  0
  8  9  1  0     0  0
  9 10  1  0     0  0
  1  2  2  0     0  0
  4  5  1  0     0  0
  5  6  2  0     0  0
 10 11  2  0     0  0
 11 12  1  0     0  0
 12 13  1  0     0  0
 13  9  2  0     0  0
  6  1  1  0     0  0
  2 14  1  0     0  0
  2  3  1  0     0  0
 10 15  1  0     0  0
  6  7  1  0     0  0
 11 16  1  0     0  0
 16 17  1  0     0  0
  5  8  1  0     0  0
 17 18  1  0     0  0
  3  4  2  0     0  0
M  CHG  2   9   1  19  -1
M  END