
  SciTegic06051313522D

 24 26  0  0  0  0            999 V2000
   17.2144  -30.8083    0.0000 C   0  0
   17.9241  -30.3989    0.0000 C   0  0
   17.9212  -29.5762    0.0000 C   0  0
   17.2126  -29.1709    0.0000 C   0  0
   18.6274  -29.1650    0.0000 N   0  0
   19.3366  -29.5709    0.0000 C   0  0
   16.5064  -30.3993    0.0000 C   0  0
   16.5076  -29.5783    0.0000 C   0  0
   15.7271  -29.3233    0.0000 N   0  0
   15.2434  -29.9869    0.0000 O   0  0
   15.7251  -30.6518    0.0000 N   0  0
   17.2126  -28.3500    0.0000 N   0  3
   16.5040  -27.9429    0.0000 O   0  0
   17.9194  -27.9398    0.0000 O   0  5
   19.3364  -30.3857    0.0000 C   0  0
   20.0448  -30.7916    0.0000 C   0  0
   20.7519  -30.3803    0.0000 C   0  0
   20.7462  -29.5589    0.0000 C   0  0
   20.0372  -29.1567    0.0000 C   0  0
   21.4617  -30.7853    0.0000 Cl  0  0
   20.0475  -31.6088    0.0000 C   0  0
   19.3411  -32.0197    0.0000 F   0  0
   20.7565  -32.0150    0.0000 F   0  0
   20.0418  -32.4235    0.0000 F   0  0
  7  1  1  0
  1  2  2  0
  2  3  1  0
  3  4  2  0
  4  8  1  0
  3  5  1  0
  5  6  1  0
  7  8  1  0
  8  9  2  0
  9 10  1  0
 10 11  1  0
 11  7  2  0
 12 13  2  0
 12 14  1  0
  4 12  1  0
  6 15  2  0
 15 16  1  0
 16 17  2  0
 17 18  1  0
 18 19  2  0
 19  6  1  0
 17 20  1  0
 16 21  1  0
 21 22  1  0
 21 23  1  0
 21 24  1  0
M  CHG  2  12   1  14  -1
M  END