
  CDK    9/16/09,10:8

 40 44  0  0  0  0  0  0  0  0999 V2000
   14.6674  -17.8515    0.0000 N   0  0  0  0  0  0  0  0  0  0  0  0
   15.3846  -17.4438    0.0000 C   0  0  0  0  0  0  0  0  0  0  0  0
   16.0963  -17.8610    0.0000 N   0  0  0  0  0  0  0  0  0  0  0  0
   15.3901  -16.6188    0.0000 O   0  0  0  0  0  0  0  0  0  0  0  0
   16.8135  -17.4532    0.0000 C   0  0  0  0  0  0  0  0  0  0  0  0
   16.9061  -16.6346    0.0000 C   0  0  0  0  0  0  0  0  0  0  0  0
   17.7142  -16.4684    0.0000 C   0  0  0  0  0  0  0  0  0  0  0  0
   18.1220  -17.1857    0.0000 N   0  0  0  0  0  0  0  0  0  0  0  0
   17.5658  -17.7950    0.0000 N   0  0  0  0  0  0  0  0  0  0  0  0
   17.7315  -18.6032    0.0000 C   0  0  0  0  0  0  0  0  0  0  0  0
   18.5160  -18.8589    0.0000 C   0  0  0  0  0  0  0  0  0  0  0  0
   18.6819  -19.6662    0.0000 C   0  0  0  0  0  0  0  0  0  0  0  0
   18.0645  -20.2148    0.0000 C   0  0  0  0  0  0  0  0  0  0  0  0
   17.2786  -19.9504    0.0000 C   0  0  0  0  0  0  0  0  0  0  0  0
   17.1164  -19.1436    0.0000 C   0  0  0  0  0  0  0  0  0  0  0  0
   19.4648  -19.9264    0.0000 C   0  0  0  0  0  0  0  0  0  0  0  0
   18.0547  -15.7170    0.0000 C   0  0  0  0  0  0  0  0  0  0  0  0
   18.4625  -15.0083    0.0000 C   0  0  0  0  0  0  0  0  0  0  0  0
   17.3206  -15.3406    0.0000 C   0  0  0  0  0  0  0  0  0  0  0  0
   18.7925  -16.0862    0.0000 C   0  0  0  0  0  0  0  0  0  0  0  0
    9.6819  -19.1041    0.0000 C   0  0  0  0  0  0  0  0  0  0  0  0
    9.6807  -19.9315    0.0000 C   0  0  0  0  0  0  0  0  0  0  0  0
   10.3956  -20.3444    0.0000 C   0  0  0  0  0  0  0  0  0  0  0  0
   10.3938  -18.6914    0.0000 C   0  0  0  0  0  0  0  0  0  0  0  0
   11.1091  -19.1005    0.0000 C   0  0  0  0  0  0  0  0  0  0  0  0
   11.1099  -19.9273    0.0000 C   0  0  0  0  0  0  0  0  0  0  0  0
   11.8252  -20.3383    0.0000 N   0  0  0  0  0  0  0  0  0  0  0  0
   12.5402  -19.9235    0.0000 C   0  0  0  0  0  0  0  0  0  0  0  0
   12.5355  -19.0936    0.0000 N   0  0  0  0  0  0  0  0  0  0  0  0
   11.8196  -18.6863    0.0000 C   0  0  0  0  0  0  0  0  0  0  0  0
   11.8152  -17.8614    0.0000 N   0  0  0  0  0  0  0  0  0  0  0  0
   12.5275  -17.4451    0.0000 C   0  0  0  0  0  0  0  0  0  0  0  0
   13.2395  -17.8572    0.0000 C   0  0  0  0  0  0  0  0  0  0  0  0
   13.9513  -17.4416    0.0000 C   0  0  0  0  0  0  0  0  0  0  0  0
   13.9474  -16.6157    0.0000 C   0  0  0  0  0  0  0  0  0  0  0  0
   13.2257  -16.2072    0.0000 C   0  0  0  0  0  0  0  0  0  0  0  0
   12.5169  -16.6252    0.0000 C   0  0  0  0  0  0  0  0  0  0  0  0
    8.9673  -18.6918    0.0000 N   0  0  0  0  0  0  0  0  0  0  0  0
    8.9689  -17.8634    0.0000 O   0  0  0  0  0  0  0  0  0  0  0  0
    8.2548  -19.1011    0.0000 O   0  0  0  0  0  0  0  0  0  0  0  0
  3  5  1  0  0  0  0 
 17 20  1  0  0  0  0 
  9 10  1  0  0  0  0 
  5  6  2  0  0  0  0 
 21 22  2  0  0  0  0 
 10 11  2  0  0  0  0 
 22 23  1  0  0  0  0 
 23 26  2  0  0  0  0 
  2  3  1  0  0  0  0 
 25 24  2  0  0  0  0 
 24 21  1  0  0  0  0 
 11 12  1  0  0  0  0 
  1  2  1  0  0  0  0 
 25 26  1  0  0  0  0 
 12 13  2  0  0  0  0 
 26 27  1  0  0  0  0 
  2  4  2  0  0  0  0 
 27 28  2  0  0  0  0 
 13 14  1  0  0  0  0 
 28 29  1  0  0  0  0 
 29 30  2  0  0  0  0 
 30 25  1  0  0  0  0 
 14 15  2  0  0  0  0 
 30 31  1  0  0  0  0 
 15 10  1  0  0  0  0 
 31 32  1  0  0  0  0 
  6  7  1  0  0  0  0 
 32 33  2  0  0  0  0 
 12 16  1  0  0  0  0 
 33 34  1  0  0  0  0 
  7  8  2  0  0  0  0 
 34 35  2  0  0  0  0 
  7 17  1  0  0  0  0 
 35 36  1  0  0  0  0 
  8  9  1  0  0  0  0 
 36 37  2  0  0  0  0 
 37 32  1  0  0  0  0 
 17 18  1  0  0  0  0 
 21 38  1  0  0  0  0 
  9  5  1  0  0  0  0 
 17 19  1  0  0  0  0 
 38 39  1  0  0  0  0 
 38 40  2  0  0  0  0 
 34  1  1  0  0  0  0 
M  CHG  1  38   1
M  CHG  1  39  -1
M  END