
  SciTegic11201309402D

 80 84  0  0  1  0            999 V2000
    2.9905   -4.2905    0.0000 N   0  0
    3.6852   -4.7371    0.0000 C   0  0
    9.1236   -4.3666    0.0000 N   0  0
    4.4196   -4.3666    0.0000 C   0  0  1  0  0  0
    7.9724   -5.5178    0.0000 C   0  0
    4.9058   -5.0349    0.0000 N   0  0
    7.1884   -5.7758    0.0000 N   0  0
    9.1236   -1.9683    0.0000 N   0  0
    9.3816   -3.5760    0.0000 C   0  0
    5.5773   -5.5178    0.0000 C   0  0
    8.6373   -1.3001    0.0000 C   0  0
    2.0080   -5.3822    0.0000 C   0  0
   12.4680    0.0860    0.0000 N   0  3
    8.6373   -5.0349    0.0000 C   0  0  2  0  0  0
    6.3614   -5.7758    0.0000 C   0  0  2  0  0  0
    2.2230   -4.5883    0.0000 C   0  0  2  0  0  0
    7.1884   -0.5591    0.0000 N   0  0
    9.3816   -2.7523    0.0000 C   0  0  2  0  0  0
    1.5813   -6.9800    0.0000 C   0  0
    7.9724   -0.8171    0.0000 C   0  0  1  0  0  0
    2.5935   -5.9677    0.0000 N   0  0
    1.3695   -7.7739    0.0000 N   0  0
    6.2323   -6.5896    0.0000 C   0  0
   13.2917    0.0761    0.0000 N   0  5
    6.3614   -0.5591    0.0000 C   0  0
    0.5690   -7.9922    0.0000 C   0  0  1  0  0  0
    0.3573   -8.7862    0.0000 C   0  0
    5.4616   -6.8807    0.0000 C   0  0
   11.6443    0.0959    0.0000 N   0  0
    2.3752   -6.7616    0.0000 C   0  0  1  0  0  0
    4.1681   -2.7523    0.0000 S   0  0
    4.4196   -1.9683    0.0000 S   0  0
    3.6421   -5.5608    0.0000 O   0  0
    8.3462   -6.2555    0.0000 O   0  0
    1.2107   -5.5972    0.0000 O   0  0
   10.1954   -3.7050    0.0000 O   0  0
    5.2002   -6.2555    0.0000 O   0  0
    9.2228   -0.7179    0.0000 O   0  0
    4.1681   -3.5760    0.0000 C   0  0
    8.3462   -0.0728    0.0000 C   0  0
   10.1954   -2.6233    0.0000 C   0  0
    0.9957   -6.3945    0.0000 O   0  0
   -0.0165   -7.4067    0.0000 C   0  0
    5.5773   -0.8171    0.0000 C   0  0
   -0.4433   -9.0012    0.0000 O   0  0
    6.2323    0.2547    0.0000 O   0  0
    5.3326   -7.7011    0.0000 O   0  0
    0.9362   -9.3717    0.0000 N   0  0
    9.2228   -5.6170    0.0000 C   0  0
    2.9508   -3.4668    0.0000 C   0  0
   10.8206    0.0496    0.0000 C   0  0
    4.8165   -6.3647    0.0000 N   0  0
    9.1699   -0.0331    0.0000 C   0  0
   -0.8104   -7.6217    0.0000 C   0  0
   -2.4016   -8.0484    0.0000 C   0  0
   10.7114   -3.2684    0.0000 C   0  0
    4.9058   -1.3001    0.0000 C   0  0
   10.4435   -0.6848    0.0000 C   0  0
   10.3707    0.7410    0.0000 C   0  0
   -1.0188   -8.4190    0.0000 C   0  0
    9.5470    0.7013    0.0000 C   0  0
   -1.3960   -7.0362    0.0000 C   0  0
    9.6198   -0.7278    0.0000 C   0  0
    3.7050  -10.1127    0.0000 N   0  0
   -2.1899   -7.2479    0.0000 C   0  0
   -1.8128   -8.6340    0.0000 C   0  0
    1.7004   -3.9432    0.0000 C   0  0
   -3.2022   -8.2602    0.0000 O   0  0
    2.1535   -3.2485    0.0000 C   0  0
    2.9607   -7.3472    0.0000 C   0  0
    3.1195   -9.5271    0.0000 C   0  0
   10.0168   -5.4020    0.0000 C   0  0
    9.0111   -6.4143    0.0000 C   0  0
   11.5318   -3.1394    0.0000 C   0  0
   10.4203   -4.0391    0.0000 C   0  0
    2.7490   -8.1477    0.0000 C   0  0
    3.3345   -8.7266    0.0000 C   0  0
   10.9397   -4.6776    0.0000 C   0  0
   12.0512   -3.7811    0.0000 C   0  0
   11.7535   -4.5486    0.0000 C   0  0
  2  1  1  0
  3 14  1  0
  4  2  1  6
  5  7  1  0
  4  6  1  0
  7 15  1  0
  8 11  1  0
  9  3  1  0
 10  6  1  0
 11 20  1  0
 16 12  1  6
 13 29  2  0
 14  5  1  0
 15 10  1  0
 16  1  1  0
 17 25  1  0
 18  9  1  0
 30 19  1  0
 20 17  1  0
 21 12  1  0
 22 19  1  0
 15 23  1  1
 24 13  2  0
 25 44  1  0
 26 22  1  1
 27 26  1  0
 28 23  1  0
 29 51  1  0
 30 21  1  1
 31 39  1  0
 32 31  1  0
 33  2  2  0
 34  5  2  0
 35 12  2  0
 36  9  2  0
 37 10  2  0
 38 11  2  0
 39  4  1  0
 20 40  1  1
 18 41  1  1
 42 19  2  0
 26 43  1  0
 44 57  1  0
 45 27  2  0
 46 25  2  0
 47 28  2  0
 48 27  1  0
 14 49  1  1
 50  1  1  0
 51 58  2  0
 52 28  1  0
 53 40  1  0
 54 43  1  0
 55 65  2  0
 56 41  1  0
 57 32  1  0
 58 63  1  0
 59 61  2  0
 60 54  1  0
 61 53  1  0
 62 54  2  0
 63 53  2  0
 64 71  1  0
 65 62  1  0
 66 60  2  0
 67 16  1  0
 68 55  1  0
 69 50  1  0
 70 30  1  0
 71 77  1  0
 72 49  1  0
 73 49  1  0
 74 56  1  0
 75 56  2  0
 76 70  1  0
 77 76  1  0
 78 75  1  0
 79 74  2  0
 80 78  2  0
 69 67  1  0
 66 55  1  0
  8 18  1  0
 59 51  1  0
 79 80  1  0
M  CHG  2  13   1  24  -1
M  END