
  SciTegic05061409512D

 42 45  0  0  0  0            999 V2000
    5.5584  -13.4877    0.0000 C   0  0  2  0  0  0
    5.5584  -14.3127    0.0000 C   0  0
    6.2704  -13.0710    0.0000 C   0  0
    6.9825  -13.4877    0.0000 C   0  0  1  0  0  0
    7.6878  -14.7259    0.0000 C   0  0  1  0  0  0
    8.4046  -14.3187    0.0000 C   0  0
    8.4081  -13.4937    0.0000 C   0  0  2  0  0  0
    7.6947  -13.0760    0.0000 C   0  0  1  0  0  0
    6.9751  -12.6626    0.0000 H   0  0
    7.6971  -12.2509    0.0000 C   0  0
    9.1247  -13.0850    0.0000 C   0  0
    6.9790  -14.3127    0.0000 C   0  0  1  0  0  0
    6.2700  -14.7213    0.0000 C   0  0
    6.4394  -15.5218    0.0000 C   0  0  2  0  0  0
    7.2533  -15.6081    0.0000 O   0  0
    7.5365  -14.9566    0.0000 C   0  0  1  0  0  0
    8.4001  -15.1377    0.0000 O   0  0
    7.9918  -15.5711    0.0000 O   0  0
    5.8869  -16.1345    0.0000 O   0  0
    5.0801  -15.9622    0.0000 C   0  0
    4.5275  -16.5749    0.0000 C   0  0
    4.8257  -15.1774    0.0000 O   0  0
    7.5756  -16.2834    0.0000 C   0  0
    7.9844  -17.0001    0.0000 C   0  0
    6.7506  -16.2791    0.0000 O   0  0
    8.4128  -11.8404    0.0000 C   0  0
    8.4152  -11.0154    0.0000 C   0  0
    9.1308  -10.6050    0.0000 C   0  0
    9.1332   -9.7800    0.0000 C   0  0
    7.7018  -10.6009    0.0000 C   0  0
    4.8427  -13.0773    0.0000 O   0  0
    8.2751  -12.4877    0.0000 C   0  0
    4.8403  -12.2523    0.0000 C   0  0
    4.1246  -11.8419    0.0000 C   0  0
    5.5535  -11.8377    0.0000 O   0  0
    4.1222  -11.0168    0.0000 C   0  0
    3.4065  -10.6064    0.0000 C   0  0
    3.4092   -9.7824    0.0000 C   0  0
    2.6943   -9.3721    0.0000 C   0  0
    1.9801   -9.7868    0.0000 C   0  0
    1.9851  -10.6160    0.0000 C   0  0
    2.7006  -11.0227    0.0000 C   0  0
  1  2  1  0
  1  3  1  0
  2 13  2  0
  4  3  1  0
  4 12  1  0
  4  8  1  0
 12  5  1  0
  5  6  1  0
  6  7  1  0
  7  8  1  0
  4  9  1  6
  8 10  1  0
  7 11  1  6
 12 13  1  1
 13 14  1  0
 14 15  1  0
 15 16  1  0
 12 16  1  0
  5 17  1  6
 16 18  1  6
 14 19  1  6
 19 20  1  0
 20 21  1  0
 20 22  2  0
 18 23  1  0
 23 24  1  0
 23 25  2  0
 10 26  1  0
 26 27  1  0
 27 28  1  0
 28 29  2  0
 27 30  2  0
  1 31  1  1
  8 32  1  1
 31 33  1  0
 33 34  1  0
 33 35  2  0
 34 36  2  0
 36 37  1  0
 37 38  2  0
 38 39  1  0
 39 40  2  0
 40 41  1  0
 41 42  2  0
 42 37  1  0
M  END