
  SciTegic06051315212D

 46 50  0  0  0  0            999 V2000
    8.5982  -11.1298    0.0000 O   0  0
    8.6024  -10.3054    0.0000 C   0  0  2  0  0  0
    7.8863  -10.7140    0.0000 C   0  0
   10.1220  -11.2517    0.0000 O   0  0
   11.5151  -10.3605    0.0000 O   0  0
   12.9840  -11.1219    0.0000 O   0  0
   13.0574  -12.7712    0.0000 O   0  0
   10.8942  -12.4589    0.0000 O   0  0
   12.4546  -13.9077    0.0000 O   0  0
   10.8546  -11.6336    0.0000 C   0  0  2  0  0  0
   11.5512  -11.1880    0.0000 C   0  0  1  0  0  0
   12.2875  -11.5677    0.0000 C   0  0  2  0  0  0
   12.3235  -12.3951    0.0000 C   0  0  1  0  0  0
   11.6269  -12.8407    0.0000 C   0  0  1  0  0  0
   11.6642  -13.6624    0.0000 C   0  0
   10.1060  -10.4274    0.0000 C   0  0  2  0  0  0
   10.8095  -10.0057    0.0000 O   0  0
   10.7936   -9.1814    0.0000 C   0  0
   10.0740   -8.7789    0.0000 C   0  0
    9.3867  -10.0333    0.0000 C   0  0  1  0  0  0
    9.3660   -9.2045    0.0000 C   0  0  2  0  0  0
    8.5716   -8.9680    0.0000 C   0  0  1  0  0  0
    8.0978   -9.6476    0.0000 C   0  0
    9.3421   -8.3766    0.0000 H   0  0
    9.3985  -10.8576    0.0000 H   0  0
    8.2994   -8.1898    0.0000 O   0  0
   10.1463  -12.0550    0.0000 H   0  0
    8.8373   -7.5650    0.0000 C   0  0
    8.5652   -6.7868    0.0000 O   0  0
    7.1744  -10.2981    0.0000 O   0  0
    9.6452   -7.7160    0.0000 C   0  0
    9.9164   -8.4958    0.0000 C   0  0
   10.7256   -8.6494    0.0000 C   0  0
   11.2644   -8.0242    0.0000 C   0  0
   10.9884   -7.2429    0.0000 C   0  0
   10.1798   -7.0930    0.0000 C   0  0
   12.0746   -8.1766    0.0000 O   0  0
   12.6367  -14.7118    0.0000 C   0  0
   12.0314  -15.2716    0.0000 O   0  0
   13.4242  -14.9561    0.0000 C   0  0
   13.6028  -15.7580    0.0000 C   0  0
   14.3893  -16.0025    0.0000 C   0  0
   14.9956  -15.4425    0.0000 C   0  0
   14.8099  -14.6348    0.0000 C   0  0
   14.0236  -14.3942    0.0000 C   0  0
   15.7833  -15.6857    0.0000 O   0  0
  2  1  1  0
  2  3  1  6
  9 15  1  0
 14  8  1  0
  8 10  1  0
 10 11  1  0
 11 12  1  0
 12 13  1  0
 13 14  1  0
 14 15  1  1
 10  4  1  0
 11  5  1  6
 12  6  1  1
 13  7  1  6
 21 19  1  0
 20 16  1  0
 16 17  1  0
 17 18  1  0
 18 19  2  0
 20 21  1  0
 21 22  1  0
 22 23  1  0
  2 20  1  0
 23  2  1  0
 21 24  1  1
 20 25  1  1
 22 26  1  1
 16  4  1  1
 10 27  1  6
 26 28  1  0
 28 29  2  0
  3 30  1  0
 31 32  2  0
 32 33  1  0
 33 34  2  0
 34 35  1  0
 35 36  2  0
 36 31  1  0
 28 31  1  0
 34 37  1  0
  9 38  1  0
 38 39  2  0
 38 40  1  0
 40 41  2  0
 41 42  1  0
 42 43  2  0
 43 44  1  0
 44 45  2  0
 45 40  1  0
 43 46  1  0
M  END