
  SciTegic09171211542D

 15 16  0  0  0  0            999 V2000
    1.6432  -15.0871    0.0000 O   0  0
    1.6475  -14.2571    0.0000 S   0  0
    0.9265  -14.6685    0.0000 O   0  0
    4.1339  -14.2526    0.0000 C   0  0
    3.7202  -13.5354    0.0000 C   0  0
    2.8888  -13.5383    0.0000 C   0  0
    2.4792  -14.2545    0.0000 C   0  0
    3.7207  -14.9682    0.0000 C   0  0
    2.8957  -14.9646    0.0000 C   0  0
    2.4819  -15.6760    0.0000 C   0  0
    2.8919  -16.3916    0.0000 C   0  0
    3.7199  -16.3913    0.0000 C   0  0
    4.1301  -15.6792    0.0000 C   0  0
    1.2303  -13.5424    0.0000 N   0  0
    4.9639  -14.2528    0.0000 O   0  0
  8  4  1  0
  2  1  2  0
  8  9  1  0
  4  5  2  0
  9 10  2  0
  3  2  2  0
 10 11  1  0
  5  6  1  0
 11 12  2  0
 12 13  1  0
 13  8  2  0
  7  2  1  0
  6  7  2  0
  2 14  1  0
  7  9  1  0
  4 15  1  0
M  END