
  SciTegic03161210572D

 33 33  0  0  0  0            999 V2000
    2.2542   -5.0417    0.0000 F   0  0
    2.6708   -5.7583    0.0000 C   0  0
    3.0832   -5.0392    0.0000 F   0  0
    2.3625   -6.8833    0.0000 F   0  0
    1.9542   -6.1708    0.0000 C   0  0
    1.5413   -6.8807    0.0000 F   0  0
    0.8250   -5.0417    0.0000 F   0  0
    1.2417   -5.7583    0.0000 C   0  0
    1.6540   -5.0392    0.0000 F   0  0
    0.9333   -6.8833    0.0000 F   0  0
    0.5250   -6.1708    0.0000 C   0  0
    0.1121   -6.8807    0.0000 F   0  0
   -0.6042   -5.0417    0.0000 F   0  0
   -0.1875   -5.7583    0.0000 C   0  0
    0.2248   -5.0392    0.0000 F   0  0
   -0.4958   -6.8833    0.0000 F   0  0
   -0.9042   -6.1708    0.0000 C   0  0
   -1.3170   -6.8807    0.0000 F   0  0
   -2.3292   -6.1750    0.0000 N   0  0
   -1.6147   -5.7625    0.0000 C   0  0
   -1.6147   -4.9375    0.0000 O   0  0
    3.3866   -6.1750    0.0000 C   0  0
    4.1011   -5.7625    0.0000 N   0  0
    3.3866   -7.0000    0.0000 O   0  0
    4.8155   -6.1750    0.0000 O   0  0
   -3.0436   -5.7625    0.0000 C   0  0
   -3.0387   -4.9364    0.0000 C   0  0
   -3.7523   -4.5240    0.0000 C   0  0
   -4.4678   -4.9366    0.0000 C   0  0
   -4.4651   -5.7658    0.0000 C   0  0
   -3.7509   -6.1745    0.0000 C   0  0
   -5.1828   -4.5250    0.0000 C   0  0
   -5.1781   -6.1808    0.0000 C   0  0
 19 20  1  0
 20 17  1  0
  8  7  1  0
 20 21  2  0
 17 14  1  0
 14 11  1  0
 11  8  1  0
  8  5  1  0
  5  2  1  0
 14 13  1  0
  2 22  1  0
 15 14  1  0
 22 23  1  0
  9  8  1  0
 22 24  2  0
  5  4  1  0
 23 25  1  0
  6  5  1  0
 19 26  1  0
 17 16  1  0
 26 27  2  0
 18 17  1  0
 27 28  1  0
 28 29  2  0
 11 10  1  0
 29 30  1  0
 12 11  1  0
 30 31  2  0
 31 26  1  0
  2  1  1  0
 29 32  1  0
  3  2  1  0
 30 33  1  0
M  END