
  SciTegic01161211262D

 56 62  0  0  0  0            999 V2000
   13.4554  -24.0341    0.0000 C   0  0
   13.8634  -23.3190    0.0000 C   0  0
   13.4484  -22.6060    0.0000 C   0  0
   13.8564  -21.8909    0.0000 C   0  0
   14.6813  -21.8853    0.0000 C   0  0
   15.0964  -22.5984    0.0000 C   0  0
   14.6884  -23.3134    0.0000 C   0  0
   15.1034  -24.0265    0.0000 O   0  0
   14.6954  -24.7416    0.0000 C   0  0
   15.1104  -25.4546    0.0000 C   0  0
   14.7024  -26.1697    0.0000 C   0  0
   13.8775  -26.1753    0.0000 C   0  0
   13.4624  -25.4622    0.0000 C   0  0
   13.8704  -24.7472    0.0000 C   0  0
    6.3142  -22.0803    0.0000 C   0  0  2  0  0  0
    6.5740  -22.8463    0.0000 C   0  0
    7.3998  -22.8283    0.0000 C   0  0  1  0  0  0
    7.6375  -22.0412    0.0000 O   0  0
    6.9510  -21.5592    0.0000 N   0  0
    8.1383  -23.1944    0.0000 C   0  0
    7.3301  -23.6532    0.0000 H   0  0
    5.5896  -22.4797    0.0000 C   0  0
    5.5909  -23.3124    0.0000 C   0  0
    4.8667  -23.7082    0.0000 C   0  0
    6.3014  -23.7169    0.0000 C   0  0
    5.8771  -21.3626    0.0000 C   0  0
    5.0556  -21.2804    0.0000 C   0  0
    6.9442  -20.7451    0.0000 C   0  0
    7.6507  -20.3193    0.0000 C   0  0
    8.3712  -20.7180    0.0000 C   0  0
    8.3392  -19.0676    0.0000 C   0  0
    7.6327  -19.4934    0.0000 C   0  0
    9.5632  -23.0960    0.0000 C   0  0
    9.5127  -23.9180    0.0000 S   0  0
   10.9645  -23.0423    0.0000 C   0  0
   10.9717  -23.8658    0.0000 C   0  0
   11.6857  -24.2708    0.0000 C   0  0
   12.3957  -23.8550    0.0000 C   0  0
   12.3911  -23.0283    0.0000 C   0  0
   11.6738  -22.6206    0.0000 C   0  0
   11.6935  -25.1002    0.0000 C   0  0
   12.3282  -25.6245    0.0000 O   0  0
    9.0636  -19.4678    0.0000 C   0  0
    9.0771  -20.2895    0.0000 C   0  0
    9.7690  -19.0404    0.0000 C   0  0
   10.4932  -19.4431    0.0000 C   0  0
   11.2019  -19.0176    0.0000 C   0  0
   11.1877  -18.1894    0.0000 C   0  0
   10.4589  -17.7886    0.0000 C   0  0
    9.7532  -18.2165    0.0000 C   0  0
    8.8223  -22.7332    0.0000 N   0  0
    4.7156  -20.5294    0.0000 O   0  0
   10.2472  -22.6347    0.0000 N   0  0
   10.9496  -25.4501    0.0000 O   0  0
   15.0888  -21.1699    0.0000 O   0  0
   15.1174  -26.8828    0.0000 O   0  0
 13 14  1  0
  9 14  1  0
  1 14  2  0
 15 16  1  0
 16 17  1  0
 17 18  1  0
 18 19  1  0
 19 15  1  0
 17 20  1  0
 17 21  1  6
 15 22  1  1
 22 23  1  0
 23 24  1  0
 23 25  1  0
 15 26  1  0
 26 27  1  0
 19 28  1  0
 28 29  1  0
 29 30  2  0
 30 44  1  0
 43 31  1  0
 31 32  2  0
 32 29  1  0
 33 34  2  0
 35 36  2  0
 36 37  1  0
 37 38  2  0
 38 39  1  0
 39 40  2  0
 40 35  1  0
 38  1  1  0
 37 41  1  0
 41 42  2  0
  1  2  1  0
 43 44  2  0
  2  3  1  0
  3  4  2  0
 45 46  2  0
  4  5  1  0
 46 47  1  0
  5  6  2  0
 47 48  2  0
  6  7  1  0
 48 49  1  0
  2  7  2  0
 49 50  2  0
 50 45  1  0
 43 45  1  0
  7  8  1  0
  8  9  1  0
  9 10  2  0
 10 11  1  0
 11 12  1  0
 12 13  2  0
 33 53  1  0
 53 35  1  0
 41 54  1  0
 27 52  1  0
  5 55  1  0
 20 51  1  0
 51 33  1  0
 11 56  2  0
M  END