
  SciTegic11201309402D

 46 49  0  0  0  0            999 V2000
    2.7750   -6.6667    0.0000 N   0  0
    3.4895   -6.2542    0.0000 C   0  0  2  0  0  0
    4.2040   -6.6667    0.0000 C   0  0
    4.9184   -6.2542    0.0000 N   0  0
    4.2040   -7.4917    0.0000 O   0  0
    5.6301   -6.6643    0.0000 C   0  0  1  0  0  0
    6.3425   -6.2553    0.0000 C   0  0
    4.9139   -5.4259    0.0000 C   0  0
    5.6324   -5.0152    0.0000 C   0  0
    6.3428   -5.4316    0.0000 C   0  0
    7.0564   -5.0247    0.0000 C   0  0
    7.0609   -4.2016    0.0000 C   0  0
    6.3458   -3.7871    0.0000 C   0  0
    5.6351   -4.1964    0.0000 C   0  0
    5.6295   -7.4893    0.0000 C   0  0
    4.9147   -7.9012    0.0000 O   0  0
    6.3436   -7.9023    0.0000 N   0  0
    7.0584   -7.4904    0.0000 C   0  0  2  0  0  0
    7.7726   -7.9035    0.0000 C   0  0
    8.4874   -7.4915    0.0000 N   0  0
    7.7719   -8.7285    0.0000 O   0  0
    7.0591   -6.6654    0.0000 C   0  0
    7.7739   -6.2535    0.0000 C   0  0
    7.7745   -5.4285    0.0000 C   0  0
    8.4893   -5.0165    0.0000 C   0  0
    9.2035   -5.4296    0.0000 N   0  0
    3.4895   -5.4292    0.0000 C   0  0
    2.7750   -5.0167    0.0000 C   0  0
    2.7778   -4.1906    0.0000 C   0  0
    2.0642   -3.7782    0.0000 C   0  0
    1.3487   -4.1907    0.0000 C   0  0
    1.3514   -5.0200    0.0000 C   0  0
    2.0656   -5.4287    0.0000 C   0  0
    2.0682   -6.2537    0.0000 C   0  0
    3.4931   -3.7794    0.0000 C   0  0
    0.6337   -3.7792    0.0000 O   0  0
    9.2015   -7.9046    0.0000 C   0  0
    9.9163   -7.4926    0.0000 C   0  0
   10.6294   -7.9078    0.0000 C   0  0
   11.3437   -7.4966    0.0000 C   0  0
   11.3448   -6.6707    0.0000 C   0  0
   10.6256   -6.2578    0.0000 C   0  0
    9.9142   -6.6714    0.0000 C   0  0
    9.9183   -5.0176    0.0000 C   0  0
    9.9189   -4.1926    0.0000 O   0  0
   10.6324   -5.4306    0.0000 C   0  0
 22 23  1  0
  2  3  1  0
 23 24  1  0
 11 12  2  0
 24 25  1  0
  2  1  1  1
 25 26  1  0
 12 13  1  0
  2 27  1  0
  3  4  1  0
 27 28  1  0
 13 14  2  0
 28 29  2  0
 14  9  1  0
 29 30  1  0
  4  8  1  0
 30 31  2  0
  6 15  1  1
 31 32  1  0
  6  7  1  0
 32 33  2  0
 33 28  1  0
 15 16  2  0
 33 34  1  0
  7 10  1  0
 29 35  1  0
 15 17  1  0
 31 36  1  0
  9  8  1  0
 20 37  1  0
 18 17  1  1
 37 38  1  0
 38 39  2  0
 18 19  1  0
 39 40  1  0
  3  5  2  0
 40 41  2  0
 19 20  1  0
 41 42  1  0
  9 10  2  0
 42 43  2  0
 43 38  1  0
 19 21  2  0
 26 44  1  0
  6  4  1  0
 18 22  1  0
 44 45  2  0
 10 11  1  0
 44 46  1  0
M  END