
  SciTegic12171312552D

 63 67  0  0  0  0            999 V2000
    4.4063  -24.1691    0.0000 N   0  0
    4.4043  -24.9968    0.0000 C   0  0
    5.1215  -25.4102    0.0000 N   0  0
    5.1161  -23.7563    0.0000 C   0  0
    5.8349  -24.1635    0.0000 C   0  0
    5.8381  -24.9904    0.0000 C   0  0
    6.6267  -25.2412    0.0000 N   0  0
    7.1068  -24.5661    0.0000 C   0  0
    6.6191  -23.9072    0.0000 N   0  0
    3.6929  -25.4092    0.0000 O   0  0
    5.1161  -22.9316    0.0000 O   0  0
    7.9314  -24.5661    0.0000 C   0  0
    8.3492  -25.2810    0.0000 C   0  0
    9.1728  -25.2742    0.0000 C   0  0
    9.5800  -24.5537    0.0000 C   0  0
    9.1628  -23.8429    0.0000 C   0  0
    8.3373  -23.8508    0.0000 C   0  0
   10.4046  -24.5537    0.0000 O   0  0
    3.6948  -23.7568    0.0000 C   0  0
    2.9791  -24.1692    0.0000 C   0  0
    2.2636  -23.7569    0.0000 C   0  0
    5.1215  -26.2349    0.0000 C   0  0
    4.4065  -26.6468    0.0000 C   0  0
    4.4065  -27.4718    0.0000 C   0  0
   10.8190  -23.8389    0.0000 C   0  0
   11.6436  -23.8389    0.0000 C   0  0
   12.0559  -23.1233    0.0000 N   0  0
   12.0559  -24.5504    0.0000 O   0  0
   12.8806  -23.1233    0.0000 C   0  0
   13.2929  -23.8389    0.0000 C   0  0
   14.1176  -23.8389    0.0000 N   0  0
   14.5300  -24.5504    0.0000 C   0  0
   15.3547  -24.5504    0.0000 C   0  0
   14.1176  -25.2660    0.0000 O   0  0
   15.7670  -25.2660    0.0000 C   0  0
   15.3547  -25.9815    0.0000 C   0  0
   15.7670  -26.6971    0.0000 C   0  0
   15.3547  -27.4086    0.0000 C   0  0
   14.5300  -27.4086    0.0000 N   0  0
   14.1176  -28.1242    0.0000 C   0  0
   13.2929  -28.1242    0.0000 O   0  0
   14.5300  -28.8356    0.0000 C   0  0
   14.1176  -29.5511    0.0000 C   0  0
   13.2929  -29.5511    0.0000 C   0  0
   12.8806  -28.8355    0.0000 C   0  0
   12.0559  -28.8355    0.0000 C   0  0
   11.6436  -29.5511    0.0000 N   0  0
   10.8190  -29.5511    0.0000 S   0  0
   10.4066  -28.8355    0.0000 C   0  0
   10.1075  -29.9635    0.0000 O   0  0
   10.8190  -30.3758    0.0000 O   0  0
   10.8190  -28.1242    0.0000 C   0  0
   10.4066  -27.4086    0.0000 C   0  0
    9.5819  -27.4086    0.0000 C   0  0
    9.1696  -28.1242    0.0000 C   0  0
    9.5819  -28.8355    0.0000 C   0  0
    8.3449  -28.1242    0.0000 C   0  0
    7.9325  -28.8355    0.0000 C   0  0
    8.3449  -29.5511    0.0000 C   0  0
    9.1696  -29.5511    0.0000 C   0  0
    7.9325  -27.4086    0.0000 N   0  0
    8.3449  -26.6971    0.0000 C   0  0
    7.1078  -27.4086    0.0000 C   0  0
  1  2  1  0
  2  3  1  0
  3  6  1  0
  5  4  1  0
  4  1  1  0
  5  6  2  0
  6  7  1  0
  7  8  2  0
  8  9  1  0
  9  5  1  0
  2 10  2  0
  4 11  2  0
 12 13  2  0
 13 14  1  0
 14 15  2  0
 15 16  1  0
 16 17  2  0
 17 12  1  0
  8 12  1  0
 15 18  1  0
  1 19  1  0
 19 20  1  0
 20 21  1  0
  3 22  1  0
 22 23  1  0
 23 24  1  0
 18 25  1  0
 25 26  1  0
 26 27  1  0
 26 28  2  0
 27 29  1  0
 29 30  1  0
 30 31  1  0
 31 32  1  0
 32 33  1  0
 32 34  2  0
 33 35  1  0
 35 36  1  0
 36 37  1  0
 37 38  1  0
 38 39  1  0
 39 40  1  0
 40 41  2  0
 40 42  1  0
 42 43  1  0
 43 44  1  0
 44 45  1  0
 45 46  1  0
 46 47  1  0
 47 48  1  0
 48 49  1  0
 48 50  2  0
 51 48  2  0
 49 52  2  0
 52 53  1  0
 53 54  2  0
 54 55  1  0
 55 56  2  0
 56 49  1  0
 55 57  1  0
 57 58  2  0
 58 59  1  0
 59 60  2  0
 60 56  1  0
 57 61  1  0
 61 62  1  0
 61 63  1  0
M  END