
  SciTegic06051313522D

 31 33  0  0  0  0            999 V2000
    9.5318  -15.3801    0.0000 C   0  0
    9.5307  -16.2074    0.0000 C   0  0
   10.2455  -16.6203    0.0000 C   0  0
   10.9619  -16.2070    0.0000 C   0  0
   10.9591  -15.3764    0.0000 C   0  0
   10.2437  -14.9673    0.0000 C   0  0
   11.6720  -14.9612    0.0000 C   0  0
   12.3880  -15.3710    0.0000 C   0  0
   12.3877  -16.1937    0.0000 C   0  0
   13.1029  -16.6034    0.0000 C   0  0
   13.8168  -16.1882    0.0000 C   0  0
   13.8110  -15.3589    0.0000 C   0  0
   13.0953  -14.9529    0.0000 N   0  0
   11.6770  -16.6183    0.0000 O   0  0
   11.6783  -17.4433    0.0000 C   0  0
   12.3935  -17.8547    0.0000 C   0  0
   12.3901  -18.6770    0.0000 C   0  0
   13.1044  -19.0883    0.0000 C   0  0
   13.8192  -18.6747    0.0000 C   0  0
   13.8152  -17.8454    0.0000 C   0  0
   13.1004  -17.4378    0.0000 C   0  0
   11.6750  -19.0885    0.0000 F   0  0
   14.5349  -19.0851    0.0000 Cl  0  0
    8.8173  -14.9677    0.0000 Cl  0  0
   14.5247  -14.9406    0.0000 C   0  0
   15.2421  -15.3478    0.0000 N   0  0
   14.5186  -14.1156    0.0000 O   0  0
   15.2481  -16.1728    0.0000 C   0  0
   15.9656  -16.5801    0.0000 C   0  0
   15.9536  -14.9301    0.0000 C   0  0
   16.6710  -15.3374    0.0000 C   0  0
  1  2  2  0
  2  3  1  0
  3  4  2  0
  4  5  1  0
  5  6  2  0
  6  1  1  0
  5  7  1  0
  7  8  1  0
  8  9  2  0
  9 10  1  0
 10 11  2  0
 11 12  1  0
 12 13  2  0
 13  8  1  0
  4 14  1  0
 14 15  1  0
 15 16  1  0
 16 17  2  0
 17 18  1  0
 18 19  2  0
 19 20  1  0
 20 21  2  0
 21 16  1  0
 17 22  1  0
 19 23  1  0
  1 24  1  0
 25 26  1  0
 25 27  2  0
 12 25  1  0
 26 28  1  0
 28 29  1  0
 26 30  1  0
 30 31  1  0
M  END