
          11280715082D 1   1.00000     0.00000     0

 31 33  0     1  0            999 V2000
    4.2917   -1.5292    0.0000 N   0  0  3  0  0  0           0  0  0
    4.2917   -2.3542    0.0000 C   0  0  1  0  0  0           0  0  0
    5.0125   -2.7667    0.0000 C   0  0  0  0  0  0           0  0  0
    4.9542   -1.0417    0.0000 C   0  0  0  0  0  0           0  0  0
    5.0167   -3.5917    0.0000 N   0  0  0  0  0  0           0  0  0
    3.6250   -1.0500    0.0000 C   0  0  0  0  0  0           0  0  0
    7.1417   -0.9917    0.0000 C   0  0  0  0  0  0           0  0  0
    3.8792   -0.2625    0.0000 C   0  0  0  0  0  0           0  0  0
    6.3542   -0.7375    0.0000 N   0  0  0  0  0  0           0  0  0
    4.7042   -0.2542    0.0000 C   0  0  0  0  0  0           0  0  0
    5.7417   -1.2917    0.0000 C   0  0  0  0  0  0           0  0  0
    5.6375   -2.6292    0.0000 O   0  0  0  0  0  0           0  0  0
    7.3167   -1.7917    0.0000 O   0  0  0  0  0  0           0  0  0
    7.7500   -0.4292    0.0000 C   0  0  0  0  0  0           0  0  0
    5.7292   -4.0042    0.0000 C   0  0  0  0  0  0           0  0  0
    3.5792   -2.7750    0.0000 C   0  0  0  0  0  0           0  0  0
    5.7292   -4.8292    0.0000 C   0  0  0  0  0  0           0  0  0
    5.7292   -6.4792    0.0000 C   0  0  0  0  0  0           0  0  0
    2.8667   -2.3625    0.0000 N   0  0  0  0  0  0           0  0  0
    5.0167   -7.7167    0.0000 N   0  0  0  0  0  0           0  0  0
    6.4500   -5.2417    0.0000 C   0  0  0  0  0  0           0  0  0
    5.0167   -5.2417    0.0000 C   0  0  0  0  0  0           0  0  0
    5.0167   -6.0667    0.0000 C   0  0  0  0  0  0           0  0  0
    6.4500   -6.0667    0.0000 C   0  0  0  0  0  0           0  0  0
    8.5375   -0.6792    0.0000 C   0  0  3  0  0  0           0  0  0
    5.7292   -7.3042    0.0000 C   0  0  0  0  0  0           0  0  0
    8.7042   -1.4875    0.0000 C   0  0  0  0  0  0           0  0  0
    9.1417   -0.1250    0.0000 C   0  0  0  0  0  0           0  0  0
    9.9292   -0.3792    0.0000 C   0  0  0  0  0  0           0  0  0
    9.4917   -1.7417    0.0000 C   0  0  0  0  0  0           0  0  0
   10.1042   -1.1875    0.0000 C   0  0  0  0  0  0           0  0  0
  2  1  1  0     0  0
  3  2  1  0     0  0
  4  1  1  0     0  0
  5  3  1  0     0  0
  6  1  1  0     0  0
  7  9  1  0     0  0
  8  6  2  0     0  0
  9 11  1  0     0  0
 10  4  2  0     0  0
 11  4  1  0     0  0
 12  3  2  0     0  0
 13  7  2  0     0  0
 14  7  1  0     0  0
 15  5  1  0     0  0
  2 16  1  1     0  0
 17 15  1  0     0  0
 18 23  1  0     0  0
 19 16  1  0     0  0
 20 26  1  0     0  0
 21 17  2  0     0  0
 22 17  1  0     0  0
 23 22  2  0     0  0
 24 21  1  0     0  0
 25 14  1  0     0  0
 26 18  1  0     0  0
 27 25  1  0     0  0
 28 25  1  0     0  0
 29 28  1  0     0  0
 30 27  1  0     0  0
 31 29  1  0     0  0
  8 10  1  0     0  0
 18 24  2  0     0  0
 31 30  1  0     0  0
M  END