
  SciTegic06051313552D

 34 38  0  0  0  0            999 V2000
    7.1289  -19.6765    0.0000 C   0  0
    6.7045  -21.4611    0.0000 C   0  0
    7.5227  -21.4669    0.0000 C   0  0
    7.8607  -20.0382    0.0000 C   0  0
    8.0400  -20.8358    0.0000 C   0  0
    8.8189  -21.0778    0.0000 C   0  0
    9.4192  -20.5232    0.0000 C   0  0
    9.2353  -19.7235    0.0000 C   0  0
    8.4567  -19.4852    0.0000 C   0  0
    6.2005  -20.8162    0.0000 C   0  0
    6.3922  -20.0202    0.0000 C   0  0
    5.7994  -19.4581    0.0000 C   0  0
    5.0147  -19.6908    0.0000 C   0  0
    4.8261  -20.4908    0.0000 C   0  0
    5.4203  -21.0494    0.0000 N   0  0
    7.1382  -18.8594    0.0000 O   0  0
    9.8333  -19.1665    0.0000 C   0  0
   10.6146  -19.4059    0.0000 S   0  0
   11.2126  -18.8489    0.0000 N   0  0
   10.3965  -20.1904    0.0000 O   0  0
   11.1889  -19.9799    0.0000 O   0  0
    4.4213  -19.1256    0.0000 C   0  0
    4.5262  -18.3152    0.0000 C   0  0
    3.7878  -17.9650    0.0000 N   0  0
    3.2266  -18.5591    0.0000 N   0  0
    3.6182  -19.2763    0.0000 C   0  0
    2.4161  -18.4542    0.0000 C   0  0
   11.9939  -19.0883    0.0000 C   0  0
   12.5919  -18.5313    0.0000 C   0  0
   13.3735  -18.7734    0.0000 N   0  0
   13.9711  -18.2172    0.0000 C   0  0
   13.7880  -17.4199    0.0000 C   0  0
   13.0019  -17.1818    0.0000 C   0  0
   12.4076  -17.7396    0.0000 C   0  0
 11  1  1  0
  1  4  1  0
 10  2  1  0
  5  3  1  0
  2  3  2  0
  4  5  2  0
  5  6  1  0
  6  7  2  0
  7  8  1  0
  8  9  2  0
  9  4  1  0
 10 11  2  0
 11 12  1  0
 12 13  2  0
 13 14  1  0
 14 15  2  0
 15 10  1  0
  1 16  2  0
  8 17  1  0
 17 18  1  0
 18 19  1  0
 18 20  2  0
 18 21  2  0
 22 23  1  0
 23 24  2  0
 24 25  1  0
 25 26  1  0
 26 22  2  0
 13 22  1  0
 25 27  1  0
 19 28  1  0
 28 29  1  0
 29 30  2  0
 30 31  1  0
 31 32  2  0
 32 33  1  0
 33 34  2  0
 34 29  1  0
M  END