
  SciTegic05191616092D

 22 22  0  0  0  0            999 V2000
    6.1541   -6.9541    0.0000 S   0  0
    6.8686   -6.5416    0.0000 C   0  0
    7.5831   -6.9541    0.0000 N   0  0
    6.8686   -5.7167    0.0000 N   0  0
    8.2975   -6.5416    0.0000 C   0  0
    9.0121   -6.9541    0.0000 C   0  0
    9.0097   -7.7802    0.0000 C   0  0
    9.7233   -8.1926    0.0000 C   0  0
   10.4388   -7.7801    0.0000 C   0  0
   10.4362   -6.9509    0.0000 C   0  0
    9.7219   -6.5421    0.0000 C   0  0
   11.1538   -8.1916    0.0000 Cl  0  0
    5.4397   -6.5416    0.0000 C   0  0
    4.7252   -6.9541    0.0000 C   0  0
    4.0108   -6.5416    0.0000 C   0  0
    3.2965   -6.9541    0.0000 N   0  0
    2.5844   -6.5451    0.0000 C   0  0
    1.8723   -6.9541    0.0000 C   0  0
    1.8681   -7.7792    0.0000 C   0  0
    2.5822   -8.1937    0.0000 C   0  0
    3.3006   -7.7832    0.0000 C   0  0
    6.0875   -9.0875    0.0000 Cl  0  0
  1  2  1  0
  2  3  1  0
  2  4  2  0
  3  5  1  0
  5  6  1  0
  6  7  2  0
  7  8  1  0
  8  9  2  0
  9 10  1  0
 10 11  2  0
 11  6  1  0
  9 12  1  0
  1 13  1  0
 13 14  1  0
 14 15  1  0
 15 16  1  0
 16 17  1  0
 16 21  1  0
 17 18  1  0
 18 19  1  0
 19 20  1  0
 20 21  1  0
M  END