
  SciTegic01161211232D

 29 29  0  0  0  0            999 V2000
    2.5956   -2.7031    0.0000 C   0  0
    2.5973   -1.5031    0.0000 O   0  0
    1.2990   -0.7500    0.0000 C   0  0
    1.2990    0.7500    0.0000 C   0  0
    0.0000    1.5000    0.0000 C   0  0
   -1.2990    0.7500    0.0000 C   0  0
   -1.2990   -0.7500    0.0000 C   0  0
    0.0000   -1.5000    0.0000 C   0  0
   -2.5987    1.5004    0.0000 N   0  0
   -2.6012    3.0004    0.0000 C   0  0
   -3.9015    3.7484    0.0000 C   0  0
   -5.1993    2.9963    0.0000 N   0  0
   -6.5018    3.7420    0.0000 C   0  0
   -7.7993    2.9876    0.0000 C   0  0
   -7.7953    1.7876    0.0000 O   0  0
   -9.1017    3.7333    0.0000 C   0  0
  -10.3996    2.9813    0.0000 C   0  0
  -11.6999    3.7292    0.0000 C   0  0
  -11.7023    5.2292    0.0000 C   0  0
  -12.7425    5.8275    0.0000 O   0  0
  -10.4045    5.9813    0.0000 C   0  0
   -9.1042    5.2334    0.0000 C   0  0
  -10.4038    7.4821    0.0000 C   0  0
   -9.3647    8.0823    0.0000 O   0  0
  -11.4430    8.0822    0.0000 N   0  0
   -5.1969    1.4963    0.0000 C   0  0
   -3.8967    0.7484    0.0000 C   0  0
    7.5973    2.6144    0.0000 Cl  0  0
    5.0973    2.6144    0.0000 Cl  0  0
  1  2  1  0
  2  3  1  0
  3  4  2  0
  4  5  1  0
  5  6  2  0
  6  7  1  0
  7  8  2  0
  8  3  1  0
  6  9  1  0
  9 10  1  0
 10 11  1  0
 11 12  1  0
 12 13  1  0
 13 14  1  0
 14 15  1  0
 14 16  1  0
 16 17  2  0
 17 18  1  0
 18 19  2  0
 19 20  1  0
 19 21  1  0
 21 22  2  0
 22 16  1  0
 21 23  1  0
 23 24  2  0
 23 25  1  0
 12 26  1  0
 26 27  1  0
 27  9  1  0
M  END