
  SciTegic02271514512D

 25 27  0  0  0  0            999 V2000
   11.9442  -25.3536    0.0000 C   0  0
   11.9442  -26.1708    0.0000 C   0  0
   12.6495  -26.5752    0.0000 C   0  0
   13.3548  -26.1708    0.0000 C   0  0
   13.3548  -25.3536    0.0000 C   0  0
   12.6495  -24.9408    0.0000 C   0  0
   11.2380  -26.5809    0.0000 C   0  0
   10.5294  -26.1716    0.0000 C   0  0
    9.8228  -26.5805    0.0000 C   0  0
    9.8236  -27.3986    0.0000 C   0  0
   10.5368  -27.8060    0.0000 C   0  0
   11.2405  -27.3947    0.0000 C   0  0
   12.6495  -24.1237    0.0000 O   0  0
   14.0637  -24.9470    0.0000 S   0  0
   14.7702  -25.3577    0.0000 C   0  0
   14.0619  -26.5804    0.0000 O   0  0
   14.7662  -26.1759    0.0000 C   0  0
   15.4719  -26.5865    0.0000 C   0  0
   16.1818  -26.1800    0.0000 C   0  0
   16.1815  -25.3585    0.0000 C   0  0
   15.4753  -24.9516    0.0000 C   0  0
   15.4753  -24.1345    0.0000 Cl  0  0
   10.5291  -25.3544    0.0000 Cl  0  0
    9.1147  -26.1726    0.0000 Br  0  0
   11.9500  -27.8003    0.0000 Cl  0  0
  1  2  1  0
  1  6  1  0
  2  3  1  0
  3  4  1  0
  4  5  1  0
  5  6  2  0
  7  8  2  0
  8  9  1  0
  9 10  2  0
 10 11  1  0
 11 12  2  0
 12  7  1  0
  2  7  1  0
  6 13  1  0
  5 14  1  0
 14 15  1  0
  4 16  2  0
 15 17  2  0
 17 18  1  0
 18 19  2  0
 19 20  1  0
 20 21  2  0
 21 15  1  0
 21 22  1  0
  8 23  1  0
  9 24  1  0
 12 25  1  0
M  END