
  SciTegic07221113202D

 34 35  0  0  0  0            999 V2000
    1.4143  -18.1205    0.0000 C   0  0
    2.2393  -18.1205    0.0000 C   0  0
    1.0018  -18.8350    0.0000 C   0  0
    2.6518  -18.8350    0.0000 C   0  0
    3.4768  -18.8350    0.0000 O   0  0
    2.2393  -19.5495    0.0000 O   0  0
    0.1768  -18.8350    0.0000 O   0  0
    1.4143  -19.5495    0.0000 O   0  0
    4.5199  -23.3226    0.0000 C   0  0
    3.7980  -22.9101    0.0000 N   0  0
    3.0876  -23.3226    0.0000 C   0  0
    5.2246  -22.9101    0.0000 C   0  0
    5.9465  -23.3226    0.0000 N   0  0
    4.5199  -24.1476    0.0000 O   0  0
    2.3715  -22.9101    0.0000 C   0  0
    6.6626  -22.9043    0.0000 C   0  0
    3.0876  -24.1476    0.0000 C   0  0
    3.7980  -22.0851    0.0000 C   0  0
    5.9465  -24.1476    0.0000 C   0  0
    1.6610  -23.3226    0.0000 C   0  0
    2.3715  -22.0851    0.0000 C   0  0
    7.3730  -23.3168    0.0000 C   0  0
    6.6512  -22.0793    0.0000 C   0  0
    3.7980  -24.5601    0.0000 C   0  0
    2.3829  -24.5601    0.0000 C   0  0
    1.6610  -21.6726    0.0000 C   0  0
    0.9449  -22.9215    0.0000 C   0  0
    2.3829  -25.3851    0.0000 C   0  0
    8.0777  -22.9101    0.0000 C   0  0
    7.3730  -21.6668    0.0000 C   0  0
    3.7980  -25.3851    0.0000 C   0  0
    8.0777  -22.0851    0.0000 C   0  0
    0.9449  -22.0851    0.0000 C   0  0
    3.0876  -25.7976    0.0000 C   0  0
  1  2  2  0
  1  3  1  0
  2  4  1  0
  4  5  2  0
  4  6  1  0
  3  7  1  0
  3  8  2  0
 10  9  1  0
 11 10  1  0
 12  9  1  0
 13 12  1  0
 14  9  2  0
 15 11  1  0
 16 13  1  0
 17 11  1  0
 18 10  1  0
 19 13  1  0
 20 15  1  0
 21 15  2  0
 22 16  1  0
 23 16  1  0
 24 17  1  0
 25 17  1  0
 26 21  1  0
 27 20  2  0
 28 25  1  0
 29 22  1  0
 30 23  1  0
 31 24  1  0
 32 30  1  0
 33 26  2  0
 34 28  1  0
 32 29  1  0
 34 31  1  0
 27 33  1  0
M  END