
  SciTegic05061116452D

 35 37  0  0  0  0            999 V2000
    7.8292  -19.7804    0.0000 N   0  0
    8.5409  -19.3718    0.0000 C   0  0
    8.5409  -18.5467    0.0000 N   0  0
    7.8292  -18.1303    0.0000 C   0  0
    7.1175  -19.3718    0.0000 C   0  0
    7.1176  -18.5421    0.0000 C   0  0
    6.3286  -18.2858    0.0000 N   0  0
    5.8408  -18.9569    0.0000 C   0  0
    6.3286  -19.6279    0.0000 N   0  0
    6.0736  -20.4125    0.0000 C   0  0
    5.2666  -20.5841    0.0000 C   0  0
    5.0116  -21.3686    0.0000 O   0  0
    4.7146  -19.9710    0.0000 O   0  0
    7.8312  -17.3054    0.0000 N   0  0
    9.2548  -19.7851    0.0000 N   0  0
    9.9698  -19.3734    0.0000 C   0  0
   10.6838  -19.7868    0.0000 C   0  0
   11.3987  -19.3752    0.0000 C   0  0
   12.1127  -19.7886    0.0000 C   0  0
   12.8276  -19.3769    0.0000 C   0  0
    9.2539  -20.6101    0.0000 C   0  0
    8.5388  -21.0217    0.0000 O   0  0
    9.9678  -21.0234    0.0000 O   0  0
    9.9668  -21.8484    0.0000 C   0  0
   10.6808  -22.2618    0.0000 C   0  0
    9.2518  -22.2601    0.0000 C   0  0
    9.9622  -22.6717    0.0000 C   0  0
    8.5466  -16.8945    0.0000 C   0  0
    9.2600  -17.3087    0.0000 C   0  0
    9.2529  -18.1312    0.0000 C   0  0
    9.9655  -18.5453    0.0000 C   0  0
   10.6820  -18.1345    0.0000 C   0  0
   10.6813  -17.3052    0.0000 C   0  0
    9.9681  -16.8948    0.0000 C   0  0
    7.1176  -16.8912    0.0000 C   0  0
 16 17  1  0
  7  8  2  0
 17 18  1  0
  8  9  1  0
 18 19  1  0
  9  5  1  0
 19 20  1  0
  3  4  2  0
 15 21  1  0
  9 10  1  0
 21 22  2  0
  5  6  2  0
 21 23  1  0
 10 11  1  0
 23 24  1  0
 24 25  1  0
 11 12  1  0
 24 26  1  0
  6  4  1  0
 24 27  1  0
 11 13  2  0
 14 28  1  0
  5  1  1  0
 28 29  1  0
  4 14  1  0
 29 30  2  0
  1  2  2  0
 30 31  1  0
  2 15  1  0
 31 32  2  0
  2  3  1  0
 32 33  1  0
 15 16  1  0
 33 34  2  0
 34 29  1  0
  6  7  1  0
 14 35  1  0
M  END