
  SciTegic01161211212D

 43 48  0  0  0  0            999 V2000
    0.4803   -8.4519    0.0000 N   0  0
    1.9048   -8.4591    0.0000 C   0  0  1  0  0  0
    1.1944   -8.0398    0.0000 C   0  0
   -0.8959   -6.7593    0.0000 C   0  0
   -0.1919   -7.1930    0.0000 C   0  0
   -0.2157   -8.0195    0.0000 C   0  0
    2.6390   -8.1016    0.0000 C   0  0
    3.3387   -8.5355    0.0000 N   0  0
    2.6585   -7.2752    0.0000 O   0  0
    3.3107   -9.3582    0.0000 C   0  0
    4.0063   -9.7917    0.0000 C   0  0
    4.7362   -9.4026    0.0000 N   0  0
    4.7620   -8.5753    0.0000 C   0  0
    4.0577   -8.1370    0.0000 C   0  0
    5.4313   -9.8381    0.0000 C   0  0
    5.4032  -10.6657    0.0000 C   0  0
    6.1045  -11.1019    0.0000 C   0  0
    6.8305  -10.7120    0.0000 C   0  0
    6.8548   -9.8812    0.0000 C   0  0
    6.1568   -9.4486    0.0000 C   0  0
    7.5345  -11.1494    0.0000 N   0  3
    8.2589  -10.7586    0.0000 O   0  0
    7.5087  -11.9758    0.0000 O   0  5
    0.5315   -6.8004    0.0000 C   0  0
   -1.6193   -7.1520    0.0000 C   0  0
   -2.3196   -6.7160    0.0000 C   0  0
   -2.3619   -8.3691    0.0000 C   0  0
   -1.6377   -7.9746    0.0000 C   0  0
   -3.0667   -7.9354    0.0000 C   0  0
   -3.0434   -7.1099    0.0000 C   0  0
   -3.8212   -6.8325    0.0000 O   0  0
   -4.3212   -7.4868    0.0000 C   0  0
   -3.8590   -8.1682    0.0000 O   0  0
    0.4760   -9.2787    0.0000 C   0  0
    1.9000   -7.6293    0.0000 H   0  0
    1.9006   -9.2859    0.0000 C   0  0  1  0  0  0
    1.1833   -9.6949    0.0000 C   0  0  2  0  0  0
    1.1788  -10.5160    0.0000 C   0  0
    1.8900  -10.9345    0.0000 C   0  0
    2.6072  -10.5256    0.0000 C   0  0
    2.6134   -9.6981    0.0000 C   0  0
    0.4635  -10.1014    0.0000 H   0  0
    2.6141   -8.8653    0.0000 H   0  0
 12 15  1  0
  8 10  1  0
  4  5  1  0
 21 22  2  0
 21 23  1  0
 18 21  1  0
  1  3  1  0
  5 24  1  0
  5  6  1  0
  4 25  1  0
  6  1  1  0
 25 26  2  0
 26 30  1  0
  8 14  1  0
 29 27  1  0
 10 11  1  0
 27 28  2  0
 28 25  1  0
 29 30  2  0
 11 12  1  0
 12 13  1  0
 13 14  1  0
 36  2  1  0
  2  7  1  0
 30 31  1  0
 31 32  1  0
 32 33  1  0
 33 29  1  0
 37 34  1  0
 15 16  2  0
  2  3  1  0
  2 35  1  6
 36 37  1  0
 16 17  1  0
  7  8  1  0
 17 18  2  0
  1 34  1  0
 18 19  1  0
  7  9  2  0
 36 41  1  0
 37 38  1  0
 38 39  1  0
 39 40  1  0
 40 41  1  0
 19 20  2  0
 37 42  1  1
 20 15  1  0
 36 43  1  1
M  CHG  2  21   1  23  -1
M  END