
  SciTegic04191613082D

181191  0  0  1  0            999 V2000
    6.2436    3.8217    0.0000 N   0  0
    6.6074    4.9652    0.0000 C   0  0
    5.5970    6.0750    0.0000 N   0  0
    6.0520    7.5052    0.0000 C   0  0
    5.0416    8.6150    0.0000 C   0  0
    3.5752    8.2958    0.0000 C   0  0
    2.5568    9.4144    0.0000 C   0  0  1  0  0  0
    1.3548    8.5169    0.0000 C   0  0
    0.0048    7.8631    0.0000 N   0  0
   -1.4445    7.4766    0.0000 C   0  0  2  0  0  0
   -2.9409    7.3714    0.0000 C   0  0
   -2.9709    6.1718    0.0000 O   0  0
   -4.4300    7.5513    0.0000 N   0  0
   -5.8583    8.0098    0.0000 C   0  0  2  0  0  0
   -6.2530    7.0910    0.0000 C   0  0
   -7.1739    8.7303    0.0000 C   0  0
   -7.8477    7.7373    0.0000 O   0  0
   -8.3294    9.6867    0.0000 N   0  0
   -9.2830   10.8445    0.0000 C   0  0  2  0  0  0
   -8.2789    9.7290    0.0000 C   0  0
   -7.0833    8.8231    0.0000 N   0  0
   -5.7299    8.1764    0.0000 C   0  0  1  0  0  0
   -5.7257    6.6638    0.0000 C   0  0
   -7.0229    5.9091    0.0000 C   0  0
   -8.3261    6.6520    0.0000 C   0  0
   -9.6210    5.8950    0.0000 C   0  0
   -9.6130    4.3950    0.0000 C   0  0
   -8.3099    3.6520    0.0000 C   0  0
   -7.0149    4.4090    0.0000 C   0  0
   -4.2739    7.8154    0.0000 C   0  0
   -4.4434    6.6274    0.0000 O   0  0
   -2.7752    7.7549    0.0000 N   0  0
   -1.2949    7.9973    0.0000 C   0  0  2  0  0  0
    0.1063    8.5327    0.0000 C   0  0
    0.6458    7.4609    0.0000 O   0  0
    1.3710    9.3393    0.0000 N   0  0
    2.4475   10.3839    0.0000 C   0  0  2  0  0  0
    3.2917   11.6238    0.0000 C   0  0
    4.3468   11.0523    0.0000 O   0  0
    3.8690   13.0082    0.0000 N   0  0
    4.1557   14.4806    0.0000 C   0  0  2  0  0  0
    4.1403   15.9805    0.0000 C   0  0
    5.1341   16.0919    0.0000 O   0  0
    3.8232   17.4466    0.0000 N   0  0
    3.2175   18.8189    0.0000 C   0  0  2  0  0  0
    2.3480   20.0411    0.0000 C   0  0
    1.2502   21.0633    0.0000 N   0  0
   -0.0309   21.8436    0.0000 C   0  0  1  0  0  0
    0.6238   23.2071    0.0000 C   0  0
    2.1203   23.3219    0.0000 C   0  0
    2.7699   24.6748    0.0000 C   0  0
    4.2664   24.7896    0.0000 N   0  0
    4.9160   26.1425    0.0000 C   0  0
    4.2386   27.1330    0.0000 N   0  0
    6.1125   26.2343    0.0000 N   0  0
   -1.4428   22.3500    0.0000 C   0  0
   -2.9278   22.5619    0.0000 N   0  0
   -4.4250   22.4705    0.0000 C   0  0  2  0  0  0
   -4.1471   23.9573    0.0000 C   0  0
   -3.2038   24.2893    0.0000 O   0  0
   -5.2862   24.9344    0.0000 N   0  0
   -5.0104   26.4097    0.0000 C   0  0  1  0  0  0
   -6.1495   27.3869    0.0000 C   0  0
   -5.8737   28.8622    0.0000 C   0  0
   -7.0129   29.8394    0.0000 C   0  0
   -6.7371   31.3146    0.0000 C   0  0
   -7.6479   32.0959    0.0000 N   0  0
   -3.5957   26.9110    0.0000 C   0  0
   -2.6833   26.1315    0.0000 O   0  0
   -3.3766   28.0908    0.0000 O   0  0
   -5.8732   22.0795    0.0000 C   0  0
   -7.2130   21.4051    0.0000 N   0  0
   -8.3896   20.4748    0.0000 C   0  0
   -9.0860   21.1924    0.0000 O   0  0
   -9.3549   19.3266    0.0000 C   0  0
  -10.0693   18.0077    0.0000 C   0  0
  -10.5228   16.5769    0.0000 C   0  0
  -10.1328   18.0253    0.0000 C   0  0
   -9.4757   19.3738    0.0000 C   0  0
   -8.5754   20.5735    0.0000 C   0  0
   -9.3145   21.2470    0.0000 O   0  0
   -7.4642   21.5811    0.0000 N   0  0
   -6.1825   22.3603    0.0000 C   0  0  2  0  0  0
   -6.8444   23.7205    0.0000 C   0  0
   -8.3414   23.8274    0.0000 C   0  0
   -8.9998   25.1752    0.0000 C   0  0
  -10.4962   25.2790    0.0000 C   0  0
  -11.3343   24.0350    0.0000 C   0  0
  -10.6760   22.6872    0.0000 C   0  0
   -9.1796   22.5834    0.0000 C   0  0
   -4.7764   22.8828    0.0000 C   0  0
   -3.2969   23.1297    0.0000 N   0  0
   -1.7973   23.0922    0.0000 C   0  0  1  0  0  0
   -2.1434   24.5648    0.0000 C   0  0
   -1.0504   25.5933    0.0000 C   0  0
   -1.3913   27.0541    0.0000 C   0  0
   -0.2968   28.0798    0.0000 C   0  0
    1.1387   27.6448    0.0000 C   0  0
    2.0143   28.4654    0.0000 Cl  0  0
    1.4798   26.1841    0.0000 C   0  0
    0.3853   25.1584    0.0000 C   0  0
   -0.3320   22.7716    0.0000 C   0  0
    1.0462   22.1794    0.0000 N   0  0
    2.2874   21.3372    0.0000 C   0  0  2  0  0  0
    3.2503   22.5039    0.0000 C   0  0  2  0  0  0
    2.8304   23.6280    0.0000 C   0  0
    4.4339   22.3059    0.0000 O   0  0
    3.3468   20.2752    0.0000 C   0  0
    4.1860   19.0320    0.0000 N   0  0
    4.7748   17.6524    0.0000 C   0  0  2  0  0  0
    6.2732   17.4765    0.0000 C   0  0
    7.1736   18.6762    0.0000 C   0  0
    6.5848   20.0558    0.0000 C   0  0
    5.0956   20.2357    0.0000 C   0  0
    5.0919   16.1863    0.0000 C   0  0
    5.1258   14.6867    0.0000 N   0  0
    4.8752   13.2077    0.0000 C   0  0  1  0  0  0
    6.3367   12.8173    0.0000 C   0  0
    7.3979   13.8786    0.0000 C   0  0
    8.8606   13.4972    0.0000 C   0  0
    9.9180   14.5570    0.0000 C   0  0
   11.3644   14.1709    0.0000 C   0  0
   12.4218   15.2307    0.0000 C   0  0
   12.0327   16.6766    0.0000 C   0  0
   10.5863   17.0626    0.0000 C   0  0
    9.5289   16.0029    0.0000 C   0  0
    8.0825   16.3890    0.0000 C   0  0
    7.0075   15.3244    0.0000 C   0  0
    4.3493   11.8030    0.0000 C   0  0
    5.4281   11.2773    0.0000 O   0  0
    3.5671   10.5231    0.0000 N   0  0
    6.2836   16.3273    0.0000 O   0  0
    4.2730   21.0381    0.0000 O   0  0
    0.0348   23.9142    0.0000 O   0  0
   -5.0341   23.8490    0.0000 O   0  0
   -9.2059   19.9181    0.0000 C   0  0
  -10.6316   15.0808    0.0000 C   0  0
  -10.4553   13.5912    0.0000 N   0  0
  -10.0003   12.1619    0.0000 C   0  0
  -11.8313   15.0537    0.0000 O   0  0
   -1.1540   23.5147    0.0000 O   0  0
    3.2504   20.8321    0.0000 O   0  0
    4.7093   19.0688    0.0000 C   0  0
    5.6844   20.2097    0.0000 C   0  0
    7.1602   19.9365    0.0000 C   0  0
    8.1354   21.0773    0.0000 N   0  0
    9.6111   20.8042    0.0000 C   0  0
   10.3908   21.7163    0.0000 N   0  0
   10.0116   19.6730    0.0000 N   0  0
    5.5229   13.8335    0.0000 C   0  0
    5.6461   12.3378    0.0000 C   0  0
    7.1405   12.1984    0.0000 C   0  0
    7.7678   10.8350    0.0000 N   0  0
    9.2622   10.6956    0.0000 C   0  0
    9.7638    9.6055    0.0000 N   0  0
    9.9558   11.6749    0.0000 N   0  0
    3.6034    9.4083    0.0000 C   0  0
    5.0155    9.9166    0.0000 C   0  0
    6.1624    8.9486    0.0000 C   0  0
    7.5745    9.4570    0.0000 N   0  0
    8.7214    8.4890    0.0000 C   0  0
    8.5093    7.3079    0.0000 N   0  0
    9.8505    8.8955    0.0000 N   0  0
   -0.4274    6.7582    0.0000 C   0  0
   -1.0609    5.3977    0.0000 C   0  0
   -0.2015    4.1542    0.0000 C   0  0
   -0.8348    2.7977    0.0000 C   0  0
   -2.3264    2.6678    0.0000 C   0  0
   -3.1847    3.8943    0.0000 C   0  0
   -2.5530    5.2690    0.0000 C   0  0
   -2.9598    1.3113    0.0000 C   0  0
   -2.1015    0.0847    0.0000 C   0  0
   -0.6098    0.2146    0.0000 C   0  0
    0.0235    1.5711    0.0000 C   0  0
   -9.0908    8.8454    0.0000 O   0  0
   -1.2799    6.4903    0.0000 C   0  0
    1.9782    7.4915    0.0000 O   0  0
    7.7797    5.2216    0.0000 N   0  0
    5.5151   16.9801    0.0000 H   0  0
    2.1456   22.3271    0.0000 H   0  0
   -8.6305   10.0868    0.0000 H   0  0
  2  1  2  0
  3  2  1  0
  4  3  1  0
  5  4  1  0
  6  5  1  0
  7  6  1  1
  7  8  1  0
  8  9  1  0
  9 10  1  0
 10 11  1  0
 11 12  2  0
 11 13  1  0
 13 14  1  0
 14 15  1  6
 14 16  1  0
 16 17  2  0
 16 18  1  0
 18 19  1  0
 19 20  1  0
 20 21  1  0
 21 22  1  0
 22 23  1  6
 23 24  1  0
 24 25  2  0
 25 26  1  0
 26 27  2  0
 27 28  1  0
 28 29  2  0
 29 24  1  0
 22 30  1  0
 30 31  2  0
 30 32  1  0
 32 33  1  0
 33 34  1  0
 34 35  2  0
 34 36  1  0
 36 37  1  0
 37 38  1  0
 38 39  2  0
 38 40  1  0
 40 41  1  0
 41 42  1  0
 42 43  2  0
 42 44  1  0
 45 44  1  0
 46 45  1  0
 47 46  1  0
 48 47  1  0
 48 49  1  6
 49 50  1  0
 50 51  1  0
 51 52  1  0
 52 53  1  0
 53 54  1  0
 53 55  2  0
 56 48  1  0
 57 56  1  0
 58 57  1  0
 58 59  1  1
 59 60  2  0
 59 61  1  0
 62 61  1  1
 62 63  1  0
 63 64  1  0
 64 65  1  0
 65 66  1  0
 66 67  1  0
 62 68  1  0
 68 69  1  0
 68 70  2  0
 58 71  1  0
 72 71  1  0
 73 72  1  0
 73 74  2  0
 75 73  1  0
 75 76  2  0
 76 77  1  0
 77 78  2  0
 78 79  1  0
 80 79  1  0
 80 81  2  0
 82 80  1  0
 82 83  1  0
 83 84  1  6
 84 85  1  0
 86 85  1  0
 87 86  2  0
 88 87  1  0
 89 88  2  0
 90 89  1  0
 85 90  2  0
 83 91  1  0
 92 91  1  0
 93 92  1  0
 93 94  1  1
 94 95  1  0
 96 95  1  0
 97 96  2  0
 98 97  1  0
 98 99  1  0
100 98  2  0
101100  1  0
 95101  2  0
102 93  1  0
103102  1  0
104103  1  0
104105  1  0
105106  1  6
105107  1  0
108104  1  0
109108  1  0
110109  1  0
110111  1  0
111112  1  0
112113  1  0
113114  1  0
114109  1  0
110115  1  0
116115  1  0
117116  1  0
117118  1  1
118119  1  0
119120  2  0
120121  1  0
121122  2  0
122123  1  0
123124  2  0
124125  1  0
125126  2  0
126121  1  0
126127  1  0
127128  2  0
128119  1  0
117129  1  0
129130  2  0
129131  1  0
131  7  1  0
115132  2  0
108133  2  0
102134  2  0
 91135  2  0
 79136  2  0
136 75  1  0
 77137  1  0
137138  1  0
139138  1  0
 19139  1  0
137140  2  0
 56141  2  0
 46142  2  0
 45143  1  6
143144  1  0
144145  1  0
145146  1  0
146147  1  0
147148  2  0
147149  1  0
 41150  1  6
150151  1  0
151152  1  0
152153  1  0
153154  1  0
154155  2  0
154156  1  0
 37157  1  6
157158  1  0
158159  1  0
159160  1  0
160161  1  0
161162  1  0
161163  2  0
 33164  1  6
164165  1  0
165166  2  0
166167  1  0
168167  1  0
168169  1  0
169170  2  0
170165  1  0
171168  2  0
172171  1  0
173172  2  0
174173  1  0
167174  2  0
 20175  2  0
 10176  1  1
  8177  2  0
  2178  1  0
110179  1  1
104180  1  1
 19181  1  6
M  END