
          05080814032D 1   1.00000     0.00000     0

 32 36  0     0  0            999 V2000
   12.6402    1.6834    0.0000 C   0  0  0  0  0  0           0  0  0
   12.6391    0.8560    0.0000 C   0  0  0  0  0  0           0  0  0
   13.3539    0.4431    0.0000 C   0  0  0  0  0  0           0  0  0
   13.3521    2.0961    0.0000 C   0  0  0  0  0  0           0  0  0
   14.0675    1.6870    0.0000 C   0  0  0  0  0  0           0  0  0
   14.0677    0.8606    0.0000 C   0  0  0  0  0  0           0  0  0
   14.8538    0.6054    0.0000 N   0  0  3  0  0  0           0  0  0
   15.3395    1.2742    0.0000 C   0  0  0  0  0  0           0  0  0
   14.8534    1.9426    0.0000 N   0  0  0  0  0  0           0  0  0
   13.3557   -0.3841    0.0000 C   0  0  0  0  0  0           0  0  0
   12.6424   -0.7985    0.0000 O   0  0  0  0  0  0           0  0  0
   14.0713   -0.7947    0.0000 O   0  0  0  0  0  0           0  0  0
   15.1090   -0.1792    0.0000 C   0  0  0  0  0  0           0  0  0
   15.9160   -0.3505    0.0000 C   0  0  0  0  0  0           0  0  0
   16.1693   -1.1363    0.0000 C   0  0  0  0  0  0           0  0  0
   16.9755   -1.3077    0.0000 C   0  0  0  0  0  0           0  0  0
   17.5283   -0.6941    0.0000 C   0  0  0  0  0  0           0  0  0
   17.2693    0.0937    0.0000 C   0  0  0  0  0  0           0  0  0
   16.4637    0.2614    0.0000 C   0  0  0  0  0  0           0  0  0
   18.3356   -0.8644    0.0000 N   0  0  3  0  0  0           0  0  0
   18.6732   -1.6144    0.0000 C   0  0  0  0  0  0           0  0  0
   19.4935   -1.5268    0.0000 C   0  0  0  0  0  0           0  0  0
   19.6638   -0.7195    0.0000 C   0  0  0  0  0  0           0  0  0
   18.9486   -0.3083    0.0000 C   0  0  0  0  0  0           0  0  0
   18.8613    0.5076    0.0000 C   0  0  0  0  0  0           0  0  0
   19.4729    1.0614    0.0000 N   0  0  0  0  0  0           0  0  0
   19.1353    1.8141    0.0000 N   0  0  0  0  0  0           0  0  0
   18.3150    1.7256    0.0000 N   0  0  0  0  0  0           0  0  0
   18.1458    0.9182    0.0000 N   0  0  0  0  0  0           0  0  0
   12.6446   -1.6235    0.0000 C   0  0  0  0  0  0           0  0  0
   16.1645    1.2745    0.0000 C   0  0  0  0  0  0           0  0  0
   16.5767    1.9891    0.0000 C   0  0  0  0  0  0           0  0  0
  5  4  2  0     0  0
 15 16  1  0     0  0
  6  7  1  0     0  0
 16 17  2  0     0  0
  7  8  1  0     0  0
 17 18  1  0     0  0
  8  9  2  0     0  0
 18 19  2  0     0  0
 19 14  1  0     0  0
  9  5  1  0     0  0
 17 20  1  0     0  0
 20 21  1  0     0  0
  4  1  1  0     0  0
  5  6  1  0     0  0
 10 11  1  0     0  0
 21 22  2  0     0  0
 22 23  1  0     0  0
 23 24  2  0     0  0
 24 20  1  0     0  0
 25 26  1  0     0  0
 10 12  2  0     0  0
  3 10  1  0     0  0
  2  3  1  0     0  0
  7 13  1  0     0  0
  3  6  2  0     0  0
 26 27  1  0     0  0
 27 28  2  0     0  0
 28 29  1  0     0  0
 29 25  2  0     0  0
 24 25  1  0     0  0
 13 14  1  0     0  0
 11 30  1  0     0  0
  1  2  2  0     0  0
  8 31  1  0     0  0
 14 15  2  0     0  0
 31 32  1  0     0  0
M  END