
  SciTegic05071317012D

 24 25  0  0  0  0            999 V2000
    3.7667   -3.0750    0.0000 C   0  0  2  0  0  0
    4.1840   -3.7868    0.0000 O   0  0
    5.0047   -3.7790    0.0000 C   0  0
    5.4125   -3.0666    0.0000 C   0  0  1  0  0  0
    4.9953   -2.3548    0.0000 C   0  0
    4.1702   -2.3554    0.0000 O   0  0
    6.2376   -3.0623    0.0000 N   0  3
    6.6539   -3.7747    0.0000 C   0  0
    6.6464   -2.3456    0.0000 C   0  0
    7.0589   -3.0586    0.0000 C   0  0
    2.9416   -3.0828    0.0000 C   0  0
    2.5223   -2.3724    0.0000 C   0  0
    2.5359   -3.8013    0.0000 C   0  0
    2.9313   -1.6560    0.0000 C   0  0
    2.5127   -0.9459    0.0000 C   0  0
    1.6867   -0.9534    0.0000 C   0  0
    1.2812   -1.6769    0.0000 C   0  0
    1.7023   -2.3840    0.0000 C   0  0
    1.7107   -3.8040    0.0000 C   0  0
    1.3052   -4.5217    0.0000 C   0  0
    1.7246   -5.2332    0.0000 C   0  0
    2.5539   -5.2226    0.0000 C   0  0
    2.9557   -4.5045    0.0000 C   0  0
    8.0007   -2.5002    0.0000 I   0  5
  1  2  1  0
  1  6  1  0
  2  3  1  0
  3  4  1  0
  4  5  1  0
  5  6  1  0
  4  7  1  1
  7  8  1  0
  7  9  1  0
  7 10  1  0
  1 11  1  1
 11 12  1  0
 11 13  1  0
 12 14  2  0
 14 15  1  0
 15 16  2  0
 16 17  1  0
 17 18  2  0
 18 12  1  0
 13 19  2  0
 19 20  1  0
 20 21  2  0
 21 22  1  0
 22 23  2  0
 23 13  1  0
M  CHG  2   7   1  24  -1
M  END