
          11280715492D 1   1.00000     0.00000     0

 45 48  0     1  0            999 V2000
   -3.7723  -12.5000    0.0000 C   0  0  0  0  0  0           0  0  0
   -3.7734  -13.3273    0.0000 C   0  0  0  0  0  0           0  0  0
   -3.0586  -13.7402    0.0000 C   0  0  0  0  0  0           0  0  0
   -2.3422  -13.3269    0.0000 C   0  0  0  0  0  0           0  0  0
   -2.3450  -12.4963    0.0000 C   0  0  0  0  0  0           0  0  0
   -3.0604  -12.0872    0.0000 C   0  0  0  0  0  0           0  0  0
   -4.4882  -13.7393    0.0000 O   0  0  0  0  0  0           0  0  0
   -1.6321  -12.0811    0.0000 C   0  0  0  0  0  0           0  0  0
   -0.9161  -12.4909    0.0000 C   0  0  1  0  0  0           0  0  0
   -0.2032  -12.0758    0.0000 C   0  0  0  0  0  0           0  0  0
   -0.2063  -11.2508    0.0000 O   0  0  0  0  0  0           0  0  0
   -3.0629  -11.2622    0.0000 C   0  0  0  0  0  0           0  0  0
   -1.6270  -13.7382    0.0000 C   0  0  0  0  0  0           0  0  0
    0.5128  -12.4856    0.0000 N   0  0  3  0  0  0           0  0  0
    0.5136  -13.3136    0.0000 C   0  0  0  0  0  0           0  0  0
    1.2233  -12.0714    0.0000 C   0  0  3  0  0  0           0  0  0
    1.9397  -12.4857    0.0000 C   0  0  0  0  0  0           0  0  0
   -0.9153  -13.3153    0.0000 N   0  0  0  0  0  0           0  0  0
    1.9391  -13.3107    0.0000 C   0  0  0  0  0  0           0  0  0
    1.2242  -13.7206    0.0000 C   0  0  0  0  0  0           0  0  0
    1.2227  -14.5428    0.0000 C   0  0  0  0  0  0           0  0  0
    1.9354  -14.9561    0.0000 C   0  0  0  0  0  0           0  0  0
    2.6511  -14.5412    0.0000 C   0  0  0  0  0  0           0  0  0
    2.6490  -13.7203    0.0000 C   0  0  0  0  0  0           0  0  0
    1.2218  -11.2465    0.0000 C   0  0  0  0  0  0           0  0  0
    1.9355  -10.8327    0.0000 N   0  0  0  0  0  0           0  0  0
    0.5066  -10.8352    0.0000 O   0  0  0  0  0  0           0  0  0
    2.6507  -11.2439    0.0000 C   0  0  0  0  0  0           0  0  0
    3.3645  -10.8302    0.0000 C   0  0  0  0  0  0           0  0  0
    4.0797  -11.2414    0.0000 C   0  0  0  0  0  0           0  0  0
    4.0811  -12.0664    0.0000 C   0  0  0  0  0  0           0  0  0
    4.7963  -12.4777    0.0000 C   0  0  0  0  0  0           0  0  0
    4.7978  -13.3027    0.0000 C   0  0  0  0  0  0           0  0  0
    5.5130  -13.7139    0.0000 N   0  0  0  0  0  0           0  0  0
    5.5144  -14.5389    0.0000 C   0  0  0  0  0  0           0  0  0
    6.2296  -14.9502    0.0000 C   0  0  1  0  0  0           0  0  0
    4.8007  -14.9527    0.0000 O   0  0  0  0  0  0           0  0  0
    6.2311  -15.7752    0.0000 N   0  0  0  0  0  0           0  0  0
    6.9434  -14.5364    0.0000 C   0  0  0  0  0  0           0  0  0
    7.6586  -14.9476    0.0000 C   0  0  0  0  0  0           0  0  0
    7.6570  -15.7719    0.0000 C   0  0  0  0  0  0           0  0  0
    8.3714  -16.1831    0.0000 C   0  0  0  0  0  0           0  0  0
    9.0861  -15.7693    0.0000 C   0  0  0  0  0  0           0  0  0
    9.0820  -14.9400    0.0000 C   0  0  0  0  0  0           0  0  0
    8.3670  -14.5326    0.0000 C   0  0  0  0  0  0           0  0  0
 21 22  2  0     0  0
  2  3  1  0     0  0
 22 23  1  0     0  0
 10 11  2  0     0  0
 23 24  2  0     0  0
 24 19  1  0     0  0
  5  6  2  0     0  0
 16 25  1  0     0  0
  6 12  1  0     0  0
 25 26  1  0     0  0
  6  1  1  0     0  0
 25 27  2  0     0  0
  4 13  1  0     0  0
 26 28  1  0     0  0
  1  2  2  0     0  0
 28 29  1  0     0  0
 10 14  1  0     0  0
 29 30  1  0     0  0
 14 15  1  0     0  0
 30 31  1  0     0  0
  2  7  1  0     0  0
 31 32  1  0     0  0
  3  4  2  0     0  0
 32 33  1  0     0  0
 14 16  1  0     0  0
 33 34  1  0     0  0
 15 20  1  0     0  0
 34 35  1  0     0  0
 17 16  1  0     0  0
 35 36  1  0     0  0
  5  8  1  0     0  0
 35 37  2  0     0  0
 17 19  1  0     0  0
 36 38  1  0     0  0
 36 39  1  6     0  0
  9  8  1  1     0  0
 39 40  1  0     0  0
  4  5  1  0     0  0
 40 41  2  0     0  0
 19 20  2  0     0  0
 41 42  1  0     0  0
  9 10  1  0     0  0
 42 43  2  0     0  0
 20 21  1  0     0  0
 43 44  1  0     0  0
  9 18  1  0     0  0
 44 45  2  0     0  0
 45 40  1  0     0  0
M  END