
  SciTegic02271515152D

 36 40  0  0  0  0            999 V2000
    6.9915  -10.9949    0.0000 C   0  0
    7.6992  -10.5863    0.0000 N   0  0
    8.4069  -10.9949    0.0000 C   0  0
    9.1146  -10.5863    0.0000 C   0  0
    8.4069  -11.8121    0.0000 O   0  0
    9.8224  -10.9949    0.0000 C   0  0
    9.1146   -9.7692    0.0000 C   0  0
    9.1146   -8.9493    0.0000 N   0  0
   10.5293  -10.5866    0.0000 C   0  0
    6.2178  -10.7182    0.0000 S   0  0
    5.7183  -11.3650    0.0000 C   0  0
    6.1791  -12.0400    0.0000 N   0  0
    6.9633  -11.8102    0.0000 N   0  0
   11.6768   -9.9272    0.0000 N   0  0
   10.8638   -9.8421    0.0000 C   0  0
   11.8464  -10.7268    0.0000 C   0  0
   11.1386  -11.1331    0.0000 C   0  0
   11.1375  -11.9474    0.0000 C   0  0
   11.8435  -12.3563    0.0000 C   0  0
   12.5521  -11.9450    0.0000 C   0  0
   12.5497  -11.1321    0.0000 C   0  0
   12.0843   -9.2189    0.0000 C   0  0
   12.9015   -9.2177    0.0000 C   0  0
   13.3068   -9.9255    0.0000 C   0  0
   14.1232   -9.9247    0.0000 C   0  0
   14.5316   -9.2158    0.0000 C   0  0
   14.1176   -8.5064    0.0000 C   0  0
   13.3025   -8.5107    0.0000 C   0  0
    4.9015  -11.3411    0.0000 S   0  0
    4.5138  -10.6217    0.0000 C   0  0
    3.6970  -10.5978    0.0000 C   0  0
    3.3082   -9.8814    0.0000 C   0  0
    2.4936   -9.8571    0.0000 C   0  0
    2.0651  -10.5530    0.0000 C   0  0
    2.4573  -11.2749    0.0000 C   0  0
    3.2769  -11.2956    0.0000 C   0  0
  1  2  1  0
  2  3  1  0
  3  4  1  0
  3  5  2  0
  4  6  2  0
  4  7  1  0
  7  8  3  0
  6  9  1  0
  1 10  1  0
 10 11  1  0
 11 12  2  0
 12 13  1  0
 13  1  2  0
  9 17  1  0
 16 14  1  0
 14 15  1  0
 15  9  2  0
 16 17  2  0
 17 18  1  0
 18 19  2  0
 19 20  1  0
 20 21  2  0
 21 16  1  0
 14 22  1  0
 22 23  1  0
 23 24  2  0
 24 25  1  0
 25 26  2  0
 26 27  1  0
 27 28  2  0
 28 23  1  0
 11 29  1  0
 29 30  1  0
 30 31  1  0
 31 32  2  0
 32 33  1  0
 33 34  2  0
 34 35  1  0
 35 36  2  0
 36 31  1  0
M  END