
          11280715122D 1   1.00000     0.00000     0

 40 44  0     0  0            999 V2000
    5.0917   -0.0917    0.0000 S   0  0  3  0  0  0           0  0  0
    4.3750   -0.5167    0.0000 N   0  0  0  0  0  0           0  0  0
    4.3792   -1.3542    0.0000 C   0  0  0  0  0  0           0  0  0
    3.6542   -1.7750    0.0000 C   0  0  0  0  0  0           0  0  0
    6.6667   -6.9375    0.0000 C   0  0  0  0  0  0           0  0  0
    3.6542   -2.6042    0.0000 C   0  0  0  0  0  0           0  0  0
    6.1375   -8.1667    0.0000 N   0  0  0  0  0  0           0  0  0
    6.8417   -7.7417    0.0000 N   0  0  0  0  0  0           0  0  0
    5.5167   -7.6292    0.0000 N   0  0  0  0  0  0           0  0  0
    5.8500   -6.8625    0.0000 N   0  0  0  0  0  0           0  0  0
    7.2167   -6.3167    0.0000 C   0  0  0  0  0  0           0  0  0
    4.3667   -3.0167    0.0000 N   0  0  3  0  0  0           0  0  0
    7.2167   -5.4917    0.0000 C   0  0  0  0  0  0           0  0  0
    5.8167   -0.5042    0.0000 O   0  0  0  0  0  0           0  0  0
    5.0875    0.7458    0.0000 O   0  0  0  0  0  0           0  0  0
    5.8167    0.3250    0.0000 C   0  0  0  0  0  0           0  0  0
    2.9417   -3.0167    0.0000 N   0  0  0  0  0  0           0  0  0
    6.5042   -5.0792    0.0000 C   0  0  0  0  0  0           0  0  0
    5.1000   -1.7667    0.0000 O   0  0  0  0  0  0           0  0  0
    4.3667   -3.8417    0.0000 C   0  0  0  0  0  0           0  0  0
    5.7917   -5.4917    0.0000 C   0  0  0  0  0  0           0  0  0
    6.5042   -4.2500    0.0000 C   0  0  0  0  0  0           0  0  0
    5.0792   -4.2542    0.0000 C   0  0  0  0  0  0           0  0  0
    2.9417   -1.3625    0.0000 C   0  0  0  0  0  0           0  0  0
    5.0792   -5.0792    0.0000 C   0  0  0  0  0  0           0  0  0
    5.7875   -3.8375    0.0000 C   0  0  0  0  0  0           0  0  0
    5.0792   -2.6042    0.0000 C   0  0  0  0  0  0           0  0  0
    7.9292   -6.7292    0.0000 C   0  0  0  0  0  0           0  0  0
    7.9292   -5.0792    0.0000 C   0  0  0  0  0  0           0  0  0
    2.2292   -2.6042    0.0000 C   0  0  0  0  0  0           0  0  0
    6.5417   -0.0875    0.0000 C   0  0  0  0  0  0           0  0  0
    5.8042    1.1583    0.0000 C   0  0  0  0  0  0           0  0  0
    5.7875   -3.0167    0.0000 C   0  0  0  0  0  0           0  0  0
    2.2292   -1.7792    0.0000 C   0  0  0  0  0  0           0  0  0
    8.6417   -5.4875    0.0000 C   0  0  0  0  0  0           0  0  0
    8.6417   -6.3167    0.0000 C   0  0  0  0  0  0           0  0  0
    6.4917   -2.6042    0.0000 C   0  0  0  0  0  0           0  0  0
    6.5250    1.5833    0.0000 C   0  0  0  0  0  0           0  0  0
    7.2625    0.3333    0.0000 C   0  0  0  0  0  0           0  0  0
    7.2542    1.1708    0.0000 C   0  0  0  0  0  0           0  0  0
  2  1  1  0     0  0
  3  2  1  0     0  0
  4  3  1  0     0  0
  5 11  1  0     0  0
  6  4  1  0     0  0
  7  8  2  0     0  0
  8  5  1  0     0  0
  9 10  1  0     0  0
 10  5  2  0     0  0
 11 13  2  0     0  0
 12  6  1  0     0  0
 13 18  1  0     0  0
 14  1  2  0     0  0
 15  1  2  0     0  0
 16  1  1  0     0  0
 17  6  2  0     0  0
 18 22  2  0     0  0
 19  3  2  0     0  0
 20 12  1  0     0  0
 21 25  2  0     0  0
 22 26  1  0     0  0
 23 20  1  0     0  0
 24  4  2  0     0  0
 25 23  1  0     0  0
 26 23  2  0     0  0
 27 12  1  0     0  0
 28 11  1  0     0  0
 29 13  1  0     0  0
 30 34  2  0     0  0
 31 16  2  0     0  0
 32 16  1  0     0  0
 33 27  1  0     0  0
 34 24  1  0     0  0
 35 29  2  0     0  0
 36 35  1  0     0  0
 37 33  1  0     0  0
 38 32  2  0     0  0
 39 31  1  0     0  0
 40 38  1  0     0  0
 40 39  2  0     0  0
 17 30  1  0     0  0
 18 21  1  0     0  0
 36 28  2  0     0  0
  7  9  1  0     0  0
M  END