
  SciTegic01091216402D

 11 11  0  0  0  0            999 V2000
   19.0194    2.3209    0.0000 N   0  0
   19.0182    1.4935    0.0000 C   0  0
   19.7331    1.0806    0.0000 N   0  0
   20.4495    1.4940    0.0000 C   0  0
   20.4466    2.3245    0.0000 N   0  0
   19.7313    2.7336    0.0000 C   0  0
   19.7288    3.5586    0.0000 N   0  0
   21.1611    1.0834    0.0000 S   0  0
   18.3035    1.0816    0.0000 C   0  0
   21.1613    0.2584    0.0000 C   0  0
   21.8758   -0.1540    0.0000 C   0  0
  5  6  2  0
  6  1  1  0
  1  2  2  0
  6  7  1  0
  3  4  2  0
  4  8  1  0
  2  9  1  0
  4  5  1  0
  8 10  1  0
  2  3  1  0
 10 11  1  0
M  END