
  SciTegic02271514512D

 42 47  0  0  0  0            999 V2000
   20.5426  -21.0180    0.0000 C   0  0
   21.1777  -20.3408    0.0000 C   0  0
   21.3352  -20.7951    0.0000 C   0  0
   21.8782  -20.6010    0.0000 C   0  0
   22.0849  -21.0950    0.0000 C   0  0
   22.6190  -20.4172    0.0000 C   0  0
   21.3326  -19.9548    0.0000 C   0  0
   21.8839  -19.2990    0.0000 C   0  0
   21.1733  -19.5529    0.0000 C   0  0
   22.6289  -19.6061    0.0000 N   0  0
   23.3381  -18.3785    0.0000 C   0  0
   23.3369  -19.1980    0.0000 C   0  0
   24.0450  -19.6070    0.0000 C   0  0
   24.7546  -19.1976    0.0000 C   0  0
   24.7518  -18.3749    0.0000 C   0  0
   24.0432  -17.9696    0.0000 C   0  0
   25.4580  -17.9637    0.0000 C   0  0
   26.1672  -18.3696    0.0000 N   0  0
   25.4549  -17.1465    0.0000 O   0  0
   26.8734  -17.9583    0.0000 C   0  0
   27.5826  -18.3642    0.0000 C   0  0
   27.5826  -19.1803    0.0000 C   0  0
   28.2910  -19.5862    0.0000 C   0  0
   28.9981  -19.1748    0.0000 C   0  0
   28.9924  -18.3534    0.0000 C   0  0
   28.2834  -17.9513    0.0000 C   0  0
   29.6971  -17.9397    0.0000 C   0  0
   30.4078  -18.3431    0.0000 C   0  0  2  0  0  0
   31.1125  -17.9294    0.0000 C   0  0
   26.8756  -19.5901    0.0000 O   0  0
   26.8769  -20.4073    0.0000 C   0  0
   26.1699  -20.8170    0.0000 C   0  0
   26.1712  -21.6342    0.0000 C   0  0
   31.8237  -18.3323    0.0000 O   0  0
   31.1071  -17.1118    0.0000 O   0  0
   30.4138  -19.1603    0.0000 C   0  0
   31.1244  -19.5637    0.0000 C   0  0
   31.1266  -20.3813    0.0000 C   0  0
   31.8365  -20.7847    0.0000 C   0  0
   32.5422  -20.3709    0.0000 C   0  0
   32.5335  -19.5495    0.0000 C   0  0
   31.8232  -19.1498    0.0000 C   0  0
  1  2  1  0
  1  3  1  0
  2  4  1  0
  3  5  1  0
  4  6  1  0
  5  6  1  0
  7  8  1  0
  3  7  1  0
  2  9  1  0
  6 10  1  0
 10  8  1  0
  8  9  1  0
 11 12  2  0
 12 13  1  0
 13 14  2  0
 14 15  1  0
 15 16  2  0
 16 11  1  0
 15 17  1  0
 17 18  1  0
 17 19  2  0
 18 20  1  0
 20 21  1  0
 21 22  2  0
 22 23  1  0
 23 24  2  0
 24 25  1  0
 25 26  2  0
 26 21  1  0
 25 27  1  0
 27 28  1  0
 28 29  1  0
 22 30  1  0
 30 31  1  0
 31 32  1  0
 32 33  1  0
 29 34  1  0
 29 35  2  0
 28 36  1  6
 36 37  1  0
 37 38  2  0
 38 39  1  0
 39 40  2  0
 40 41  1  0
 41 42  2  0
 42 37  1  0
 12 10  1  0
M  END