
          11280715232D 1   1.00000     0.00000     0

 61 66  0     1  0            999 V2000
    4.1792   -7.3792    0.0000 N   0  0  0  0  0  0           0  0  0
    5.8917   -5.7125    0.0000 N   0  0  0  0  0  0           0  0  0
    1.8417   -6.8542    0.0000 N   0  0  0  0  0  0           0  0  0
    5.5167   -6.4500    0.0000 C   0  0  0  0  0  0           0  0  0
    6.2250   -7.6417    0.0000 C   0  0  0  0  0  0           0  0  0
    3.3625   -7.4667    0.0000 C   0  0  0  0  0  0           0  0  0
    1.3250   -6.2167    0.0000 C   0  0  0  0  0  0           0  0  0
    4.9292   -7.0292    0.0000 C   0  0  2  0  0  0           0  0  0
    6.0042   -4.8917    0.0000 C   0  0  1  0  0  0           0  0  0
    7.5250   -7.9417    0.0000 N   0  0  0  0  0  0           0  0  0
    5.8500   -4.0792    0.0000 C   0  0  0  0  0  0           0  0  0
    6.7667   -8.2667    0.0000 C   0  0  0  0  0  0           0  0  0
    2.5542   -7.2875    0.0000 C   0  0  1  0  0  0           0  0  0
    1.0042   -4.6167    0.0000 N   0  0  0  0  0  0           0  0  0
    2.4292   -2.6917    0.0000 N   0  0  0  0  0  0           0  0  0
    1.0292   -5.4417    0.0000 C   0  0  1  0  0  0           0  0  0
    3.2167   -2.4667    0.0000 C   0  0  0  0  0  0           0  0  0
    5.4042   -7.7042    0.0000 C   0  0  0  0  0  0           0  0  0
    6.6542   -6.9292    0.0000 C   0  0  0  0  0  0           0  0  0
    5.4375   -3.3667    0.0000 N   0  0  0  0  0  0           0  0  0
    7.4542   -7.1167    0.0000 C   0  0  0  0  0  0           0  0  0
    2.4375   -9.4750    0.0000 C   0  0  0  0  0  0           0  0  0
    6.1875   -6.9417    0.0000 O   0  0  0  0  0  0           0  0  0
    0.6042   -6.6292    0.0000 O   0  0  0  0  0  0           0  0  0
    3.3167   -8.2917    0.0000 O   0  0  0  0  0  0           0  0  0
    0.2167   -5.6042    0.0000 C   0  0  0  0  0  0           0  0  0
    6.8375   -4.8667    0.0000 C   0  0  0  0  0  0           0  0  0
    4.0417   -2.5125    0.0000 C   0  0  0  0  0  0           0  0  0
   -1.9708   -5.7542    0.0000 C   0  0  0  0  0  0           0  0  0
    1.7500   -3.1625    0.0000 C   0  0  1  0  0  0           0  0  0
    6.4417   -3.8500    0.0000 O   0  0  0  0  0  0           0  0  0
   -0.5833   -5.3917    0.0000 C   0  0  0  0  0  0           0  0  0
   -1.1708   -5.9750    0.0000 C   0  0  0  0  0  0           0  0  0
    3.1292   -1.6417    0.0000 O   0  0  0  0  0  0           0  0  0
    1.6167   -9.5875    0.0000 O   0  0  0  0  0  0           0  0  0
    2.2417   -8.0542    0.0000 C   0  0  0  0  0  0           0  0  0
    1.2542   -3.8292    0.0000 C   0  0  0  0  0  0           0  0  0
   -2.1750   -4.9542    0.0000 C   0  0  0  0  0  0           0  0  0
   -1.5958   -4.3792    0.0000 C   0  0  0  0  0  0           0  0  0
    4.8125   -2.8250    0.0000 C   0  0  0  0  0  0           0  0  0
    2.7500   -8.7125    0.0000 C   0  0  0  0  0  0           0  0  0
    2.9417  -10.1292    0.0000 N   0  0  0  0  0  0           0  0  0
   -0.7958   -4.5875    0.0000 C   0  0  0  0  0  0           0  0  0
    1.1667   -2.5667    0.0000 C   0  0  0  0  0  0           0  0  0
    7.2292   -4.1417    0.0000 C   0  0  0  0  0  0           0  0  0
    6.4167   -6.1417    0.0000 C   0  0  0  0  0  0           0  0  0
    8.0250   -6.5167    0.0000 C   0  0  0  0  0  0           0  0  0
   -2.5458   -6.3417    0.0000 C   0  0  0  0  0  0           0  0  0
    0.3667   -2.7750    0.0000 C   0  0  3  0  0  0           0  0  0
   -2.9708   -4.7417    0.0000 C   0  0  0  0  0  0           0  0  0
    6.7917   -3.4375    0.0000 C   0  0  0  0  0  0           0  0  0
    8.0542   -4.1167    0.0000 C   0  0  0  0  0  0           0  0  0
    0.1417   -3.5667    0.0000 C   0  0  0  0  0  0           0  0  0
   -0.2083   -2.1792    0.0000 C   0  0  0  0  0  0           0  0  0
    6.9792   -5.5375    0.0000 C   0  0  0  0  0  0           0  0  0
   -3.3458   -6.1292    0.0000 C   0  0  0  0  0  0           0  0  0
    7.7875   -5.7292    0.0000 C   0  0  0  0  0  0           0  0  0
   -3.5583   -5.3292    0.0000 C   0  0  0  0  0  0           0  0  0
    7.1917   -2.7042    0.0000 C   0  0  0  0  0  0           0  0  0
    8.4500   -3.3917    0.0000 C   0  0  0  0  0  0           0  0  0
    8.0167   -2.6917    0.0000 C   0  0  0  0  0  0           0  0  0
  2  4  1  0     0  0
  3 13  1  0     0  0
  4  8  1  0     0  0
  5 18  1  0     0  0
  6  1  1  0     0  0
  7  3  1  0     0  0
  8  1  1  0     0  0
  9  2  1  0     0  0
 10 12  1  0     0  0
 11  9  1  0     0  0
 12  5  2  0     0  0
 13  6  1  0     0  0
 14 16  1  0     0  0
 15 30  1  0     0  0
 16  7  1  0     0  0
 17 28  1  0     0  0
  8 18  1  6     0  0
 19  5  1  0     0  0
 20 11  1  0     0  0
 21 19  2  0     0  0
 22 41  1  0     0  0
 23  4  2  0     0  0
 24  7  2  0     0  0
 25  6  2  0     0  0
 16 26  1  6     0  0
  9 27  1  1     0  0
 28 40  1  0     0  0
 29 33  1  0     0  0
 30 37  1  0     0  0
 31 11  2  0     0  0
 32 26  1  0     0  0
 33 32  2  0     0  0
 34 17  2  0     0  0
 35 22  2  0     0  0
 13 36  1  1     0  0
 37 14  1  0     0  0
 38 39  1  0     0  0
 39 43  2  0     0  0
 40 20  1  0     0  0
 41 36  1  0     0  0
 42 22  1  0     0  0
 43 32  1  0     0  0
 30 44  1  1     0  0
 45 27  1  0     0  0
 46 19  1  0     0  0
 47 21  1  0     0  0
 48 29  2  0     0  0
 49 44  1  0     0  0
 50 38  2  0     0  0
 51 45  2  0     0  0
 52 45  1  0     0  0
 53 49  1  0     0  0
 54 49  1  0     0  0
 55 46  2  0     0  0
 56 48  1  0     0  0
 57 55  1  0     0  0
 58 50  1  0     0  0
 59 51  1  0     0  0
 60 52  2  0     0  0
 61 60  1  0     0  0
 21 10  1  0     0  0
 47 57  2  0     0  0
 59 61  2  0     0  0
 15 17  1  0     0  0
 38 29  1  0     0  0
 58 56  2  0     0  0
M  END