
          11280715052D 1   1.00000     0.00000     0

 45 44  0     0  0            999 V2000
    1.7042   -2.1917    0.0000 C   0  0  3  0  0  0           0  0  0
    1.4292   -2.6875    0.0000 C   0  0  3  0  0  0           0  0  0
    2.9875   -2.5792    0.0000 C   0  0  3  0  0  0           0  0  0
    2.3542   -2.3542    0.0000 C   0  0  3  0  0  0           0  0  0
    4.3917   -2.8375    0.0000 S   0  0  3  0  0  0           0  0  0
    2.5792   -1.8542    0.0000 O   0  0  0  0  0  0           0  0  0
    0.3292   -3.5917    0.0000 S   0  0  3  0  0  0           0  0  0
    2.3500   -3.7792    0.0000 S   0  0  3  0  0  0           0  0  0
    1.0292   -1.9667    0.0000 C   0  0  3  0  0  0           0  0  0
    1.4875   -1.3917    0.0000 C   0  0  0  0  0  0           0  0  0
    3.6167   -3.1125    0.0000 O   0  0  0  0  0  0           0  0  0
    2.0667   -0.8042    0.0000 N   0  0  3  0  0  0           0  0  0
    1.1417   -3.4542    0.0000 O   0  0  0  0  0  0           0  0  0
    2.7667   -3.0667    0.0000 O   0  0  0  0  0  0           0  0  0
    3.0667    0.2125    0.0000 C   0  0  0  0  0  0           0  0  0
    2.8625   -0.5875    0.0000 C   0  0  0  0  0  0           0  0  0
    5.0167   -3.3667    0.0000 O   0  5  0  0  0  0           0  0  0
    0.7375   -4.3042    0.0000 O   0  5  0  0  0  0           0  0  0
    2.7625   -4.5000    0.0000 O   0  5  0  0  0  0           0  0  0
    4.5375   -2.0250    0.0000 O   0  0  0  0  0  0           0  0  0
    3.6417   -2.4792    0.0000 O   0  0  0  0  0  0           0  0  0
    1.5250   -3.7792    0.0000 O   0  0  0  0  0  0           0  0  0
    2.1292   -4.5792    0.0000 O   0  0  0  0  0  0           0  0  0
   -0.2000   -2.9542    0.0000 O   0  0  0  0  0  0           0  0  0
   -0.4250   -3.9292    0.0000 O   0  0  0  0  0  0           0  0  0
    1.8500   -0.0042    0.0000 C   0  0  0  0  0  0           0  0  0
    3.8625    0.4333    0.0000 N   0  0  0  0  0  0           0  0  0
    0.6875   -1.1792    0.0000 O   0  0  0  0  0  0           0  0  0
    2.4792    0.7958    0.0000 O   0  0  0  0  0  0           0  0  0
    0.3917   -1.4375    0.0000 O   0  0  0  0  0  0           0  0  0
    1.0542    0.2083    0.0000 C   0  0  0  0  0  0           0  0  0
    4.0667    1.2333    0.0000 C   0  0  3  0  0  0           0  0  0
   -0.6958   -6.2167    0.0000 Na  0  3  0  0  0  0           0  0  0
    4.8625   -5.2167    0.0000 Na  0  3  0  0  0  0           0  0  0
    7.0417   -0.5917    0.0000 Na  0  3  0  0  0  0           0  0  0
    0.4792   -0.3792    0.0000 C   0  0  0  0  0  0           0  0  0
    0.8417    1.0000    0.0000 C   0  0  0  0  0  0           0  0  0
    3.4792    1.8083    0.0000 C   0  0  0  0  0  0           0  0  0
    4.8667    1.4500    0.0000 C   0  0  0  0  0  0           0  0  0
    0.0417    1.2083    0.0000 C   0  0  0  0  0  0           0  0  0
   -0.3208   -0.1750    0.0000 C   0  0  0  0  0  0           0  0  0
    5.0750    2.2458    0.0000 C   0  0  0  0  0  0           0  0  0
    3.6917    2.6083    0.0000 C   0  0  0  0  0  0           0  0  0
   -0.5375    0.6250    0.0000 C   0  0  0  0  0  0           0  0  0
    4.4917    2.8333    0.0000 C   0  0  0  0  0  0           0  0  0
  2  9  1  0     0  0
  3  6  1  0     0  0
  4  2  1  0     0  0
  5 11  1  0     0  0
  6  1  1  0     0  0
  7 13  1  0     0  0
  8 14  1  0     0  0
  9  1  1  0     0  0
 10  1  1  0     0  0
 11  3  1  0     0  0
 12 10  1  0     0  0
 13  2  1  0     0  0
 14  4  1  0     0  0
 15 16  1  0     0  0
 16 12  1  0     0  0
 17  5  1  0     0  0
 18  7  1  0     0  0
 19  8  1  0     0  0
 20  5  2  0     0  0
 21  5  2  0     0  0
 22  8  2  0     0  0
 23  8  2  0     0  0
 24  7  2  0     0  0
 25  7  2  0     0  0
 26 12  1  0     0  0
 27 15  1  0     0  0
 28 10  2  0     0  0
 29 15  2  0     0  0
 30  9  1  0     0  0
 31 26  1  0     0  0
 32 27  1  0     0  0
 36 31  1  0     0  0
 37 31  2  0     0  0
 38 32  1  0     0  0
 39 32  1  0     0  0
 40 37  1  0     0  0
 41 36  2  0     0  0
 42 39  1  0     0  0
 43 38  1  0     0  0
 44 41  1  0     0  0
 45 43  1  0     0  0
  3  4  1  0     0  0
 40 44  2  0     0  0
 42 45  1  0     0  0
M  CHG  6  17  -1  18  -1  19  -1  33   1  34   1  35   1
M  END