
  Mrv0541 04051115152D          

 29 32  0  0  0  0            999 V2000
    4.1971    0.8174    0.0000 C   0  0  0  0  0  0  0  0  0  0  0  0
    3.4826    0.4049    0.0000 C   0  0  0  0  0  0  0  0  0  0  0  0
    3.4826   -0.4201    0.0000 C   0  0  0  0  0  0  0  0  0  0  0  0
    2.7681   -0.8326    0.0000 C   0  0  0  0  0  0  0  0  0  0  0  0
    2.0537   -0.4201    0.0000 C   0  0  0  0  0  0  0  0  0  0  0  0
    2.0537    0.4049    0.0000 C   0  0  0  0  0  0  0  0  0  0  0  0
    2.7681    0.8174    0.0000 C   0  0  0  0  0  0  0  0  0  0  0  0
   -2.2332   -0.4201    0.0000 C   0  0  0  0  0  0  0  0  0  0  0  0
   -2.9476   -0.8326    0.0000 C   0  0  0  0  0  0  0  0  0  0  0  0
   -3.6621   -0.4201    0.0000 C   0  0  0  0  0  0  0  0  0  0  0  0
   -3.6621    0.4049    0.0000 C   0  0  0  0  0  0  0  0  0  0  0  0
   -2.9476    0.8174    0.0000 C   0  0  0  0  0  0  0  0  0  0  0  0
   -2.2332    0.4049    0.0000 C   0  0  0  0  0  0  0  0  0  0  0  0
   -2.5603   -1.5610    0.0000 C   0  0  0  0  0  0  0  0  0  0  0  0
   -3.3349   -1.5610    0.0000 C   0  0  0  0  0  0  0  0  0  0  0  0
   -3.3349    1.5459    0.0000 C   0  0  0  0  0  0  0  0  0  0  0  0
   -2.5603    1.5459    0.0000 C   0  0  0  0  0  0  0  0  0  0  0  0
    4.1971    1.6424    0.0000 O   0  0  0  0  0  0  0  0  0  0  0  0
    4.9116    0.4049    0.0000 O   0  0  0  0  0  0  0  0  0  0  0  0
    1.3392   -0.8326    0.0000 C   0  0  0  0  0  0  0  0  0  0  0  0
    0.6247   -0.4201    0.0000 C   0  0  0  0  0  0  0  0  0  0  0  0
    0.6247    0.4049    0.0000 C   0  0  0  0  0  0  0  0  0  0  0  0
    1.3392    0.8174    0.0000 C   0  0  0  0  0  0  0  0  0  0  0  0
   -0.8042   -0.4201    0.0000 C   0  0  0  0  0  0  0  0  0  0  0  0
   -1.5187   -0.8326    0.0000 C   0  0  0  0  0  0  0  0  0  0  0  0
   -1.5187    0.8174    0.0000 C   0  0  0  0  0  0  0  0  0  0  0  0
   -0.8042    0.4049    0.0000 C   0  0  0  0  0  0  0  0  0  0  0  0
   -0.0897   -0.8326    0.0000 C   0  0  0  0  0  0  0  0  0  0  0  0
   -0.0897   -1.6576    0.0000 O   0  0  0  0  0  0  0  0  0  0  0  0
  1  2  1  0  0  0  0
  1 18  2  0  0  0  0
  1 19  1  0  0  0  0
  2  3  2  0  0  0  0
  7  2  1  0  0  0  0
  3  4  1  0  0  0  0
  4  5  2  0  0  0  0
  6  5  1  0  0  0  0
  5 20  1  0  0  0  0
  6  7  2  0  0  0  0
  6 23  1  0  0  0  0
  8  9  1  0  0  0  0
  8 13  2  0  0  0  0
 25  8  1  0  0  0  0
  9 10  1  0  0  0  0
  9 14  1  0  0  0  0
  9 15  1  0  0  0  0
 10 11  1  0  0  0  0
 11 12  1  0  0  0  0
 12 13  1  0  0  0  0
 12 16  1  0  0  0  0
 12 17  1  0  0  0  0
 13 26  1  0  0  0  0
 20 21  2  0  0  0  0
 21 22  1  0  0  0  0
 28 21  1  0  0  0  0
 22 23  2  0  0  0  0
 24 25  2  0  0  0  0
 24 27  1  0  0  0  0
 28 24  1  0  0  0  0
 26 27  2  0  0  0  0
 28 29  2  0  0  0  0
M  END