
          11280714582D 1   1.00000     0.00000     0

 31 35  0     0  0            999 V2000
    5.8125   -6.4125    0.0000 C   0  0  0  0  0  0           0  0  0
    6.8625   -5.5917    0.0000 N   0  0  0  0  0  0           0  0  0
    3.6042   -1.7042    0.0000 C   0  0  0  0  0  0           0  0  0
    6.0375   -5.6167    0.0000 N   0  0  0  0  0  0           0  0  0
    7.1417   -6.3542    0.0000 N   0  0  0  0  0  0           0  0  0
    4.3167   -1.2917    0.0000 N   0  0  0  0  0  0           0  0  0
    6.4917   -6.8667    0.0000 N   0  0  0  0  0  0           0  0  0
    2.8917   -1.2917    0.0000 C   0  0  0  0  0  0           0  0  0
    3.6042   -0.0542    0.0000 N   0  0  0  0  0  0           0  0  0
    5.0167   -6.6625    0.0000 C   0  0  0  0  0  0           0  0  0
    4.3167   -0.4667    0.0000 C   0  0  0  0  0  0           0  0  0
    2.8917   -0.4667    0.0000 C   0  0  0  0  0  0           0  0  0
    4.3042   -6.2417    0.0000 C   0  0  0  0  0  0           0  0  0
    3.6042   -2.5292    0.0000 N   0  0  0  0  0  0           0  0  0
    4.3042   -5.4167    0.0000 C   0  0  0  0  0  0           0  0  0
    5.0292   -5.0042    0.0000 C   0  0  0  0  0  0           0  0  0
    3.5917   -5.0042    0.0000 C   0  0  0  0  0  0           0  0  0
    4.3167   -2.9417    0.0000 C   0  0  0  0  0  0           0  0  0
    4.3167   -3.7667    0.0000 C   0  0  0  0  0  0           0  0  0
    5.0292   -4.1875    0.0000 C   0  0  0  0  0  0           0  0  0
    3.6000   -4.1750    0.0000 C   0  0  0  0  0  0           0  0  0
    2.1792   -1.7042    0.0000 C   0  0  0  0  0  0           0  0  0
    5.0167   -7.4792    0.0000 C   0  0  0  0  0  0           0  0  0
    3.5917   -6.6542    0.0000 C   0  0  0  0  0  0           0  0  0
    5.0417   -0.0500    0.0000 C   0  0  0  0  0  0           0  0  0
    2.1792   -0.0542    0.0000 C   0  0  0  0  0  0           0  0  0
    5.7625   -0.4625    0.0000 C   0  0  0  0  0  0           0  0  0
    1.4625   -1.2917    0.0000 C   0  0  0  0  0  0           0  0  0
    3.5792   -7.4792    0.0000 C   0  0  0  0  0  0           0  0  0
    4.2917   -7.8917    0.0000 C   0  0  0  0  0  0           0  0  0
    1.4625   -0.4667    0.0000 C   0  0  0  0  0  0           0  0  0
  2  4  2  0     0  0
  3 14  1  0     0  0
  4  1  1  0     0  0
  5  7  1  0     0  0
  6  3  2  0     0  0
  7  1  2  0     0  0
  8  3  1  0     0  0
  9 12  1  0     0  0
 10  1  1  0     0  0
 11  6  1  0     0  0
 12  8  2  0     0  0
 13 10  2  0     0  0
 14 18  1  0     0  0
 15 13  1  0     0  0
 16 15  2  0     0  0
 17 15  1  0     0  0
 18 19  1  0     0  0
 19 21  1  0     0  0
 20 16  1  0     0  0
 21 17  2  0     0  0
 22  8  1  0     0  0
 23 10  1  0     0  0
 24 13  1  0     0  0
 25 11  1  0     0  0
 26 12  1  0     0  0
 27 25  1  0     0  0
 28 22  2  0     0  0
 29 30  1  0     0  0
 30 23  2  0     0  0
 31 28  1  0     0  0
  5  2  1  0     0  0
 29 24  2  0     0  0
 20 19  2  0     0  0
  9 11  2  0     0  0
 31 26  2  0     0  0
M  END