
          11280714592D 1   1.00000     0.00000     0

 24 25  0     1  0            999 V2000
    3.1625   -6.0417    0.0000 S   0  0  3  0  0  0           0  0  0
    3.1625   -6.8292    0.0000 N   0  0  0  0  0  0           0  0  0
    3.9417   -6.0375    0.0000 O   0  0  0  0  0  0           0  0  0
    2.3625   -6.0500    0.0000 O   0  0  0  0  0  0           0  0  0
    3.1417   -5.2500    0.0000 C   0  0  0  0  0  0           0  0  0
    3.1625   -7.6875    0.0000 C   0  0  2  0  0  0           0  0  0
    8.9875   -7.7167    0.0000 C   0  0  0  0  0  0           0  0  0
    9.5875   -7.1167    0.0000 O   0  0  0  0  0  0           0  0  0
    5.2875   -8.5000    0.0000 C   0  0  0  0  0  0           0  0  0
    6.1375   -8.5000    0.0000 C   0  0  0  0  0  0           0  0  0
    3.8542   -8.1792    0.0000 C   0  0  1  0  0  0           0  0  0
    9.2042   -8.5417    0.0000 O   0  0  0  0  0  0           0  0  0
    4.6542   -7.9250    0.0000 C   0  0  0  0  0  0           0  0  0
    2.4792   -8.1792    0.0000 C   0  0  0  0  0  0           0  0  0
    2.7292   -8.9917    0.0000 C   0  0  0  0  0  0           0  0  0
    8.1625   -7.5042    0.0000 C   0  0  0  0  0  0           0  0  0
    3.5875   -8.9917    0.0000 C   0  0  0  0  0  0           0  0  0
    2.4625   -4.8625    0.0000 C   0  0  0  0  0  0           0  0  0
    3.8375   -4.8500    0.0000 C   0  0  0  0  0  0           0  0  0
    6.7417   -7.8917    0.0000 C   0  0  0  0  0  0           0  0  0
    7.5667   -8.1042    0.0000 C   0  0  0  0  0  0           0  0  0
    3.8292   -4.0542    0.0000 C   0  0  0  0  0  0           0  0  0
    2.4417   -4.0667    0.0000 C   0  0  0  0  0  0           0  0  0
    3.1417   -3.6667    0.0000 C   0  0  0  0  0  0           0  0  0
  2  1  1  0     0  0
  3  1  2  0     0  0
  4  1  2  0     0  0
  5  1  1  0     0  0
  6  2  1  6     0  0
  7 16  1  0     0  0
  8  7  2  0     0  0
  9 13  1  0     0  0
 10  9  2  0     0  0
 11  6  1  0     0  0
 12  7  1  0     0  0
 11 13  1  1     0  0
 14  6  1  0     0  0
 15 14  1  0     0  0
 16 21  1  0     0  0
 17 11  1  0     0  0
 18  5  1  0     0  0
 19  5  2  0     0  0
 20 10  1  0     0  0
 21 20  1  0     0  0
 22 19  1  0     0  0
 23 18  2  0     0  0
 24 22  2  0     0  0
 24 23  1  0     0  0
 17 15  1  0     0  0
M  END