
  SciTegic02271217242D

 27 30  0  0  0  0            999 V2000
   -1.5042  -13.1292    0.0000 O   0  0
   -1.0875  -13.8458    0.0000 S   0  0
   -0.6752  -13.1267    0.0000 O   0  0
   -2.5128  -15.5069    0.0000 C   0  0
   -1.7963  -15.0935    0.0000 C   0  0
   -1.7992  -14.2630    0.0000 C   0  0
   -2.5146  -13.8539    0.0000 C   0  0
   -0.3703  -14.2576    0.0000 N   0  0
   -0.3671  -15.0826    0.0000 C   0  0
   -1.0792  -15.4946    0.0000 C   0  0
   -1.0764  -16.3188    0.0000 N   0  0
   -0.3599  -16.7295    0.0000 C   0  0
    0.3554  -16.3099    0.0000 C   0  0
    0.3491  -15.4870    0.0000 C   0  0
    1.0729  -16.7171    0.0000 C   0  0
    1.0741  -17.5428    0.0000 C   0  0
    1.7907  -17.9500    0.0000 N   0  0
    1.7773  -16.2995    0.0000 C   0  0
    2.4930  -16.6999    0.0000 N   0  0
    2.5016  -17.5315    0.0000 C   0  0
    3.2199  -17.9373    0.0000 N   0  0
   -3.2276  -15.0940    0.0000 C   0  0
   -3.2253  -14.2684    0.0000 C   0  0
   -3.9380  -13.8555    0.0000 C   0  0
   -4.6534  -14.2669    0.0000 C   0  0
   -4.6517  -15.0956    0.0000 C   0  0
   -3.9385  -15.5049    0.0000 C   0  0
 12 13  1  0
  6  7  2  0
 13 14  2  0
 14  9  1  0
  7 23  1  0
 13 15  1  0
  6  2  1  0
 15 16  2  0
 22  4  1  0
 16 17  1  0
 17 20  2  0
  2  8  1  0
 19 18  2  0
 18 15  1  0
 19 20  1  0
  2  1  2  0
  8  9  1  0
  4  5  2  0
 20 21  1  0
  9 10  2  0
  3  2  2  0
 22 23  1  0
 10 11  1  0
 23 24  2  0
  5  6  1  0
 24 25  1  0
 11 12  2  0
 25 26  2  0
 26 27  1  0
 27 22  2  0
M  END