
  SciTegic09251318272D

107101  0  0  0  0            999 V2000
    2.4723    6.9907    0.0000 C   0  0
    3.1867    6.5782    0.0000 C   0  0
    1.9993   -5.8423    0.0000 C   0  0
   -0.2196    4.6225    0.0000 C   0  0
    0.5560   -1.0360    0.0000 C   0  0
   -1.1001    4.1032    0.0000 C   0  0
   -1.4835   -7.3130    0.0000 C   0  0
    0.3288    5.7532    0.0000 C   0  0
   -1.2707   -4.3460    0.0000 C   0  0
    0.2589    0.3617    0.0000 C   0  0
    1.0433    5.3407    0.0000 C   0  0  1  0  0  0
   -0.7187   -4.9591    0.0000 C   0  0  1  0  0  0
   -0.5481    0.1902    0.0000 C   0  0  1  0  0  0
    0.3854   -6.1853    0.0000 C   0  0  1  0  0  0
    2.4723    4.5157    0.0000 C   0  0  2  0  0  0
    1.7578    5.7532    0.0000 C   0  0  2  0  0  0
    0.0883   -4.7876    0.0000 C   0  0  2  0  0  0
   -1.1001    0.8032    0.0000 C   0  0  2  0  0  0
    2.4723    5.3407    0.0000 C   0  0  2  0  0  0
    0.6403   -5.4007    0.0000 C   0  0  1  0  0  0
    0.3288    3.2782    0.0000 C   0  0  1  0  0  0
   -0.5059   -1.9922    0.0000 C   0  0  1  0  0  0
    1.0433    2.8657    0.0000 C   0  0  1  0  0  0
   -1.3129   -2.1637    0.0000 C   0  0  1  0  0  0
   -1.9071    0.6317    0.0000 C   0  0  1  0  0  0
    1.0433    2.0407    0.0000 C   0  0  2  0  0  0
   -1.5678   -2.9483    0.0000 C   0  0  1  0  0  0
   -0.3856    2.8657    0.0000 C   0  0  2  0  0  0
    0.0461   -2.6053    0.0000 C   0  0  2  0  0  0
   -2.1620   -0.1529    0.0000 C   0  0  2  0  0  0
    1.7578    1.6282    0.0000 C   0  0
   -2.3748   -3.1199    0.0000 C   0  0
   -0.4216   -6.3569    0.0000 C   0  0  1  0  0  0
    1.7578    4.1032    0.0000 C   0  0  2  0  0  0
   -0.3856    2.0407    0.0000 C   0  0  2  0  0  0
   -1.6100   -0.7660    0.0000 C   0  0  1  0  0  0
   -0.2088   -3.3899    0.0000 C   0  0  2  0  0  0
    0.9374   -6.7984    0.0000 N   0  0
    3.1867    4.1032    0.0000 N   0  0
    2.4723    2.0407    0.0000 O   0  0
    1.7578    0.8032    0.0000 O   0  5
   -2.9268   -2.5068    0.0000 O   0  0
   -2.6297   -3.9045    0.0000 O   0  5
   -0.1022   -7.3281    0.0000 O   0  5
    0.4275   -8.3677    0.0000 O   0  0
    1.4671   -7.8380    0.0000 O   0  0
    3.4887    5.2302    0.0000 O   0  5
    4.3137    3.8013    0.0000 O   0  0
    4.6157    4.9282    0.0000 O   0  0
   -1.8146    6.1657    0.0000 O   0  5
   -1.5126    5.0388    0.0000 O   0  0
   -0.6876    6.4677    0.0000 O   0  0
   -2.5876   -6.0868    0.0000 O   0  5
   -1.5480   -5.5571    0.0000 O   0  0
   -3.1173   -5.0473    0.0000 O   0  0
   -1.4195    1.7745    0.0000 O   0  5
   -2.9888    2.2844    0.0000 O   0  0
   -1.9492    2.8141    0.0000 O   0  0
    2.0182   -2.4948    0.0000 O   0  5
    1.9572   -3.6599    0.0000 O   0  0
    0.7920   -3.5989    0.0000 O   0  0
   -2.9079    0.8407    0.0000 O   0  5
   -4.1341   -0.2634    0.0000 O   0  0
   -4.0730    0.9018    0.0000 O   0  0
    1.7578    6.5782    0.0000 O   0  0
    3.1867    5.7532    0.0000 O   0  0
    1.4473   -5.2292    0.0000 O   0  0
    0.3288    4.1032    0.0000 O   0  0
   -0.2510   -1.2076    0.0000 O   0  0
   -1.1001    3.2782    0.0000 O   0  0
   -0.6765   -7.1415    0.0000 O   0  0
   -0.3856    5.3407    0.0000 O   0  0
   -2.0777   -4.5176    0.0000 O   0  0
   -0.9736   -5.7438    0.0000 O   0  0
    1.0433    4.5157    0.0000 O   0  0
   -0.8030   -0.5945    0.0000 O   0  0
    0.3432   -4.0030    0.0000 O   0  0
   -1.1001    1.6282    0.0000 O   0  0
    1.7578    3.2782    0.0000 O   0  0
   -1.8649   -1.5506    0.0000 O   0  0
    0.3288    1.6282    0.0000 O   0  0
   -1.0158   -3.5614    0.0000 O   0  0
   -2.4591    1.2448    0.0000 O   0  0
    0.8531   -2.4338    0.0000 O   0  0
   -2.9690   -0.3244    0.0000 O   0  0
    0.6825   -7.5830    0.0000 S   0  0
    3.9012    4.5157    0.0000 S   0  0
   -1.1001    5.7532    0.0000 S   0  0
   -2.3326   -5.3022    0.0000 S   0  0
   -2.2042    2.0294    0.0000 S   0  0
    1.4051   -3.0468    0.0000 S   0  0
   -3.5210    0.2887    0.0000 S   0  0
    6.8550    0.0000    0.0000 Na  0  3
    7.8567    0.0000    0.0000 Na  0  3
    8.8585    0.0000    0.0000 Na  0  3
    0.0000  -10.0177    0.0000 Na  0  3
    1.0018  -10.0177    0.0000 Na  0  3
    2.0036  -10.0177    0.0000 Na  0  3
    3.0054  -10.0177    0.0000 Na  0  3
    0.0000  -11.6677    0.0000 Na  0  3
    1.0018  -11.6677    0.0000 Na  0  3
    2.0036  -11.6677    0.0000 Na  0  3
    0.8423   -0.2217    0.0000 O   0  0
    1.6673   -0.2217    0.0000 S   0  0
    2.2506    0.3617    0.0000 O   0  5
    1.4537   -1.0186    0.0000 O   0  0
    2.3817   -0.6342    0.0000 O   0  0
 11  8  1  1
 12  9  1  1
 13 10  1  6
 16 11  1  0
 17 12  1  0
 18 13  1  0
 19 15  1  0
 19 16  1  0
 20 14  1  0
 20 17  1  0
 23 21  1  0
 24 22  1  0
 25 18  1  0
 26 23  1  0
 27 24  1  0
 28 21  1  0
 29 22  1  0
 30 25  1  0
 27 32  1  6
 33 14  1  0
 34 15  1  0
 35 28  1  0
 36 30  1  0
 37 29  1  0
 14 38  1  6
 15 39  1  1
 40 31  2  0
 41 31  1  0
 42 32  2  0
 43 32  1  0
 65  1  1  0
 16 65  1  1
 66  2  1  0
 19 66  1  6
 67  3  1  0
 20 67  1  1
 68  4  1  0
 21 68  1  1
 69  5  1  0
 22 69  1  6
 70  6  1  0
 28 70  1  6
 71  7  1  0
 33 71  1  1
 72  8  1  0
 73  9  1  0
 74 12  1  0
 74 33  1  0
 75 11  1  0
 75 34  1  0
 76 13  1  0
 76 36  1  0
 17 77  1  1
 37 77  1  6
 18 78  1  6
 35 78  1  1
 23 79  1  6
 34 79  1  1
 24 80  1  1
 36 80  1  1
 81 26  1  0
 81 35  1  0
 82 27  1  0
 82 37  1  0
 25 83  1  1
 29 84  1  1
 30 85  1  6
 86 38  1  0
 86 44  1  0
 86 45  2  0
 86 46  2  0
 87 39  1  0
 87 47  1  0
 87 48  2  0
 87 49  2  0
 88 50  1  0
 88 51  2  0
 88 52  2  0
 88 72  1  0
 89 53  1  0
 89 54  2  0
 89 55  2  0
 89 73  1  0
 90 56  1  0
 90 57  2  0
 90 58  2  0
 90 83  1  0
 91 59  1  0
 91 60  2  0
 91 61  2  0
 91 84  1  0
 92 62  1  0
 92 63  2  0
 92 64  2  0
 92 85  1  0
 26 31  1  6
 10103  1  0
103104  1  0
104105  1  0
104106  2  0
104107  2  0
M  CHG  8  41  -1  43  -1  44  -1  47  -1  50  -1  53  -1  56  -1  59  -1
M  CHG  8  62  -1  93   1  94   1  95   1  96   1  97   1  98   1  99   1
M  CHG  4 100   1 101   1 102   1 105  -1
M  END