
  SciTegic05171617282D

 44 49  0  0  0  0            999 V2000
   22.6870   -1.3018    0.0000 C   0  0
   21.6744   -1.9456    0.0000 N   0  0
   21.7260   -3.1445    0.0000 C   0  0
   20.3433   -1.2523    0.0000 C   0  0
   19.0763   -2.0553    0.0000 C   0  0
   17.7474   -1.3596    0.0000 C   0  0
   17.6854    0.1392    0.0000 C   0  0
   16.3572    0.8380    0.0000 O   0  0
   16.2973    2.3375    0.0000 C   0  0
   17.5660    3.1378    0.0000 C   0  0
   17.5073    4.6366    0.0000 C   0  0
   18.5223    5.2768    0.0000 O   0  0
   16.1799    5.3353    0.0000 C   0  0
   14.9112    4.5350    0.0000 C   0  0
   13.8491    5.0936    0.0000 O   0  0
   14.9706    3.0412    0.0000 C   0  0
   13.7651    2.1473    0.0000 C   0  0
   12.3341    2.5969    0.0000 C   0  0
   11.4861    1.3751    0.0000 C   0  0
   12.3577    0.1700    0.0000 N   0  0
   13.7797    0.6473    0.0000 O   0  0
    9.9854    1.3574    0.0000 C   0  0
    9.3735    2.3897    0.0000 O   0  0
    9.2495    0.0494    0.0000 N   0  0
    7.7487    0.0317    0.0000 C   0  0
    7.0114   -1.2745    0.0000 C   0  0
    5.5115   -1.2891    0.0000 C   0  0
    4.7491    0.0022    0.0000 N   0  0
    5.4862    1.3088    0.0000 C   0  0
    6.9862    1.3234    0.0000 C   0  0
    3.2484    0.0000    0.0000 C   0  0
    2.4741    1.3082    0.0000 C   0  0
    0.9790    1.3082    0.0000 C   0  0
    0.2670    0.0000    0.0000 C   0  0
    0.9790   -1.3171    0.0000 C   0  0
    2.4741   -1.3171    0.0000 C   0  0
   -0.3649    1.3438    0.0000 O   0  0
   -1.8333    1.6820    0.0000 C   0  0
   -3.0081    0.7476    0.0000 C   0  0
   -3.0081   -0.7476    0.0000 C   0  0
   -1.8333   -1.6820    0.0000 C   0  0
   -0.3649   -1.3349    0.0000 O   0  0
   18.9524    0.9422    0.0000 C   0  0
   20.2813    0.2465    0.0000 C   0  0
  1  2  1  0
  2  3  1  0
  2  4  1  0
  4  5  2  0
  5  6  1  0
  6  7  2  0
  7  8  1  0
  8  9  1  0
  9 10  2  0
 10 11  1  0
 11 12  1  0
 11 13  2  0
 13 14  1  0
 14 15  1  0
 14 16  2  0
  9 16  1  0
 16 17  1  0
 17 18  2  0
 18 19  1  0
 19 20  2  0
 20 21  1  0
 17 21  1  0
 19 22  1  0
 22 23  2  0
 22 24  1  0
 24 25  1  0
 25 26  1  0
 26 27  1  0
 27 28  1  0
 28 29  1  0
 29 30  1  0
 25 30  1  0
 28 31  1  0
 31 32  1  0
 32 33  1  0
 33 34  1  0
 34 35  1  0
 35 36  1  0
 31 36  1  0
 34 37  1  0
 37 38  1  0
 38 39  1  0
 39 40  1  0
 40 41  1  0
 41 42  1  0
 34 42  1  0
  7 43  1  0
 43 44  2  0
  4 44  1  0
M  END