
  SciTegic04091415032D

 36 39  0  0  0  0            999 V2000
   12.8343   -3.5865    0.0000 C   0  0
   12.8331   -4.4061    0.0000 C   0  0
   13.5412   -4.8150    0.0000 C   0  0
   13.5394   -3.1777    0.0000 C   0  0
   14.2480   -3.5829    0.0000 C   0  0
   14.2488   -4.4019    0.0000 C   0  0
   14.9573   -4.8090    0.0000 N   0  0
   15.6656   -4.3982    0.0000 C   0  0
   15.6608   -3.5761    0.0000 C   0  0
   14.9517   -3.1727    0.0000 C   0  0
   12.1305   -3.1739    0.0000 C   0  0
   14.9474   -2.3555    0.0000 C   0  0
   15.6529   -1.9432    0.0000 O   0  0
   14.2375   -1.9507    0.0000 O   0  0
   16.3748   -4.8040    0.0000 C   0  0
   16.3780   -5.6212    0.0000 N   0  0
   17.0810   -4.3927    0.0000 O   0  0
   17.0873   -6.0271    0.0000 C   0  0  2  0  0  0
   17.0905   -6.8442    0.0000 C   0  0
   17.7934   -5.6157    0.0000 C   0  0
   18.5027   -6.0215    0.0000 C   0  0
   17.7998   -7.2501    0.0000 O   0  0
   16.3844   -7.2556    0.0000 O   0  0
   17.8030   -8.0673    0.0000 C   0  0
   18.5028   -6.8358    0.0000 C   0  0
   19.2112   -7.2415    0.0000 C   0  0
   19.9183   -6.8301    0.0000 C   0  0
   19.9125   -6.0087    0.0000 C   0  0
   19.2035   -5.6067    0.0000 C   0  0
   20.6282   -7.2350    0.0000 O   0  0
   12.1392   -2.3570    0.0000 C   0  0
   11.4363   -1.9445    0.0000 C   0  0
   10.7260   -2.3477    0.0000 C   0  0
   10.7232   -3.1678    0.0000 C   0  0
   11.4267   -3.5766    0.0000 C   0  0
   10.0127   -3.5700    0.0000 Cl  0  0
  1  2  2  0
  2  3  1  0
  3  6  2  0
  5  4  2  0
  4  1  1  0
  5  6  1  0
  6  7  1  0
  7  8  2  0
  8  9  1  0
  9 10  2  0
 10  5  1  0
  1 11  1  0
 10 12  1  0
 12 13  2  0
 12 14  1  0
  8 15  1  0
 15 16  1  0
 15 17  2  0
 16 18  1  0
 18 19  1  1
 18 20  1  0
 20 21  1  0
 19 22  1  0
 19 23  2  0
 22 24  1  0
 21 25  2  0
 25 26  1  0
 26 27  2  0
 27 28  1  0
 28 29  2  0
 29 21  1  0
 27 30  1  0
 11 31  2  0
 31 32  1  0
 32 33  2  0
 33 34  1  0
 34 35  2  0
 35 11  1  0
 34 36  1  0
M  END