
  SciTegic12011114592D

 35 39  0  0  0  0            999 V2000
   -4.4254   -5.7747    0.0000 N   0  0
   -3.7102   -5.3649    0.0000 C   0  0
   -3.7074   -4.5391    0.0000 N   0  0
   -4.4256   -4.1246    0.0000 C   0  0
   -4.4261   -3.2996    0.0000 N   0  0
   -3.7115   -2.8866    0.0000 C   0  0
   -2.9972   -5.7799    0.0000 S   0  0
   -2.2813   -5.3698    0.0000 C   0  0
   -1.5724   -5.7879    0.0000 C   0  0
   -0.8571   -5.3785    0.0000 C   0  0
   -0.8538   -4.5526    0.0000 C   0  0
   -1.5719   -4.1378    0.0000 C   0  0
   -2.2843   -4.5496    0.0000 C   0  0
   -0.1385   -4.1416    0.0000 N   0  0
   -2.9258   -3.1347    0.0000 C   0  0
   -2.4467   -2.4631    0.0000 C   0  0
   -2.9375   -1.7999    0.0000 N   0  0
   -3.7198   -2.0616    0.0000 N   0  0
   -1.6218   -2.4559    0.0000 C   0  0
   -5.9122   -4.2855    0.0000 C   0  0
   -6.3984   -4.9466    0.0000 C   0  0
   -5.9131   -5.6084    0.0000 C   0  0
   -5.1353   -5.3563    0.0000 N   0  0
   -5.1347   -4.5386    0.0000 C   0  0
    0.5751   -4.5556    0.0000 C   0  0
    1.2905   -4.1446    0.0000 C   0  0
    2.0040   -4.5590    0.0000 N   0  0
    0.5734   -5.3806    0.0000 O   0  0
    1.9954   -5.3795    0.0000 C   0  0
    2.7772   -5.6429    0.0000 C   0  0  1  0  0  0
    3.2694   -4.9807    0.0000 C   0  0
    2.7916   -4.3081    0.0000 C   0  0  1  0  0  0
    3.0530   -3.5256    0.0000 C   0  0
    3.8614   -3.3608    0.0000 O   0  0
    3.0236   -6.4302    0.0000 N   0  0
  7  8  1  0
  6 15  1  0
 16 17  1  0
 18  6  2  0
  3  4  2  0
 16 19  1  0
 23 24  1  0
  8  9  2  0
  4 24  1  0
 21 22  2  0
  9 10  1  0
  1  2  2  0
 10 11  2  0
 20 21  1  0
 22 23  1  0
 24 20  2  0
  4  5  1  0
 14 25  1  0
 11 12  1  0
 25 26  1  0
 23  1  1  0
 26 27  1  0
 12 13  2  0
 25 28  2  0
 27 29  1  0
 13  8  1  0
  5  6  1  0
 11 14  1  0
 17 18  1  0
 29 30  1  0
 30 31  1  0
 31 32  1  0
 32 27  1  0
  2  3  1  0
 32 33  1  6
 15 16  2  0
 33 34  1  0
  2  7  1  0
 30 35  1  1
M  END