
  SciTegic12231509382D

 39 43  0  0  0  0            999 V2000
    7.8792   -4.2333    0.0000 N   0  0
    6.4625   -6.7250    0.0000 C   0  0
    1.4667   -5.5083    0.0000 C   0  0
    9.1792   -3.9417    0.0000 N   0  0
    0.7542   -5.9208    0.0000 N   0  0
    8.6333   -4.5583    0.0000 C   0  0
    7.1667   -4.6500    0.0000 C   0  0
    4.3167   -4.6667    0.0000 C   0  0
    6.4583   -5.9000    0.0000 C   0  0
    7.9583   -3.4042    0.0000 C   0  0
    2.1750   -4.2625    0.0000 C   0  0
    1.4625   -4.6792    0.0000 N   0  0
    5.0292   -4.2542    0.0000 N   0  0
    5.7458   -4.6625    0.0000 C   0  0
    3.6000   -4.2583    0.0000 C   0  0
    0.7542   -6.7458    0.0000 C   0  0
    8.7625   -3.2292    0.0000 C   0  0
    6.4500   -4.2458    0.0000 C   0  0
    7.1750   -5.4833    0.0000 C   0  0
    2.8875   -4.6750    0.0000 C   0  0
    2.1833   -5.9125    0.0000 N   0  0
    5.7458   -5.4875    0.0000 C   0  0
    0.0417   -7.1583    0.0000 C   0  0
    2.1667   -3.4417    0.0000 C   0  0
    4.3208   -5.4958    0.0000 O   0  0
   -1.3875   -7.1542    0.0000 N   0  0
    3.5958   -3.4333    0.0000 C   0  0
    7.2875   -6.7292    0.0000 F   0  0
    5.6375   -6.7250    0.0000 F   0  0
    6.4542   -7.5458    0.0000 F   0  0
    2.8750   -3.0250    0.0000 C   0  0
    1.4667   -7.1583    0.0000 C   0  0
    2.1875   -6.7458    0.0000 C   0  0
   -0.6708   -6.7417    0.0000 C   0  0
    9.0917   -2.4708    0.0000 C   0  0
    0.0417   -7.9792    0.0000 C   0  0
   -1.3875   -7.9792    0.0000 C   0  0
    1.4500   -3.0333    0.0000 C   0  0
   -0.6708   -8.3917    0.0000 C   0  0
  2  9  1  0
  3 12  1  0
  4  6  2  0
  5  3  1  0
  6  1  1  0
  7  1  1  0
  8 13  1  0
  9 19  2  0
 10  1  1  0
 11 20  2  0
 12 11  1  0
 13 14  1  0
 14 18  1  0
 15  8  1  0
 16  5  2  0
 17 10  2  0
 18  7  2  0
 19  7  1  0
 20 15  1  0
 21  3  2  0
 22  9  1  0
 23 16  1  0
 24 31  2  0
 25  8  2  0
 26 34  1  0
 27 15  2  0
 28  2  1  0
 29  2  1  0
 30  2  1  0
 31 27  1  0
 32 33  2  0
 33 21  1  0
 34 23  2  0
 35 17  1  0
 36 23  1  0
 37 39  1  0
 38 24  1  0
 39 36  2  0
  4 17  1  0
 14 22  2  0
 24 11  1  0
 16 32  1  0
 26 37  2  0
M  END