
          11280715462D 1   1.00000     0.00000     0

 29 30  0     1  0            999 V2000
    6.1417   -3.5625    0.0000 C   0  0  0  0  0  0           0  0  0
    6.8542   -3.1500    0.0000 N   0  0  3  0  0  0           0  0  0
    5.4292   -3.1500    0.0000 C   0  0  2  0  0  0           0  0  0
    6.1375   -1.0750    0.0000 P   0  0  3  0  0  0           0  0  0
    7.5750   -3.5625    0.0000 C   0  0  2  0  0  0           0  0  0
    5.4292   -2.3167    0.0000 C   0  0  2  0  0  0           0  0  0
    4.7167   -3.5625    0.0000 N   0  0  0  0  0  0           0  0  0
    7.6542   -4.3792    0.0000 C   0  0  0  0  0  0           0  0  0
    6.1417   -1.9042    0.0000 O   0  0  0  0  0  0           0  0  0
    4.7042   -4.3917    0.0000 C   0  0  0  0  0  0           0  0  0
    6.1417   -4.3917    0.0000 O   0  0  0  0  0  0           0  0  0
    6.9667   -1.0750    0.0000 O   0  0  0  0  0  0           0  0  0
    6.9875   -4.8667    0.0000 O   0  0  0  0  0  0           0  0  0
    5.4167   -4.8125    0.0000 O   0  0  0  0  0  0           0  0  0
    5.3167   -1.0792    0.0000 O   0  0  0  0  0  0           0  0  0
    6.1417   -0.2542    0.0000 O   0  0  0  0  0  0           0  0  0
    8.4167   -4.7292    0.0000 N   0  0  0  0  0  0           0  0  0
    7.0292   -2.3417    0.0000 C   0  0  0  0  0  0           0  0  0
    3.9917   -4.8000    0.0000 C   0  0  0  0  0  0           0  0  0
    3.2792   -4.3792    0.0000 C   0  0  0  0  0  0           0  0  0
    8.1917   -3.0042    0.0000 C   0  0  0  0  0  0           0  0  0
    2.5625   -4.7917    0.0000 C   0  0  0  0  0  0           0  0  0
    4.7125   -1.9042    0.0000 C   0  0  0  0  0  0           0  0  0
    7.8500   -2.2542    0.0000 C   0  0  0  0  0  0           0  0  0
    1.8500   -4.3667    0.0000 C   0  0  0  0  0  0           0  0  0
    2.5542   -5.6125    0.0000 C   0  0  0  0  0  0           0  0  0
    1.1292   -4.7750    0.0000 C   0  0  0  0  0  0           0  0  0
    1.8375   -6.0167    0.0000 C   0  0  0  0  0  0           0  0  0
    1.1250   -5.6000    0.0000 C   0  0  0  0  0  0           0  0  0
  2  1  1  0     0  0
  3  1  1  1     0  0
  4  9  1  0     0  0
  5  2  1  0     0  0
  6  3  1  0     0  0
  7  3  1  0     0  0
  5  8  1  1     0  0
  6  9  1  1     0  0
 10  7  1  0     0  0
 11  1  2  0     0  0
 12  4  2  0     0  0
 13  8  2  0     0  0
 14 10  2  0     0  0
 15  4  1  0     0  0
 16  4  1  0     0  0
 17  8  1  0     0  0
 18  2  1  0     0  0
 19 10  1  0     0  0
 20 19  1  0     0  0
 21  5  1  0     0  0
 22 20  1  0     0  0
 23  6  1  0     0  0
 24 18  1  0     0  0
 25 22  2  0     0  0
 26 22  1  0     0  0
 27 25  1  0     0  0
 28 26  2  0     0  0
 29 28  1  0     0  0
 24 21  1  0     0  0
 29 27  2  0     0  0
M  END