
  SciTegic05071317012D

 32 38  0  0  0  0            999 V2000
   10.5838  -21.7979    0.0000 O   0  0
   12.2897  -20.2440    0.0000 C   0  0
   13.3052  -21.1202    0.0000 C   0  0
    7.1637  -22.4443    0.0000 O   0  0
   11.0073  -21.1200    0.0000 C   0  0
    9.0541  -22.2258    0.0000 O   0  0
    7.5606  -20.4513    0.0000 C   0  0
    9.8479  -21.7710    0.0000 C   0  0  1  0  0  0
    8.7063  -19.7912    0.0000 C   0  0
    9.8568  -20.4513    0.0000 C   0  0  2  0  0  0
   11.1723  -19.5106    0.0000 C   0  0
    8.3320  -20.4513    0.0000 C   0  0
   14.5751  -20.6737    0.0000 N   0  0
    9.0767  -19.5061    0.0000 C   0  0
   11.3595  -21.8007    0.0000 C   0  0
   13.5527  -19.7963    0.0000 C   0  0
    8.3320  -21.7710    0.0000 C   0  0
    7.1725  -21.1156    0.0000 C   0  0
   10.6236  -20.4513    0.0000 C   0  0
   11.5246  -20.0991    0.0000 C   0  0  1  0  0  0
    9.4510  -19.7912    0.0000 C   0  0  2  0  0  0
   10.2002  -21.1289    0.0000 C   0  0  1  0  0  0
    7.5606  -21.7710    0.0000 C   0  0
    6.3880  -22.4423    0.0000 C   0  0
    9.8524  -18.3420    0.0000 C   0  0
   12.5410  -20.9752    0.0000 C   0  0
    9.4691  -19.0199    0.0000 N   0  0
   12.7892  -19.6552    0.0000 C   0  0
    8.7063  -21.1156    0.0000 C   0  0
   13.8098  -20.5301    0.0000 C   0  0
    9.0767  -20.4469    0.0000 C   0  0
    9.4691  -21.1156    0.0000 C   0  0  1  0  0  0
 11 20  1  0
 21 10  1  0
 10 19  1  6
  2 26  2  0
 27 14  1  0
 16 28  2  0
 22 20  1  0
 18  7  1  0
 30 16  1  0
 20  2  1  6
  4 24  1  0
  7 12  2  0
 18 23  2  0
 29 32  1  0
 10 11  1  0
  8  6  1  6
 12  9  1  0
 17  6  1  0
  3 30  2  0
 17 29  2  0
  1 15  1  0
  4 23  1  0
 28  2  1  0
 12 29  1  0
 19  5  2  0
 25 27  1  0
 23 17  1  0
 32 31  1  1
 30 13  1  0
 22  8  1  0
 10 32  1  0
  8 32  1  0
 14 31  1  0
 21 27  1  0
 21  9  1  1
  5 22  1  0
 22  1  1  1
 26  3  1  0
M  END