
  SciTegic02011310402D

 26 29  0  0  0  0            999 V2000
   17.9098   -9.4284    0.0000 C   0  0
   17.9086  -10.2557    0.0000 C   0  0
   18.6233  -10.6686    0.0000 N   0  0
   18.6215   -9.0157    0.0000 C   0  0
   19.3369   -9.4248    0.0000 C   0  0
   19.3357  -10.2578    0.0000 C   0  0
   20.0525  -10.6730    0.0000 C   0  0
   20.7751  -10.2598    0.0000 N   0  0
   20.7763   -9.4269    0.0000 N   0  0
   20.0549   -9.0070    0.0000 C   0  0
   20.0502  -11.4979    0.0000 C   0  0
   19.3346  -11.9084    0.0000 C   0  0
   18.6240  -11.4891    0.0000 C   0  0
   17.9090  -11.8989    0.0000 C   0  0
   17.9062  -12.7247    0.0000 C   0  0
   18.6244  -13.1391    0.0000 C   0  0
   19.3366  -12.7269    0.0000 C   0  0
   17.1911  -13.1361    0.0000 Cl  0  0
   20.0549   -8.1821    0.0000 O   0  0
   21.4917   -9.0161    0.0000 C   0  0
   22.2051   -9.4304    0.0000 C   0  0  1  0  0  0
   22.2180  -10.2524    0.0000 C   0  0
   23.0073  -10.4925    0.0000 C   0  0
   23.4794   -9.8160    0.0000 C   0  0
   22.9820   -9.1580    0.0000 N   0  0
   23.2203   -8.3683    0.0000 C   0  0
  2  3  1  0
 12 13  2  0
  3  6  2  0
 13 14  1  0
  1  2  2  0
 14 15  2  0
  5  4  2  0
 15 16  1  0
  4  1  1  0
 16 17  2  0
 17 12  1  0
  5 10  1  0
 15 18  1  0
  6  7  1  0
 10 19  2  0
  7  8  2  0
  9 20  1  0
  8  9  1  0
 21 20  1  6
 21 22  1  0
  9 10  1  0
  5  6  1  0
  7 11  1  0
 22 23  1  0
 23 24  1  0
 24 25  1  0
 25 21  1  0
 11 12  1  0
 25 26  1  0
M  END