
  Mrv0541 04051115152D          

 28 30  0  0  0  0            999 V2000
    0.6463    1.0282    0.0000 C   0  0  0  0  0  0  0  0  0  0  0  0
    0.3492   -0.3695    0.0000 N   0  0  0  0  0  0  0  0  0  0  0  0
    1.4532    0.8567    0.0000 O   0  0  0  0  0  0  0  0  0  0  0  0
    0.0942    0.4151    0.0000 C   0  0  0  0  0  0  0  0  0  0  0  0
    3.9917   -1.4494    0.0000 C   0  0  0  0  0  0  0  0  0  0  0  0
   -3.8186    2.0420    0.0000 C   0  0  0  0  0  0  0  0  0  0  0  0
   -1.3732   -1.7514    0.0000 O   0  0  0  0  0  0  0  0  0  0  0  0
   -0.5482    1.1065    0.0000 O   0  0  0  0  0  0  0  0  0  0  0  0
   -0.2463   -0.0205    0.0000 O   0  0  0  0  0  0  0  0  0  0  0  0
   -2.3897    2.0420    0.0000 C   0  0  0  0  0  0  0  0  0  0  0  0
   -1.6752    1.6295    0.0000 C   0  0  0  0  0  0  0  0  0  0  0  0
    2.5627   -0.6244    0.0000 C   0  0  0  0  0  0  0  0  0  0  0  0
    1.8483   -0.2119    0.0000 C   0  0  0  0  0  0  0  0  0  0  0  0
   -3.1042    0.8045    0.0000 C   0  0  0  0  0  0  0  0  0  0  0  0
    1.8483   -1.8619    0.0000 C   0  0  0  0  0  0  0  0  0  0  0  0
    0.3492   -1.7044    0.0000 C   0  0  0  0  0  0  0  0  0  0  0  0
   -2.3897    0.3920    0.0000 N   0  0  0  0  0  0  0  0  0  0  0  0
   -1.3732   -0.3224    0.0000 N   0  0  0  0  0  0  0  0  0  0  0  0
    3.2772   -1.8619    0.0000 O   0  0  0  0  0  0  0  0  0  0  0  0
   -0.9607   -1.0369    0.0000 C   0  0  0  0  0  0  0  0  0  0  0  0
   -3.1042    1.6295    0.0000 C   0  0  0  0  0  0  0  0  0  0  0  0
    2.5627   -1.4494    0.0000 C   0  0  0  0  0  0  0  0  0  0  0  0
   -1.6752    0.8045    0.0000 C   0  0  0  0  0  0  0  0  0  0  0  0
   -0.1357   -1.0369    0.0000 C   0  0  0  0  0  0  0  0  0  0  0  0
    1.1338   -1.4494    0.0000 C   0  0  0  0  0  0  0  0  0  0  0  0
    1.1338   -0.6244    0.0000 C   0  0  0  0  0  0  0  0  0  0  0  0
   -0.9607    0.3920    0.0000 S   0  0  0  0  0  0  0  0  0  0  0  0
    0.3913    1.8129    0.0000 O   0  0  0  0  0  0  0  0  0  0  0  0
  1  4  1  0  0  0  0
  1 28  2  0  0  0  0
  1  3  1  0  0  0  0
 26  2  1  0  0  0  0
  4  2  1  0  0  0  0
 24  2  1  0  0  0  0
  5 19  1  0  0  0  0
  6 21  1  0  0  0  0
 20  7  2  0  0  0  0
  8 27  2  0  0  0  0
  9 27  2  0  0  0  0
 10 11  2  0  0  0  0
 10 21  1  0  0  0  0
 11 23  1  0  0  0  0
 12 22  2  0  0  0  0
 12 13  1  0  0  0  0
 13 26  2  0  0  0  0
 14 17  1  0  0  0  0
 14 21  2  0  0  0  0
 15 22  1  0  0  0  0
 15 25  2  0  0  0  0
 16 25  1  0  0  0  0
 16 24  2  0  0  0  0
 23 17  2  0  0  0  0
 20 18  1  0  0  0  0
 18 27  1  0  0  0  0
 22 19  1  0  0  0  0
 20 24  1  0  0  0  0
 23 27  1  0  0  0  0
 25 26  1  0  0  0  0
M  END