
  SciTegic12231509382D

 36 43  0  0  0  0            999 V2000
    5.1493   -6.8574    0.0000 C   0  0  1  0  0  0
    4.8327   -6.1700    0.0000 N   0  0
    6.8991   -6.2575    0.0000 N   0  0
    5.4451   -5.5701    0.0000 C   0  0
    6.3409   -5.6118    0.0000 C   0  0
    5.8409   -6.3784    0.0000 O   0  0
    6.5658   -6.7949    0.0000 C   0  0  2  0  0  0
    6.7574   -4.9826    0.0000 C   0  0
    5.1160   -4.9493    0.0000 C   0  0
    6.3825   -4.3036    0.0000 C   0  0
    5.5785   -4.2661    0.0000 C   0  0
    4.1702   -5.8659    0.0000 C   0  0
    7.6407   -5.9992    0.0000 C   0  0
    5.1243   -7.7865    0.0000 C   0  0  1  0  0  0
    7.5823   -5.1951    0.0000 C   0  0
    4.3244   -5.0826    0.0000 C   0  0
    6.5533   -7.7573    0.0000 C   0  0
    6.6658   -3.5787    0.0000 C   0  0
    6.0450   -3.0371    0.0000 N   0  0
    5.8409   -8.2406    0.0000 C   0  0  1  0  0  0
    5.3660   -3.5120    0.0000 C   0  0
    7.4823   -3.3621    0.0000 O   0  0
    4.3411   -7.0283    0.0000 C   0  0
    5.8534   -9.0655    0.0000 N   0  0
    4.3952   -8.1697    0.0000 O   0  0
    3.3954   -6.1784    0.0000 C   0  0
    8.3864   -6.3659    0.0000 C   0  0
    8.2531   -4.7369    0.0000 C   0  0
    3.7078   -4.5369    0.0000 C   0  0
    6.5658   -9.4820    0.0000 C   0  0
    4.3786   -8.9946    0.0000 C   0  0
    2.9121   -4.8161    0.0000 C   0  0
    2.7621   -5.6326    0.0000 C   0  0
    9.0696   -5.9034    0.0000 C   0  0
    8.9946   -5.0785    0.0000 C   0  0
    7.3157   -7.1366    0.0000 H   0  0
  2  1  1  0
  3  7  1  0
  4  2  1  0
  5  4  2  0
  6  1  1  0
  7  6  1  0
  8  5  1  0
  9  4  1  0
 10 11  1  0
 11  9  2  0
 12  2  1  0
 13  3  1  0
 14  1  1  0
 15  8  1  0
 16 12  2  0
 17  7  1  0
 18 10  1  0
 19 21  1  0
 20 14  1  0
 21 11  1  0
 22 18  2  0
  1 23  1  6
 20 24  1  1
 14 25  1  1
 26 12  1  0
 27 13  1  0
 28 15  1  0
 29 16  1  0
 30 24  1  0
 31 25  1  0
 32 33  1  0
 33 26  2  0
 34 27  2  0
 35 28  2  0
  7 36  1  6
 17 20  1  0
 16  9  1  0
  3  5  1  0
 32 29  2  0
 10  8  2  0
 13 15  2  0
 19 18  1  0
 35 34  1  0
M  END