
          11280715182D 1   1.00000     0.00000     0

 17 18  0     0  0            999 V2000
    4.4167   -4.1917    0.0000 C   0  0  0  0  0  0           0  0  0
    3.9000   -4.5000    0.0000 C   0  0  0  0  0  0           0  0  0
    1.8167   -3.3000    0.0000 C   0  0  0  0  0  0           0  0  0
    4.9375   -4.4917    0.0000 C   0  0  0  0  0  0           0  0  0
    3.9000   -5.1000    0.0000 C   0  0  0  0  0  0           0  0  0
    2.3417   -3.6000    0.0000 C   0  0  0  0  0  0           0  0  0
    3.3792   -4.1917    0.0000 C   0  0  0  0  0  0           0  0  0
    1.8167   -2.7000    0.0000 O   0  0  0  0  0  0           0  0  0
    2.8625   -3.3000    0.0000 C   0  0  0  0  0  0           0  0  0
    2.3417   -4.1917    0.0000 C   0  0  0  0  0  0           0  0  0
    3.3792   -3.5917    0.0000 C   0  0  0  0  0  0           0  0  0
    2.8667   -4.5000    0.0000 C   0  0  0  0  0  0           0  0  0
    4.9375   -5.1000    0.0000 C   0  0  0  0  0  0           0  0  0
    4.4125   -3.5917    0.0000 Cl  0  0  0  0  0  0           0  0  0
    4.4167   -5.4000    0.0000 C   0  0  0  0  0  0           0  0  0
    1.3042   -3.6000    0.0000 O   0  0  0  0  0  0           0  0  0
    5.4542   -5.4000    0.0000 Cl  0  0  0  0  0  0           0  0  0
  2  1  1  0     0  0
  3  6  1  0     0  0
  4  1  2  0     0  0
  5  2  2  0     0  0
  6 10  1  0     0  0
  7  2  1  0     0  0
  8  3  2  0     0  0
  9 11  1  0     0  0
 10 12  2  0     0  0
 11  7  2  0     0  0
 12  7  1  0     0  0
 13  4  1  0     0  0
 14  1  1  0     0  0
 15 13  2  0     0  0
 16  3  1  0     0  0
 17 13  1  0     0  0
  5 15  1  0     0  0
  9  6  2  0     0  0
M  END