
  SciTegic09081514172D

 68 68  0  0  0  0            999 V2000
    4.9396   -1.4896    0.0000 O   0  0
    3.9207   -2.1236    0.0000 S   0  0
    2.8624   -1.5579    0.0000 O   0  5
    3.9693   -3.6236    0.0000 O   0  0
    3.8813   -0.9242    0.0000 O   0  0
    5.4612  -10.0414    0.0000 O   0  0
    5.4261   -8.8419    0.0000 S   0  0
    6.4476   -8.2121    0.0000 O   0  0
    4.0616   -6.6288    0.0000 C   0  0
    4.1054   -8.1289    0.0000 O   0  0
    6.4823   -9.4114    0.0000 O   0  5
    1.2999   -2.2084    0.0000 O   0  0
   -2.3383   -1.3500    0.0000 O   0  0
   -2.3383    1.3500    0.0000 O   0  0
    0.0000    2.5000    0.0000 O   0  0
    1.2990   -0.7500    0.0000 O   0  0
    0.0000   -1.5000    0.0000 C   0  0  2  0  0  0
   -1.2990   -0.7500    0.0000 C   0  0  1  0  0  0
   -1.2990    0.7500    0.0000 C   0  0  2  0  0  0
    0.0000    1.5000    0.0000 C   0  0  1  0  0  0
    1.2990    0.7500    0.0000 C   0  0  1  0  0  0
    2.5972    1.5031    0.0000 C   0  0
   -1.1305   -6.7879    0.0000 O   0  0
   -1.2253   -3.7882    0.0000 N   0  0
    1.4654   -6.7053    0.0000 O   0  0
    0.1440   -5.9954    0.0000 C   0  0  1  0  0  0
    0.0981   -4.4961    0.0000 C   0  0  1  0  0  0
    1.3745   -3.7074    0.0000 C   0  0  2  0  0  0
    2.6949   -4.4165    0.0000 C   0  0  2  0  0  0
    2.7409   -5.9158    0.0000 C   0  0  1  0  0  0
   -5.9902  -17.4575    0.0000 C   0  0
   -6.0361  -15.9581    0.0000 C   0  0
   -7.3576  -15.2484    0.0000 C   0  0
   -8.6331  -16.0378    0.0000 C   0  0
   -8.5871  -17.5371    0.0000 C   0  0
   -7.2657  -18.2469    0.0000 C   0  0
   -4.7616  -15.1656    0.0000 N   0  0
   -9.9567  -15.3303    0.0000 N   0  0
  -11.2317  -16.1221    0.0000 C   0  0
  -12.5553  -15.4146    0.0000 C   0  0
  -11.1928  -17.3214    0.0000 O   0  0
  -13.8303  -16.2063    0.0000 C   0  0
  -15.1539  -15.4988    0.0000 C   0  0
  -16.4289  -16.2906    0.0000 C   0  0
  -17.7525  -15.5831    0.0000 C   0  0
  -19.0842  -16.2452    0.0000 S   0  0
  -20.1216  -15.1618    0.0000 S   0  0
  -19.4118  -13.8404    0.0000 C   0  0
  -17.9357  -14.1071    0.0000 C   0  0
   -4.8097  -13.6656    0.0000 C   0  0
   -3.4150   -8.5144    0.0000 O   0  0
   -2.3569   -9.0805    0.0000 C   0  0  1  0  0  0
   -2.3088  -10.5805    0.0000 C   0  0  2  0  0  0
   -3.5833  -11.3730    0.0000 C   0  0  1  0  0  0
   -3.5352  -12.8731    0.0000 C   0  0  1  0  0  0
   -2.4771  -13.4391    0.0000 O   0  0
   -4.6414  -10.8070    0.0000 O   0  0
   -1.2507  -11.1466    0.0000 O   0  0
   -1.0824   -8.2880    0.0000 C   0  0
   -0.8780   -1.9786    0.0000 H   0  0
    3.4646    1.0054    0.0000 O   0  0
    2.5949    2.5031    0.0000 O   0  5
   -2.5006   -4.5795    0.0000 C   0  0
   -2.4685   -5.5790    0.0000 C   0  0
   -3.3823   -4.1078    0.0000 O   0  0
   17.9255    8.4286    0.0000 Na  0  3
   15.4255    8.4286    0.0000 Na  0  3
   12.9255    8.4286    0.0000 Na  0  3
  2  1  2  0
  3  2  1  0
  4  2  1  0
  2  5  2  0
  7  6  2  0
  8  7  2  0
  9 10  1  0
 10  7  1  0
  7 11  1  0
 21 16  1  0
 16 17  1  0
 17 18  1  0
 18 19  1  0
 19 20  1  0
 20 21  1  0
 21 22  1  1
 17 12  1  0
 18 13  1  6
 19 14  1  1
 20 15  1  6
 30 25  1  0
 25 26  1  0
 26 27  1  0
 27 28  1  0
 28 29  1  0
 29 30  1  0
 30  9  1  1
 26 23  1  6
 27 24  1  6
 28 12  1  1
 29  4  1  1
 31 32  2  0
 32 33  1  0
 33 34  2  0
 34 35  1  0
 35 36  2  0
 36 31  1  0
 32 37  1  0
 34 38  1  0
 38 39  1  0
 39 40  1  0
 39 41  2  0
 40 42  1  0
 42 43  1  0
 43 44  1  0
 44 45  1  0
 45 46  1  0
 46 47  1  0
 47 48  1  0
 48 49  1  0
 49 45  1  0
 37 50  1  0
 50 55  1  0
 52 51  1  6
 52 53  1  0
 53 54  1  0
 54 55  1  0
 55 56  1  1
 54 57  1  1
 53 58  1  1
 52 59  1  0
 59 23  1  0
 17 60  1  6
 22 61  2  0
 22 62  1  0
 24 63  1  0
 63 64  1  0
 63 65  2  0
M  CHG  6   3  -1  11  -1  62  -1  66   1  67   1  68   1
M  END