
  SciTegic10011413212D

 35 39  0  0  0  0            999 V2000
   19.6621   -2.4475    0.0000 C   0  0
   20.4793   -2.4475    0.0000 C   0  0
   20.7336   -1.6708    0.0000 C   0  0
   20.0707   -1.1886    0.0000 S   0  0
   19.4119   -1.6708    0.0000 C   0  0
   21.5112   -1.4193    0.0000 N   0  0
   20.9588   -3.1092    0.0000 C   0  0
   20.6256   -3.8553    0.0000 O   0  0
   21.7717   -3.0247    0.0000 N   0  0
   19.1809   -3.1080    0.0000 C   0  0
   18.7681   -4.3652    0.0000 N   0  0
   19.4297   -3.8856    0.0000 C   0  0
   18.1075   -3.8840    0.0000 C   0  0
   18.3622   -3.1086    0.0000 C   0  0
   17.8186   -2.5025    0.0000 C   0  0
   17.0202   -2.6704    0.0000 C   0  0
   16.7683   -3.4499    0.0000 C   0  0
   17.3136   -4.0528    0.0000 C   0  0
   18.6368   -1.4212    0.0000 C   0  0
   18.4676   -0.6206    0.0000 C   0  0
   17.6912   -0.3683    0.0000 C   0  0
   17.0832   -0.9156    0.0000 C   0  0
   17.2569   -1.7185    0.0000 C   0  0
   18.0332   -1.9670    0.0000 C   0  0
   15.9693   -3.6214    0.0000 Cl  0  0
   20.2062   -4.1404    0.0000 C   0  0
   20.3738   -4.9402    0.0000 O   0  0
   20.1987   -3.3224    0.0000 O   0  0
   21.1503   -5.1949    0.0000 C   0  0
   21.3179   -5.9947    0.0000 C   0  0
   22.2474   -3.6855    0.0000 C   0  0
   23.0569   -3.6033    0.0000 C   0  0
   23.3942   -2.8586    0.0000 C   0  0
   22.9156   -2.1950    0.0000 C   0  0
   22.0998   -2.2761    0.0000 C   0  0
  1  2  1  0
  2  3  2  0
  3  4  1  0
  4  5  1  0
  5  1  2  0
  3  6  1  0
  2  7  1  0
  7  8  2  0
  7  9  1  0
  1 10  1  0
 10 14  1  0
 13 11  1  0
 11 12  1  0
 12 10  2  0
 13 14  2  0
 14 15  1  0
 15 16  2  0
 16 17  1  0
 17 18  2  0
 18 13  1  0
 19 20  2  0
 20 21  1  0
 21 22  2  0
 22 23  1  0
 23 24  2  0
 24 19  1  0
  5 19  1  0
 17 25  1  0
 12 26  1  0
 26 27  1  0
 26 28  2  0
 27 29  1  0
 29 30  1  0
  9 31  1  0
  9 35  1  0
 31 32  1  0
 32 33  1  0
 33 34  1  0
 34 35  1  0
M  END