
  SciTegic01161211242D

 27 30  0  0  0  0            999 V2000
    4.2030  -21.1482    0.0000 N   0  0
    3.3780  -20.3231    0.0000 C   0  0
    3.3780  -21.1482    0.0000 C   0  0
    4.2030  -20.3231    0.0000 C   0  0
    4.7864  -19.7397    0.0000 O   0  0
    2.7946  -21.7315    0.0000 O   0  0
    3.3689  -19.4935    0.0000 C   0  0
    4.0788  -19.0732    0.0000 C   0  0
    2.5530  -20.3276    0.0000 C   0  0
    2.1365  -19.6155    0.0000 C   0  0
    4.6025  -21.8702    0.0000 C   0  0
    4.1746  -22.5746    0.0000 C   0  0
    4.5735  -23.2961    0.0000 C   0  0
    5.3995  -23.3116    0.0000 C   0  0
    5.8250  -22.5994    0.0000 C   0  0
    5.4237  -21.8808    0.0000 C   0  0
    5.8459  -21.1719    0.0000 C   0  0
    6.6708  -21.1831    0.0000 S   0  0
    7.0930  -20.4744    0.0000 C   0  0
    7.9118  -20.3950    0.0000 S   0  0
    6.7650  -19.7120    0.0000 N   0  0
    7.3854  -19.1682    0.0000 C   0  0
    8.0910  -19.5913    0.0000 C   0  0
    8.8081  -19.1918    0.0000 C   0  0
    8.8208  -18.3695    0.0000 C   0  0
    8.1104  -17.9482    0.0000 C   0  0
    7.3963  -18.3500    0.0000 C   0  0
  3  1  1  0
 13 14  2  0
  2  7  1  0
 14 15  1  0
  1  4  1  0
 15 16  2  0
 16 11  1  0
  7  8  1  0
 16 17  1  0
  4  2  1  0
 17 18  1  0
  2  9  1  0
 18 19  1  0
 19 20  1  0
  2  3  1  0
  9 10  1  0
 20 23  1  0
 22 21  1  0
 21 19  2  0
  4  5  2  0
  1 11  1  0
 22 23  2  0
 23 24  1  0
 11 12  2  0
 24 25  2  0
  3  6  2  0
 25 26  1  0
 12 13  1  0
 26 27  2  0
 27 22  1  0
M  END