
  SciTegic11161115462D

 27 30  0  0  0  0            999 V2000
    6.5027    2.4042    0.0000 C   0  0
    6.5016    1.5768    0.0000 C   0  0
    7.2164    1.1640    0.0000 C   0  0
    7.2146    2.8170    0.0000 C   0  0
    7.9300    2.4078    0.0000 C   0  0
    7.9307    1.5810    0.0000 C   0  0
    8.6460    1.1700    0.0000 C   0  0
    9.3611    1.5848    0.0000 C   0  0
    9.3563    2.4148    0.0000 C   0  0
    8.6404    2.8220    0.0000 C   0  0
    7.2183    0.3390    0.0000 N   0  0
    6.5048   -0.0752    0.0000 C   0  0
    5.7903    0.3390    0.0000 C   0  0
    5.0773   -0.0744    0.0000 C   0  0
    5.0787   -0.9003    0.0000 C   0  0
    4.3620    0.3368    0.0000 O   0  0
    4.3658   -1.3154    0.0000 O   0  0
    6.5093   -0.8951    0.0000 C   0  0
    5.7985   -1.3093    0.0000 C   0  0
    5.8029   -2.1300    0.0000 C   0  0
    6.5171   -2.5375    0.0000 C   0  0
    7.2285   -2.1183    0.0000 C   0  0
    7.2207   -1.2990    0.0000 C   0  0
   10.0682    2.8316    0.0000 S   0  0
   10.7852    2.4235    0.0000 O   0  0
    9.4792    3.4208    0.0000 O   0  0
   10.2792    3.6333    0.0000 O   0  0
 12 13  2  0
  3  6  2  0
 13 14  1  0
  6  7  1  0
 14 15  1  0
 15 19  1  0
 18 12  1  0
  1  2  2  0
 14 16  2  0
  7  8  2  0
 15 17  2  0
  5  4  2  0
  8  9  1  0
 18 19  2  0
  4  1  1  0
 19 20  1  0
  9 10  2  0
 20 21  2  0
 10  5  1  0
 21 22  1  0
 22 23  2  0
 23 18  1  0
  3 11  1  0
  9 24  1  0
  2  3  1  0
 24 25  1  0
 11 12  1  0
 24 26  2  0
  5  6  1  0
 24 27  2  0
M  END