
  SciTegic12231509382D

 12 12  0  0  0  0            999 V2000
    4.2648   -1.1344    0.0000 O   0  0
    2.8359   -1.9594    0.0000 O   0  0
    3.5504    2.5781    0.0000 N   0  0
    3.5504   -0.7219    0.0000 C   0  0
    2.8359   -1.1344    0.0000 C   0  0
    2.8359    0.5156    0.0000 C   0  0
    3.5504    0.1031    0.0000 C   0  0
    2.1214   -0.7219    0.0000 C   0  0
    2.1214    0.1031    0.0000 C   0  0
    2.8359    1.3406    0.0000 C   0  0
    3.5504    1.7531    0.0000 C   0  0
    4.9793   -0.7219    0.0000 C   0  0
  1  4  1  0
  1 12  1  0
  2  5  1  0
  3 11  1  0
  4  5  2  0
  4  7  1  0
  5  8  1  0
  6  7  2  0
  6  9  1  0
  6 10  1  0
  8  9  2  0
 10 11  1  0
M  END