
  SciTegic06051315212D

 27 30  0  0  0  0            999 V2000
   13.3914  -25.0110    0.0000 C   0  0
   13.3903  -25.8305    0.0000 C   0  0
   14.0983  -26.2395    0.0000 C   0  0
   14.8080  -25.8300    0.0000 C   0  0
   14.8052  -25.0074    0.0000 C   0  0
   14.0966  -24.6021    0.0000 C   0  0
   14.0941  -23.7849    0.0000 S   0  0
   14.8006  -23.3742    0.0000 N   0  0
   13.2979  -23.9916    0.0000 O   0  0
   13.6776  -23.0712    0.0000 O   0  0
   15.5113  -24.5961    0.0000 F   0  0
   12.6836  -24.6025    0.0000 F   0  0
   12.6823  -26.2385    0.0000 F   0  0
   15.5164  -26.2375    0.0000 F   0  0
   14.0981  -27.0567    0.0000 S   0  0
   14.8057  -27.4654    0.0000 C   0  0
   14.8939  -28.2763    0.0000 S   0  0
   15.6932  -28.4464    0.0000 N   0  0
   15.5553  -27.1314    0.0000 C   0  0
   16.1038  -27.7346    0.0000 N   0  0
   15.9595  -26.4234    0.0000 N   0  0
   16.7578  -26.5889    0.0000 C   0  0
   16.8448  -27.3991    0.0000 C   0  0
   17.5886  -27.7272    0.0000 C   0  0
   18.2460  -27.2462    0.0000 C   0  0
   18.1547  -26.4334    0.0000 C   0  0
   17.4107  -26.1090    0.0000 C   0  0
  1  2  2  0
  2  3  1  0
  3  4  2  0
  4  5  1  0
  5  6  2  0
  6  1  1  0
  6  7  1  0
  7  8  1  0
  7  9  2  0
  7 10  2  0
  5 11  1  0
  1 12  1  0
  2 13  1  0
  4 14  1  0
  3 15  1  0
 15 16  1  0
 16 17  2  0
 17 18  2  0
 18 20  1  0
 19 16  1  0
 19 20  1  0
 20 23  1  0
 22 21  1  0
 21 19  2  0
 22 23  2  0
 23 24  1  0
 24 25  2  0
 25 26  1  0
 26 27  2  0
 27 22  1  0
M  END