
  SciTegic12231509382D

 22 23  0  0  1  0            999 V2000
   -1.1375    1.4333    0.0000 C   0  0
   -1.7208    2.4375    0.0000 C   0  0
   -1.7208    0.4125    0.0000 C   0  0
    0.0792    1.4333    0.0000 C   0  0
   -2.8958    2.4375    0.0000 C   0  0
   -2.9083    0.4125    0.0000 C   0  0
   -3.4833    1.4208    0.0000 C   0  0
    1.7417   -1.9417    0.0000 N   0  0
    0.6042    0.4000    0.0000 N   0  0
    1.9667   -0.7792    0.0000 C   0  0  2  0  0  0
    0.6917    2.4375    0.0000 O   0  0
    1.8167    0.3833    0.0000 C   0  0
   -1.1125   -0.6042    0.0000 O   0  0
   -3.4833    3.4583    0.0000 Cl  0  0
   -3.4958   -0.6042    0.0000 Cl  0  0
   -1.1375    3.4583    0.0000 O   0  0
   -1.8583   -1.5167    0.0000 C   0  0
    2.7542   -2.5667    0.0000 C   0  0
    0.6792   -2.4167    0.0000 C   0  0
    3.6375   -1.8417    0.0000 C   0  0
    3.2125   -0.7292    0.0000 C   0  0
    0.7667   -3.5917    0.0000 C   0  0
  2  1  1  0
  3  1  2  0
  4  1  1  0
  5  2  2  0
  6  3  1  0
  7  6  2  0
  8 10  1  0
  9  4  1  0
 10 12  1  6
 11  4  2  0
 12  9  1  0
 13  3  1  0
 14  5  1  0
 15  6  1  0
 16  2  1  0
 17 13  1  0
 18  8  1  0
 19  8  1  0
 20 21  1  0
 21 10  1  0
 22 19  1  0
  5  7  1  0
 18 20  1  0
M  END