
  SciTegic05071317032D

 22 22  0  0  0  0            999 V2000
   24.6892   -1.4208    0.0000 N   0  0
   24.6899   -2.2410    0.0000 C   0  0
   25.3951   -2.6469    0.0000 C   0  0
   26.1037   -2.2391    0.0000 N   0  0
   26.1026   -1.4209    0.0000 C   0  0
   25.3929   -1.0106    0.0000 C   0  0
   26.8114   -2.6477    0.0000 C   0  0
   26.8114   -3.4649    0.0000 C   0  0
   27.5191   -3.8735    0.0000 C   0  0
   27.5191   -4.6907    0.0000 N   0  0
   19.0292   -1.4404    0.0000 C   0  0
   19.0281   -2.2599    0.0000 C   0  0
   19.7361   -2.6689    0.0000 C   0  0
   20.4458   -2.2594    0.0000 C   0  0
   20.4430   -1.4368    0.0000 C   0  0
   19.7343   -1.0315    0.0000 C   0  0
   21.1491   -1.0255    0.0000 O   0  0
   21.8584   -1.4314    0.0000 C   0  0
   22.5645   -1.0202    0.0000 C   0  0
   23.2738   -1.4261    0.0000 C   0  0
   23.9799   -1.0148    0.0000 C   0  0
   22.6491   -3.7703    0.0000 Cl  0  0
  1  2  1  0
  1  6  1  0
  2  3  1  0
  3  4  1  0
  4  5  1  0
  5  6  1  0
  4  7  1  0
  7  8  1  0
  8  9  1  0
  9 10  1  0
 11 12  2  0
 12 13  1  0
 13 14  2  0
 14 15  1  0
 15 16  2  0
 16 11  1  0
 15 17  1  0
 17 18  1  0
 18 19  1  0
 19 20  1  0
 20 21  1  0
 21  1  1  0
M  END