
  SciTegic04071410272D

 41 45  0  0  0  0            999 V2000
    8.8588   -0.8091    0.0000 N   0  0
    8.1380   -0.3966    0.0000 C   0  0
    8.8588   -1.6341    0.0000 C   0  0
    8.1380   -2.0383    0.0000 C   0  0
    5.9880   -3.2633    0.0000 C   0  0
    9.5630   -0.3883    0.0000 C   0  0
    8.8588    1.6659    0.0000 C   0  0
    8.1338   -2.8633    0.0000 N   0  0
    5.0963   -4.2633    0.0000 N   0  0
    5.9005   -4.0883    0.0000 C   0  0
    9.5630   -2.0466    0.0000 C   0  0
    8.8588    0.8492    0.0000 C   0  0
    8.1380    0.4284    0.0000 C   0  0  2  0  0  0
    7.4130   -3.2758    0.0000 C   0  0  2  0  0  0
    8.1380    2.0784    0.0000 C   0  0
    9.5755    2.0784    0.0000 C   0  0
    5.2380   -2.9383    0.0000 C   0  0
    7.4130   -4.1008    0.0000 C   0  0
    6.7005   -2.8591    0.0000 C   0  0
   10.2755   -0.8091    0.0000 C   0  0
   10.2755   -1.6341    0.0000 C   0  0
    4.6880   -3.5466    0.0000 C   0  0
    7.4338   -0.8091    0.0000 O   0  0
    7.4255   -1.6258    0.0000 O   0  0
    9.5755    2.9117    0.0000 C   0  0
    8.1380    2.9117    0.0000 C   0  0
    8.8588    3.3201    0.0000 C   0  0
    6.6963   -4.5091    0.0000 O   0  0
    7.4338    0.8492    0.0000 N   0  0
    8.1255   -4.5133    0.0000 O   0  0
    8.8588    4.1326    0.0000 O   0  0
   10.2963    1.6659    0.0000 C   0  0
    7.4338    1.6659    0.0000 C   0  0
    4.9963   -2.1508    0.0000 C   0  0
   10.9963   -0.4008    0.0000 C   0  0
   10.9880   -2.0466    0.0000 C   0  0
    3.8880   -3.3633    0.0000 C   0  0
    4.1880   -1.9758    0.0000 C   0  0
   11.7005   -0.8133    0.0000 C   0  0
   11.7005   -1.6383    0.0000 C   0  0
    3.6255   -2.5883    0.0000 C   0  0
  2  1  1  0
  3  1  1  0
  4  3  1  0
  5 19  1  0
  6  1  1  0
  7 12  1  0
  8  4  1  0
  9 10  1  0
 10  5  2  0
 11  3  1  0
 12 13  1  0
 13  2  1  0
 14  8  1  0
 15  7  1  0
 16  7  2  0
 17  5  1  0
 14 18  1  6
 19 14  1  0
 20  6  1  0
 21 20  2  0
 22 17  2  0
 23  2  2  0
 24  4  2  0
 25 16  1  0
 26 15  2  0
 27 25  2  0
 28 18  2  0
 13 29  1  1
 30 18  1  0
 31 27  1  0
 32 16  1  0
 33 15  1  0
 34 17  1  0
 35 20  1  0
 36 21  1  0
 37 22  1  0
 38 34  2  0
 39 35  2  0
 40 39  1  0
 41 38  1  0
 11 21  1  0
 36 40  2  0
 26 27  1  0
 22  9  1  0
 37 41  2  0
M  END