
  SciTegic12231509382D

 25 28  0  0  0  0            999 V2000
    4.1149   -6.5987    0.0000 Cl  0  0
    0.5482   -3.7156    0.0000 N   0  0
    0.5482   -2.8899    0.0000 N   0  0
    1.2588   -4.9474    0.0000 N   0  0
    3.3975   -0.4196    0.0000 N   0  0
    1.9762   -3.7156    0.0000 C   0  0
    1.9762   -2.8899    0.0000 C   0  0
    1.2588   -4.1216    0.0000 C   0  0
    1.2588   -2.4771    0.0000 C   0  0
    2.6936   -4.1216    0.0000 C   0  0
    2.6936   -2.4771    0.0000 C   0  0
    1.2588   -1.6513    0.0000 C   0  0
    1.9762   -5.3670    0.0000 C   0  0
    1.9762   -1.2453    0.0000 C   0  0
    3.3975   -3.7156    0.0000 C   0  0
    3.3975   -2.8899    0.0000 C   0  0
    1.9762   -6.1926    0.0000 C   0  0
    2.6936   -4.9474    0.0000 C   0  0
    2.6936   -1.6513    0.0000 C   0  0
    1.9762   -0.4196    0.0000 C   0  0
    3.3975   -6.1926    0.0000 C   0  0
    2.6936   -6.5987    0.0000 C   0  0
    3.3975   -5.3670    0.0000 C   0  0
    3.3975   -1.2453    0.0000 C   0  0
    2.6936    0.0000    0.0000 C   0  0
  1 21  1  0
  2  3  2  0
  2  8  1  0
  3  9  1  0
  4  8  1  0
  4 13  1  0
  5 24  2  0
  5 25  1  0
  6  7  1  0
  6  8  2  0
  6 10  1  0
  7  9  2  0
  7 11  1  0
  9 12  1  0
 10 15  2  0
 11 16  2  0
 12 14  1  0
 13 17  2  0
 13 18  1  0
 14 19  2  0
 14 20  1  0
 15 16  1  0
 17 22  1  0
 18 23  2  0
 19 24  1  0
 20 25  2  0
 21 22  2  0
 21 23  1  0
M  END