
  SciTegic10301317112D

 34 34  0  0  0  0            999 V2000
    0.8913   -2.2156    0.0000 S   0  0
    4.1771   -2.2031    0.0000 C   0  0
    1.7117   -2.2156    0.0000 C   0  0
   11.8484   -6.0887    0.0000 C   0  0
   10.5115   -5.5598    0.0000 N   0  0
    9.6952   -5.5640    0.0000 C   0  0
    4.5977   -2.9153    0.0000 N   0  0
   11.0321   -6.2094    0.0000 C   0  0  1  0  0  0
    0.8871   -3.0402    0.0000 O   0  0
    0.8913   -1.3910    0.0000 O   0  0
    5.8388   -3.6149    0.0000 C   0  0
    7.9711   -4.1896    0.0000 C   0  0
    3.3525   -2.2031    0.0000 C   0  0
   10.9321   -8.3876    0.0000 C   0  0
    0.0625   -2.2114    0.0000 N   0  0
    8.4500   -4.8601    0.0000 N   0  0
    6.6634   -3.6149    0.0000 N   0  0
    4.5894   -1.4868    0.0000 O   0  0
   12.1482   -5.3266    0.0000 O   0  0
    9.2871   -6.2844    0.0000 O   0  0
    5.4265   -4.3354    0.0000 O   0  0
    8.3001   -3.4400    0.0000 O   0  0
   11.4361   -9.0373    0.0000 O   0  0
    2.1157   -1.5035    0.0000 C   0  0
    2.1282   -2.9278    0.0000 C   0  0
    2.9485   -2.9236    0.0000 C   0  0
    2.9361   -1.4910    0.0000 C   0  0
   10.7239   -6.9758    0.0000 C   0  0
    5.4223   -2.9028    0.0000 C   0  0
    9.2746   -4.8518    0.0000 C   0  0
    7.1507   -4.2771    0.0000 C   0  0
   11.2362   -7.6212    0.0000 C   0  0
   12.3564   -6.7384    0.0000 O   0  0
   10.1117   -8.5083    0.0000 O   0  0
  2 13  1  0
  3  1  1  0
  4  8  1  0
  5  6  1  0
  6 30  1  0
  7  2  1  0
  8  5  1  0
  9  1  2  0
 10  1  2  0
 11 29  1  0
 12 31  1  0
 13 26  2  0
 14 32  1  0
 15  1  1  0
 16 12  1  0
 17 11  1  0
 18  2  2  0
 19  4  2  0
 20  6  2  0
 21 11  2  0
 22 12  2  0
 23 14  2  0
 24  3  1  0
 25  3  2  0
 26 25  1  0
 27 24  2  0
  8 28  1  6
 29  7  1  0
 30 16  1  0
 31 17  1  0
 32 28  1  0
 33  4  1  0
 34 14  1  0
 13 27  1  0
M  END