
          05080814042D 1   1.00000     0.00000     0

 36 40  0     1  0            999 V2000
   -3.5271   -8.8689    0.0000 C   0  0  0  0  0  0           0  0  0
   -4.2377   -9.2837    0.0000 C   0  0  0  0  0  0           0  0  0
   -4.2307  -10.1100    0.0000 C   0  0  0  0  0  0           0  0  0
   -3.5170  -10.5134    0.0000 C   0  0  0  0  0  0           0  0  0
   -2.8138   -9.2761    0.0000 C   0  0  0  0  0  0           0  0  0
   -2.8077  -10.1036    0.0000 C   0  0  0  0  0  0           0  0  0
   -2.0920  -10.5100    0.0000 C   0  0  0  0  0  0           0  0  0
   -2.1041   -8.8547    0.0000 C   0  0  0  0  0  0           0  0  0
   -1.3837   -9.2656    0.0000 C   0  0  2  0  0  0           0  0  0
   -1.3792  -10.0951    0.0000 C   0  0  2  0  0  0           0  0  0
   -0.6624  -10.5037    0.0000 N   0  0  3  0  0  0           0  0  0
    0.0543  -10.0873    0.0000 C   0  0  0  0  0  0           0  0  0
    0.0497   -9.2578    0.0000 C   0  0  1  0  0  0           0  0  0
   -0.6715   -8.8446    0.0000 C   0  0  0  0  0  0           0  0  0
   -1.3916   -8.4367    0.0000 H   0  0  0  0  0  0           0  0  0
   -1.3874  -10.9198    0.0000 H   0  0  0  0  0  0           0  0  0
    0.7623   -8.8421    0.0000 C   0  0  0  0  0  0           0  0  0
    1.4786   -9.2514    0.0000 N   0  0  3  0  0  0           0  0  0
    0.7586   -8.0172    0.0000 O   0  0  0  0  0  0           0  0  0
    1.4763  -10.0794    0.0000 C   0  0  0  0  0  0           0  0  0
    2.1884  -10.4887    0.0000 C   0  0  0  0  0  0           0  0  0
    2.9033  -10.0765    0.0000 N   0  0  3  0  0  0           0  0  0
    2.9016   -9.2506    0.0000 C   0  0  0  0  0  0           0  0  0
    2.1849   -8.8368    0.0000 C   0  0  0  0  0  0           0  0  0
   -3.5310   -8.0440    0.0000 O   0  0  0  0  0  0           0  0  0
   -4.2474   -7.6349    0.0000 C   0  0  0  0  0  0           0  0  0
   -0.6591  -11.3286    0.0000 C   0  0  0  0  0  0           0  0  0
    3.6181  -10.4885    0.0000 C   0  0  0  0  0  0           0  0  0
    3.6142  -11.3126    0.0000 C   0  0  0  0  0  0           0  0  0
    4.3280  -11.7244    0.0000 C   0  0  0  0  0  0           0  0  0
    5.0430  -11.3115    0.0000 C   0  0  0  0  0  0           0  0  0
    5.0398  -10.4823    0.0000 C   0  0  0  0  0  0           0  0  0
    4.3254  -10.0741    0.0000 C   0  0  0  0  0  0           0  0  0
    5.7536  -10.0634    0.0000 N   0  3  0  0  0  0           0  0  0
    5.7502   -9.2385    0.0000 O   0  0  0  0  0  0           0  0  0
    6.4697  -10.4729    0.0000 O   0  5  0  0  0  0           0  0  0
 13 17  1  1     0  0
  7 10  1  0     0  0
 17 18  1  0     0  0
  9  8  1  0     0  0
 17 19  2  0     0  0
 18 20  1  0     0  0
  9 10  1  0     0  0
  3  4  2  0     0  0
  4  6  1  0     0  0
  5  6  2  0     0  0
  1  2  2  0     0  0
 18 24  1  0     0  0
 20 21  1  0     0  0
 21 22  1  0     0  0
 22 23  1  0     0  0
 23 24  1  0     0  0
  5  1  1  0     0  0
  1 25  1  0     0  0
  2  3  1  0     0  0
 25 26  1  0     0  0
  9 14  1  0     0  0
 11 27  1  0     0  0
 10 11  1  0     0  0
 22 28  1  0     0  0
 11 12  1  0     0  0
 28 29  2  0     0  0
 12 13  1  0     0  0
 29 30  1  0     0  0
 13 14  1  0     0  0
 30 31  2  0     0  0
 31 32  1  0     0  0
  9 15  1  6     0  0
 32 33  2  0     0  0
 33 28  1  0     0  0
  5  8  1  0     0  0
 10 16  1  1     0  0
  6  7  1  0     0  0
 34 35  2  0     0  0
 34 36  1  0     0  0
 32 34  1  0     0  0
M  CHG  2  34   1  36  -1
M  END