
          01230816052D 1   1.00000     0.00000     0

 54 56  0     1  0            999 V2000
   -1.7794   -5.4266    0.0000 C   0  0  0  0  0  0           0  0  0
   -1.0620   -5.0109    0.0000 C   0  0  0  0  0  0           0  0  0
   -1.0648   -4.1799    0.0000 C   0  0  0  0  0  0           0  0  0
   -1.7822   -3.7737    0.0000 C   0  0  0  0  0  0           0  0  0
   -0.3512   -3.7658    0.0000 O   0  0  0  0  0  0           0  0  0
    0.3661   -4.1732    0.0000 C   0  0  0  0  0  0           0  0  0
    1.0797   -3.7591    0.0000 C   0  0  0  0  0  0           0  0  0
    1.7971   -4.1664    0.0000 N   0  0  0  0  0  0           0  0  0
    1.0758   -2.9335    0.0000 O   0  0  0  0  0  0           0  0  0
    2.5107   -3.7523    0.0000 C   0  0  2  0  0  0           0  0  0
    3.2281   -4.1597    0.0000 C   0  0  0  0  0  0           0  0  0
    3.9375   -3.7457    0.0000 N   0  0  0  0  0  0           0  0  0
    3.2319   -4.9852    0.0000 O   0  0  0  0  0  0           0  0  0
    2.5068   -2.9269    0.0000 C   0  0  0  0  0  0           0  0  0
    3.2204   -2.5087    0.0000 C   0  0  0  0  0  0           0  0  0
    3.2165   -1.6831    0.0000 C   0  0  0  0  0  0           0  0  0
    3.9259   -1.2691    0.0000 C   0  0  0  0  0  0           0  0  0
    3.9220   -0.4436    0.0000 N   0  0  0  0  0  0           0  0  0
    4.6549   -4.1530    0.0000 C   0  0  2  0  0  0           0  0  0
    5.3684   -3.7390    0.0000 C   0  0  0  0  0  0           0  0  0
    4.6587   -4.9785    0.0000 C   0  0  3  0  0  0           0  0  0
    3.9453   -5.3967    0.0000 C   0  0  0  0  0  0           0  0  0
    5.3762   -5.3900    0.0000 C   0  0  0  0  0  0           0  0  0
    6.0859   -4.1463    0.0000 N   0  0  0  0  0  0           0  0  0
    5.3645   -2.9134    0.0000 O   0  0  0  0  0  0           0  0  0
    6.7994   -3.7322    0.0000 C   0  0  0  0  0  0           0  0  0
    7.5169   -4.1395    0.0000 C   0  0  0  0  0  0           0  0  0
    8.2303   -3.7256    0.0000 N   0  0  0  0  0  0           0  0  0
    7.5207   -4.9651    0.0000 O   0  0  0  0  0  0           0  0  0
    8.9478   -4.1329    0.0000 C   0  0  2  0  0  0           0  0  0
    9.6571   -3.7188    0.0000 C   0  0  0  0  0  0           0  0  0
    8.9516   -4.9584    0.0000 C   0  0  2  0  0  0           0  0  0
    8.2381   -5.3766    0.0000 C   0  0  0  0  0  0           0  0  0
    9.6649   -5.3698    0.0000 O   0  0  0  0  0  0           0  0  0
   10.3746   -4.1262    0.0000 N   0  0  0  0  0  0           0  0  0
    9.6532   -2.8933    0.0000 O   0  0  0  0  0  0           0  0  0
   -2.4911   -5.0114    0.0000 C   0  0  0  0  0  0           0  0  0
   -2.4888   -4.1852    0.0000 C   0  0  0  0  0  0           0  0  0
   -3.2024   -3.7741    0.0000 C   0  0  0  0  0  0           0  0  0
   -3.9190   -4.1837    0.0000 C   0  0  0  0  0  0           0  0  0
   -3.9173   -5.0130    0.0000 C   0  0  0  0  0  0           0  0  0
   -3.2029   -5.4246    0.0000 C   0  0  0  0  0  0           0  0  0
   11.0881   -3.7121    0.0000 C   0  0  2  0  0  0           0  0  0
   11.8056   -4.1194    0.0000 C   0  0  0  0  0  0           0  0  0
   11.0842   -2.8865    0.0000 C   0  0  0  0  0  0           0  0  0
   12.5191   -3.7054    0.0000 O   0  0  0  0  0  0           0  0  0
   13.2365   -4.1127    0.0000 C   0  0  0  0  0  0           0  0  0
   13.9500   -3.6987    0.0000 N   0  0  0  0  0  0           0  0  0
   13.2404   -4.9382    0.0000 O   0  0  0  0  0  0           0  0  0
   14.6675   -4.1060    0.0000 C   0  0  3  0  0  0           0  0  0
   14.7538   -4.9244    0.0000 C   0  0  0  0  0  0           0  0  0
   15.5622   -5.0955    0.0000 C   0  0  0  0  0  0           0  0  0
   15.9695   -4.3781    0.0000 C   0  0  0  0  0  0           0  0  0
   15.4129   -3.7662    0.0000 C   0  0  0  0  0  0           0  0  0
 26 27  1  0     0  0
 11 13  2  0     0  0
 27 28  1  0     0  0
  5  6  1  0     0  0
 27 29  2  0     0  0
 10 14  1  1     0  0
 30 28  1  6     0  0
  2  3  1  0     0  0
 30 31  1  0     0  0
 14 15  1  0     0  0
 30 32  1  0     0  0
  6  7  1  0     0  0
 32 33  1  0     0  0
 15 16  1  0     0  0
 32 34  1  1     0  0
  3  4  2  0     0  0
 31 35  1  0     0  0
 16 17  1  0     0  0
 31 36  2  0     0  0
  7  8  1  0     0  0
 17 18  1  0     0  0
 37 38  1  0     0  0
 12 19  1  0     0  0
 38 39  2  0     0  0
  7  9  2  0     0  0
 39 40  1  0     0  0
 19 20  1  0     0  0
 40 41  2  0     0  0
 38  4  1  0     0  0
 41 42  1  0     0  0
 42 37  2  0     0  0
 19 21  1  6     0  0
 35 43  1  0     0  0
  8 10  1  0     0  0
 43 44  1  0     0  0
 21 22  1  0     0  0
 43 45  1  1     0  0
  1  2  2  0     0  0
 44 46  1  0     0  0
 21 23  1  0     0  0
 46 47  1  0     0  0
 10 11  1  0     0  0
 47 48  1  0     0  0
 20 24  1  0     0  0
 47 49  2  0     0  0
  3  5  1  0     0  0
 48 50  1  0     0  0
 50 51  1  0     0  0
 20 25  2  0     0  0
 11 12  1  0     0  0
 24 26  1  0     0  0
 37  1  1  0     0  0
 51 52  1  0     0  0
 52 53  1  0     0  0
 53 54  1  0     0  0
 54 50  1  0     0  0
M  END