
          11280714482D 1   1.00000     0.00000     0

 39 43  0     0  0            999 V2000
    6.6917   -8.5167    0.0000 S   0  0  3  0  0  0           0  0  0
    5.9792   -8.1042    0.0000 N   0  0  0  0  0  0           0  0  0
    2.4042   -6.0417    0.0000 N   0  0  3  0  0  0           0  0  0
    3.0750   -5.5542    0.0000 N   0  0  0  0  0  0           0  0  0
    5.2667   -8.5167    0.0000 C   0  0  0  0  0  0           0  0  0
    1.7417   -5.5542    0.0000 C   0  0  0  0  0  0           0  0  0
   -0.9750   -4.6792    0.0000 C   0  0  0  0  0  0           0  0  0
    3.1167   -7.2792    0.0000 C   0  0  0  0  0  0           0  0  0
    2.4042   -6.8667    0.0000 C   0  0  0  0  0  0           0  0  0
    1.9917   -4.7667    0.0000 C   0  0  0  0  0  0           0  0  0
    4.5500   -8.1042    0.0000 C   0  0  0  0  0  0           0  0  0
    2.8042   -4.7625    0.0000 C   0  0  0  0  0  0           0  0  0
    3.8292   -6.8667    0.0000 C   0  0  0  0  0  0           0  0  0
    0.9375   -5.7292    0.0000 C   0  0  0  0  0  0           0  0  0
    7.2792   -9.1000    0.0000 O   0  0  0  0  0  0           0  0  0
    6.1042   -9.1000    0.0000 O   0  0  0  0  0  0           0  0  0
   -0.4250   -5.2917    0.0000 N   0  0  0  0  0  0           0  0  0
    4.5500   -7.2792    0.0000 C   0  0  0  0  0  0           0  0  0
    7.4042   -8.1042    0.0000 C   0  0  0  0  0  0           0  0  0
    0.3792   -5.1167    0.0000 C   0  0  0  0  0  0           0  0  0
   -1.7833   -4.8500    0.0000 O   0  0  0  0  0  0           0  0  0
   -0.7250   -3.8917    0.0000 O   0  0  0  0  0  0           0  0  0
    5.2667   -9.3417    0.0000 O   0  0  0  0  0  0           0  0  0
    3.1167   -8.1042    0.0000 C   0  0  0  0  0  0           0  0  0
    3.8292   -8.5167    0.0000 C   0  0  0  0  0  0           0  0  0
    1.4417   -4.1542    0.0000 C   0  0  0  0  0  0           0  0  0
    0.6375   -4.3292    0.0000 C   0  0  0  0  0  0           0  0  0
    3.8292   -6.0417    0.0000 O   0  0  0  0  0  0           0  0  0
   -2.3375   -4.2417    0.0000 C   0  0  3  0  0  0           0  0  0
    8.1250   -8.5167    0.0000 C   0  0  0  0  0  0           0  0  0
    7.4042   -7.2792    0.0000 C   0  0  0  0  0  0           0  0  0
    4.5417   -5.6250    0.0000 C   0  0  0  0  0  0           0  0  0
   -3.1583   -4.3167    0.0000 C   0  0  0  0  0  0           0  0  0
   -2.1708   -3.4292    0.0000 C   0  0  0  0  0  0           0  0  0
    8.8375   -8.1042    0.0000 C   0  0  0  0  0  0           0  0  0
    8.1167   -6.8667    0.0000 C   0  0  0  0  0  0           0  0  0
   -2.8833   -3.0167    0.0000 C   0  0  0  0  0  0           0  0  0
   -3.4958   -3.5750    0.0000 C   0  0  0  0  0  0           0  0  0
    8.8375   -7.2792    0.0000 C   0  0  0  0  0  0           0  0  0
  2  1  1  0     0  0
  3  9  1  0     0  0
  4  3  1  0     0  0
  5  2  1  0     0  0
  6  3  1  0     0  0
  7 17  1  0     0  0
  8 24  2  0     0  0
  9  8  1  0     0  0
 10  6  2  0     0  0
 11  5  1  0     0  0
 12  4  2  0     0  0
 13 18  2  0     0  0
 14  6  1  0     0  0
 15  1  2  0     0  0
 16  1  2  0     0  0
 17 20  1  0     0  0
 18 11  1  0     0  0
 19  1  1  0     0  0
 20 14  2  0     0  0
 21  7  1  0     0  0
 22  7  2  0     0  0
 23  5  2  0     0  0
 24 25  1  0     0  0
 25 11  2  0     0  0
 26 10  1  0     0  0
 27 20  1  0     0  0
 28 13  1  0     0  0
 29 21  1  0     0  0
 30 19  2  0     0  0
 31 19  1  0     0  0
 32 28  1  0     0  0
 33 29  1  0     0  0
 34 29  1  0     0  0
 35 30  1  0     0  0
 36 31  2  0     0  0
 37 34  1  0     0  0
 38 33  1  0     0  0
 39 36  1  0     0  0
 35 39  2  0     0  0
 13  8  1  0     0  0
 12 10  1  0     0  0
 26 27  2  0     0  0
 37 38  1  0     0  0
M  END