
          11280715142D 1   1.00000     0.00000     0

 31 33  0     1  0            999 V2000
    2.4875   -3.0667    0.0000 C   0  0  0  0  0  0           0  0  0
    1.7750   -3.4875    0.0000 C   0  0  0  0  0  0           0  0  0
    2.4875   -2.2542    0.0000 C   0  0  0  0  0  0           0  0  0
    3.2042   -3.4792    0.0000 C   0  0  0  0  0  0           0  0  0
    1.0542   -3.0750    0.0000 C   0  0  0  0  0  0           0  0  0
    3.2000   -1.8417    0.0000 C   0  0  0  0  0  0           0  0  0
    1.7667   -1.8375    0.0000 C   0  0  0  0  0  0           0  0  0
    1.0542   -2.2500    0.0000 C   0  0  0  0  0  0           0  0  0
   12.4917   -3.0167    0.0000 C   0  0  0  0  0  0           0  0  0
   12.4917   -2.1917    0.0000 C   0  0  0  0  0  0           0  0  0
    1.7792   -4.3125    0.0000 O   0  0  0  0  0  0           0  0  0
    3.9125   -2.2542    0.0000 C   0  0  2  0  0  0           0  0  0
    3.9167   -3.0667    0.0000 C   0  0  0  0  0  0           0  0  0
    4.6292   -1.8417    0.0000 N   0  0  0  0  0  0           0  0  0
    9.6292   -2.2250    0.0000 N   0  0  0  0  0  0           0  0  0
    0.3417   -3.4875    0.0000 O   0  0  0  0  0  0           0  0  0
   11.7792   -3.4292    0.0000 O   0  0  0  0  0  0           0  0  0
   11.7667   -1.7875    0.0000 O   0  0  0  0  0  0           0  0  0
   13.1917   -1.7750    0.0000 C   0  0  0  0  0  0           0  0  0
   13.2125   -3.4250    0.0000 C   0  0  0  0  0  0           0  0  0
   10.3417   -1.8042    0.0000 C   0  0  0  0  0  0           0  0  0
    5.3417   -2.2417    0.0000 C   0  0  0  0  0  0           0  0  0
    8.9125   -1.8167    0.0000 C   0  0  0  0  0  0           0  0  0
   11.0625   -2.2042    0.0000 C   0  0  0  0  0  0           0  0  0
   11.7917   -4.2542    0.0000 C   0  0  0  0  0  0           0  0  0
    8.2000   -2.2292    0.0000 C   0  0  0  0  0  0           0  0  0
    6.0542   -1.8292    0.0000 C   0  0  0  0  0  0           0  0  0
    6.7750   -2.2375    0.0000 C   0  0  0  0  0  0           0  0  0
    7.4792   -1.8167    0.0000 C   0  0  0  0  0  0           0  0  0
   13.9125   -2.1750    0.0000 C   0  0  0  0  0  0           0  0  0
   13.9250   -3.0042    0.0000 C   0  0  0  0  0  0           0  0  0
  2  1  2  0     0  0
  3  1  1  0     0  0
  4  1  1  0     0  0
  5  2  1  0     0  0
  6  3  1  0     0  0
  7  3  2  0     0  0
  8  7  1  0     0  0
  9 10  2  0     0  0
 10 18  1  0     0  0
 11  2  1  0     0  0
 12 13  1  0     0  0
 13  4  1  0     0  0
 12 14  1  1     0  0
 15 23  1  0     0  0
 16  5  1  0     0  0
 17  9  1  0     0  0
 18 24  1  0     0  0
 19 10  1  0     0  0
 20  9  1  0     0  0
 21 15  1  0     0  0
 22 14  1  0     0  0
 23 26  1  0     0  0
 24 21  1  0     0  0
 25 17  1  0     0  0
 26 29  1  0     0  0
 27 22  1  0     0  0
 28 27  1  0     0  0
 29 28  1  0     0  0
 30 19  2  0     0  0
 31 30  1  0     0  0
  6 12  1  0     0  0
  8  5  2  0     0  0
 20 31  2  0     0  0
M  END