
          11280714542D 1   1.00000     0.00000     0

 29 30  0     0  0            999 V2000
   13.2542   -2.9375    0.0000 C   0  0  0  0  0  0           0  0  0
   12.8417   -3.6542    0.0000 C   0  0  0  0  0  0           0  0  0
    1.5792   -4.9792    0.0000 N   0  0  3  0  0  0           0  0  0
    8.7250   -2.5125    0.0000 C   0  0  0  0  0  0           0  0  0
    8.0042   -2.9250    0.0000 C   0  0  0  0  0  0           0  0  0
   12.8417   -2.2167    0.0000 O   0  0  0  0  0  0           0  0  0
   13.2542   -4.3792    0.0000 O   0  0  0  0  0  0           0  0  0
    8.7250   -1.6792    0.0000 O   0  0  0  0  0  0           0  0  0
    2.2917   -5.3917    0.0000 C   0  0  0  0  0  0           0  0  0
    7.2875   -2.5125    0.0000 C   0  0  0  0  0  0           0  0  0
    8.0042   -3.7542    0.0000 C   0  0  0  0  0  0           0  0  0
    5.8667   -4.1625    0.0000 O   0  0  0  0  0  0           0  0  0
    6.5792   -3.7500    0.0000 C   0  0  0  0  0  0           0  0  0
   14.0875   -2.9375    0.0000 O   0  0  0  0  0  0           0  0  0
   12.0125   -3.6542    0.0000 O   0  0  0  0  0  0           0  0  0
    3.0042   -4.9792    0.0000 C   0  0  0  0  0  0           0  0  0
    4.4375   -4.1625    0.0000 C   0  0  0  0  0  0           0  0  0
    5.1542   -3.7500    0.0000 C   0  0  0  0  0  0           0  0  0
    6.5792   -2.9292    0.0000 C   0  0  0  0  0  0           0  0  0
    7.2917   -4.1625    0.0000 C   0  0  0  0  0  0           0  0  0
    3.0042   -4.1625    0.0000 C   0  0  0  0  0  0           0  0  0
    3.7167   -5.3917    0.0000 C   0  0  0  0  0  0           0  0  0
    4.4375   -4.9875    0.0000 C   0  0  0  0  0  0           0  0  0
    3.7167   -3.7417    0.0000 C   0  0  0  0  0  0           0  0  0
    1.4917   -4.1542    0.0000 C   0  0  0  0  0  0           0  0  0
    0.8250   -5.3167    0.0000 C   0  0  0  0  0  0           0  0  0
    9.4417   -2.9167    0.0000 C   0  0  0  0  0  0           0  0  0
    0.2750   -4.7000    0.0000 C   0  0  0  0  0  0           0  0  0
    0.6875   -3.9875    0.0000 C   0  0  0  0  0  0           0  0  0
  2  1  1  0     0  0
  4  5  1  0     0  0
  5 11  2  0     0  0
  6  1  2  0     0  0
  7  2  2  0     0  0
  8  4  2  0     0  0
  9  3  1  0     0  0
 10 19  2  0     0  0
 11 20  1  0     0  0
 12 18  1  0     0  0
 13 12  1  0     0  0
 14  1  1  0     0  0
 15  2  1  0     0  0
 16  9  1  0     0  0
 17 23  2  0     0  0
 18 17  1  0     0  0
 19 13  1  0     0  0
 20 13  2  0     0  0
 21 16  1  0     0  0
 22 16  2  0     0  0
 23 22  1  0     0  0
 24 21  2  0     0  0
 25  3  1  0     0  0
 26  3  1  0     0  0
 27  4  1  0     0  0
 28 26  1  0     0  0
 29 25  1  0     0  0
 28 29  1  0     0  0
 17 24  1  0     0  0
  5 10  1  0     0  0
M  END