
  SciTegic11201309402D

 55 60  0  0  0  0            999 V2000
    3.4960   -4.1320    0.0000 N   0  0
    3.7330   -6.4516    0.0000 N   0  0
    3.2341   -4.9177    0.0000 C   0  0
    3.3214   -5.7408    0.0000 C   0  0  1  0  0  0
    4.0447   -3.5210    0.0000 C   0  0  2  0  0  0
    4.4064   -6.9380    0.0000 C   0  0
    7.1874   -4.9177    0.0000 N   0  0
    4.8055   -3.1842    0.0000 C   0  0
    5.2170   -7.1126    0.0000 C   0  0  1  0  0  0
    5.6285   -3.1842    0.0000 N   0  0
    7.1001   -5.7408    0.0000 C   0  0
    6.9255   -4.1320    0.0000 C   0  0
    6.0151   -6.9380    0.0000 N   0  0
    2.7478   -3.8036    0.0000 C   0  0
    3.3214   -7.1707    0.0000 C   0  0
    3.6332   -2.8101    0.0000 C   0  0
    2.8226   -2.9805    0.0000 C   0  0
    5.8530   -0.5903    0.0000 C   0  0
    6.3768   -3.5210    0.0000 C   0  0  2  0  0  0
    6.6885   -6.4516    0.0000 C   0  0  1  0  0  0
    5.2170   -7.9356    0.0000 C   0  0
    2.4984   -5.7408    0.0000 C   0  0
    5.9278   -8.3472    0.0000 C   0  0
    6.0151   -9.1702    0.0000 S   0  0
    2.4235   -4.8387    0.0000 O   0  0
    4.2650   -7.7568    0.0000 O   0  0
    5.5163    0.1579    0.0000 N   0  0
    4.6309   -2.3819    0.0000 O   0  0
    2.4984   -7.1707    0.0000 C   0  0
    7.8857   -5.9985    0.0000 O   0  0
    7.6488   -3.7205    0.0000 O   0  0
    6.8257   -9.3406    0.0000 C   0  0
    6.6761   -8.0104    0.0000 C   0  0
    2.0868   -6.4516    0.0000 C   0  0
    7.2373   -8.6298    0.0000 C   0  0
    6.6761   -0.6776    0.0000 N   0  0
    5.3666   -1.2637    0.0000 N   0  0
   10.0931   -7.5989    0.0000 N   0  0
    1.9870   -4.1320    0.0000 C   0  0
    2.1616   -2.4984    0.0000 C   0  0
    7.2996   -7.0086    0.0000 C   0  0
    6.8631   -2.8558    0.0000 C   0  0
    7.0128   -1.4341    0.0000 C   0  0
    9.4820   -7.0502    0.0000 C   0  0
    6.5264   -2.0993    0.0000 C   0  0
    8.0853   -6.7509    0.0000 C   0  0
    8.6963   -7.3079    0.0000 C   0  0
    1.3261   -3.6539    0.0000 C   0  0
    1.4009   -2.8309    0.0000 C   0  0
    2.0831   -7.8836    0.0000 C   0  0
    1.2581   -7.8804    0.0000 C   0  0
    0.8483   -7.1644    0.0000 C   0  0
    1.2635   -6.4515    0.0000 C   0  0
    4.3542   -2.5701    0.0000 H   0  0
    2.5779   -5.0720    0.0000 H   0  0
  4  2  1  0
  3  1  1  0
  4  3  1  0
  5  1  1  0
  6  2  1  0
  7 12  1  0
  8  5  1  0
  9  6  1  0
 10  8  1  0
 11  7  1  0
 12 19  1  0
 13  9  1  0
 14  1  1  0
 15  2  1  0
 16  5  1  0
 17 14  1  0
 18 36  2  0
 19 10  1  0
 20 13  1  0
  9 21  1  1
 22  4  1  0
 23 21  1  0
 24 23  1  0
 25  3  2  0
 26  6  2  0
 27 18  1  0
 28  8  2  0
 30 11  2  0
 31 12  2  0
 32 24  1  0
 33 23  2  0
 34 22  1  0
 35 33  1  0
 36 43  1  0
 37 18  1  0
 38 44  1  0
 39 14  1  0
 40 17  1  0
 20 41  1  6
 19 42  1  1
 43 45  1  0
 44 47  1  0
 45 42  1  0
 46 41  1  0
 47 46  1  0
 48 39  1  0
 49 48  1  0
 16 17  1  0
 40 49  1  0
 15 29  1  0
 11 20  1  0
 32 35  2  0
 29 50  2  0
 34 29  1  0
 34 53  2  0
 50 51  1  0
 51 52  2  0
 52 53  1  0
  5 54  1  6
  4 55  1  1
M  END