
  SciTegic01161211242D

 27 27  0  0  0  0            999 V2000
   -5.2003    1.4932    0.0000 S   0  0
   -6.4990    0.7409    0.0000 C   0  0
   -5.2024    2.6932    0.0000 O   0  0
   -6.2405    2.0915    0.0000 O   0  0
   -3.8990    0.7455    0.0000 C   0  0
   -9.1517    0.8676    0.0000 O   0  0
    5.1894   -6.0109    0.0000 N   0  0
   -7.8003    1.4887    0.0000 C   0  0
    2.5973   -1.5031    0.0000 O   0  0
    3.8933   -3.7570    0.0000 C   0  0
    1.2990   -0.7500    0.0000 C   0  0
    3.8912   -5.2578    0.0000 C   0  0
   -1.2990    0.7500    0.0000 C   0  0
    2.5951   -3.0039    0.0000 C   0  0
   -2.6003    1.4977    0.0000 C   0  0
    8.9855   -2.4917    0.0000 Cl  0  0
    1.2990    0.7500    0.0000 C   0  0
    0.0000   -1.5000    0.0000 C   0  0
    0.0000    1.5000    0.0000 C   0  0
   -1.2990   -0.7500    0.0000 C   0  0
    4.9336   -3.1588    0.0000 O   0  0
    5.1873   -7.5117    0.0000 C   0  0
  -10.1554    1.9823    0.0000 C   0  0
   -7.9382    2.9695    0.0000 C   0  0
    6.2253   -8.1139    0.0000 C   0  0
    4.1470   -8.1099    0.0000 C   0  0
   -9.4054    3.2814    0.0000 C   0  0
  1  2  1  0
  1  3  2  0
  1  4  2  0
  1  5  1  0
  2  8  1  0
  6  8  1  0
  9 11  1  0
  7 12  1  0
 10 12  1  0
  9 14  1  0
 10 14  1  0
  5 15  1  0
 13 15  1  0
 11 17  2  0
 11 18  1  0
 13 19  2  0
 17 19  1  0
 13 20  1  0
 18 20  2  0
 10 21  1  0
  7 22  1  0
  6 23  1  0
  8 24  1  0
 22 25  1  0
 22 26  1  0
 23 27  1  0
 24 27  1  0
M  END