
  CDK    9/16/09,10:6

 47 49  0  0  0  0  0  0  0  0999 V2000
    9.8568   -2.7876    0.0000 C   0  0  0  0  0  0  0  0  0  0  0  0
    9.8568   -3.6160    0.0000 C   0  0  0  0  0  0  0  0  0  0  0  0
   10.5730   -4.0302    0.0000 C   0  0  0  0  0  0  0  0  0  0  0  0
   11.2891   -3.6160    0.0000 C   0  0  0  0  0  0  0  0  0  0  0  0
   11.2891   -2.7876    0.0000 C   0  0  0  0  0  0  0  0  0  0  0  0
   10.5730   -2.3734    0.0000 C   0  0  0  0  0  0  0  0  0  0  0  0
   10.5717   -1.5497    0.0000 O   0  0  0  0  0  0  0  0  0  0  0  0
   10.5717   -4.8539    0.0000 O   0  0  0  0  0  0  0  0  0  0  0  0
    9.1443   -2.3798    0.0000 C   0  0  0  0  0  0  0  0  0  0  0  0
    9.1423   -1.5561    0.0000 C   0  0  0  0  0  0  0  0  0  0  0  0
    8.4251   -1.1437    0.0000 C   0  0  0  0  0  0  0  0  0  0  0  0
    9.8528   -1.1401    0.0000 C   0  0  0  0  0  0  0  0  0  0  0  0
    9.8508   -0.3164    0.0000 C   0  0  0  0  0  0  0  0  0  0  0  0
   10.5659    0.0948    0.0000 C   0  0  0  0  0  0  0  0  0  0  0  0
    9.1383    0.0914    0.0000 O   0  0  0  0  0  0  0  0  0  0  0  0
    9.1363    0.9151    0.0000 C   0  0  0  0  0  0  0  0  0  0  0  0
   10.5639    0.9186    0.0000 C   0  0  0  0  0  0  0  0  0  0  0  0
   11.2784   -0.3130    0.0000 O   0  0  0  0  0  0  0  0  0  0  0  0
   11.2744    1.3345    0.0000 C   0  0  0  0  0  0  0  0  0  0  0  0
    9.8467    1.3310    0.0000 C   0  0  0  0  0  0  0  0  0  0  0  0
   11.9915    0.9220    0.0000 C   0  0  0  0  0  0  0  0  0  0  0  0
   12.7020    1.3380    0.0000 C   0  0  0  0  0  0  0  0  0  0  0  0
   11.9936    0.0983    0.0000 C   0  0  0  0  0  0  0  0  0  0  0  0
   13.5240    1.3403    0.0000 C   0  0  0  0  0  0  0  0  0  0  0  0
   14.2360    0.9261    0.0000 C   0  0  0  0  0  0  0  0  0  0  0  0
   13.7361    2.1355    0.0000 O   0  0  0  0  0  0  0  0  0  0  0  0
   12.4878    2.1325    0.0000 O   0  0  0  0  0  0  0  0  0  0  0  0
   11.6920    2.3426    0.0000 C   0  0  0  0  0  0  0  0  0  0  0  0
   11.4731    3.1419    0.0000 O   0  0  0  0  0  0  0  0  0  0  0  0
   11.1105    1.7580    0.0000 N   0  0  0  0  0  0  0  0  0  0  0  0
   14.5358    2.3479    0.0000 C   0  0  0  0  0  0  0  0  0  0  0  0
   14.2340    0.1024    0.0000 C   0  0  0  0  0  0  0  0  0  0  0  0
   13.5168   -0.3054    0.0000 C   0  0  0  0  0  0  0  0  0  0  0  0
   13.5147   -1.1291    0.0000 C   0  0  0  0  0  0  0  0  0  0  0  0
   14.2298   -1.5450    0.0000 C   0  0  0  0  0  0  0  0  0  0  0  0
   12.0056   -2.3788    0.0000 N   0  0  0  0  0  0  0  0  0  0  0  0
   12.0065   -1.5551    0.0000 C   0  0  0  0  0  0  0  0  0  0  0  0
   11.2908   -1.1401    0.0000 O   0  0  0  0  0  0  0  0  0  0  0  0
    9.1453   -4.0302    0.0000 N   0  0  0  0  0  0  0  0  0  0  0  0
    8.4183   -3.6140    0.0000 C   0  0  0  0  0  0  0  0  0  0  0  0
    7.6944   -4.0354    0.0000 C   0  0  0  0  0  0  0  0  0  0  0  0
    6.9674   -3.6191    0.0000 C   0  0  0  0  0  0  0  0  0  0  0  0
    6.8738   -2.7875    0.0000 N   0  0  0  0  0  0  0  0  0  0  0  0
    6.0538   -2.6162    0.0000 C   0  0  0  0  0  0  0  0  0  0  0  0
    5.6375   -3.3433    0.0000 N   0  0  0  0  0  0  0  0  0  0  0  0
    6.2003   -3.9636    0.0000 C   0  0  0  0  0  0  0  0  0  0  0  0
   12.1138   -0.3118    0.0000 C   0  0  0  0  0  0  0  0  0  0  0  0
  4  5  2  0  0  0  0 
 22 24  1  0  0  0  0 
 10 12  1  0  0  0  0 
 24 25  1  0  0  0  0 
  5  6  1  0  0  0  0 
 24 26  1  1  0  0  0 
 12 13  1  0  0  0  0 
 22 27  1  6  0  0  0 
 27 28  1  0  0  0  0 
 13 14  1  0  0  0  0 
 28 29  2  0  0  0  0 
  6  7  2  0  0  0  0 
 28 30  1  0  0  0  0 
 13 15  1  6  0  0  0 
 26 31  1  0  0  0  0 
  1  2  2  0  0  0  0 
 25 32  2  0  0  0  0 
 15 16  1  0  0  0  0 
 32 33  1  0  0  0  0 
  3  8  2  0  0  0  0 
 33 34  2  0  0  0  0 
 14 17  1  0  0  0  0 
 34 35  1  0  0  0  0 
  1  6  1  0  0  0  0 
  5 36  1  0  0  0  0 
 14 18  1  1  0  0  0 
 36 37  1  0  0  0  0 
  1  9  1  0  0  0  0 
 37 38  2  0  0  0  0 
 37 34  1  0  0  0  0 
 17 19  1  0  0  0  0 
  2 39  1  0  0  0  0 
  2  3  1  0  0  0  0 
 39 40  1  0  0  0  0 
 17 20  1  1  0  0  0 
 40 41  1  0  0  0  0 
  9 10  1  0  0  0  0 
 41 42  1  0  0  0  0 
 42 43  1  0  0  0  0 
 19 21  2  0  0  0  0 
  3  4  1  0  0  0  0 
 21 22  1  0  0  0  0 
 10 11  1  1  0  0  0 
 43 44  2  0  0  0  0 
 44 45  1  0  0  0  0 
 45 46  1  0  0  0  0 
 46 42  2  0  0  0  0 
 21 23  1  0  0  0  0 
 18 47  1  0  0  0  0 
M  END