
  SciTegic12231509382D

 20 22  0  0  0  0            999 V2000
    9.2894  -10.0858    0.0000 C   0  0
    9.2882  -10.9124    0.0000 C   0  0
   10.0023  -11.3248    0.0000 C   0  0
   10.0005   -9.6734    0.0000 C   0  0
   10.7145  -10.9115    0.0000 C   0  0
   10.7152  -10.0822    0.0000 C   0  0
   11.3667   -9.5598    0.0000 C   0  0
   11.3681  -11.4312    0.0000 C   0  0  2  0  0  0
   12.1789   -9.7398    0.0000 C   0  0
   12.1813  -11.2433    0.0000 C   0  0
   12.5392  -10.4898    0.0000 N   0  0
    8.5755   -9.6739    0.0000 Cl  0  0
    8.5741  -11.3239    0.0000 O   0  0
   13.3634  -10.4880    0.0000 C   0  0
   11.1868  -12.2317    0.0000 C   0  0
   10.3983  -12.4753    0.0000 C   0  0
   10.2165  -13.2783    0.0000 C   0  0
   10.8221  -13.8386    0.0000 C   0  0
   11.6125  -13.5902    0.0000 C   0  0
   11.7906  -12.7877    0.0000 C   0  0
  8 10  1  0
  9 11  1  0
 10 11  1  0
  2  3  1  0
  1 12  1  0
  5  6  1  0
  2 13  1  0
  3  5  2  0
 11 14  1  0
  6  7  1  0
  1  2  2  0
 15 16  2  0
  5  8  1  0
 16 17  1  0
  6  4  2  0
 17 18  2  0
  7  9  1  0
 18 19  1  0
  4  1  1  0
 19 20  2  0
 20 15  1  0
  8 15  1  6
M  END