
  SciTegic05061409512D

 28 30  0  0  0  0            999 V2000
    6.5126   -6.1334    0.0000 O   0  0
    6.9293   -6.8501    0.0000 S   0  0
    7.3416   -6.1309    0.0000 O   0  0
    4.0750   -3.5667    0.0000 C   0  0
    4.0750   -4.3917    0.0000 C   0  0
    4.7871   -4.8001    0.0000 C   0  0
    5.4991   -4.3917    0.0000 N   0  0
    4.7871   -3.1501    0.0000 C   0  0
    5.4999   -3.5673    0.0000 N   0  0
    6.1171   -3.0182    0.0000 C   0  0
    5.7856   -2.2615    0.0000 N   0  0
    4.9637   -2.3431    0.0000 N   0  0
    6.9230   -3.1945    0.0000 C   0  0
    3.3593   -3.1563    0.0000 N   0  0
    4.7867   -5.6242    0.0000 C   0  0
    4.0705   -6.0361    0.0000 C   0  0
    4.0702   -6.8603    0.0000 C   0  0
    4.7852   -7.2738    0.0000 C   0  0
    5.5021   -6.8568    0.0000 C   0  0
    5.4988   -6.0339    0.0000 C   0  0
    4.7863   -8.0988    0.0000 C   0  0
    6.2179   -7.2668    0.0000 N   0  0
    7.6469   -7.2617    0.0000 C   0  0
    3.3569   -2.3313    0.0000 C   0  0
    2.6412   -1.9209    0.0000 O   0  0
    4.0702   -1.9167    0.0000 O   0  0
    2.6388   -1.0959    0.0000 C   0  0
    1.9231   -0.6855    0.0000 C   0  0
  2  1  2  0
  3  2  2  0
  4  5  2  0
  4  8  1  0
  5  6  1  0
  6  7  2  0
  7  9  1  0
  8  9  1  0
  9 10  1  0
 10 11  2  0
 11 12  1  0
 12  8  2  0
 10 13  1  0
  4 14  1  0
 15 16  2  0
 16 17  1  0
 17 18  2  0
 18 19  1  0
 19 20  2  0
 20 15  1  0
  6 15  1  0
 18 21  1  0
 19 22  1  0
 22  2  1  0
  2 23  1  0
 14 24  1  0
 24 25  1  0
 24 26  2  0
 25 27  1  0
 27 28  1  0
M  END