
          11280715112D 1   1.00000     0.00000     0

 27 29  0     0  0            999 V2000
   -1.8458    0.8458    0.0000 C   0  0  0  0  0  0           0  0  0
   -2.6000    0.5083    0.0000 N   0  0  3  0  0  0           0  0  0
   -3.1500    1.1250    0.0000 N   0  0  0  0  0  0           0  0  0
   -1.9333    1.6708    0.0000 C   0  0  0  0  0  0           0  0  0
   -2.7375    1.8375    0.0000 C   0  0  0  0  0  0           0  0  0
   -1.1333    0.4333    0.0000 N   0  0  0  0  0  0           0  0  0
   -0.4208    0.8458    0.0000 C   0  0  0  0  0  0           0  0  0
   -2.8333   -0.2792    0.0000 C   0  0  0  0  0  0           0  0  0
   -3.0750    2.5958    0.0000 C   0  0  3  0  0  0           0  0  0
   -3.6333   -0.4667    0.0000 C   0  0  0  0  0  0           0  0  0
    0.2917    0.4333    0.0000 N   0  0  0  0  0  0           0  0  0
   -0.4208    1.6708    0.0000 O   0  0  0  0  0  0           0  0  0
   -3.8708   -1.2542    0.0000 C   0  0  0  0  0  0           0  0  0
    1.0125    0.8458    0.0000 C   0  0  0  0  0  0           0  0  0
   -2.2708   -0.8667    0.0000 C   0  0  0  0  0  0           0  0  0
   -4.6708   -1.4542    0.0000 O   0  0  0  0  0  0           0  0  0
   -2.4958   -1.6625    0.0000 C   0  0  0  0  0  0           0  0  0
   -3.2958    3.3958    0.0000 C   0  0  0  0  0  0           0  0  0
   -2.3625    3.0083    0.0000 C   0  0  0  0  0  0           0  0  0
   -3.8750    2.3833    0.0000 C   0  0  0  0  0  0           0  0  0
   -3.3083   -1.8542    0.0000 C   0  0  0  0  0  0           0  0  0
    1.0042    1.6625    0.0000 C   0  0  0  0  0  0           0  0  0
    1.7250    0.4250    0.0000 C   0  0  0  0  0  0           0  0  0
   -4.9083   -2.2417    0.0000 C   0  0  0  0  0  0           0  0  0
    1.7167    2.0833    0.0000 C   0  0  0  0  0  0           0  0  0
    2.4375    0.8375    0.0000 C   0  0  0  0  0  0           0  0  0
    2.4417    1.6625    0.0000 C   0  0  0  0  0  0           0  0  0
  2  1  1  0     0  0
  3  2  1  0     0  0
  4  1  2  0     0  0
  5  4  1  0     0  0
  6  1  1  0     0  0
  7  6  1  0     0  0
  8  2  1  0     0  0
  9  5  1  0     0  0
 10  8  2  0     0  0
 11  7  1  0     0  0
 12  7  2  0     0  0
 13 10  1  0     0  0
 14 11  1  0     0  0
 15  8  1  0     0  0
 16 13  1  0     0  0
 17 15  2  0     0  0
 18  9  1  0     0  0
 19  9  1  0     0  0
 20  9  1  0     0  0
 21 17  1  0     0  0
 22 14  1  0     0  0
 23 14  2  0     0  0
 24 16  1  0     0  0
 25 22  2  0     0  0
 26 23  1  0     0  0
 27 26  2  0     0  0
  3  5  2  0     0  0
 21 13  2  0     0  0
 25 27  1  0     0  0
M  END