
  Mrv0541 04051115152D          

 30 32  0  0  0  0            999 V2000
   -2.6954   -1.3994    0.0000 O   0  0  0  0  0  0  0  0  0  0  0  0
   -2.0823   -0.8473    0.0000 C   0  0  0  0  0  0  0  0  0  0  0  0
   -2.2538   -0.0404    0.0000 O   0  0  0  0  0  0  0  0  0  0  0  0
   -1.2976   -1.1023    0.0000 C   0  0  0  0  0  0  0  0  0  0  0  0
   -1.0427   -1.8869    0.0000 S   0  0  0  0  0  0  0  0  0  0  0  0
   -0.2177   -1.8869    0.0000 C   0  0  0  0  0  0  0  0  0  0  0  0
    0.2672   -2.5543    0.0000 C   0  0  0  0  0  0  0  0  0  0  0  0
    1.0877   -2.4681    0.0000 C   0  0  0  0  0  0  0  0  0  0  0  0
    1.5726   -3.1355    0.0000 C   0  0  0  0  0  0  0  0  0  0  0  0
    1.2371   -3.8892    0.0000 C   0  0  0  0  0  0  0  0  0  0  0  0
    0.4166   -3.9754    0.0000 C   0  0  0  0  0  0  0  0  0  0  0  0
   -0.0683   -3.3080    0.0000 C   0  0  0  0  0  0  0  0  0  0  0  0
    0.0372   -1.1023    0.0000 C   0  0  0  0  0  0  0  0  0  0  0  0
   -0.6302   -0.6173    0.0000 C   0  0  0  0  0  0  0  0  0  0  0  0
   -0.6302    0.2077    0.0000 C   0  0  0  0  0  0  0  0  0  0  0  0
    0.0843    0.6202    0.0000 N   0  0  0  0  0  0  0  0  0  0  0  0
    0.0843    1.4452    0.0000 C   0  0  0  0  0  0  0  0  0  0  0  0
   -0.6302    1.8577    0.0000 O   0  0  0  0  0  0  0  0  0  0  0  0
    0.7987    0.2077    0.0000 C   0  0  0  0  0  0  0  0  0  0  0  0
    0.7987   -0.6173    0.0000 O   0  0  0  0  0  0  0  0  0  0  0  0
    1.5132    0.6202    0.0000 C   0  0  0  0  0  0  0  0  0  0  0  0
    2.2277    0.2077    0.0000 C   0  0  0  0  0  0  0  0  0  0  0  0
    1.5132    1.4452    0.0000 C   0  0  0  0  0  0  0  0  0  0  0  0
    0.7987    1.8577    0.0000 N   0  0  0  0  0  0  0  0  0  0  0  0
    0.7987    2.6827    0.0000 C   0  0  0  0  0  0  0  0  0  0  0  0
    0.0843    3.0952    0.0000 C   0  0  2  0  0  0  0  0  0  0  0  0
   -0.6302    2.6827    0.0000 N   0  0  0  0  0  0  0  0  0  0  0  0
    0.0843    3.9202    0.0000 C   0  0  0  0  0  0  0  0  0  0  0  0
   -0.6302    4.3327    0.0000 O   0  0  0  0  0  0  0  0  0  0  0  0
    0.7987    4.3327    0.0000 O   0  0  0  0  0  0  0  0  0  0  0  0
 26 27  1  6  0  0  0
 28 29  2  0  0  0  0
  2  1  2  0  0  0  0
 28 26  1  0  0  0  0
 28 30  1  0  0  0  0
 25 26  1  0  0  0  0
  2  3  1  0  0  0  0
  4  2  1  0  0  0  0
 15 16  1  0  0  0  0
 15 14  1  0  0  0  0
 19 20  2  0  0  0  0
 19 16  1  0  0  0  0
 17 16  1  0  0  0  0
 21 19  1  0  0  0  0
 17 18  2  0  0  0  0
 17 24  1  0  0  0  0
 21 22  1  0  0  0  0
 21 23  2  0  0  0  0
 23 24  1  0  0  0  0
 25 24  1  0  0  0  0
 14  4  2  0  0  0  0
  4  5  1  0  0  0  0
 14 13  1  0  0  0  0
 13  6  2  0  0  0  0
  6  5  1  0  0  0  0
  6  7  1  0  0  0  0
  7  8  2  0  0  0  0
  7 12  1  0  0  0  0
  9  8  1  0  0  0  0
 12 11  2  0  0  0  0
 10  9  2  0  0  0  0
 11 10  1  0  0  0  0
M  END