
  SciTegic03291108502D

 24 27  0  0  0  0            999 V2000
   -0.7476   -2.1307    0.0000 S   0  0
    0.7514    0.1867    0.0000 S   0  0
   -2.8715    1.1165    0.0000 O   0  0
    0.7514   -2.2883    0.0000 N   0  0
    1.4659   -1.0508    0.0000 N   0  0
    1.5522    1.4197    0.0000 N   0  0
    2.2196    0.2637    0.0000 N   0  0
    2.3591    1.5912    0.0000 N   0  0
    2.7716    0.8768    0.0000 N   0  0
    0.0370   -1.0508    0.0000 C   0  0
   -0.7476   -0.7958    0.0000 C   0  0
    0.0370   -1.8758    0.0000 C   0  0
    0.7514   -0.6383    0.0000 C   0  0
   -1.0026   -0.0112    0.0000 C   0  0
   -1.2326   -1.4633    0.0000 C   0  0
    1.4659    0.5992    0.0000 C   0  0
    1.4659   -1.8758    0.0000 C   0  0
   -1.8096    0.1603    0.0000 C   0  0
   -0.4505    0.6019    0.0000 C   0  0
   -2.0645    0.9449    0.0000 C   0  0
   -0.7055    1.3865    0.0000 C   0  0
   -1.5125    1.5580    0.0000 C   0  0
    0.9391    1.9717    0.0000 C   0  0
   -3.4235    0.5034    0.0000 C   0  0
  1 12  1  0
  1 15  1  0
  2 13  1  0
  2 16  1  0
  3 20  1  0
  3 24  1  0
  4 12  2  0
  4 17  1  0
  5 13  1  0
  5 17  2  0
  6  8  1  0
  6 16  1  0
  6 23  1  0
  7  9  1  0
  7 16  2  0
  8  9  2  0
 10 11  1  0
 10 12  1  0
 10 13  2  0
 11 14  1  0
 11 15  2  0
 14 18  2  0
 14 19  1  0
 18 20  1  0
 19 21  2  0
 20 22  2  0
 21 22  1  0
M  END