
  SciTegic06051315212D

 27 29  0  0  0  0            999 V2000
   20.9608  -23.8884    0.0000 C   0  0
   20.9596  -24.7079    0.0000 C   0  0
   21.6677  -25.1169    0.0000 C   0  0
   22.3773  -24.7074    0.0000 C   0  0
   22.3745  -23.8848    0.0000 C   0  0
   21.6659  -23.4795    0.0000 C   0  0
   21.6641  -25.9314    0.0000 N   0  0
   20.9545  -26.3386    0.0000 C   0  0
   20.9523  -27.1522    0.0000 C   0  0
   21.6581  -27.5648    0.0000 N   0  0
   22.3677  -27.1576    0.0000 C   0  0
   22.3716  -26.3378    0.0000 C   0  0
   21.6548  -28.3820    0.0000 C   0  0
   21.6597  -22.6606    0.0000 N   0  3
   20.9508  -22.2541    0.0000 O   0  0
   22.3662  -22.2499    0.0000 O   0  5
   23.0857  -25.1149    0.0000 N   0  0
   23.7928  -24.7052    0.0000 C   0  0
   24.5011  -25.1127    0.0000 C   0  0
   23.7915  -23.8880    0.0000 O   0  0
   24.4978  -25.9283    0.0000 C   0  0
   25.2053  -26.3357    0.0000 C   0  0
   25.9133  -25.9260    0.0000 C   0  0
   25.9094  -25.1046    0.0000 C   0  0
   25.2013  -24.7009    0.0000 C   0  0
   26.6222  -26.3325    0.0000 F   0  0
   25.1958  -23.8837    0.0000 Cl  0  0
  1  2  2  0
  2  3  1  0
  3  4  2  0
  4  5  1  0
  5  6  2  0
  6  1  1  0
  7  8  1  0
  7 12  1  0
  8  9  1  0
  9 10  1  0
 10 11  1  0
 11 12  1  0
  3  7  1  0
 10 13  1  0
 14 15  2  0
 14 16  1  0
  6 14  1  0
  4 17  1  0
 17 18  1  0
 18 19  1  0
 18 20  2  0
 19 21  2  0
 21 22  1  0
 22 23  2  0
 23 24  1  0
 24 25  2  0
 25 19  1  0
 23 26  1  0
 25 27  1  0
M  CHG  2  14   1  16  -1
M  END