
          11280715302D 1   1.00000     0.00000     0

 38 42  0     0  0            999 V2000
   -0.8125    0.9458    0.0000 C   0  0  0  0  0  0           0  0  0
   -1.4750    0.4583    0.0000 N   0  0  3  0  0  0           0  0  0
   -2.1458    0.9333    0.0000 N   0  0  0  0  0  0           0  0  0
   -1.0708    1.7250    0.0000 C   0  0  0  0  0  0           0  0  0
   -1.8958    1.7208    0.0000 C   0  0  0  0  0  0           0  0  0
   -0.0250    0.6958    0.0000 N   0  0  0  0  0  0           0  0  0
    0.5792    1.2458    0.0000 C   0  0  0  0  0  0           0  0  0
    1.9792    1.5500    0.0000 C   0  0  0  0  0  0           0  0  0
    1.3667    0.9958    0.0000 N   0  0  0  0  0  0           0  0  0
    2.7625    1.2958    0.0000 C   0  0  0  0  0  0           0  0  0
    3.3792    1.8500    0.0000 C   0  0  0  0  0  0           0  0  0
   -2.3833    2.3958    0.0000 C   0  0  3  0  0  0           0  0  0
    5.9917    3.2583    0.0000 N   0  0  3  0  0  0           0  0  0
   -1.4750   -0.3667    0.0000 C   0  0  3  0  0  0           0  0  0
    3.2042    2.6583    0.0000 C   0  0  0  0  0  0           0  0  0
    0.4042    2.0500    0.0000 O   0  0  0  0  0  0           0  0  0
    1.8042    2.3458    0.0000 C   0  0  0  0  0  0           0  0  0
    2.4125    2.9083    0.0000 C   0  0  0  0  0  0           0  0  0
    7.5625    2.7375    0.0000 O   0  0  0  0  0  0           0  0  0
    3.8167    3.2083    0.0000 O   0  0  0  0  0  0           0  0  0
    5.2125    3.5083    0.0000 C   0  0  0  0  0  0           0  0  0
    4.6000    2.9583    0.0000 C   0  0  0  0  0  0           0  0  0
    6.6042    3.8083    0.0000 C   0  0  0  0  0  0           0  0  0
    6.1667    2.4458    0.0000 C   0  0  0  0  0  0           0  0  0
    2.9375    0.4875    0.0000 C   0  0  0  0  0  0           0  0  0
    4.1667    1.6083    0.0000 C   0  0  0  0  0  0           0  0  0
   -2.0583    3.1458    0.0000 C   0  0  0  0  0  0           0  0  0
   -3.2083    2.2958    0.0000 C   0  0  0  0  0  0           0  0  0
   -2.9708    2.9833    0.0000 C   0  0  0  0  0  0           0  0  0
    7.3917    3.5458    0.0000 C   0  0  0  0  0  0           0  0  0
    6.9417    2.1875    0.0000 C   0  0  0  0  0  0           0  0  0
   -2.1958   -0.7875    0.0000 C   0  0  0  0  0  0           0  0  0
   -0.7583   -0.7792    0.0000 C   0  0  0  0  0  0           0  0  0
    3.7250    0.2333    0.0000 C   0  0  0  0  0  0           0  0  0
    4.3417    0.7958    0.0000 C   0  0  0  0  0  0           0  0  0
   -0.7625   -1.6125    0.0000 C   0  0  0  0  0  0           0  0  0
   -2.1958   -1.6042    0.0000 C   0  0  0  0  0  0           0  0  0
   -1.4833   -2.0250    0.0000 C   0  0  0  0  0  0           0  0  0
  2  1  1  0     0  0
  3  2  1  0     0  0
  4  1  2  0     0  0
  5  4  1  0     0  0
  6  1  1  0     0  0
  7  6  1  0     0  0
  8  9  1  0     0  0
  9  7  1  0     0  0
 10  8  2  0     0  0
 11 10  1  0     0  0
 12  5  1  0     0  0
 13 21  1  0     0  0
 14  2  1  0     0  0
 15 18  1  0     0  0
 16  7  2  0     0  0
 17  8  1  0     0  0
 18 17  2  0     0  0
 19 31  1  0     0  0
 20 15  1  0     0  0
 21 22  1  0     0  0
 22 20  1  0     0  0
 23 13  1  0     0  0
 24 13  1  0     0  0
 25 10  1  0     0  0
 26 11  1  0     0  0
 27 12  1  0     0  0
 28 12  1  0     0  0
 29 12  1  0     0  0
 30 23  1  0     0  0
 31 24  1  0     0  0
 32 14  1  0     0  0
 33 14  1  0     0  0
 34 25  2  0     0  0
 35 34  1  0     0  0
 36 33  1  0     0  0
 37 32  1  0     0  0
 38 36  1  0     0  0
  3  5  2  0     0  0
 38 37  1  0     0  0
 15 11  2  0     0  0
 26 35  2  0     0  0
 19 30  1  0     0  0
M  END