
  CDK    9/16/09,10:9

 15 14  0  0  0  0  0  0  0  0999 V2000
   -3.9205    1.1368    0.0000 C   0  0  0  0  0  0  0  0  0  0  0  0
   -3.2050    1.5475    0.0000 C   0  0  0  0  0  0  0  0  0  0  0  0
   -2.4894    1.1368    0.0000 C   0  0  0  0  0  0  0  0  0  0  0  0
   -1.7739    1.5475    0.0000 C   0  0  0  0  0  0  0  0  0  0  0  0
   -1.0583    1.1368    0.0000 C   0  0  0  0  0  0  0  0  0  0  0  0
   -3.9205    0.3112    0.0000 O   0  0  0  0  0  0  0  0  0  0  0  0
   -4.6360    1.5475    0.0000 O   0  0  0  0  0  0  0  0  0  0  0  0
   -0.3470    1.5475    0.0000 S   0  0  0  0  0  0  0  0  0  0  0  0
    0.3686    1.1368    0.0000 C   0  0  0  0  0  0  0  0  0  0  0  0
    1.0841    1.5475    0.0000 C   0  0  0  0  0  0  0  0  0  0  0  0
    1.7996    1.1368    0.0000 C   0  0  0  0  0  0  0  0  0  0  0  0
    2.5152    1.5475    0.0000 C   0  0  0  0  0  0  0  0  0  0  0  0
    1.7996    0.3112    0.0000 N   0  0  0  0  0  0  0  0  0  0  0  0
    3.2307    1.1368    0.0000 O   0  0  0  0  0  0  0  0  0  0  0  0
    2.5152    2.3730    0.0000 O   0  0  0  0  0  0  0  0  0  0  0  0
  5  8  1  0  0  0  0 
  8  9  1  0  0  0  0 
  4  5  1  0  0  0  0 
  9 10  1  0  0  0  0 
  2  3  1  0  0  0  0 
 10 11  1  0  0  0  0 
  1  6  2  0  0  0  0 
 11 12  1  0  0  0  0 
  1  2  1  0  0  0  0 
 11 13  1  0  0  0  0 
  1  7  1  0  0  0  0 
 12 14  1  0  0  0  0 
  3  4  1  0  0  0  0 
 12 15  2  0  0  0  0 
M  END