
  SciTegic10011413212D

 27 28  0  0  0  0            999 V2000
    4.8500   -9.8334    0.0000 C   0  0
    5.5645   -9.4209    0.0000 C   0  0
    6.2790   -9.8334    0.0000 C   0  0
    6.9934   -9.4209    0.0000 C   0  0
    7.7079   -9.8334    0.0000 N   0  0
    8.4224   -9.4209    0.0000 C   0  0
    9.1368   -9.8334    0.0000 N   0  0
    8.4224   -8.5959    0.0000 N   0  0
    9.8514   -9.4209    0.0000 C   0  0
   10.5659   -9.8334    0.0000 C   0  0
   11.2803   -9.4209    0.0000 C   0  0
   11.9948   -9.8334    0.0000 C   0  0
   11.2803   -8.5959    0.0000 C   0  0
    9.8514   -8.5959    0.0000 O   0  0
   11.9931  -10.6595    0.0000 C   0  0
   12.7067  -11.0719    0.0000 C   0  0
   13.4222  -10.6594    0.0000 C   0  0
   13.4196   -9.8301    0.0000 C   0  0
   12.7053   -9.4213    0.0000 C   0  0
    4.0624   -9.5731    0.0000 O   0  0
    3.5704  -10.2352    0.0000 C   0  0
    4.0482  -10.9079    0.0000 C   0  0
    4.8355  -10.6612    0.0000 C   0  0
    2.7454  -10.2265    0.0000 C   0  0
    2.3253  -10.9366    0.0000 N   0  0
    1.5004  -10.9278    0.0000 C   0  0
    2.7303  -11.6554    0.0000 C   0  0
  1  2  1  0
  2  3  1  0
  3  4  1  0
  4  5  1  0
  5  6  1  0
  6  7  2  0
  6  8  1  0
  7  9  1  0
  9 10  1  0
 10 11  1  0
 11 12  1  0
 11 13  1  0
  9 14  2  0
 12 15  2  0
 15 16  1  0
 16 17  2  0
 17 18  1  0
 18 19  2  0
 19 12  1  0
  1 20  1  0
 20 21  1  0
 21 22  2  0
 22 23  1  0
 23  1  2  0
 21 24  1  0
 24 25  1  0
 25 26  1  0
 25 27  1  0
M  END