
          01230816042D 1   1.00000     0.00000     0

 40 44  0     0  0            999 V2000
    8.7319   -3.5500    0.0000 C   0  0  0  0  0  0           0  0  0
    8.7307   -4.3774    0.0000 C   0  0  0  0  0  0           0  0  0
    9.4456   -4.7902    0.0000 C   0  0  0  0  0  0           0  0  0
    9.4438   -3.1372    0.0000 C   0  0  0  0  0  0           0  0  0
   10.8249   -4.8933    0.0000 C   0  0  0  0  0  0           0  0  0
   11.6580   -4.6742    0.0000 N   0  0  0  0  0  0           0  0  0
   11.9767   -3.9230    0.0000 N   0  0  3  0  0  0           0  0  0
   10.1594   -4.3791    0.0000 C   0  0  0  0  0  0           0  0  0
   10.1591   -3.5464    0.0000 C   0  0  0  0  0  0           0  0  0
   10.8383   -3.0047    0.0000 N   0  0  3  0  0  0           0  0  0
   11.6180   -3.1844    0.0000 C   0  0  0  0  0  0           0  0  0
   12.1320   -2.5392    0.0000 O   0  0  0  0  0  0           0  0  0
   12.8014   -3.9020    0.0000 C   0  0  0  0  0  0           0  0  0
   13.2320   -4.6058    0.0000 C   0  0  0  0  0  0           0  0  0
   14.0567   -4.5848    0.0000 N   0  0  0  0  0  0           0  0  0
   12.8378   -5.3305    0.0000 O   0  0  0  0  0  0           0  0  0
   14.4873   -5.2885    0.0000 C   0  0  0  0  0  0           0  0  0
   14.0908   -6.0121    0.0000 C   0  0  0  0  0  0           0  0  0
   14.5206   -6.7154    0.0000 C   0  0  0  0  0  0           0  0  0
   15.3463   -6.6948    0.0000 C   0  0  0  0  0  0           0  0  0
   15.7402   -5.9651    0.0000 C   0  0  0  0  0  0           0  0  0
   15.3080   -5.2648    0.0000 C   0  0  0  0  0  0           0  0  0
   10.8032   -2.1804    0.0000 C   0  0  0  0  0  0           0  0  0
   10.6607   -5.7018    0.0000 C   0  0  3  0  0  0           0  0  0
    9.8779   -5.9592    0.0000 C   0  0  0  0  0  0           0  0  0
    9.7125   -6.7637    0.0000 C   0  0  0  0  0  0           0  0  0
   10.3281   -7.3136    0.0000 C   0  0  0  0  0  0           0  0  0
   11.1119   -7.0531    0.0000 C   0  0  0  0  0  0           0  0  0
   11.2802   -6.2428    0.0000 C   0  0  0  0  0  0           0  0  0
   10.0718   -1.7987    0.0000 C   0  0  0  0  0  0           0  0  0
    9.3756   -2.2412    0.0000 O   0  0  0  0  0  0           0  0  0
   10.0367   -0.9745    0.0000 C   0  0  3  0  0  0           0  0  0
   10.0292   -0.1459    0.0000 C   0  0  0  0  0  0           0  0  0
    9.2120   -0.9958    0.0000 C   0  0  0  0  0  0           0  0  0
   10.8616   -0.9569    0.0000 C   0  0  0  0  0  0           0  0  0
   16.5648   -5.9412    0.0000 C   0  0  0  0  0  0           0  0  0
   17.0728   -6.5917    0.0000 N   0  0  0  0  0  0           0  0  0
   17.8497   -6.3141    0.0000 N   0  0  0  0  0  0           0  0  0
   17.8258   -5.4894    0.0000 N   0  0  0  0  0  0           0  0  0
   17.0341   -5.2573    0.0000 N   0  0  0  0  0  0           0  0  0
  5  8  1  0     0  0
 19 20  2  0     0  0
  9 10  1  0     0  0
 20 21  1  0     0  0
 10 11  1  0     0  0
 21 22  2  0     0  0
 22 17  1  0     0  0
 11  7  1  0     0  0
 10 23  1  0     0  0
  8  9  1  0     0  0
  5 24  1  0     0  0
 24 25  1  0     0  0
  2  3  1  0     0  0
 11 12  2  0     0  0
  3  8  2  0     0  0
  7 13  1  0     0  0
  1  2  2  0     0  0
 24 29  1  0     0  0
 25 26  1  0     0  0
 26 27  1  0     0  0
 27 28  1  0     0  0
 28 29  1  0     0  0
 13 14  1  0     0  0
 23 30  1  0     0  0
  9  4  2  0     0  0
 30 31  2  0     0  0
 14 15  1  0     0  0
 30 32  1  0     0  0
  4  1  1  0     0  0
 32 33  1  0     0  0
 14 16  2  0     0  0
 32 34  1  0     0  0
 32 35  1  0     0  0
 15 17  1  0     0  0
 21 36  1  0     0  0
 39 40  1  0     0  0
  5  6  2  0     0  0
 37 38  2  0     0  0
 17 18  2  0     0  0
  6  7  1  0     0  0
 18 19  1  0     0  0
 36 37  1  0     0  0
 38 39  1  0     0  0
 40 36  2  0     0  0
M  END