
  SciTegic01311317052D

 13 14  0  0  0  0            999 V2000
    1.2270    1.5241    0.0000 C   0  0
    1.2259    0.6973    0.0000 C   0  0
    1.9403    0.2846    0.0000 C   0  0
    1.9385    1.9367    0.0000 C   0  0
    1.9360    2.7612    0.0000 Cl  0  0
    2.6534    1.5278    0.0000 C   0  0
    2.6522    0.6952    0.0000 C   0  0
    3.3687    0.2801    0.0000 N   0  0
    4.0909    0.6931    0.0000 C   0  0
    4.0921    1.5257    0.0000 N   0  0
    3.3711    1.9454    0.0000 C   0  0
    4.8038    0.2788    0.0000 N   0  0
    3.3711    2.7699    0.0000 C   0  0
  2  3  1  0
  3  7  2  0
  1  2  2  0
  6  4  2  0
  4  1  1  0
  6 11  1  0
  7  8  1  0
  8  9  2  0
  9 10  1  0
 10 11  1  0
  4  5  1  0
  9 12  1  0
  6  7  1  0
 11 13  1  0
M  END