
          11280715122D 1   1.00000     0.00000     0

 31 33  0     0  0            999 V2000
    4.4750   -4.8667    0.0000 C   0  0  0  0  0  0           0  0  0
    3.7625   -4.4542    0.0000 C   0  0  0  0  0  0           0  0  0
   -0.2833   -4.9750    0.0000 N   0  0  3  0  0  0           0  0  0
   -1.0000   -4.5625    0.0000 C   0  0  0  0  0  0           0  0  0
    4.4750   -5.6917    0.0000 C   0  0  0  0  0  0           0  0  0
   -1.0000   -3.7292    0.0000 C   0  0  0  0  0  0           0  0  0
    1.0792   -5.9000    0.0000 N   0  0  3  0  0  0           0  0  0
   -1.7208   -3.3167    0.0000 C   0  0  0  0  0  0           0  0  0
    3.7625   -3.6292    0.0000 N   0  0  3  0  0  0           0  0  0
   -1.7208   -4.9750    0.0000 C   0  0  0  0  0  0           0  0  0
    5.1875   -6.1042    0.0000 N   0  0  0  0  0  0           0  0  0
    3.0417   -4.8667    0.0000 O   0  0  0  0  0  0           0  0  0
    0.4542   -4.6042    0.0000 C   0  0  0  0  0  0           0  0  0
   -0.3458   -5.7917    0.0000 C   0  0  0  0  0  0           0  0  0
    3.7667   -6.1125    0.0000 N   0  0  0  0  0  0           0  0  0
    1.1375   -5.0750    0.0000 C   0  0  0  0  0  0           0  0  0
    0.3375   -6.2542    0.0000 C   0  0  0  0  0  0           0  0  0
   -2.4333   -3.7375    0.0000 C   0  0  0  0  0  0           0  0  0
   -2.4333   -4.5625    0.0000 C   0  0  0  0  0  0           0  0  0
   -0.2875   -3.3167    0.0000 O   0  0  0  0  0  0           0  0  0
    5.1875   -4.4542    0.0000 C   0  0  0  0  0  0           0  0  0
    1.7542   -6.3625    0.0000 C   0  0  0  0  0  0           0  0  0
    2.4667   -5.9417    0.0000 C   0  0  0  0  0  0           0  0  0
   -3.1458   -3.3250    0.0000 O   0  0  0  0  0  0           0  0  0
    5.9042   -5.6917    0.0000 C   0  0  0  0  0  0           0  0  0
    3.0542   -6.5292    0.0000 C   0  0  0  0  0  0           0  0  0
    4.4750   -3.2167    0.0000 C   0  0  0  0  0  0           0  0  0
    3.0417   -3.2167    0.0000 C   0  0  0  0  0  0           0  0  0
    0.4292   -3.7250    0.0000 C   0  0  0  0  0  0           0  0  0
   -3.8583   -3.7375    0.0000 C   0  0  0  0  0  0           0  0  0
    5.9042   -4.8667    0.0000 C   0  0  0  0  0  0           0  0  0
  2  1  1  0     0  0
  3 14  1  0     0  0
  4  3  1  0     0  0
  5  1  2  0     0  0
  6  4  1  0     0  0
  7 22  1  0     0  0
  8  6  2  0     0  0
  9  2  1  0     0  0
 10  4  2  0     0  0
 11  5  1  0     0  0
 12  2  2  0     0  0
 13 16  1  0     0  0
 14 17  1  0     0  0
 15  5  1  0     0  0
 16  7  1  0     0  0
 17  7  1  0     0  0
 18 19  2  0     0  0
 19 10  1  0     0  0
 20  6  1  0     0  0
 21  1  1  0     0  0
 22 23  1  0     0  0
 23 26  1  0     0  0
 24 18  1  0     0  0
 25 31  1  0     0  0
 26 15  1  0     0  0
 27  9  1  0     0  0
 28  9  1  0     0  0
 29 20  1  0     0  0
 30 24  1  0     0  0
 31 21  2  0     0  0
 25 11  2  0     0  0
  3 13  1  0     0  0
 18  8  1  0     0  0
M  END