
          11280715352D 1   1.00000     0.00000     0

 27 26  0     0  0            999 V2000
   -0.1583   -4.8292    0.0000 C   0  0  0  0  0  0           0  0  0
   -0.5708   -5.5500    0.0000 C   0  0  0  0  0  0           0  0  0
    3.1542   -1.4250    0.0000 N   0  0  0  0  0  0           0  0  0
    3.1375   -5.1042    0.0000 N   0  0  0  0  0  0           0  0  0
   -0.5708   -4.1125    0.0000 O   0  0  0  0  0  0           0  0  0
   -0.1583   -6.2667    0.0000 O   0  0  0  0  0  0           0  0  0
    3.5417   -5.8250    0.0000 C   0  0  3  0  0  0           0  0  0
    3.1542   -2.2500    0.0000 O   0  0  0  0  0  0           0  0  0
    2.4417   -1.0167    0.0000 C   0  0  0  0  0  0           0  0  0
    3.1500   -3.6792    0.0000 C   0  0  3  0  0  0           0  0  0
    0.6667   -4.8292    0.0000 O   0  0  0  0  0  0           0  0  0
   -1.4000   -5.5500    0.0000 O   0  0  0  0  0  0           0  0  0
    3.5542   -4.3917    0.0000 C   0  0  0  0  0  0           0  0  0
    3.5667   -2.9667    0.0000 C   0  0  0  0  0  0           0  0  0
    1.7292   -1.4292    0.0000 C   0  0  0  0  0  0           0  0  0
    1.0042   -1.0167    0.0000 C   0  0  0  0  0  0           0  0  0
    2.3167   -3.6667    0.0000 O   0  0  0  0  0  0           0  0  0
    0.3000   -1.4375    0.0000 C   0  0  0  0  0  0           0  0  0
    3.1250   -6.5375    0.0000 C   0  0  0  0  0  0           0  0  0
    4.3667   -5.8292    0.0000 C   0  0  0  0  0  0           0  0  0
    4.1250   -6.4125    0.0000 C   0  0  0  0  0  0           0  0  0
    2.4375   -0.1917    0.0000 C   0  0  0  0  0  0           0  0  0
    0.3000   -2.2667    0.0000 C   0  0  0  0  0  0           0  0  0
   -0.4208   -1.0250    0.0000 C   0  0  0  0  0  0           0  0  0
   -0.4208   -2.6792    0.0000 C   0  0  0  0  0  0           0  0  0
   -1.1333   -1.4417    0.0000 C   0  0  0  0  0  0           0  0  0
   -1.1333   -2.2667    0.0000 C   0  0  0  0  0  0           0  0  0
  2  1  1  0     0  0
  4 13  1  0     0  0
  5  1  2  0     0  0
  6  2  2  0     0  0
  7  4  1  0     0  0
  8  3  1  0     0  0
  9  3  2  0     0  0
 10 14  1  0     0  0
 11  1  1  0     0  0
 12  2  1  0     0  0
 13 10  1  0     0  0
 14  8  1  0     0  0
 15  9  1  0     0  0
 16 15  1  0     0  0
 17 10  1  0     0  0
 18 16  1  0     0  0
 19  7  1  0     0  0
 20  7  1  0     0  0
 21  7  1  0     0  0
 22  9  1  0     0  0
 23 18  1  0     0  0
 24 18  2  0     0  0
 25 23  2  0     0  0
 26 24  1  0     0  0
 27 26  2  0     0  0
 25 27  1  0     0  0
M  END