
  SciTegic05221516342D

 46 49  0  0  0  0            999 V2000
    3.5323   -6.1272    0.0000 O   0  0
    3.9425   -5.4206    0.0000 S   0  0
    3.1255   -5.4186    0.0000 O   0  0
    4.6423   -6.6472    0.0000 C   0  0
    3.9307   -7.0522    0.0000 C   0  0
    3.9287   -7.8744    0.0000 C   0  0
    4.6345   -8.2835    0.0000 C   0  0
    4.6472   -5.8300    0.0000 N   0  0
    3.9469   -4.6000    0.0000 C   0  0
    4.6575   -4.2012    0.0000 C   0  0
    4.6628   -3.3848    0.0000 C   0  0
    3.9571   -2.9711    0.0000 C   0  0
    3.2445   -3.3798    0.0000 C   0  0
    3.2427   -4.1948    0.0000 C   0  0
    5.9270   -6.4831    0.0000 O   0  0
    6.7487   -6.4852    0.0000 C   0  0  1  0  0  0
    7.3254   -7.0646    0.0000 C   0  0  1  0  0  0
    5.3475   -7.0600    0.0000 C   0  0
    5.3455   -7.8816    0.0000 C   0  0
    5.9223   -8.4612    0.0000 C   0  0
    6.7441   -8.4630    0.0000 N   0  0
    7.3236   -7.8863    0.0000 C   0  0
    5.6079   -9.2154    0.0000 O   0  0
    7.0633   -5.7309    0.0000 C   0  0
    7.8737   -5.6262    0.0000 N   0  0
    8.1883   -4.8720    0.0000 C   0  0
    8.3696   -6.2758    0.0000 C   0  0
    8.9988   -4.7673    0.0000 N   0  0
    7.6924   -4.2225    0.0000 O   0  0
    9.3133   -4.0131    0.0000 C   0  0
    8.0811   -6.7536    0.0000 C   0  0
    7.0550   -9.2187    0.0000 C   0  0  1  0  0  0
    6.5560   -9.8659    0.0000 C   0  0
    7.8650   -9.3273    0.0000 C   0  0
    8.1759  -10.0830    0.0000 O   0  0
   10.1241   -3.9134    0.0000 C   0  0
   10.4387   -3.1600    0.0000 C   0  0
    9.9426   -2.5095    0.0000 C   0  0
    9.1283   -2.6174    0.0000 C   0  0
    8.8174   -3.3709    0.0000 C   0  0
   10.2561   -1.7549    0.0000 C   0  0
   11.0664   -1.6491    0.0000 F   0  0
    9.7594   -1.1060    0.0000 F   0  0
   10.4625   -0.9616    0.0000 F   0  0
    3.9609   -2.1539    0.0000 F   0  0
    8.3640   -8.6801    0.0000 O   0  0
  2  1  2  0
  3  2  2  0
 18  4  1  0
  4  5  2  0
  5  6  1  0
  6  7  2  0
  7 19  1  0
  4  8  1  0
  8  2  1  0
  2  9  1  0
  9 10  2  0
 10 11  1  0
 11 12  2  0
 12 13  1  0
 13 14  2  0
 14  9  1  0
 15 16  1  0
 16 17  1  0
 15 18  1  0
 18 19  2  0
 19 20  1  0
 20 21  1  0
 21 22  1  0
 22 17  1  0
 20 23  2  0
 16 24  1  6
 24 25  1  0
 25 26  1  0
 25 27  1  0
 26 28  1  0
 26 29  2  0
 28 30  1  0
 17 31  1  6
 21 32  1  0
 32 33  1  6
 32 34  1  0
 34 35  1  0
 30 36  2  0
 36 37  1  0
 37 38  2  0
 38 39  1  0
 39 40  2  0
 40 30  1  0
 38 41  1  0
 41 42  1  0
 41 43  1  0
 41 44  1  0
 12 45  1  0
 34 46  2  0
M  END