
          01230816052D 1   1.00000     0.00000     0

 55 58  0     1  0            999 V2000
   -3.8139   -2.7917    0.0000 C   0  0  0  0  0  0           0  0  0
   -3.8150   -3.6191    0.0000 C   0  0  0  0  0  0           0  0  0
   -3.1002   -4.0319    0.0000 C   0  0  0  0  0  0           0  0  0
   -3.1020   -2.3789    0.0000 C   0  0  0  0  0  0           0  0  0
   -2.3866   -2.7881    0.0000 C   0  0  0  0  0  0           0  0  0
   -2.3859   -3.6149    0.0000 C   0  0  0  0  0  0           0  0  0
   -1.6706   -4.0259    0.0000 C   0  0  0  0  0  0           0  0  0
   -0.9555   -3.6111    0.0000 C   0  0  0  0  0  0           0  0  0
   -0.9603   -2.7811    0.0000 C   0  0  0  0  0  0           0  0  0
   -1.6762   -2.3739    0.0000 C   0  0  0  0  0  0           0  0  0
   -0.2484   -2.3643    0.0000 O   0  0  0  0  0  0           0  0  0
    0.4686   -2.7724    0.0000 C   0  0  0  0  0  0           0  0  0
    1.1806   -2.3556    0.0000 C   0  0  0  0  0  0           0  0  0
    1.8975   -2.7637    0.0000 N   0  0  0  0  0  0           0  0  0
    1.1755   -1.5306    0.0000 O   0  0  0  0  0  0           0  0  0
    2.6095   -2.3469    0.0000 C   0  0  2  0  0  0           0  0  0
    3.3264   -2.7550    0.0000 C   0  0  0  0  0  0           0  0  0
    2.6045   -1.5219    0.0000 C   0  0  0  0  0  0           0  0  0
    3.3315   -3.5800    0.0000 O   0  0  0  0  0  0           0  0  0
    4.0384   -2.3382    0.0000 N   0  0  0  0  0  0           0  0  0
    3.3164   -1.1051    0.0000 C   0  0  0  0  0  0           0  0  0
    3.3114   -0.2801    0.0000 C   0  0  0  0  0  0           0  0  0
    4.0233    0.1368    0.0000 C   0  0  0  0  0  0           0  0  0
    4.0183    0.9617    0.0000 N   0  0  0  0  0  0           0  0  0
    4.7554   -2.7463    0.0000 C   0  0  2  0  0  0           0  0  0
    5.4673   -2.3295    0.0000 C   0  0  0  0  0  0           0  0  0
    4.7604   -3.5713    0.0000 C   0  0  3  0  0  0           0  0  0
    4.0484   -3.9882    0.0000 C   0  0  0  0  0  0           0  0  0
    5.4773   -3.9795    0.0000 C   0  0  0  0  0  0           0  0  0
    6.1843   -2.7376    0.0000 N   0  0  0  0  0  0           0  0  0
    5.4623   -1.5045    0.0000 O   0  0  0  0  0  0           0  0  0
    6.8962   -2.3208    0.0000 C   0  0  0  0  0  0           0  0  0
    7.6132   -2.7289    0.0000 C   0  0  0  0  0  0           0  0  0
    8.3251   -2.3121    0.0000 N   0  0  0  0  0  0           0  0  0
    7.6182   -3.5539    0.0000 O   0  0  0  0  0  0           0  0  0
    9.0421   -2.7202    0.0000 C   0  0  2  0  0  0           0  0  0
    9.7548   -2.3022    0.0000 C   0  0  0  0  0  0           0  0  0
    9.0471   -3.5452    0.0000 C   0  0  1  0  0  0           0  0  0
   10.5533   -2.5093    0.0000 N   0  0  3  0  0  0           0  0  0
    9.7490   -1.4784    0.0000 O   0  0  0  0  0  0           0  0  0
    8.3352   -3.9621    0.0000 C   0  0  0  0  0  0           0  0  0
    9.7641   -3.9534    0.0000 O   0  0  0  0  0  0           0  0  0
   10.8584   -3.2756    0.0000 C   0  0  1  0  0  0           0  0  0
   11.6819   -3.2257    0.0000 C   0  0  0  0  0  0           0  0  0
   11.8889   -2.4271    0.0000 C   0  0  0  0  0  0           0  0  0
   11.1934   -1.9835    0.0000 C   0  0  0  0  0  0           0  0  0
   10.4162   -3.9721    0.0000 C   0  0  0  0  0  0           0  0  0
   10.7983   -4.7033    0.0000 O   0  0  0  0  0  0           0  0  0
   11.6225   -4.7380    0.0000 C   0  0  0  0  0  0           0  0  0
   12.0046   -5.4692    0.0000 N   0  0  0  0  0  0           0  0  0
   12.0648   -4.0415    0.0000 S   0  0  0  0  0  0           0  0  0
   11.5624   -6.1657    0.0000 C   0  0  3  0  0  0           0  0  0
   10.8367   -6.5487    0.0000 C   0  0  0  0  0  0           0  0  0
   11.5332   -6.9909    0.0000 C   0  0  0  0  0  0           0  0  0
   11.2667   -3.9875    0.0000 H   0  0  0  0  0  0           0  0  0
 13 15  2  0     0  0
 30 32  1  0     0  0
  1  2  2  0     0  0
 32 33  1  0     0  0
 14 16  1  0     0  0
 33 34  1  0     0  0
  7  8  2  0     0  0
 33 35  2  0     0  0
 16 17  1  0     0  0
 36 34  1  6     0  0
  5  4  2  0     0  0
 36 37  1  0     0  0
 16 18  1  1     0  0
 36 38  1  0     0  0
  8  9  1  0     0  0
 37 39  1  0     0  0
 17 19  2  0     0  0
 37 40  2  0     0  0
  4  1  1  0     0  0
 38 41  1  0     0  0
 17 20  1  0     0  0
 38 42  1  6     0  0
 39 43  1  0     0  0
  9 10  2  0     0  0
 18 21  1  0     0  0
 10  5  1  0     0  0
 21 22  1  0     0  0
 43 44  1  0     0  0
 44 45  1  0     0  0
 45 46  1  0     0  0
 46 39  1  0     0  0
 22 23  1  0     0  0
  9 11  1  0     0  0
 23 24  1  0     0  0
  2  3  1  0     0  0
 20 25  1  0     0  0
 11 12  1  0     0  0
 25 26  1  0     0  0
  5  6  1  0     0  0
 25 27  1  6     0  0
 43 47  1  0     0  0
 12 13  1  0     0  0
 47 48  1  0     0  0
 27 28  1  0     0  0
 48 49  1  0     0  0
  3  6  2  0     0  0
 49 50  1  0     0  0
 27 29  1  0     0  0
 49 51  2  0     0  0
 13 14  1  0     0  0
 50 52  1  0     0  0
 53 52  1  0     0  0
 54 53  1  0     0  0
 52 54  1  0     0  0
 26 30  1  0     0  0
  6  7  1  0     0  0
 26 31  2  0     0  0
 43 55  1  6     0  0
M  END