
  SciTegic04091511462D

 60 64  0  0  1  0            999 V2000
    7.2237   -7.0069    0.0000 N   0  0
    7.5964   -6.2479    0.0000 C   0  0
    5.8479   -6.1119    0.0000 C   0  0
    6.3822   -6.7859    0.0000 C   0  0  2  0  0  0
    8.7012   -5.5445    0.0000 N   0  0
    7.9339   -3.2529    0.0000 N   0  0
    7.8003   -0.8296    0.0000 N   0  0
    5.6347   -5.2809    0.0000 N   0  0
    8.1465   -2.4565    0.0000 C   0  0
    8.6426   -4.7244    0.0000 C   0  0
    7.8721   -7.5551    0.0000 C   0  0
    8.4283   -6.3318    0.0000 C   0  0  2  0  0  0
    8.9508   -0.7031    0.0000 C   0  0
    7.2019   -0.2443    0.0000 C   0  0
    7.8888   -1.6593    0.0000 C   0  0  1  0  0  0
    8.5928   -7.1511    0.0000 C   0  0
    5.7646   -1.0263    0.0000 N   0  0
    8.3898   -3.9380    0.0000 C   0  0  2  0  0  0
    5.3546   -3.8173    0.0000 C   0  0
    8.9508    0.6318    0.0000 N   0  0
    5.4285   -2.9880    0.0000 N   0  0
    8.4658   -0.0357    0.0000 C   0  0
    6.3791   -0.4439    0.0000 C   0  0  1  0  0  0
    5.8843   -4.4641    0.0000 C   0  0  2  0  0  0
    5.0877   -1.5311    0.0000 C   0  0
    8.6958   -1.4877    0.0000 C   0  0
    9.7354   -0.4482    0.0000 C   0  0
    9.7354    0.3768    0.0000 C   0  0
    4.7658    1.0263    0.0000 C   0  0
    7.1958   -5.5267    0.0000 O   0  0
    5.1090   -6.4787    0.0000 O   0  0
    5.9311   -7.4766    0.0000 C   0  0
    9.4526   -4.5677    0.0000 O   0  0
    8.9712   -2.4352    0.0000 O   0  0
    7.4204    0.5513    0.0000 O   0  0
    9.1330   -3.5798    0.0000 C   0  0
    4.5662   -4.0601    0.0000 O   0  0
    4.8927   -2.3490    0.0000 C   0  0
    4.3986   -1.0776    0.0000 O   0  0
    3.9411    1.0472    0.0000 O   0  0
    5.9848    0.2808    0.0000 C   0  0
    5.1601    0.3016    0.0000 C   0  0
    5.1962    1.7301    0.0000 N   0  0
    5.0749   -4.6238    0.0000 C   0  0
    9.8148   -4.0444    0.0000 C   0  0
    3.9991   -5.5644    0.0000 S   0  0
   10.4499   -0.8607    0.0000 C   0  0
    5.1073   -7.4313    0.0000 C   0  0
    4.8085   -5.4047    0.0000 C   0  0
   10.4499    0.7893    0.0000 C   0  0
    3.7327   -6.3452    0.0000 C   0  0
    9.7534   -4.8671    0.0000 C   0  0
   10.5580   -3.6862    0.0000 C   0  0
    4.6561   -8.1220    0.0000 C   0  0
    4.7347   -6.6952    0.0000 C   0  0
   11.1643   -0.4482    0.0000 C   0  0
   11.1643    0.3768    0.0000 C   0  0
   11.2398   -4.1507    0.0000 C   0  0
   10.4352   -5.3316    0.0000 C   0  0
   11.1784   -4.9734    0.0000 C   0  0
  2  1  1  0
  3  4  1  0
  4  1  1  0
 12  5  1  6
  6 18  1  0
  7 15  1  0
  8  3  1  0
  9  6  1  0
 10  5  1  0
 11  1  1  0
 12  2  1  0
 13 26  1  0
 14  7  1  0
 15  9  1  0
 16 11  2  0
 17 25  1  0
 18 10  1  0
 19 24  1  0
 20 22  1  0
 21 19  1  0
 22 13  2  0
 23 17  1  0
 24  8  1  0
 25 38  1  0
 15 26  1  1
 27 13  1  0
 28 27  2  0
 29 42  1  0
 30  2  2  0
 31  3  2  0
  4 32  1  1
 33 10  2  0
 34  9  2  0
 35 14  2  0
 18 36  1  1
 37 19  2  0
 38 21  1  0
 39 25  2  0
 40 29  2  0
 23 41  1  1
 42 41  1  0
 43 29  1  0
 24 44  1  6
 45 36  1  0
 46 49  1  0
 47 27  1  0
 48 32  1  0
 49 44  1  0
 50 28  1  0
 51 46  1  0
 52 45  2  0
 53 45  1  0
 54 48  1  0
 55 48  1  0
 56 47  2  0
 57 56  1  0
 58 53  2  0
 59 52  1  0
 60 58  1  0
 16 12  1  0
 14 23  1  0
 60 59  2  0
 20 28  1  0
 57 50  2  0
M  END