
  SciTegic09261414482D

 13 14  0  0  0  0            999 V2000
    4.5812   -4.1438    0.0000 N   0  0
    4.1687   -4.8583    0.0000 C   0  0
    4.9937   -4.8583    0.0000 C   0  0
    3.4542   -5.2708    0.0000 C   0  0
    2.7397   -4.8583    0.0000 C   0  0
    2.7397   -4.0333    0.0000 C   0  0
    2.0253   -3.6208    0.0000 C   0  0
    1.3108   -4.0333    0.0000 C   0  0
    1.3108   -4.8583    0.0000 C   0  0
    2.0253   -5.2708    0.0000 C   0  0
    3.4542   -6.0958    0.0000 O   0  0
    5.4062   -5.5727    0.0000 C   0  0
    5.8187   -4.8583    0.0000 C   0  0
  1  2  1  0
  2  3  1  0
  1  3  1  0
  4  5  1  0
  5  6  1  0
  6  7  2  0
  7  8  1  0
  8  9  2  0
  9 10  1  0
  5 10  2  0
  4 11  1  0
  2  4  1  0
  3 12  1  0
 13  3  1  0
M  END