
  SciTegic04091416462D

 15 16  0  0  0  0            999 V2000
   19.0665  -14.1977    0.0000 C   0  0
   16.2351  -13.3804    0.0000 C   0  0
   16.2340  -14.2000    0.0000 C   0  0
   16.9420  -14.6089    0.0000 C   0  0
   17.6517  -14.1995    0.0000 C   0  0
   17.6488  -13.3768    0.0000 C   0  0
   16.9402  -12.9716    0.0000 N   0  0
   18.3600  -14.6070    0.0000 N   0  0
   19.0658  -13.3801    0.0000 O   0  0
   19.7044  -14.7038    0.0000 C   0  0
   19.6707  -15.5206    0.0000 N   0  0
   20.4380  -15.8043    0.0000 C   0  0
   20.9440  -15.1611    0.0000 O   0  0
   20.4876  -14.4821    0.0000 C   0  0
   20.7689  -13.7148    0.0000 C   0  0
  2  3  2  0
  3  4  1  0
  4  5  2  0
  5  6  1  0
  6  7  2  0
  7  2  1  0
  5  8  1  0
  8  1  1  0
  1  9  2  0
 11 12  2  0
 10 11  1  0
 12 13  1  0
 13 14  1  0
 14 10  2  0
  1 10  1  0
 14 15  1  0
M  END