
  SciTegic10301317112D

 33 34  0  0  0  0            999 V2000
   -0.4505   -1.3390    0.0000 S   0  0
    2.8449   -1.3265    0.0000 C   0  0
    7.9507   -3.9837    0.0000 C   0  0  1  0  0  0
    8.3636   -4.6970    0.0000 C   0  0
    7.1247   -3.9837    0.0000 N   0  0
    0.3754   -1.3390    0.0000 C   0  0
    6.6367   -3.3204    0.0000 C   0  0
    3.2579   -2.0398    0.0000 N   0  0
   -0.4588   -2.1649    0.0000 O   0  0
   -0.4505   -0.5131    0.0000 O   0  0
    4.5051   -2.7448    0.0000 C   0  0
    2.0190   -1.3307    0.0000 C   0  0
   -1.2764   -1.3307    0.0000 N   0  0
    5.3310   -2.7406    0.0000 N   0  0
    8.3594   -3.2662    0.0000 C   0  0
    3.2537   -0.6049    0.0000 O   0  0
    7.9632   -5.4103    0.0000 O   0  0
    6.9746   -2.5654    0.0000 O   0  0
    4.0963   -3.4581    0.0000 O   0  0
    0.7759   -0.6257    0.0000 C   0  0
    0.7884   -2.0523    0.0000 C   0  0
    1.6060   -2.0440    0.0000 C   0  0
    1.5935   -0.6174    0.0000 C   0  0
    4.0838   -2.0315    0.0000 C   0  0
    5.8191   -3.4080    0.0000 C   0  0
    9.1854   -3.2579    0.0000 C   0  0
    9.1896   -4.6845    0.0000 O   0  0
   10.8289   -3.2454    0.0000 C   0  0
   11.6549   -3.2454    0.0000 Cl  0  0
    9.5858   -2.5446    0.0000 C   0  0
    9.5983   -3.9712    0.0000 C   0  0
   10.4243   -3.9712    0.0000 C   0  0
   10.4034   -2.5321    0.0000 C   0  0
  2 12  1  0
  3  5  1  0
  4  3  1  0
  5  7  1  0
  6  1  1  0
  7 25  1  0
  8  2  1  0
  9  1  2  0
 10  1  2  0
 11 24  1  0
 12 22  2  0
 13  1  1  0
 14 11  1  0
  3 15  1  1
 16  2  2  0
 17  4  2  0
 18  7  2  0
 19 11  2  0
 20  6  1  0
 21  6  2  0
 22 21  1  0
 23 20  2  0
 24  8  1  0
 25 14  1  0
 26 15  1  0
 27  4  1  0
 28 32  2  0
 29 28  1  0
 30 26  1  0
 31 26  2  0
 32 31  1  0
 33 30  2  0
 12 23  1  0
 28 33  1  0
M  END