
  SciTegic12171313052D

 41 46  0  0  0  0            999 V2000
   35.8838   -5.4161    0.0000 C   0  0
   36.5963   -5.8286    0.0000 C   0  0
   37.3059   -5.4201    0.0000 C   0  0
   37.3091   -4.5974    0.0000 N   0  0
   36.5966   -4.1848    0.0000 C   0  0
   35.8808   -4.5950    0.0000 C   0  0
   38.0247   -4.1867    0.0000 C   0  0
   38.7381   -4.6010    0.0000 C   0  0
   38.7340   -5.4252    0.0000 C   0  0
   39.4433   -5.8395    0.0000 C   0  0
   40.1613   -5.4323    0.0000 N   0  0
   40.1654   -4.6063    0.0000 C   0  0
   39.4515   -4.1875    0.0000 C   0  0
   35.2026   -5.8816    0.0000 N   0  0
   34.3898   -6.9406    0.0000 N   0  0
   35.1814   -6.7082    0.0000 C   0  0
   33.9242   -6.2594    0.0000 C   0  0
   34.4290   -5.6070    0.0000 C   0  0
   34.1162   -4.8458    0.0000 C   0  0
   33.2989   -4.7357    0.0000 C   0  0
   32.7954   -5.3930    0.0000 C   0  0
   33.1109   -6.1517    0.0000 C   0  0
   40.8732   -5.8494    0.0000 C   0  0
   41.5903   -5.4414    0.0000 C   0  0
   42.3003   -5.8630    0.0000 C   0  0
   43.0170   -5.4557    0.0000 C   0  0
   43.0227   -4.6298    0.0000 N   0  0
   42.3058   -4.2129    0.0000 C   0  0
   41.5921   -4.6226    0.0000 C   0  0
   35.8354   -7.2111    0.0000 O   0  0
   38.0268   -3.3616    0.0000 O   0  0
   43.7286   -5.8731    0.0000 N   0  0
   31.9815   -5.2863    0.0000 F   0  0
   34.1136   -7.7164    0.0000 C   0  0
   33.3007   -7.8635    0.0000 C   0  0
   33.0233   -8.6397    0.0000 C   0  0
   33.5577   -9.2694    0.0000 C   0  0
   34.3731   -9.1177    0.0000 C   0  0
   34.6467   -8.3416    0.0000 C   0  0
   34.9095   -9.7445    0.0000 F   0  0
   32.2116   -8.7877    0.0000 F   0  0
  1  2  1  0
  1  6  1  0
  2  3  1  0
  3  4  1  0
  4  5  1  0
  5  6  1  0
  4  7  1  0
  7  8  1  0
  8  9  1  0
  8 13  1  0
  9 10  1  0
 10 11  1  0
 11 12  1  0
 12 13  1  0
  1 14  1  0
 14 18  1  0
 17 15  1  0
 15 16  1  0
 16 14  1  0
 17 18  2  0
 18 19  1  0
 19 20  2  0
 20 21  1  0
 21 22  2  0
 22 17  1  0
 11 23  1  0
 23 24  1  0
 24 25  2  0
 25 26  1  0
 26 27  2  0
 27 28  1  0
 28 29  2  0
 29 24  1  0
 16 30  2  0
  7 31  2  0
 26 32  1  0
 21 33  1  0
 34 35  2  0
 35 36  1  0
 36 37  2  0
 37 38  1  0
 38 39  2  0
 39 34  1  0
 15 34  1  0
 38 40  1  0
 36 41  1  0
M  END