
  SciTegic05071317052D

 28 28  0  0  0  0            999 V2000
   19.8595  -25.6029    0.0000 C   0  0
   20.5273  -25.1185    0.0000 N   0  0
   20.2731  -24.3337    0.0000 C   0  0
   19.4481  -24.3330    0.0000 C   0  0
   19.1925  -25.1174    0.0000 S   0  0
   19.0320  -23.6208    0.0000 C   0  0
   18.2070  -23.6249    0.0000 C   0  0
   17.7911  -22.9125    0.0000 N   0  0
   16.9661  -22.9165    0.0000 C   0  0
   18.2001  -22.1960    0.0000 C   0  0
   19.8616  -26.4251    0.0000 N   0  0
   19.1449  -26.8357    0.0000 C   0  0
   19.1423  -27.6572    0.0000 C   0  0
   19.8545  -28.0741    0.0000 N   0  0
   20.5712  -27.6635    0.0000 C   0  0
   20.5755  -26.8359    0.0000 C   0  0
   19.8507  -28.8991    0.0000 C   0  0
   19.1343  -29.3083    0.0000 C   0  0
   19.1304  -30.1333    0.0000 C   0  0
   16.5501  -22.2041    0.0000 C   0  0
   16.5572  -23.6330    0.0000 O   0  0
   16.9622  -21.4886    0.0000 C   0  0
   16.5470  -20.7767    0.0000 C   0  0
   15.7211  -20.7803    0.0000 C   0  0
   15.3123  -21.5018    0.0000 C   0  0
   15.7299  -22.2107    0.0000 C   0  0
   17.2432  -25.9786    0.0000 Br  0  0
   16.5589  -27.6964    0.0000 Br  0  0
  1  2  2  0
  2  3  1  0
  3  4  2  0
  4  5  1  0
  5  1  1  0
  4  6  1  0
  6  7  1  0
  7  8  1  0
  8  9  1  0
  8 10  1  0
 11 12  1  0
 11 16  1  0
 12 13  1  0
 13 14  1  0
 14 15  1  0
 15 16  1  0
  1 11  1  0
 14 17  1  0
 17 18  1  0
 18 19  1  0
  9 20  1  0
  9 21  2  0
 20 22  2  0
 22 23  1  0
 23 24  2  0
 24 25  1  0
 25 26  2  0
 26 20  1  0
M  END