
          11280715492D 1   1.00000     0.00000     0

 44 45  0     0  0            999 V2000
    2.1836    1.3460    0.0000 Br  0  5  0  0  0  0           0  0  0
   -1.0294    1.1877    0.0000 Br  0  5  0  0  0  0           0  0  0
   -0.9733   -0.7061    0.0000 C   0  0  0  0  0  0           0  0  0
   -1.5154   -0.0762    0.0000 N   0  3  3  0  0  0           0  0  0
   -2.0575    0.5536    0.0000 C   0  0  0  0  0  0           0  0  0
   -2.1449   -0.6141    0.0000 C   0  0  0  0  0  0           0  0  0
   -1.2458   -1.4849    0.0000 C   0  0  0  0  0  0           0  0  0
   -1.5243   -2.2612    0.0000 C   0  0  0  0  0  0           0  0  0
   -1.7999   -3.0387    0.0000 C   0  0  0  0  0  0           0  0  0
   -1.2642   -3.6662    0.0000 N   0  0  3  0  0  0           0  0  0
   -1.4549   -4.4716    0.0000 C   0  0  0  0  0  0           0  0  0
   -0.7516   -4.9028    0.0000 C   0  0  0  0  0  0           0  0  0
   -0.1239   -4.3670    0.0000 C   0  0  0  0  0  0           0  0  0
   -0.4397   -3.6047    0.0000 C   0  0  0  0  0  0           0  0  0
   -0.0071   -2.9021    0.0000 O   0  0  0  0  0  0           0  0  0
    5.6216   -0.0708    0.0000 C   0  0  0  0  0  0           0  0  0
    5.6142   -0.8971    0.0000 N   0  0  3  0  0  0           0  0  0
    4.8968   -1.3001    0.0000 C   0  0  0  0  0  0           0  0  0
    6.3297   -1.3119    0.0000 C   0  0  0  0  0  0           0  0  0
    4.8907   -2.1240    0.0000 C   0  0  0  0  0  0           0  0  0
    4.1739   -2.5250    0.0000 C   0  0  0  0  0  0           0  0  0
    4.1625   -3.3478    0.0000 C   0  0  0  0  0  0           0  0  0
    4.8739   -3.7682    0.0000 C   0  0  0  0  0  0           0  0  0
    6.3185   -2.1408    0.0000 C   0  0  0  0  0  0           0  0  0
    5.5981   -2.5442    0.0000 C   0  0  0  0  0  0           0  0  0
    5.5882   -3.3678    0.0000 C   0  0  0  0  0  0           0  0  0
    6.2980   -3.7891    0.0000 C   0  0  0  0  0  0           0  0  0
    7.0191   -3.3807    0.0000 C   0  0  0  0  0  0           0  0  0
    7.0255   -2.5584    0.0000 C   0  0  0  0  0  0           0  0  0
    7.0474   -0.9048    0.0000 O   0  0  0  0  0  0           0  0  0
    4.1863   -0.8806    0.0000 O   0  0  0  0  0  0           0  0  0
   -0.8001    0.3375    0.0000 C   0  0  0  0  0  0           0  0  0
   -0.0841   -0.0750    0.0000 C   0  0  0  0  0  0           0  0  0
    0.6277    0.3375    0.0000 C   0  0  0  0  0  0           0  0  0
    1.3437   -0.0750    0.0000 C   0  0  0  0  0  0           0  0  0
    2.0596    0.3375    0.0000 C   0  0  0  0  0  0           0  0  0
    2.7756   -0.0750    0.0000 C   0  0  0  0  0  0           0  0  0
    3.4874    0.3375    0.0000 N   0  3  3  0  0  0           0  0  0
    4.2034    0.7501    0.0000 C   0  0  0  0  0  0           0  0  0
    3.5875   -0.5347    0.0000 C   0  0  0  0  0  0           0  0  0
    3.0749    1.0494    0.0000 C   0  0  0  0  0  0           0  0  0
    4.9152    0.3375    0.0000 C   0  0  3  0  0  0           0  0  0
    4.5064   -0.3687    0.0000 C   0  0  0  0  0  0           0  0  0
    5.3298    1.0404    0.0000 C   0  0  0  0  0  0           0  0  0
  8  9  1  0     0  0
 14 15  2  0     0  0
  9 10  1  0     0  0
 17 18  1  0     0  0
 16 17  1  0     0  0
 17 19  1  0     0  0
 18 20  1  0     0  0
 24 19  1  0     0  0
 25 20  2  0     0  0
 20 21  1  0     0  0
 21 22  2  0     0  0
 22 23  1  0     0  0
 23 26  2  0     0  0
 24 25  1  0     0  0
 25 26  1  0     0  0
 26 27  1  0     0  0
 27 28  2  0     0  0
 28 29  1  0     0  0
 29 24  2  0     0  0
 19 30  2  0     0  0
 18 31  2  0     0  0
 10 11  1  0     0  0
 11 12  1  0     0  0
 12 13  1  0     0  0
 13 14  1  0     0  0
 14 10  1  0     0  0
  3  4  1  0     0  0
  4  5  1  0     0  0
  4  6  1  0     0  0
 37 38  1  0     0  0
 38 39  1  0     0  0
 38 40  1  0     0  0
 38 41  1  0     0  0
 39 42  1  0     0  0
 32 33  1  0     0  0
 33 34  1  0     0  0
 34 35  1  0     0  0
 35 36  1  0     0  0
 36 37  1  0     0  0
 42 16  1  0     0  0
  3  7  1  0     0  0
 42 43  1  0     0  0
  7  8  3  0     0  0
 42 44  1  0     0  0
 32  4  1  0     0  0
M  CHG  4   1  -1   2  -1   4   1  38   1
M  END