
          05270816392D 1   1.00000     0.00000     0

 37 42  0     1  0            999 V2000
    8.6061  -27.8764    0.0000 C   0  0  0  0  0  0           0  0  0
    8.6048  -28.6994    0.0000 C   0  0  0  0  0  0           0  0  0
   10.0295  -27.8724    0.0000 C   0  0  0  0  0  0           0  0  0
    9.3204  -27.4636    0.0000 C   0  0  0  0  0  0           0  0  0
   10.0326  -28.6990    0.0000 C   0  0  0  0  0  0           0  0  0
    9.3212  -29.1135    0.0000 C   0  0  0  0  0  0           0  0  0
    9.3198  -29.9356    0.0000 C   0  0  0  0  0  0           0  0  0
   10.0329  -30.3494    0.0000 C   0  0  0  0  0  0           0  0  0
    7.9889  -29.2515    0.0000 N   0  0  0  0  0  0           0  0  0
    8.5354  -30.1902    0.0000 C   0  0  0  0  0  0           0  0  0
   10.7473  -29.1112    0.0000 C   0  0  2  0  0  0           0  0  0
   10.7481  -29.9390    0.0000 C   0  0  2  0  0  0           0  0  0
   11.4616  -30.3499    0.0000 N   0  0  3  0  0  0           0  0  0
   12.1787  -29.9375    0.0000 C   0  0  0  0  0  0           0  0  0
   12.1778  -29.1096    0.0000 C   0  0  1  0  0  0           0  0  0
   11.4598  -28.6941    0.0000 C   0  0  0  0  0  0           0  0  0
   10.7390  -30.7594    0.0000 H   0  0  0  0  0  0           0  0  0
   10.7390  -28.2844    0.0000 H   0  0  0  0  0  0           0  0  0
   12.8923  -28.6971    0.0000 C   0  0  0  0  0  0           0  0  0
   12.8923  -27.8721    0.0000 O   0  0  0  0  0  0           0  0  0
   13.6067  -29.1096    0.0000 N   0  0  3  0  0  0           0  0  0
   13.6017  -29.9399    0.0000 C   0  0  0  0  0  0           0  0  0
   14.3121  -30.3523    0.0000 C   0  0  0  0  0  0           0  0  0
   15.0290  -29.9433    0.0000 N   0  0  3  0  0  0           0  0  0
   15.0310  -29.1173    0.0000 C   0  0  0  0  0  0           0  0  0
   14.3159  -28.7004    0.0000 C   0  0  0  0  0  0           0  0  0
   15.7419  -30.3585    0.0000 C   0  0  0  0  0  0           0  0  0
   15.7339  -31.1824    0.0000 C   0  0  0  0  0  0           0  0  0
   16.4459  -31.5975    0.0000 C   0  0  0  0  0  0           0  0  0
   17.1630  -31.1876    0.0000 C   0  0  0  0  0  0           0  0  0
   17.1635  -30.3584    0.0000 C   0  0  0  0  0  0           0  0  0
   16.4508  -29.9469    0.0000 N   0  0  0  0  0  0           0  0  0
    8.2409  -30.9608    0.0000 Br  0  0  0  0  0  0           0  0  0
   11.4613  -31.1749    0.0000 C   0  0  0  0  0  0           0  0  0
   10.7467  -31.5872    0.0000 C   0  0  0  0  0  0           0  0  0
   10.7464  -32.4122    0.0000 O   0  0  0  0  0  0           0  0  0
   10.0317  -32.8244    0.0000 C   0  0  0  0  0  0           0  0  0
 12 17  1  1     0  0
  7  8  1  0     0  0
 11 18  1  6     0  0
  8 12  1  0     0  0
 15 19  1  1     0  0
  3  4  2  0     0  0
 19 20  2  0     0  0
  2  9  1  0     0  0
 19 21  1  0     0  0
 21 22  1  0     0  0
  4  1  1  0     0  0
  7 10  2  0     0  0
  9 10  1  0     0  0
 11 12  1  0     0  0
  5  6  2  0     0  0
 21 26  1  0     0  0
 22 23  1  0     0  0
 23 24  1  0     0  0
 24 25  1  0     0  0
 25 26  1  0     0  0
  2  6  1  0     0  0
 24 27  1  0     0  0
 27 28  2  0     0  0
  5  3  1  0     0  0
 28 29  1  0     0  0
  1  2  2  0     0  0
 29 30  2  0     0  0
  5 11  1  0     0  0
 30 31  1  0     0  0
 11 16  1  0     0  0
 31 32  2  0     0  0
 32 27  1  0     0  0
 12 13  1  0     0  0
 10 33  1  0     0  0
 13 14  1  0     0  0
 13 34  1  0     0  0
 14 15  1  0     0  0
 34 35  1  0     0  0
 15 16  1  0     0  0
 35 36  1  0     0  0
  6  7  1  0     0  0
 36 37  1  0     0  0
M  END