
          11280715332D 1   1.00000     0.00000     0

 32 34  0     0  0            999 V2000
    3.5667    1.3458    0.0000 N   0  0  0  0  0  0           0  0  0
    2.1417    1.3375    0.0000 C   0  0  0  0  0  0           0  0  0
    2.8500    1.7583    0.0000 C   0  0  0  0  0  0           0  0  0
    2.1417    0.5125    0.0000 C   0  0  0  0  0  0           0  0  0
    3.5667    0.5208    0.0000 C   0  0  0  0  0  0           0  0  0
    2.8542    0.1000    0.0000 N   0  0  0  0  0  0           0  0  0
    1.4250    1.7500    0.0000 C   0  0  0  0  0  0           0  0  0
    1.4250    0.0958    0.0000 C   0  0  0  0  0  0           0  0  0
   12.1292    0.5583    0.0000 C   0  0  0  0  0  0           0  0  0
   11.4167    0.1458    0.0000 C   0  0  0  0  0  0           0  0  0
    0.7125    1.3375    0.0000 C   0  0  0  0  0  0           0  0  0
    0.7125    0.5083    0.0000 C   0  0  0  0  0  0           0  0  0
   12.8875    0.2333    0.0000 O   0  0  0  0  0  0           0  0  0
   12.2167    1.3833    0.0000 C   0  0  0  0  0  0           0  0  0
   11.4250   -0.6792    0.0000 O   0  0  0  0  0  0           0  0  0
   13.4375    0.8458    0.0000 C   0  0  0  0  0  0           0  0  0
   13.0167    1.5583    0.0000 C   0  0  0  0  0  0           0  0  0
    4.2875    0.1083    0.0000 N   0  0  0  0  0  0           0  0  0
    2.8417    2.5833    0.0000 N   0  0  0  0  0  0           0  0  0
   10.7042    0.5500    0.0000 N   0  0  0  0  0  0           0  0  0
   -0.0083    1.7458    0.0000 O   0  0  0  0  0  0           0  0  0
    0.0000    0.0958    0.0000 O   0  0  0  0  0  0           0  0  0
    5.0000    0.5208    0.0000 C   0  0  0  0  0  0           0  0  0
    9.9917    0.1333    0.0000 C   0  0  0  0  0  0           0  0  0
    0.0000   -0.7292    0.0000 C   0  0  0  0  0  0           0  0  0
   -0.7208    1.3333    0.0000 C   0  0  0  0  0  0           0  0  0
    9.2792    0.5458    0.0000 C   0  0  0  0  0  0           0  0  0
    5.7167    0.1125    0.0000 C   0  0  0  0  0  0           0  0  0
    7.8542    0.5458    0.0000 C   0  0  0  0  0  0           0  0  0
    8.5667    0.1333    0.0000 C   0  0  0  0  0  0           0  0  0
    6.4292    0.5333    0.0000 C   0  0  0  0  0  0           0  0  0
    7.1417    0.1250    0.0000 C   0  0  0  0  0  0           0  0  0
  2  3  1  0     0  0
  3  1  2  0     0  0
  4  6  1  0     0  0
  5  1  1  0     0  0
  6  5  2  0     0  0
  7  2  2  0     0  0
  8  4  2  0     0  0
  9 10  1  0     0  0
 10 20  1  0     0  0
 11  7  1  0     0  0
 12  8  1  0     0  0
 13  9  1  0     0  0
 14  9  2  0     0  0
 15 10  2  0     0  0
 16 13  1  0     0  0
 17 14  1  0     0  0
 18  5  1  0     0  0
 19  3  1  0     0  0
 20 24  1  0     0  0
 21 11  1  0     0  0
 22 12  1  0     0  0
 23 18  1  0     0  0
 24 27  1  0     0  0
 25 22  1  0     0  0
 26 21  1  0     0  0
 27 30  1  0     0  0
 28 23  1  0     0  0
 29 32  1  0     0  0
 30 29  1  0     0  0
 31 28  1  0     0  0
 32 31  1  0     0  0
  2  4  1  0     0  0
 11 12  2  0     0  0
 16 17  2  0     0  0
M  END