
  SciTegic09171211542D

 15 15  0  0  0  0            999 V2000
   13.3915  -19.3981    0.0000 C   0  0
   13.3903  -20.2250    0.0000 C   0  0
   14.1048  -20.6376    0.0000 C   0  0
   14.8209  -20.2245    0.0000 C   0  0
   14.8180  -19.3945    0.0000 C   0  0
   14.1030  -18.9855    0.0000 C   0  0
   12.6759  -20.6367    0.0000 Br  0  0
   15.5305  -18.9795    0.0000 O   0  0
   15.5274  -18.1549    0.0000 C   0  0
   16.2399  -17.7399    0.0000 C   0  0
   16.9584  -18.1481    0.0000 O   0  0
   16.2395  -16.9140    0.0000 O   0  0
   14.8102  -17.7457    0.0000 C   0  0
   14.8071  -16.9212    0.0000 O   0  0
   14.0977  -18.1607    0.0000 O   0  0
  3  4  2  0
  5  8  1  0
  8  9  1  0
  4  5  1  0
  9 10  1  0
  2  3  1  0
  5  6  2  0
 10 11  1  0
 10 12  2  0
  6  1  1  0
  1  2  2  0
  2  7  1  0
 13 14  1  0
 13 15  2  0
  9 13  1  0
M  END