
  SciTegic01161211252D

 29 32  0  0  0  0            999 V2000
   12.8297   -8.3780    0.0000 N   0  0
   13.6308   -8.1999    0.0000 C   0  0
   14.2767   -8.7162    0.0000 C   0  0
   12.4690   -9.1233    0.0000 C   0  0
   14.2784   -9.5398    0.0000 N   0  0
   12.8268   -9.8682    0.0000 C   0  0
   13.6324  -10.0506    0.0000 C   0  0
   14.9923   -9.9533    0.0000 C   0  0
   14.9903  -10.7783    0.0000 O   0  0
   15.7076   -9.5432    0.0000 C   0  0  2  0  0  0
   16.3780  -10.0183    0.0000 N   0  0
   17.0383   -9.5236    0.0000 C   0  0
   16.7718   -8.7427    0.0000 C   0  0  2  0  0  0
   15.9469   -8.7550    0.0000 C   0  0
   17.2470   -8.0681    0.0000 O   0  0
   16.8417   -7.3496    0.0000 C   0  0
   17.2629   -6.6424    0.0000 C   0  0
   16.8583   -5.9243    0.0000 C   0  0
   16.0325   -5.9156    0.0000 C   0  0
   15.6129   -6.6309    0.0000 C   0  0
   16.0200   -7.3461    0.0000 C   0  0
   12.2439   -7.7974    0.0000 C   0  0
   12.2446   -6.9714    0.0000 C   0  0
   11.4197   -6.9751    0.0000 C   0  0
   11.4234   -7.8000    0.0000 C   0  0
   16.3889  -10.8432    0.0000 C   0  0
   15.6262   -5.1976    0.0000 F   0  0
   15.6800  -11.2651    0.0000 O   0  0
   17.1088  -11.2462    0.0000 C   0  0
 14 10  1  0
  6  7  1  0
 13 15  1  6
  1  4  1  0
 15 16  1  0
  5  8  1  0
 16 17  2  0
 17 18  1  0
  8  9  2  0
 18 19  2  0
  3  5  1  0
 19 20  1  0
 10  8  1  1
 20 21  2  0
 21 16  1  0
 10 11  1  0
  1 22  1  0
 22 23  1  0
  2  3  1  0
  4  6  1  0
  1  2  1  0
 23 24  1  0
 24 25  1  0
 25 22  1  0
  5  7  1  0
 11 26  1  0
 11 12  1  0
 19 27  1  0
 12 13  1  0
 26 28  2  0
 13 14  1  0
 26 29  1  0
M  END