
  SciTegic11201309402D

 23 26  0  0  0  0            999 V2000
    1.6481   -0.6285    0.0000 C   0  0
    2.4602   -0.4832    0.0000 C   0  0
    2.7405    0.2927    0.0000 C   0  0
    2.2087    0.9234    0.0000 C   0  0
    1.3966    0.7782    0.0000 C   0  0
    0.8648    1.4089    0.0000 C   0  0
    0.0527    1.2637    0.0000 C   0  0
   -0.2276    0.4877    0.0000 C   0  0  2  0  0  0
    0.3042   -0.1430    0.0000 C   0  0
    1.1163    0.0023    0.0000 C   0  0
    0.0239   -0.9189    0.0000 C   0  0
   -0.7882   -1.0641    0.0000 C   0  0
   -1.3201   -0.4334    0.0000 C   0  0  1  0  0  0
   -1.0398    0.3425    0.0000 C   0  0  1  0  0  0
   -1.6911    0.8489    0.0000 C   0  0
   -2.3739    0.3859    0.0000 C   0  0
   -2.1446   -0.4066    0.0000 C   0  0  1  0  0  0
   -1.6799   -1.1758    0.0000 C   0  0
   -2.2660   -1.2226    0.0000 C   0  0
    3.5527    0.4379    0.0000 O   0  0
   -2.9055   -0.7255    0.0000 O   0  0
    0.5845    0.6329    0.0000 H   0  0
   -0.8263    1.1394    0.0000 H   0  0
  1  2  1  0
  1 10  1  0
  2  3  1  0
  3  4  1  0
  3 20  2  0
  4  5  2  0
  5  6  1  0
 10  5  1  0
  6  7  1  0
  7  8  1  0
  8  9  1  0
 14  8  1  0
 10  9  2  0
 11  9  1  0
 11 12  2  0
 12 13  1  0
 13 14  1  0
 13 17  1  0
 13 18  1  1
 14 15  1  0
 15 16  1  0
 16 17  1  0
 17 19  1  0
 17 21  1  1
  8 22  1  1
 14 23  1  6
M  END