
          08180812472D 1   1.00000     0.00000     0

 29 32  0     1  0            999 V2000
   -4.9125    0.8522    0.0000 C   0  0  0  0  0  0           0  0  0
   -4.9125    1.6772    0.0000 C   0  0  0  0  0  0           0  0  0
   -4.1977    2.0874    0.0000 C   0  0  0  0  0  0           0  0  0
   -5.6272    0.4375    0.0000 O   0  0  0  0  0  0           0  0  0
   -4.1977    0.4375    0.0000 C   0  0  0  0  0  0           0  0  0
   -3.4831    0.8522    0.0000 C   0  0  2  0  0  0           0  0  0
   -2.7730    0.4375    0.0000 C   0  0  0  0  0  0           0  0  0
   -2.0582    0.8522    0.0000 C   0  0  0  0  0  0           0  0  0
   -2.0582    1.6772    0.0000 C   0  0  1  0  0  0           0  0  0
   -1.3435    2.0874    0.0000 C   0  0  2  0  0  0           0  0  0
   -0.5581    1.8290    0.0000 C   0  0  0  0  0  0           0  0  0
   -0.0689    2.5022    0.0000 C   0  0  0  0  0  0           0  0  0
   -0.5581    3.1617    0.0000 C   0  0  2  0  0  0           0  0  0
   -1.3435    2.9124    0.0000 C   0  0  2  0  0  0           0  0  0
   -1.3435    3.7373    0.0000 C   0  0  0  0  0  0           0  0  0
   -2.0582    3.3271    0.0000 C   0  0  0  0  0  0           0  0  0
   -2.7730    2.9124    0.0000 C   0  0  0  0  0  0           0  0  0
   -2.7730    2.0874    0.0000 C   0  0  2  0  0  0           0  0  0
   -3.4831    1.6772    0.0000 C   0  0  1  0  0  0           0  0  0
   -3.4831    0.0273    0.0000 H   0  0  0  0  0  0           0  0  0
   -2.7730    1.2624    0.0000 H   0  0  0  0  0  0           0  0  0
   -2.0582    2.5022    0.0000 H   0  0  0  0  0  0           0  0  0
   -1.3435    1.2624    0.0000 H   0  0  0  0  0  0           0  0  0
    0.2598    3.1607    0.0000 C   0  0  0  0  0  0           0  0  0
    1.0803    3.1583    0.0000 C   0  0  0  0  0  0           0  0  0
   -0.5652    3.9880    0.0000 O   0  0  0  0  0  0           0  0  0
   -3.4839    3.3218    0.0000 C   0  0  0  0  0  0           0  0  0
   -2.0541    4.1475    0.0000 C   0  0  0  0  0  0           0  0  0
   -3.4831    2.5022    0.0000 H   0  0  0  0  0  0           0  0  0
  5  6  1  0     0  0
  6  7  1  0     0  0
  7  8  1  0     0  0
  8  9  1  0     0  0
  9 10  1  0     0  0
 10 11  1  0     0  0
 11 12  1  0     0  0
 12 13  1  0     0  0
 13 14  1  0     0  0
 10 14  1  0     0  0
 14 15  1  1     0  0
 14 16  1  0     0  0
 16 17  1  0     0  0
 17 18  1  0     0  0
  9 18  1  0     0  0
 18 19  1  0     0  0
  3 19  1  0     0  0
  6 19  1  0     0  0
 19 29  1  1     0  0
  6 20  1  6     0  0
 18 21  1  6     0  0
  9 22  1  1     0  0
 10 23  1  6     0  0
 13 24  1  0     0  0
  1  2  1  0     0  0
 24 25  3  0     0  0
  2  3  1  0     0  0
 13 26  1  1     0  0
  1  4  2  0     0  0
 17 27  2  0     0  0
  1  5  1  0     0  0
 15 28  1  0     0  0
M  END