
  SciTegic06181315362D

 74 78  0  0  0  0            999 V2000
   11.2326  -14.0159    0.0000 C   0  0
   11.9608  -14.3980    0.0000 C   0  0
   12.6568  -13.9565    0.0000 C   0  0
   12.6225  -13.1314    0.0000 C   0  0
   11.8871  -12.7532    0.0000 C   0  0
   11.1933  -13.1934    0.0000 C   0  0
   10.4103  -12.9262    0.0000 N   0  0
   11.9741  -11.9304    0.0000 C   0  0
   10.1291  -12.1515    0.0000 C   0  0  2  0  0  0
   11.3851  -11.3509    0.0000 N   0  0
   10.5646  -11.4517    0.0000 C   0  0
    9.3086  -12.0657    0.0000 C   0  0
    8.9726  -11.3122    0.0000 C   0  0
   11.7635  -10.6178    0.0000 C   0  0
   12.5876  -10.5790    0.0000 C   0  0
   13.0353  -11.2733    0.0000 N   0  0
   12.9681   -9.8460    0.0000 O   0  0
    9.3805  -10.5964    0.0000 C   0  0
    8.8282   -9.9835    0.0000 N   0  0
    8.1614  -11.1399    0.0000 C   0  0
    8.0765  -10.3198    0.0000 C   0  0
    7.3251   -9.9849    0.0000 C   0  0
    6.6580  -10.4690    0.0000 C   0  0
    6.7472  -11.2919    0.0000 C   0  0
    7.4988  -11.6230    0.0000 C   0  0
   13.8593  -11.2328    0.0000 C   0  0  2  0  0  0
   14.3064  -11.9261    0.0000 C   0  0
   13.9305  -12.6603    0.0000 O   0  0
   15.1314  -11.8859    0.0000 O   0  0
   14.2362  -10.4989    0.0000 C   0  0
   15.0602  -10.4583    0.0000 C   0  0
   15.5024  -11.1530    0.0000 C   0  0
   16.3257  -11.1128    0.0000 C   0  0
   16.7034  -10.3783    0.0000 C   0  0
   16.2517   -9.6829    0.0000 C   0  0
   15.4300   -9.7265    0.0000 C   0  0
    1.9403  -14.4260    0.0000 N   0  0
    2.6561  -14.0135    0.0000 C   0  0  2  0  0  0
    3.3720  -15.2510    0.0000 O   0  0
    3.3720  -14.4260    0.0000 C   0  0
    2.6561  -13.1885    0.0000 C   0  0
    3.3720  -12.7760    0.0000 C   0  0
    3.3720  -11.9510    0.0000 C   0  0
    4.0879  -11.5385    0.0000 O   0  0
    2.6561  -11.5385    0.0000 O   0  0
    4.0879  -14.0135    0.0000 N   0  0
    4.7996  -14.4260    0.0000 C   0  0  2  0  0  0
    5.5154  -13.1885    0.0000 O   0  0
    5.5154  -14.0135    0.0000 C   0  0
    4.7996  -15.2510    0.0000 C   0  0
    5.5154  -15.6635    0.0000 C   0  0
    5.5154  -16.4885    0.0000 O   0  0
    6.2313  -15.2510    0.0000 O   0  0
    6.2313  -14.4260    0.0000 N   0  0
    6.9430  -14.0135    0.0000 C   0  0  2  0  0  0
    7.6589  -15.2510    0.0000 O   0  0
    7.6589  -14.4260    0.0000 C   0  0
    6.9430  -13.1885    0.0000 C   0  0
    7.6589  -12.7760    0.0000 C   0  0
    7.6589  -11.9510    0.0000 O   0  0
    8.3747  -13.1885    0.0000 O   0  0
    8.3747  -14.0135    0.0000 N   0  0
    1.2261  -14.0129    0.0000 C   0  0
    0.5113  -14.4248    0.0000 C   0  0
    1.2268  -13.1879    0.0000 O   0  0
    9.0888  -14.4266    0.0000 C   0  0  2  0  0  0
    9.8037  -14.0147    0.0000 C   0  0
    9.0881  -15.2516    0.0000 C   0  0
    9.8023  -15.6647    0.0000 C   0  0
    9.8036  -16.4887    0.0000 O   0  0
   10.5191  -15.2518    0.0000 O   0  0
   10.5178  -14.4278    0.0000 N   0  0
    9.8044  -13.1897    0.0000 O   0  0
   10.1207  -10.7563    0.0000 O   0  0
  1  2  2  0
  2  3  1  0
  3  4  2  0
  4  5  1  0
  6  1  1  0
  5  6  2  0
  6  7  1  0
  5  8  1  0
  7  9  1  0
  8 10  1  0
  9 11  1  0
 10 11  1  0
  9 12  1  1
 12 13  1  0
 10 14  1  0
 14 15  1  0
 15 16  1  0
 15 17  2  0
 13 18  2  0
 18 19  1  0
 19 21  1  0
 20 13  1  0
 20 21  2  0
 21 22  1  0
 22 23  2  0
 23 24  1  0
 24 25  2  0
 25 20  1  0
 16 26  1  0
 26 27  1  0
 27 28  1  0
 27 29  2  0
 26 30  1  1
 30 31  1  0
 31 32  2  0
 32 33  1  0
 33 34  2  0
 34 35  1  0
 35 36  2  0
 36 31  1  0
 40 46  1  0
 49 54  1  0
 57 62  1  0
 37 38  1  0
 38 40  1  0
 40 39  2  0
 38 41  1  1
 41 42  1  0
 42 43  1  0
 43 44  2  0
 43 45  1  0
 46 47  1  0
 47 49  1  0
 49 48  2  0
 47 50  1  6
 50 51  1  0
 51 52  2  0
 51 53  1  0
 54 55  1  0
 55 57  1  0
 57 56  2  0
 55 58  1  1
 58 59  1  0
 59 60  2  0
 59 61  1  0
 37 63  1  0
 63 64  1  0
 63 65  2  0
 62 66  1  0
 66 67  1  0
 66 68  1  6
 68 69  1  0
 69 70  1  0
 69 71  2  0
 67 72  1  0
 67 73  2  0
 72  1  1  0
 11 74  2  0
M  END