
  SciTegic09261414482D

 17 19  0  0  0  0            999 V2000
   17.2970  -11.3640    0.0000 N   0  0
   17.2970  -10.5379    0.0000 C   0  0
   18.0102  -10.1269    0.0000 C   0  0
   18.7256  -10.5379    0.0000 C   0  0
   18.7256  -11.3640    0.0000 C   0  0
   18.0102  -11.7750    0.0000 C   0  0
   16.5817  -11.7750    0.0000 C   0  0
   15.1509  -11.7750    0.0000 O   0  0
   15.8663  -11.3640    0.0000 C   0  0  1  0  0  0
   15.8663  -10.5379    0.0000 C   0  0
   15.1509  -10.1269    0.0000 O   0  0
   14.4377  -10.5379    0.0000 C   0  0
   14.4377  -11.3640    0.0000 C   0  0
   13.7224  -10.1269    0.0000 C   0  0
   13.0070  -10.5379    0.0000 C   0  0
   13.0070  -11.3640    0.0000 C   0  0
   13.7224  -11.7750    0.0000 C   0  0
  1  2  1  0
  2  3  1  0
  3  4  1  0
  4  5  1  0
  5  6  1  0
  1  6  1  0
  8  9  1  0
  9 10  1  0
 10 11  1  0
 11 12  1  0
 12 13  1  0
  8 13  1  0
 14 15  1  0
 15 16  2  0
 16 17  1  0
 13 17  2  0
 12 14  2  0
  9  7  1  1
  1  7  1  0
M  END