
  SciTegic01161211252D

 27 30  0  0  0  0            999 V2000
    3.2923  -20.5873    0.0000 N   0  0
    4.0933  -20.4083    0.0000 C   0  0
    4.7392  -20.9246    0.0000 C   0  0
    2.9315  -21.3316    0.0000 C   0  0
    4.7409  -21.7482    0.0000 N   0  0
    3.2893  -22.0765    0.0000 C   0  0
    4.0949  -22.2590    0.0000 C   0  0
    5.4548  -22.1616    0.0000 C   0  0
    5.4528  -22.9866    0.0000 O   0  0
    6.1701  -21.7515    0.0000 C   0  0  2  0  0  0
    6.8405  -22.2266    0.0000 N   0  0
    7.5008  -21.7319    0.0000 C   0  0
    7.2343  -20.9511    0.0000 C   0  0  2  0  0  0
    6.4094  -20.9633    0.0000 C   0  0
    7.7095  -20.2765    0.0000 O   0  0
    7.3041  -19.5579    0.0000 C   0  0
    7.7254  -18.8507    0.0000 C   0  0
    7.3208  -18.1326    0.0000 C   0  0
    6.4950  -18.1239    0.0000 C   0  0
    6.0754  -18.8392    0.0000 C   0  0
    6.4825  -19.5544    0.0000 C   0  0
    2.7115  -20.0014    0.0000 C   0  0
    2.7157  -19.1753    0.0000 C   0  0
    1.8907  -19.1717    0.0000 C   0  0
    1.8871  -19.9967    0.0000 C   0  0
    6.0877  -17.4080    0.0000 C   0  0
    5.6814  -16.6899    0.0000 N   0  0
 12 13  1  0
 13 14  1  0
 14 10  1  0
  6  7  1  0
 13 15  1  6
  1  4  1  0
 15 16  1  0
  5  8  1  0
 16 17  2  0
 17 18  1  0
  8  9  2  0
 18 19  2  0
  3  5  1  0
 19 20  1  0
 10  8  1  1
 20 21  2  0
 21 16  1  0
 10 11  1  0
  1 22  1  0
 22 23  1  0
  2  3  1  0
  4  6  1  0
  1  2  1  0
 23 24  1  0
 24 25  1  0
 25 22  1  0
  5  7  1  0
 11 12  1  0
 26 27  3  0
 19 26  1  0
M  END