
  SciTegic05171617282D

 35 38  0  0  0  0            999 V2000
    2.3383   -1.3500    0.0000 C   0  0
    1.2990   -0.7500    0.0000 C   0  0
    1.2990    0.7500    0.0000 C   0  0
    0.0000    1.5000    0.0000 C   0  0
   -1.2990    0.7500    0.0000 C   0  0
   -2.6003    1.4977    0.0000 C   0  0
   -3.8990    0.7455    0.0000 C   0  0
   -5.2003    1.4932    0.0000 C   0  0
   -5.2004    2.9933    0.0000 N   0  0
   -6.4995    3.7432    0.0000 C   0  0
   -6.5026    5.2441    0.0000 N   0  0
   -7.8035    5.9926    0.0000 C   0  0
   -7.8088    7.4926    0.0000 C   0  0
   -9.1105    8.2381    0.0000 C   0  0
  -10.4069    7.4835    0.0000 C   0  0
  -10.4016    5.9835    0.0000 C   0  0
   -9.1000    5.2381    0.0000 C   0  0
  -11.7092    8.2294    0.0000 N   0  0
  -11.7169    9.7294    0.0000 C   0  0
  -13.0197   10.4728    0.0000 C   0  0
  -14.3149    9.7162    0.0000 N   0  0
  -14.3073    8.2162    0.0000 C   0  0
  -13.0045    7.4728    0.0000 C   0  0
   -7.7985    2.9932    0.0000 N   0  0
   -7.7985    1.4932    0.0000 C   0  0
   -6.4994    0.7432    0.0000 C   0  0
   -6.4994   -0.7576    0.0000 C   0  0
   -7.5383   -1.3583    0.0000 F   0  0
   -5.4600   -1.3573    0.0000 F   0  0
   -6.4989   -1.9576    0.0000 F   0  0
   -1.2990   -0.7500    0.0000 C   0  0
    0.0000   -1.5000    0.0000 C   0  0
   -0.0031   -3.0008    0.0000 C   0  0
    1.0351   -3.6026    0.0000 N   0  0
   -1.0432   -3.5994    0.0000 O   0  0
  1  2  1  0
  2  3  2  0
  3  4  1  0
  4  5  2  0
  5  6  1  0
  6  7  1  0
  7  8  1  0
  8  9  2  0
  9 10  1  0
 10 11  1  0
 11 12  1  0
 12 13  2  0
 13 14  1  0
 14 15  2  0
 15 16  1  0
 16 17  2  0
 12 17  1  0
 15 18  1  0
 18 19  1  0
 19 20  1  0
 20 21  1  0
 21 22  1  0
 22 23  1  0
 18 23  1  0
 10 24  2  0
 24 25  1  0
 25 26  2  0
  8 26  1  0
 26 27  1  0
 27 28  1  0
 27 29  1  0
 27 30  1  0
  5 31  1  0
 31 32  2  0
  2 32  1  0
 32 33  1  0
 33 34  1  0
 33 35  2  0
M  END