
          11280715492D 1   1.00000     0.00000     0

 23 25  0     0  0            999 V2000
    1.3323  -10.2489    0.0000 N   0  0  0  0  0  0           0  0  0
    2.0450  -10.6645    0.0000 C   0  0  0  0  0  0           0  0  0
   -2.2333   -8.1833    0.0000 C   0  0  3  0  0  0           0  0  0
   -2.2333   -9.0083    0.0000 C   0  0  0  0  0  0           0  0  0
   -1.5213   -9.4167    0.0000 C   0  0  0  0  0  0           0  0  0
   -0.8093   -9.0083    0.0000 N   0  0  3  0  0  0           0  0  0
   -0.8093   -8.1833    0.0000 C   0  0  0  0  0  0           0  0  0
   -1.5213   -7.7667    0.0000 C   0  0  0  0  0  0           0  0  0
   -2.9490   -7.7729    0.0000 C   0  0  0  0  0  0           0  0  0
   -3.6623   -8.1875    0.0000 C   0  0  0  0  0  0           0  0  0
   -4.4167   -7.8543    0.0000 C   0  0  0  0  0  0           0  0  0
   -4.9669   -8.4690    0.0000 N   0  0  0  0  0  0           0  0  0
   -4.5523   -9.1823    0.0000 C   0  0  0  0  0  0           0  0  0
   -3.7459   -9.0083    0.0000 N   0  0  0  0  0  0           0  0  0
   -0.0954   -9.4219    0.0000 C   0  0  0  0  0  0           0  0  0
   -0.0966  -10.2469    0.0000 C   0  0  0  0  0  0           0  0  0
    0.6173  -10.6604    0.0000 C   0  0  0  0  0  0           0  0  0
    2.0395  -11.4886    0.0000 C   0  0  0  0  0  0           0  0  0
    2.7513  -11.9041    0.0000 C   0  0  0  0  0  0           0  0  0
    3.4685  -11.4946    0.0000 C   0  0  0  0  0  0           0  0  0
    3.4695  -10.6654    0.0000 C   0  0  0  0  0  0           0  0  0
    2.7571  -10.2536    0.0000 C   0  0  0  0  0  0           0  0  0
    4.1843  -10.2535    0.0000 Cl  0  0  0  0  0  0           0  0  0
  4  5  1  0     0  0
  5  6  1  0     0  0
 11 12  1  0     0  0
 12 13  1  0     0  0
 13 14  2  0     0  0
 14 10  1  0     0  0
  6  7  1  0     0  0
  6 15  1  0     0  0
  7  8  1  0     0  0
 15 16  1  0     0  0
 16 17  1  0     0  0
 17  1  1  0     0  0
  3  9  1  0     0  0
  2 18  2  0     0  0
  1  2  1  0     0  0
 18 19  1  0     0  0
  9 10  1  0     0  0
 19 20  2  0     0  0
 10 11  2  0     0  0
 20 21  1  0     0  0
  3  4  1  0     0  0
 21 22  2  0     0  0
 22  2  1  0     0  0
  3  8  1  0     0  0
 21 23  1  0     0  0
M  END