
          11280715072D 1   1.00000     0.00000     0

 24 26  0     0  0            999 V2000
    3.0500   -0.7792    0.0000 C   0  0  0  0  0  0           0  0  0
    3.0500   -1.6125    0.0000 C   0  0  0  0  0  0           0  0  0
    2.3292   -0.3667    0.0000 C   0  0  0  0  0  0           0  0  0
    1.6167   -0.7875    0.0000 C   0  0  0  0  0  0           0  0  0
    2.3292   -2.0250    0.0000 C   0  0  0  0  0  0           0  0  0
    1.6167   -1.6125    0.0000 C   0  0  0  0  0  0           0  0  0
    3.7625   -0.3667    0.0000 C   0  0  0  0  0  0           0  0  0
    4.4792   -0.7750    0.0000 C   0  0  0  0  0  0           0  0  0
    0.8375   -1.8667    0.0000 O   0  0  0  0  0  0           0  0  0
    0.8375   -0.5292    0.0000 C   0  0  0  0  0  0           0  0  0
    5.1917   -0.3625    0.0000 C   0  0  0  0  0  0           0  0  0
    0.3542   -1.2000    0.0000 C   0  0  0  0  0  0           0  0  0
    3.7542    0.4583    0.0000 O   0  0  0  0  0  0           0  0  0
    3.7625   -2.0250    0.0000 O   0  0  0  0  0  0           0  0  0
    2.3292    0.4500    0.0000 O   0  0  0  0  0  0           0  0  0
    2.3292   -2.8417    0.0000 O   0  0  0  0  0  0           0  0  0
    5.9042   -0.7667    0.0000 C   0  0  0  0  0  0           0  0  0
    1.6167    0.8625    0.0000 C   0  0  0  0  0  0           0  0  0
    3.0417   -3.2542    0.0000 C   0  0  0  0  0  0           0  0  0
    5.9042   -1.5917    0.0000 C   0  0  0  0  0  0           0  0  0
    6.6125   -0.3542    0.0000 C   0  0  0  0  0  0           0  0  0
    7.3292   -0.7542    0.0000 C   0  0  0  0  0  0           0  0  0
    6.6167   -2.0042    0.0000 C   0  0  0  0  0  0           0  0  0
    7.3375   -1.5875    0.0000 C   0  0  0  0  0  0           0  0  0
  2  1  1  0     0  0
  3  1  2  0     0  0
  4  3  1  0     0  0
  5  2  2  0     0  0
  6  4  2  0     0  0
  7  1  1  0     0  0
  8  7  1  0     0  0
  9  6  1  0     0  0
 10  4  1  0     0  0
 11  8  2  0     0  0
 12 10  2  0     0  0
 13  7  2  0     0  0
 14  2  1  0     0  0
 15  3  1  0     0  0
 16  5  1  0     0  0
 17 11  1  0     0  0
 18 15  1  0     0  0
 19 16  1  0     0  0
 20 17  2  0     0  0
 21 17  1  0     0  0
 22 21  2  0     0  0
 23 20  1  0     0  0
 24 22  1  0     0  0
  5  6  1  0     0  0
  9 12  1  0     0  0
 24 23  2  0     0  0
M  END