
  CDK    9/16/09,10:4

 17 17  0  0  0  0  0  0  0  0999 V2000
    5.3208  -19.4917    0.0000 C   0  0  0  0  0  0  0  0  0  0  0  0
    6.0353  -19.0792    0.0000 C   0  0  0  0  0  0  0  0  0  0  0  0
    6.7498  -19.4917    0.0000 C   0  0  0  0  0  0  0  0  0  0  0  0
    7.4642  -19.0792    0.0000 C   0  0  0  0  0  0  0  0  0  0  0  0
    8.1787  -19.4917    0.0000 N   0  0  0  0  0  0  0  0  0  0  0  0
    8.8932  -19.0792    0.0000 C   0  0  0  0  0  0  0  0  0  0  0  0
    9.6077  -19.4917    0.0000 N   0  0  0  0  0  0  0  0  0  0  0  0
    8.8932  -18.2542    0.0000 N   0  0  0  0  0  0  0  0  0  0  0  0
   10.3221  -19.0792    0.0000 C   0  0  0  0  0  0  0  0  0  0  0  0
   11.0366  -19.4917    0.0000 C   0  0  0  0  0  0  0  0  0  0  0  0
   10.3221  -18.2542    0.0000 O   0  0  0  0  0  0  0  0  0  0  0  0
    4.5341  -19.2436    0.0000 N   0  0  0  0  0  0  0  0  0  0  0  0
    4.0550  -19.9152    0.0000 C   0  0  0  0  0  0  0  0  0  0  0  0
    4.5457  -20.5785    0.0000 N   0  0  0  0  0  0  0  0  0  0  0  0
    5.3280  -20.3166    0.0000 C   0  0  0  0  0  0  0  0  0  0  0  0
   11.0366  -20.3167    0.0000 C   0  0  0  0  0  0  0  0  0  0  0  0
   11.7511  -20.7292    0.0000 C   0  0  0  0  0  0  0  0  0  0  0  0
  7  9  1  0  0  0  0 
  4  5  1  0  0  0  0 
  9 10  1  0  0  0  0 
  2  3  1  0  0  0  0 
  9 11  2  0  0  0  0 
  1 12  1  0  0  0  0 
  5  6  1  0  0  0  0 
  1  2  1  0  0  0  0 
  6  7  2  0  0  0  0 
  3  4  1  0  0  0  0 
 12 13  2  0  0  0  0 
 13 14  1  0  0  0  0 
 14 15  1  0  0  0  0 
 15  1  2  0  0  0  0 
  6  8  1  0  0  0  0 
 10 16  1  0  0  0  0 
 16 17  1  0  0  0  0 
M  END