
  SciTegic11201309402D

110119  0  0  0  0            999 V2000
   -2.3369  -23.6335    0.0000 C   0  0
   -2.2904  -25.2876    0.0000 O   0  0
    1.4758  -21.5164    0.0000 N   0  0
    0.6528  -21.5294    0.0000 C   0  0
    0.2524  -22.2507    0.0000 N   0  0
    0.2283  -20.8219    0.0000 S   0  0
   -0.5725  -22.2646    0.0000 C   0  0
   -0.9912  -21.5566    0.0000 C   0  0
   -1.8154  -21.5701    0.0000 C   0  0
   -0.9649  -22.9847    0.0000 C   0  0
   -1.7876  -23.0017    0.0000 C   0  0
   -2.2183  -22.2876    0.0000 C   0  0
   -3.0305  -22.4765    0.0000 C   0  0
   -3.1019  -23.3074    0.0000 O   0  0
   -3.6540  -21.9363    0.0000 O   0  0
   -1.6075  -24.0223    0.0000 C   0  0
   -1.5882  -24.8516    0.0000 C   0  0
   -0.8615  -25.2478    0.0000 C   0  0
   -0.1536  -24.8158    0.0000 C   0  0
   -0.1769  -23.9834    0.0000 C   0  0
   -0.9041  -23.5909    0.0000 C   0  0
   -3.0183  -24.8925    0.0000 C   0  0
   -3.0397  -24.0704    0.0000 C   0  0
   -3.7612  -23.6796    0.0000 C   0  0
   -4.4618  -24.1098    0.0000 C   0  0
   -4.4364  -24.9350    0.0000 C   0  0
   -3.7144  -25.3220    0.0000 C   0  0
    0.5715  -25.2094    0.0000 O   0  0
   -5.1377  -25.3695    0.0000 O   0  0
    6.5869  -21.3573    0.0000 C   0  0  2  0  0  0
    6.8533  -20.5810    0.0000 C   0  0
    6.1952  -20.0835    0.0000 C   0  0
    5.5187  -20.5558    0.0000 C   0  0
    5.7576  -21.3450    0.0000 N   0  0
    5.0598  -21.7851    0.0000 C   0  0
    4.3298  -21.4009    0.0000 C   0  0
    5.0921  -22.6095    0.0000 O   0  0
    3.6320  -21.8411    0.0000 C   0  0
    2.9019  -21.4568    0.0000 C   0  0
    2.2041  -21.8970    0.0000 C   0  0
   21.4439  -24.0604    0.0000 C   0  0
   22.1908  -23.7063    0.0000 C   0  0
   22.8672  -24.1787    0.0000 C   0  0
   22.7982  -25.0010    0.0000 O   0  0
   23.6163  -23.8295    0.0000 O   0  0
   20.7435  -23.6245    0.0000 C   0  0  2  0  0  0
   19.3404  -22.7885    0.0000 C   0  0
   20.0578  -22.3812    0.0000 C   0  0
   20.7693  -22.7988    0.0000 N   0  0
   20.0637  -21.5562    0.0000 O   0  0
   20.0150  -24.0117    0.0000 C   0  0
   19.9862  -24.8362    0.0000 N   0  0
   19.3154  -23.5745    0.0000 O   0  0
   16.0263  -25.9869    0.0000 C   0  0
   10.7118  -22.7593    0.0000 C   0  0
   11.5368  -22.7589    0.0000 N   0  0
   10.2996  -23.4740    0.0000 O   0  0
   11.9496  -23.4732    0.0000 C   0  0  2  0  0  0
   12.7746  -23.4728    0.0000 C   0  0
   11.5375  -24.1879    0.0000 C   0  0  1  0  0  0
   10.7125  -24.1883    0.0000 C   0  0
   11.9503  -24.9021    0.0000 O   0  0
   13.1875  -24.1871    0.0000 N   0  0
   13.1868  -22.7581    0.0000 O   0  0
    9.4790  -22.0445    0.0000 N   0  0
   10.2994  -22.0453    0.0000 C   0  0  1  0  0  0
   10.5534  -21.2651    0.0000 C   0  0
    9.8373  -20.8262    0.0000 C   0  0
    9.2259  -21.2643    0.0000 C   0  0
   14.0125  -24.1867    0.0000 C   0  0  2  0  0  0
   14.4253  -24.9009    0.0000 C   0  0
   14.4246  -23.4720    0.0000 C   0  0
   14.0131  -25.6156    0.0000 O   0  0
   15.2478  -24.9005    0.0000 N   0  0
   15.2442  -25.7242    0.0000 C   0  0
   16.5179  -25.3243    0.0000 C   0  0
   16.0398  -24.6506    0.0000 C   0  0  1  0  0  0
   16.4257  -23.9214    0.0000 C   0  0
   17.2493  -23.8910    0.0000 N   0  0
   15.9871  -23.2226    0.0000 O   0  0
   17.5323  -24.6652    0.0000 C   0  0
   18.3569  -24.6375    0.0000 C   0  0
   18.5853  -23.8447    0.0000 C   0  0
   17.9013  -23.3820    0.0000 C   0  0  1  0  0  0
   17.8871  -22.5571    0.0000 C   0  0
   18.6751  -22.3008    0.0000 N   0  0
   17.1656  -22.1570    0.0000 O   0  0
   10.9496  -23.4737    0.0000 H   0  0
    9.0726  -22.7624    0.0000 C   0  0
    8.2476  -22.7694    0.0000 C   0  0
    9.4911  -23.4734    0.0000 O   0  0
    7.8291  -22.0585    0.0000 N   0  0
    7.0041  -22.0654    0.0000 C   0  0
    6.5977  -22.7834    0.0000 O   0  0
    7.8208  -21.2333    0.0000 C   0  0
   18.6708  -21.4750    0.0000 C   0  0
   17.9542  -21.0662    0.0000 C   0  0
   17.9500  -20.2412    0.0000 C   0  0
   17.2334  -19.8324    0.0000 C   0  0
   16.3877  -20.2236    0.0000 C   0  0
   15.7628  -19.6314    0.0000 C   0  0
    8.5311  -20.8137    0.0000 C   0  0
   14.3303  -19.2539    0.0000 C   0  0
    8.5229  -19.9888    0.0000 C   0  0
    9.2332  -19.5691    0.0000 C   0  0
    9.9518  -19.9745    0.0000 C   0  0
   11.7121  -19.2549    0.0000 C   0  0
   18.7805  -22.9055    0.0000 H   0  0
   17.0377  -24.5854    0.0000 H   0  0
   11.2939  -21.9410    0.0000 H   0  0
 51 52  1  0
 11 12  1  0
 51 53  2  0
 24 25  2  0
  1 16  1  0
 66 55  1  0
 25 26  1  0
 55 56  1  0
  4  5  1  0
 55 57  2  0
 26 27  2  0
 56 58  1  0
 27 22  1  0
 58 59  1  0
 22  2  1  0
 58 60  1  0
 19 28  1  0
 60 61  1  6
  4  6  2  0
 60 62  1  0
 26 29  1  0
 59 63  1  0
 12 13  1  0
 59 64  2  0
 65 66  1  0
 30 31  1  0
 13 14  1  0
 14  1  1  0
  1 11  1  0
  2 17  1  0
 66 67  1  0
 67 68  1  0
 68 69  1  0
 69 65  1  0
 31 32  1  0
 63 70  1  0
 32 33  1  0
 70 71  1  0
 33 34  1  0
 70 72  1  1
 34 30  1  0
 71 73  2  0
 13 15  2  0
 71 74  1  0
 74 75  1  0
 34 35  1  0
  5  7  1  0
 35 36  1  0
 75 54  1  0
 54 76  1  0
 76 77  1  0
 77 74  1  0
 77 78  1  0
 35 37  2  0
 78 79  1  0
 16 17  2  0
 78 80  2  0
 79 81  1  0
 36 38  1  0
  7  8  2  0
 38 39  1  0
 17 18  1  0
 81 82  1  0
 82 83  1  0
 83 84  1  0
 84 79  1  0
 39 40  1  0
 84 85  1  0
 40  3  1  0
 85 86  1  0
  1 23  1  0
 85 87  2  0
 18 19  2  0
 58 88  1  1
 41 42  1  0
 65 89  1  0
  8  9  1  0
 89 90  1  0
 42 43  1  0
 89 91  2  0
 19 20  1  0
 90 92  1  0
  9 12  2  0
 92 93  1  0
 43 44  1  0
 93 94  2  0
 86 47  1  0
 46 41  1  1
 30 93  1  1
 43 45  2  0
 92 95  1  0
 20 21  2  0
 86 96  1  0
 21 16  1  0
 96 97  1  0
  3  4  1  0
 97 98  1  0
 47 48  1  0
 98 99  1  0
 11 10  2  0
 99100  1  0
 48 49  1  0
100101  1  0
 22 23  2  0
 95102  1  0
 48 50  2  0
101103  1  0
 49 46  1  0
102104  1  0
 10  7  1  0
104105  1  0
 46 51  1  0
105106  1  0
 23 24  1  0
106107  1  0
107103  2  0
 84108  1  1
 77109  1  1
 66110  1  6
M  END