
  SciTegic11201309402D

 71 73  0  0  1  0            999 V2000
    1.3896   -3.1120    0.0000 N   0  0
    2.3631   -1.5601    0.0000 C   0  0  2  0  0  0
    1.3896   -4.7428    0.0000 C   0  0
    6.0658   -5.8079    0.0000 N   0  0
    1.7473   -2.3631    0.0000 C   0  0
    6.5318   -5.1297    0.0000 C   0  0  1  0  0  0
    3.8317   -6.6898    0.0000 N   0  0
    1.7473   -5.4834    0.0000 N   0  0
    5.4210   -6.3279    0.0000 C   0  0
    7.2764   -5.4834    0.0000 C   0  0
    3.0246   -6.5068    0.0000 C   0  0
    3.8317   -1.1649    0.0000 N   0  0
    1.2648   -3.9232    0.0000 C   0  0  1  0  0  0
    4.6554   -6.6274    0.0000 C   0  0  1  0  0  0
    7.3388   -6.3071    0.0000 N   0  0
    4.8344   -7.4304    0.0000 C   0  0
    2.3132   -6.0907    0.0000 C   0  0  2  0  0  0
    4.6554   -1.2231    0.0000 C   0  0
    8.7659   -6.2031    0.0000 C   0  0
   10.9376   -6.4569    0.0000 C   0  0
   11.3702   -2.6959    0.0000 C   0  0
    2.7333   -0.8155    0.0000 C   0  0
    9.5105   -6.5567    0.0000 N   0  0
    5.6207   -7.6758    0.0000 C   0  0
   11.6116   -5.9826    0.0000 N   0  0
    6.7772   -3.5114    0.0000 S   0  0
    2.2757   -0.1415    0.0000 C   0  0
    8.0794   -6.6691    0.0000 C   0  0
    6.5318   -2.7251    0.0000 S   0  0
   10.1887   -6.0949    0.0000 C   0  0  1  0  0  0
   13.0427   -5.8828    0.0000 C   0  0
    1.5768   -8.1543    0.0000 C   0  0
   12.0484   -2.2258    0.0000 N   0  0
    0.6033   -4.9841    0.0000 O   0  0
    1.5476   -1.6142    0.0000 C   0  0
    1.1857   -2.0469    0.0000 O   0  0
    5.8328   -6.9187    0.0000 O   0  0
    2.7209   -7.2764    0.0000 O   0  0
    7.9546   -5.0216    0.0000 O   0  0
    6.7772   -4.3351    0.0000 C   0  0
    1.4520   -0.1872    0.0000 C   0  0
    5.4210   -1.5269    0.0000 C   0  0
   10.9958   -7.2806    0.0000 O   0  0
    8.7035   -5.3793    0.0000 O   0  0
    4.8344   -0.4161    0.0000 O   0  0
    6.2322   -7.2307    0.0000 O   0  0
    1.8846   -8.9239    0.0000 O   0  0
   12.9803   -5.0590    0.0000 O   0  0
    1.7973   -6.7398    0.0000 C   0  0
    1.0900   -0.9278    0.0000 C   0  0
   11.4326   -3.5197    0.0000 N   0  0
   12.3604   -6.3446    0.0000 C   0  0
   10.6256   -2.3381    0.0000 N   0  0
    0.4410   -3.9232    0.0000 C   0  0  2  0  0  0
    5.8079   -8.4788    0.0000 N   0  0
    2.0968   -7.5053    0.0000 C   0  0
    0.7655   -8.0295    0.0000 N   0  0
   13.7833   -6.2405    0.0000 N   0  0
    6.0658   -2.0386    0.0000 C   0  0
    6.6566   -6.7772    0.0000 C   0  0
    2.6502    0.5949    0.0000 C   0  0
   10.1263   -5.2712    0.0000 C   0  0
    1.0027    0.4950    0.0000 C   0  0
   10.7504   -3.9856    0.0000 C   0  0
    0.0292   -4.6429    0.0000 C   0  0
    0.0292   -3.2118    0.0000 C   0  0
   10.8086   -4.8094    0.0000 C   0  0
   -0.7988   -4.6429    0.0000 C   0  0
    2.1884    1.2814    0.0000 C   0  0
    1.3646    1.2314    0.0000 C   0  0
    0.6137   -3.1642    0.0000 H   0  0
  2  5  1  0
  3 13  1  0
  4  9  1  0
  5  1  1  0
  6  4  1  0
  7 11  1  0
  8  3  1  0
  9 14  1  0
  6 10  1  6
 11 17  1  0
  2 12  1  6
 13  1  1  0
 14  7  1  0
 15 10  1  0
 14 16  1  1
 17  8  1  0
 18 12  1  0
 19 28  1  0
 20 30  1  0
 21 51  2  0
  2 22  1  0
 23 19  1  0
 24 16  1  0
 25 20  1  0
 26 29  1  0
 27 22  1  0
 28 15  1  0
 29 59  1  0
 30 23  1  1
 31 52  1  0
 32 56  1  0
 33 21  1  0
 34  3  2  0
 35  2  1  0
 36  5  2  0
 37  9  2  0
 38 11  2  0
 39 10  2  0
 40 26  1  0
 41 50  1  0
 42 18  1  0
 43 20  2  0
 44 19  2  0
 45 18  2  0
 46 24  2  0
 47 32  2  0
 48 31  2  0
 17 49  1  6
 50 35  1  0
 51 64  1  0
 52 25  1  0
 53 21  1  0
 13 54  1  0
 55 24  1  0
 56 49  1  0
 57 32  1  0
 58 31  1  0
 59 42  1  0
 60 15  1  0
 61 27  1  0
 30 62  1  0
 63 41  1  0
 64 67  1  0
 65 54  1  0
 54 66  1  6
 67 62  1  0
 68 65  1  0
 69 61  2  0
 70 63  2  0
 41 27  2  0
 69 70  1  0
  6 40  1  0
 13 71  1  6
M  END