
  SciTegic04091415222D

 28 31  0  0  0  0            999 V2000
   19.3223  -16.5089    0.0000 C   0  0
   20.7360  -16.5053    0.0000 C   0  0
   20.0274  -16.1000    0.0000 C   0  0
   20.7388  -17.3279    0.0000 C   0  0
   20.7350  -18.9630    0.0000 C   0  0
   21.4462  -18.5508    0.0000 C   0  0
   21.4443  -17.7351    0.0000 C   0  0
   20.0283  -17.7352    0.0000 C   0  0
   19.3211  -17.3284    0.0000 C   0  0
   18.6173  -17.7374    0.0000 C   0  0
   18.6195  -18.5530    0.0000 O   0  0
   19.3314  -18.9580    0.0000 C   0  0
   20.0323  -18.5466    0.0000 C   0  0
   21.4391  -16.0953    0.0000 C   0  0
   22.1487  -16.5029    0.0000 N   0  0
   22.8544  -16.0924    0.0000 C   0  0
   22.8517  -15.2743    0.0000 N   0  0
   22.1375  -14.8686    0.0000 C   0  0
   21.4347  -15.2815    0.0000 N   0  0
   20.0249  -15.2828    0.0000 Cl  0  0
   22.1315  -14.0514    0.0000 N   0  0
   23.5634  -16.4986    0.0000 S   0  0
   24.2698  -16.0877    0.0000 C   0  0
   24.9788  -16.4940    0.0000 C   0  0  2  0  0  0
   25.6852  -16.0831    0.0000 C   0  0
   26.3942  -16.4893    0.0000 N   0  0
   25.6825  -15.2659    0.0000 O   0  0
   24.9815  -17.3112    0.0000 C   0  0
  1  9  2  0
  4  2  1  0
  2  3  2  0
  3  1  1  0
  4  8  1  0
 13  5  1  0
  5  6  2  0
  6  7  1  0
  7  4  2  0
  8  9  1  0
  9 10  1  0
 10 11  1  0
 11 12  1  0
 12 13  1  0
 13  8  2  0
 14 15  2  0
 15 16  1  0
 16 17  2  0
 17 18  1  0
 18 19  2  0
 19 14  1  0
  2 14  1  0
  3 20  1  0
 18 21  1  0
 16 22  1  0
 22 23  1  0
 23 24  1  0
 24 25  1  0
 25 26  1  0
 25 27  2  0
 24 28  1  6
M  END