
  SciTegic09291413392D

 15 16  0  0  0  0            999 V2000
   21.2744   -3.0170    0.0000 C   0  0
   21.2733   -3.8365    0.0000 C   0  0
   21.9813   -4.2455    0.0000 C   0  0
   22.6910   -3.8360    0.0000 C   0  0
   22.6882   -3.0134    0.0000 C   0  0
   21.9796   -2.6081    0.0000 C   0  0
   23.3943   -2.6021    0.0000 N   0  0
   20.5706   -2.6043    0.0000 C   0  0
   20.5794   -1.7875    0.0000 C   0  0
   19.8765   -1.3749    0.0000 N   0  0
   19.1662   -1.7781    0.0000 C   0  0
   19.1633   -2.5982    0.0000 N   0  0
   19.8669   -3.0071    0.0000 C   0  0
   18.4607   -1.3658    0.0000 N   0  0
   18.4651   -0.5486    0.0000 C   0  0
  1  2  2  0
  2  3  1  0
  3  4  2  0
  4  5  1  0
  5  6  2  0
  6  1  1  0
  5  7  1  0
  1  8  1  0
  8  9  2  0
  9 10  1  0
 10 11  2  0
 11 12  1  0
 12 13  2  0
 13  8  1  0
 11 14  1  0
 14 15  1  0
M  END