
  SciTegic11201309402D

 60 63  0  0  1  0            999 V2000
    5.7500  -10.0000    0.0000 N   0  0
    7.1667  -10.8167    0.0000 C   0  0
    7.4917  -13.9042    0.0000 N   0  0
    7.6167  -11.5042    0.0000 N   0  0
    3.4292  -10.6167    0.0000 N   0  0
    4.9250   -9.9542    0.0000 C   0  0
    7.7875  -13.1292    0.0000 C   0  0
    2.9125  -11.2667    0.0000 C   0  0
    6.9667  -14.5500    0.0000 C   0  0  1  0  0  0
    6.5250  -10.3000    0.0000 C   0  0  2  0  0  0
    7.8292  -12.3042    0.0000 C   0  0  1  0  0  0
    2.5750  -12.8625    0.0000 N   0  0
    4.1292  -10.1667    0.0000 C   0  0  1  0  0  0
    2.7875  -13.6542    0.0000 C   0  0
    2.6167  -12.0375    0.0000 C   0  0  2  0  0  0
    8.6542  -12.2167    0.0000 C   0  0
    7.5250  -15.1625    0.0000 C   0  0
    3.2375  -14.3542    0.0000 C   0  0
    5.4792  -15.2125    0.0000 S   0  0
    4.6792  -15.2167    0.0000 S   0  0
    9.3375  -12.7042    0.0000 C   0  0
    3.8792  -14.8667    0.0000 C   0  0
    7.7792  -10.2625    0.0000 O   0  0
    4.7750   -9.3417    0.0000 O   0  0
    8.5917  -13.3042    0.0000 O   0  0
    2.1917  -10.8500    0.0000 O   0  0
    6.2792  -15.0000    0.0000 C   0  0
    1.8042  -11.8625    0.0000 C   0  0
    3.7875   -9.4167    0.0000 C   0  0
    2.0292  -13.9917    0.0000 O   0  0
    7.2667  -15.9500    0.0000 O   0  0
    9.1500  -13.3375    0.0000 O   0  0
    8.3292  -14.9917    0.0000 N   0  0
    6.9375   -9.5792    0.0000 C   0  0
   10.1542  -12.6250    0.0000 N   0  0
    1.2542  -12.4792    0.0000 C   0  0
    0.1500  -13.7042    0.0000 C   0  0
    4.2750   -8.7417    0.0000 C   0  0
    0.4417  -12.3042    0.0000 C   0  0
    1.5042  -13.2667    0.0000 C   0  0
   10.2417  -16.0500    0.0000 N   0  0
    0.9542  -13.8792    0.0000 C   0  0
   -0.1083  -12.9167    0.0000 C   0  0
   -0.4083  -14.3167    0.0000 O   0  0
    3.1042  -14.7750    0.0000 C   0  0
    4.3500  -15.4917    0.0000 C   0  0
    8.8792  -15.6042    0.0000 C   0  0
    9.6917  -15.4292    0.0000 C   0  0
    7.7667   -9.5792    0.0000 C   0  0
    6.5250   -8.8625    0.0000 C   0  0
   -1.2125  -14.1500    0.0000 C   0  0
    5.1000   -8.8292    0.0000 C   0  0
    3.9375   -7.9917    0.0000 C   0  0
   -1.7708  -14.7625    0.0000 C   0  0
    3.9292  -16.2125    0.0000 C   0  0
    2.6917  -15.4917    0.0000 C   0  0
    4.4250   -7.3167    0.0000 C   0  0
    5.5792   -8.1625    0.0000 C   0  0
    5.2417   -7.4042    0.0000 C   0  0
    3.1042  -16.2125    0.0000 C   0  0
  2 10  1  0
  3  7  1  0
  4  2  1  0
  5 13  1  0
  6  1  1  0
  7 11  1  0
  8  5  1  0
  9  3  1  0
 10  1  1  0
 11  4  1  0
 12 15  1  0
 13  6  1  0
 14 12  1  0
 15  8  1  0
 11 16  1  6
  9 17  1  1
 18 14  1  0
 19 27  1  0
 20 19  1  0
 21 16  1  0
 22 18  1  0
 23  2  2  0
 24  6  2  0
 25  7  2  0
 26  8  2  0
  9 27  1  0
 15 28  1  6
 13 29  1  6
 30 14  2  0
 31 17  2  0
 32 21  2  0
 33 17  1  0
 10 34  1  1
 35 21  1  0
 36 28  1  0
 37 42  1  0
 38 29  1  0
 39 36  2  0
 40 36  1  0
 41 48  1  0
 42 40  2  0
 43 39  1  0
 44 37  1  0
 45 22  1  0
 46 22  1  0
 47 33  1  0
 48 47  1  0
 49 34  1  0
 50 34  1  0
 51 44  1  0
 52 38  1  0
 53 38  2  0
 54 51  1  0
 55 46  1  0
 56 45  1  0
 57 53  1  0
 58 52  2  0
 59 57  2  0
 60 55  1  0
 58 59  1  0
 37 43  2  0
 22 20  1  0
 56 60  1  0
M  END