
  SciTegic06051315212D

 28 31  0  0  0  0            999 V2000
    2.6978  -13.3639    0.0000 C   0  0
    2.6966  -14.1835    0.0000 C   0  0
    3.4047  -14.5924    0.0000 C   0  0
    4.1123  -14.1793    0.0000 C   0  0
    4.8208  -14.5864    0.0000 C   0  0
    5.5291  -14.1756    0.0000 C   0  0
    5.5243  -13.3535    0.0000 C   0  0
    4.7409  -12.9625    0.0000 C   0  0
    3.4029  -12.9551    0.0000 C   0  0
    4.1135  -13.3639    0.0000 C   0  0
    3.5731  -12.1537    0.0000 C   0  0
    4.5222  -12.1625    0.0000 C   0  0
    3.0605  -11.5172    0.0000 O   0  0
    4.8509  -11.4778    0.0000 C   0  0
    5.6681  -11.4752    0.0000 C   0  0
    4.4879  -10.7458    0.0000 C   0  0
    6.4855  -11.4703    0.0000 N   0  0
    4.1211  -10.0124    0.0000 N   0  0
    4.8225  -15.4036    0.0000 O   0  0
    5.5311  -15.8107    0.0000 C   0  0
    5.5294  -16.6256    0.0000 C   0  0
    6.2371  -17.0326    0.0000 C   0  0
    6.9450  -16.6225    0.0000 C   0  0
    6.9407  -15.8011    0.0000 C   0  0
    6.2324  -15.3977    0.0000 C   0  0
    7.6541  -17.0287    0.0000 C   0  0
    7.6569  -17.8459    0.0000 C   0  0
    8.3604  -16.6177    0.0000 C   0  0
  1  2  2  0
  2  3  1  0
  3  4  2  0
  9  1  1  0
 10  4  1  0
  4  5  1  0
  5  6  2  0
  6  7  1  0
  7  8  2  0
  8 10  1  0
  9 10  2  0
 11  9  1  0
  8 12  1  0
 11 12  1  0
 11 13  2  0
 12 14  2  0
 14 15  1  0
 14 16  1  0
 15 17  3  0
 16 18  3  0
  5 19  1  0
 19 20  1  0
 20 21  2  0
 21 22  1  0
 22 23  2  0
 23 24  1  0
 24 25  2  0
 25 20  1  0
 23 26  1  0
 26 27  1  0
 26 28  1  0
M  END