
          11280714522D 1   1.00000     0.00000     0

 52 56  0     1  0            999 V2000
    4.7042   -0.7792    0.0000 N   0  0  0  0  0  0           0  0  0
    5.5042   -0.5667    0.0000 C   0  0  2  0  0  0           0  0  0
    5.4667    0.9083    0.0000 N   0  0  3  0  0  0           0  0  0
    5.8417    0.1750    0.0000 C   0  0  0  0  0  0           0  0  0
    4.0542   -0.2792    0.0000 C   0  0  0  0  0  0           0  0  0
    6.2417  -10.8542    0.0000 C   0  0  0  0  0  0           0  0  0
    4.0292    0.5375    0.0000 C   0  0  0  0  0  0           0  0  0
    6.0500   -1.2000    0.0000 N   0  0  0  0  0  0           0  0  0
    7.0292  -11.1375    0.0000 N   0  0  0  0  0  0           0  0  0
    4.6542    1.0708    0.0000 C   0  0  0  0  0  0           0  0  0
    6.0042  -10.0667    0.0000 N   0  0  0  0  0  0           0  0  0
    5.7792   -1.9750    0.0000 C   0  0  0  0  0  0           0  0  0
    7.6542  -10.6000    0.0000 C   0  0  0  0  0  0           0  0  0
    5.5625  -11.3167    0.0000 S   0  0  0  0  0  0           0  0  0
    5.1792  -10.0500    0.0000 C   0  0  0  0  0  0           0  0  0
    4.9042  -10.8250    0.0000 C   0  0  0  0  0  0           0  0  0
    6.3167   -2.6000    0.0000 N   0  0  0  0  0  0           0  0  0
    3.6167   -3.8250    0.0000 C   0  0  0  0  0  0           0  0  0
    6.6667    0.1958    0.0000 O   0  0  0  0  0  0           0  0  0
    3.3250   -6.7750    0.0000 C   0  0  0  0  0  0           0  0  0
    3.3542   -0.7167    0.0000 C   0  0  0  0  0  0           0  0  0
    4.9667   -2.1292    0.0000 O   0  0  0  0  0  0           0  0  0
    6.0417   -3.3750    0.0000 C   0  0  0  0  0  0           0  0  0
    3.8917   -3.0500    0.0000 O   0  0  0  0  0  0           0  0  0
    3.0500   -7.5500    0.0000 O   0  0  0  0  0  0           0  0  0
    4.9625   -4.3000    0.0000 C   0  0  0  0  0  0           0  0  0
    8.4292  -10.8750    0.0000 N   0  0  0  0  0  0           0  0  0
    7.5042   -9.7917    0.0000 N   0  0  0  0  0  0           0  0  0
    4.1500   -4.4417    0.0000 C   0  0  0  0  0  0           0  0  0
    2.8042   -3.9750    0.0000 N   0  0  0  0  0  0           0  0  0
    4.1292   -6.6250    0.0000 N   0  0  0  0  0  0           0  0  0
    5.2375   -3.5250    0.0000 C   0  0  0  0  0  0           0  0  0
    5.9667    1.5625    0.0000 C   0  0  0  0  0  0           0  0  0
    3.2542    0.8208    0.0000 C   0  0  0  0  0  0           0  0  0
    4.9250   -8.6500    0.0000 S   0  0  0  0  0  0           0  0  0
    4.6500   -9.4250    0.0000 C   0  0  0  0  0  0           0  0  0
    4.5167    1.8833    0.0000 C   0  0  0  0  0  0           0  0  0
    6.3042   -4.7792    0.0000 C   0  0  0  0  0  0           0  0  0
    2.7917   -6.1500    0.0000 C   0  0  0  0  0  0           0  0  0
    6.5792   -4.0042    0.0000 C   0  0  0  0  0  0           0  0  0
    5.5000   -4.9292    0.0000 C   0  0  0  0  0  0           0  0  0
    2.6292   -0.3167    0.0000 C   0  0  0  0  0  0           0  0  0
    3.3750   -1.5417    0.0000 C   0  0  0  0  0  0           0  0  0
    4.6667   -7.2500    0.0000 C   0  0  0  0  0  0           0  0  0
    2.5292   -4.7500    0.0000 C   0  0  0  0  0  0           0  0  0
    4.3917   -8.0250    0.0000 C   0  0  0  0  0  0           0  0  0
    3.0667   -5.3750    0.0000 C   0  0  0  0  0  0           0  0  0
    3.1042    1.6250    0.0000 C   0  0  0  0  0  0           0  0  0
    3.7417    2.1625    0.0000 C   0  0  0  0  0  0           0  0  0
    2.6667   -1.9667    0.0000 C   0  0  0  0  0  0           0  0  0
    1.9167   -0.7417    0.0000 C   0  0  0  0  0  0           0  0  0
    1.9417   -1.5667    0.0000 C   0  0  0  0  0  0           0  0  0
  2  1  1  0     0  0
  3  4  1  0     0  0
  4  2  1  0     0  0
  5  1  2  0     0  0
  6 11  2  0     0  0
  7  5  1  0     0  0
  2  8  1  6     0  0
  9  6  1  0     0  0
 10  7  1  0     0  0
 11 15  1  0     0  0
 12  8  1  0     0  0
 13  9  2  0     0  0
 14 16  1  0     0  0
 15 36  1  0     0  0
 16 15  2  0     0  0
 17 12  1  0     0  0
 18 29  1  0     0  0
 19  4  2  0     0  0
 20 39  1  0     0  0
 21  5  1  0     0  0
 22 12  2  0     0  0
 23 17  1  0     0  0
 24 18  2  0     0  0
 25 20  2  0     0  0
 26 32  1  0     0  0
 27 13  1  0     0  0
 28 13  1  0     0  0
 29 26  1  0     0  0
 30 18  1  0     0  0
 31 20  1  0     0  0
 32 23  2  0     0  0
 33  3  1  0     0  0
 34  7  2  0     0  0
 35 46  1  0     0  0
 36 35  1  0     0  0
 37 10  2  0     0  0
 38 40  2  0     0  0
 39 47  1  0     0  0
 40 23  1  0     0  0
 41 38  1  0     0  0
 42 21  2  0     0  0
 43 21  1  0     0  0
 44 31  1  0     0  0
 45 30  1  0     0  0
 46 44  1  0     0  0
 47 45  1  0     0  0
 48 34  1  0     0  0
 49 48  2  0     0  0
 50 43  2  0     0  0
 51 42  1  0     0  0
 52 50  1  0     0  0
 10  3  1  0     0  0
 51 52  2  0     0  0
 37 49  1  0     0  0
 26 41  2  0     0  0
 14  6  1  0     0  0
M  END