
  SciTegic01061111512D

 40 43  0  0  0  0            999 V2000
    3.4205   -4.3202    0.0000 C   0  0  2  0  0  0
    3.4205   -5.1452    0.0000 C   0  0  2  0  0  0
    4.1332   -5.5516    0.0000 C   0  0  1  0  0  0
    4.8458   -5.1452    0.0000 C   0  0  2  0  0  0
    4.8458   -4.3202    0.0000 C   0  0  1  0  0  0
    4.1332   -3.9014    0.0000 O   0  0
    5.5579   -3.9077    0.0000 O   0  0
    5.5604   -3.0826    0.0000 C   0  0
    5.5561   -5.5568    0.0000 N   0  0
    6.2718   -5.1473    0.0000 C   0  0
    6.9863   -5.5588    0.0000 C   0  0
    6.2730   -4.3222    0.0000 O   0  0
    4.1332   -6.3766    0.0000 O   0  0
    2.7061   -5.5568    0.0000 O   0  0
    2.7043   -3.9077    0.0000 C   0  0
    2.7018   -3.0826    0.0000 O   0  0
    1.9903   -5.1473    0.0000 C   0  0  2  0  0  0
    1.9868   -4.3235    0.0000 O   0  0
    1.2753   -3.9101    0.0000 C   0  0  1  0  0  0
    0.5583   -4.3222    0.0000 C   0  0  1  0  0  0
    0.5575   -5.1482    0.0000 C   0  0  1  0  0  0
    1.2737   -5.5622    0.0000 C   0  0  1  0  0  0
    2.5747   -4.5566    0.0000 H   0  0
    1.2740   -6.3872    0.0000 O   0  0
   -0.1583   -5.5573    0.0000 N   0  0
   -0.1599   -6.3824    0.0000 C   0  0
   -0.8717   -6.7956    0.0000 C   0  0
    0.5543   -6.7984    0.0000 O   0  0
   -1.5858   -6.3776    0.0000 C   0  0
   -1.5840   -8.0278    0.0000 C   0  0
   -0.8716   -7.6170    0.0000 C   0  0
   -2.3034   -7.6162    0.0000 C   0  0
   -2.2989   -6.7910    0.0000 C   0  0
   -3.0107   -6.3742    0.0000 C   0  0
   -3.7275   -6.7857    0.0000 C   0  0
   -3.7280   -7.6141    0.0000 C   0  0
   -3.0155   -8.0229    0.0000 C   0  0
   -0.1558   -3.9060    0.0000 O   0  0
    1.2772   -3.0850    0.0000 C   0  0
    0.5630   -2.6729    0.0000 O   0  0
  3  4  1  0
 17 22  1  0
 18 19  1  0
 19 20  1  0
 20 21  1  0
 21 22  1  0
 10 11  1  0
 17 23  1  6
  4  5  1  0
 22 24  1  6
 10 12  2  0
 21 25  1  1
  5  6  1  0
 25 26  1  0
  3 13  1  1
 26 27  1  0
 26 28  2  0
  2 14  1  6
 27 29  2  0
 29 33  1  0
  5  7  1  1
 32 30  1  0
  1 15  1  1
 30 31  2  0
 31 27  1  0
  1  2  1  0
 15 16  1  0
 32 33  1  0
  7  8  1  0
 33 34  2  0
 14 17  1  0
 34 35  1  0
 17 18  1  0
 35 36  2  0
  1  6  1  0
 36 37  1  0
 37 32  2  0
  4  9  1  6
 20 38  1  1
  2  3  1  0
 19 39  1  1
  9 10  1  0
 39 40  1  0
M  END