
          11280715422D 1   1.00000     0.00000     0

 29 32  0     0  0            999 V2000
   -0.3875    0.6250    0.0000 C   0  0  0  0  0  0           0  0  0
    0.4375    0.7125    0.0000 N   0  0  0  0  0  0           0  0  0
    0.7667   -0.0417    0.0000 C   0  0  0  0  0  0           0  0  0
   -0.5583   -0.1792    0.0000 C   0  0  0  0  0  0           0  0  0
    0.1542   -0.5917    0.0000 S   0  0  0  0  0  0           0  0  0
    1.5750   -0.2125    0.0000 C   0  0  0  0  0  0           0  0  0
   -0.9375    1.2375    0.0000 C   0  0  0  0  0  0           0  0  0
    1.8292   -1.0000    0.0000 N   0  0  0  0  0  0           0  0  0
   -0.6750    2.0250    0.0000 C   0  0  0  0  0  0           0  0  0
    2.6375   -1.1750    0.0000 N   0  0  3  0  0  0           0  0  0
   -1.2708   -0.6000    0.0000 C   0  0  0  0  0  0           0  0  0
   -1.7375    1.0625    0.0000 C   0  0  0  0  0  0           0  0  0
   -1.2250    2.6458    0.0000 C   0  0  0  0  0  0           0  0  0
    2.1292    0.4000    0.0000 O   0  0  0  0  0  0           0  0  0
   -1.9875   -0.1875    0.0000 C   0  0  0  0  0  0           0  0  0
   -1.2708   -1.4250    0.0000 C   0  0  0  0  0  0           0  0  0
   -2.0375    2.4625    0.0000 C   0  0  0  0  0  0           0  0  0
    0.1292    2.1875    0.0000 Cl  0  0  0  0  0  0           0  0  0
   -2.2875    1.6750    0.0000 C   0  0  0  0  0  0           0  0  0
   -2.7000   -1.4250    0.0000 C   0  0  0  0  0  0           0  0  0
   -2.7000   -0.6000    0.0000 C   0  0  0  0  0  0           0  0  0
   -1.9875   -1.8375    0.0000 C   0  0  0  0  0  0           0  0  0
   -2.5875    3.0833    0.0000 Cl  0  0  0  0  0  0           0  0  0
   -3.4125   -1.8375    0.0000 Cl  0  0  0  0  0  0           0  0  0
    3.1875   -0.5625    0.0000 C   0  0  0  0  0  0           0  0  0
    2.8875   -1.9625    0.0000 C   0  0  0  0  0  0           0  0  0
    4.0000   -0.7375    0.0000 C   0  0  0  0  0  0           0  0  0
    3.6917   -2.1375    0.0000 C   0  0  0  0  0  0           0  0  0
    4.2500   -1.5250    0.0000 C   0  0  0  0  0  0           0  0  0
  2  1  1  0     0  0
  3  2  2  0     0  0
  4  1  2  0     0  0
  5  4  1  0     0  0
  6  3  1  0     0  0
  7  1  1  0     0  0
  8  6  1  0     0  0
  9  7  2  0     0  0
 10  8  1  0     0  0
 11  4  1  0     0  0
 12  7  1  0     0  0
 13  9  1  0     0  0
 14  6  2  0     0  0
 15 11  2  0     0  0
 16 11  1  0     0  0
 17 19  1  0     0  0
 18  9  1  0     0  0
 19 12  2  0     0  0
 20 22  1  0     0  0
 21 15  1  0     0  0
 22 16  2  0     0  0
 23 17  1  0     0  0
 24 20  1  0     0  0
 25 10  1  0     0  0
 26 10  1  0     0  0
 27 25  1  0     0  0
 28 26  1  0     0  0
 29 28  1  0     0  0
  3  5  1  0     0  0
 17 13  2  0     0  0
 20 21  2  0     0  0
 29 27  1  0     0  0
M  END