
  SciTegic12171313022D

 16 17  0  0  0  0            999 V2000
    5.8720   -1.9484    0.0000 O   0  0
    6.4240   -2.5615    0.0000 C   0  0
    6.0115   -3.2759    0.0000 N   0  0
    5.2045   -3.1044    0.0000 N   0  0
    5.1183   -2.2839    0.0000 C   0  0
    4.4038   -1.8714    0.0000 C   0  0
    3.6893   -2.2839    0.0000 C   0  0
    2.9749   -1.8714    0.0000 C   0  0
    2.9749   -1.0464    0.0000 C   0  0
    3.6893   -0.6339    0.0000 C   0  0
    4.4038   -1.0464    0.0000 C   0  0
    2.2604   -2.2839    0.0000 C   0  0
    1.5827   -1.9230    0.0000 F   0  0
    2.2604   -3.0279    0.0000 F   0  0
    1.5459   -2.6964    0.0000 F   0  0
    7.2445   -2.4752    0.0000 C   0  0
  1  2  1  0
  2  3  2  0
  3  4  1  0
  4  5  2  0
  1  5  1  0
  6  7  1  0
  7  8  2  0
  8  9  1  0
  9 10  2  0
 10 11  1  0
  6 11  2  0
 12 13  1  0
 12 14  1  0
 12 15  1  0
  8 12  1  0
  5  6  1  0
  2 16  1  0
M  END