
  SciTegic10041313202D

 28 29  0  0  1  0            999 V2000
    4.4167   -2.9167    0.0000 C   0  0
    6.5625   -3.3417    0.0000 C   0  0
    5.1292   -3.3375    0.0000 N   0  0
    3.7042   -3.3292    0.0000 N   0  0
    5.8500   -2.9250    0.0000 C   0  0  1  0  0  0
    7.2792   -2.9375    0.0000 N   0  0
    9.5258   -2.4570    0.0000 N   0  0
    8.7042   -2.9375    0.0000 C   0  0
    4.4167   -2.0917    0.0000 O   0  0
    6.5542   -4.1667    0.0000 O   0  0
    7.9917   -3.3542    0.0000 C   0  0  2  0  0  0
    5.8500   -2.1042    0.0000 C   0  0
    2.2792   -4.1542    0.0000 O   0  0
    8.5750   -3.9375    0.0000 C   0  0
    8.3625   -4.7292    0.0000 C   0  0
    2.9917   -2.9167    0.0000 C   0  0
    3.7042   -4.1542    0.0000 C   0  0
    6.2542   -1.3875    0.0000 C   0  0
    2.9917   -4.5667    0.0000 C   0  0
    2.2792   -3.3292    0.0000 C   0  0
    7.5625   -4.9417    0.0000 C   0  0
    8.9417   -5.3042    0.0000 C   0  0
    7.0792   -1.3750    0.0000 C   0  0
    5.8375   -0.6750    0.0000 C   0  0
    8.7375   -6.1042    0.0000 C   0  0
    7.3500   -5.7417    0.0000 C   0  0
    7.9375   -6.3250    0.0000 C   0  0
    7.5750   -4.0667    0.0000 H   0  0
  2  5  1  0
  3  1  1  0
  4  1  1  0
  5  3  1  0
  6  2  1  0
  7  8  3  0
  8 11  1  0
  9  1  2  0
 10  2  2  0
 11  6  1  0
  5 12  1  1
 13 19  1  0
 11 14  1  6
 15 14  1  0
 16  4  1  0
 17  4  1  0
 18 12  1  0
 19 17  1  0
 20 16  1  0
 21 15  2  0
 22 15  1  0
 23 18  1  0
 24 18  1  0
 25 22  2  0
 26 21  1  0
 27 25  1  0
 11 28  1  1
 20 13  1  0
 26 27  2  0
M  END