
  SciTegic10301317112D

 75 80  0  0  1  0            999 V2000
   13.3539   -5.9790    0.0000 N   0  0
   12.6502   -5.5670    0.0000 C   0  0
    8.3648   -7.2320    0.0000 C   0  0
    0.4864   -4.4113    0.0000 C   0  0
    4.0680   -5.6185    0.0000 C   0  0
    8.3591   -5.5842    0.0000 C   0  0
    6.2193   -6.0133    0.0000 C   0  0
   10.5046   -5.9790    0.0000 C   0  0
    1.9224   -6.0476    0.0000 C   0  0
    2.6433   -5.6299    0.0000 N   0  0
   14.1263   -6.2708    0.0000 C   0  0  2  0  0  0
    3.3528   -6.0419    0.0000 C   0  0  1  0  0  0
    9.6807   -7.5009    0.0000 N   0  0
   -0.8353   -4.1424    0.0000 N   0  0
    4.7889   -6.0133    0.0000 N   0  0
    6.9230   -5.5842    0.0000 N   0  0
    9.0800   -5.9904    0.0000 N   0  0
   11.2141   -5.5499    0.0000 N   0  0
   -0.2746   -4.7431    0.0000 C   0  0
    9.1201   -6.8887    0.0000 C   0  0
    7.6439   -5.9961    0.0000 C   0  0  2  0  0  0
    5.4926   -5.6014    0.0000 C   0  0  1  0  0  0
    9.7895   -5.5670    0.0000 C   0  0  1  0  0  0
   14.3381   -7.0775    0.0000 C   0  0
   11.9350   -5.9790    0.0000 C   0  0  1  0  0  0
   13.3196   -9.2917    0.0000 C   0  0
    0.3834   -3.5931    0.0000 C   0  0
    8.4621   -8.0501    0.0000 C   0  0
    7.6553   -6.8200    0.0000 C   0  0
    1.2015   -4.8118    0.0000 C   0  0
    1.2073   -5.6357    0.0000 C   0  0  2  0  0  0
   -0.4233   -3.4215    0.0000 C   0  0
    9.2746   -8.2104    0.0000 C   0  0
   12.6044   -9.6865    0.0000 N   0  0
   12.6559   -4.7431    0.0000 O   0  0
    4.0566   -4.7946    0.0000 O   0  0
    6.2193   -6.8372    0.0000 O   0  0
    8.3477   -4.7603    0.0000 O   0  0
   10.5104   -6.8029    0.0000 O   0  0
    1.9282   -6.8715    0.0000 O   0  0
    5.4926   -4.7775    0.0000 C   0  0
   13.7487   -7.6553    0.0000 O   0  0
    9.7723   -4.7431    0.0000 C   0  0
   13.3254   -8.4678    0.0000 N   0  0
   15.1276   -7.2835    0.0000 N   0  0
   14.0291   -9.7037    0.0000 N   0  0
   13.3940   -5.1551    0.0000 C   0  0
    6.2021   -4.3598    0.0000 C   0  0
    0.4978   -6.0590    0.0000 N   0  0
    7.6268   -3.5245    0.0000 C   0  0
    3.3528   -6.8544    0.0000 C   0  0
    6.1964   -3.5359    0.0000 C   0  0
    6.9230   -4.7603    0.0000 C   0  0
    6.9059   -3.1125    0.0000 C   0  0
    7.6382   -4.3484    0.0000 C   0  0
   14.6470   -5.6357    0.0000 C   0  0
    8.3305   -3.1068    0.0000 O   0  0
    4.0737   -7.2663    0.0000 O   0  0
   14.2007   -4.9491    0.0000 C   0  0
   11.9179   -6.8029    0.0000 C   0  0
    7.9186   -8.6738    0.0000 C   0  0
    0.9326   -2.9694    0.0000 C   0  0
   10.4875   -4.3312    0.0000 C   0  0
    9.5320   -8.9999    0.0000 C   0  0
   -0.6808   -2.6319    0.0000 C   0  0
   15.3336   -8.0902    0.0000 C   0  0
   12.6216   -8.0501    0.0000 C   0  0
   12.6330   -7.2262    0.0000 C   0  0
   10.4761   -3.5073    0.0000 C   0  0
   11.2084   -4.7260    0.0000 C   0  0
   16.1346   -8.2962    0.0000 C   0  0
    8.1760   -9.4576    0.0000 C   0  0
    0.6752   -2.1856    0.0000 C   0  0
   -0.1315   -2.0140    0.0000 C   0  0
    8.9828   -9.6178    0.0000 C   0  0
  2  1  1  0
  3 29  1  0
  4 30  1  0
  5 15  1  0
  6 17  1  0
  7 16  1  0
  8 18  1  0
  9 10  1  0
 10 12  1  0
 11  1  1  0
 12  5  1  0
 13 20  1  0
 14 19  1  0
 15 22  1  0
 16 21  1  0
 17 23  1  0
 18 25  1  0
 19  4  2  0
 20  3  2  0
 21  6  1  0
 22  7  1  0
 23  8  1  0
 11 24  1  1
 25  2  1  0
 26 44  2  0
 27  4  1  0
 28  3  1  0
 21 29  1  1
 31 30  1  1
 31  9  1  0
 32 27  2  0
 33 28  2  0
 34 26  1  0
 35  2  2  0
 36  5  2  0
 37  7  2  0
 38  6  2  0
 39  8  2  0
 40  9  2  0
 22 41  1  1
 42 24  2  0
 23 43  1  1
 44 67  1  0
 45 24  1  0
 46 26  1  0
 47  1  1  0
 48 41  1  0
 49 31  1  0
 50 55  2  0
 12 51  1  6
 52 48  1  0
 53 48  2  0
 54 52  2  0
 55 53  1  0
 56 11  1  0
 57 50  1  0
 58 51  1  0
 59 47  1  0
 25 60  1  6
 61 28  1  0
 62 27  1  0
 63 43  1  0
 64 33  1  0
 65 32  1  0
 66 45  1  0
 67 68  1  0
 68 60  1  0
 69 63  1  0
 70 63  1  0
 71 66  1  0
 72 61  2  0
 73 62  2  0
 74 73  1  0
 75 72  1  0
 59 56  1  0
 33 13  1  0
 64 75  2  0
 54 50  1  0
 32 14  1  0
 65 74  2  0
M  END