
  SciTegic04091416462D

 14 15  0  0  0  0            999 V2000
   14.0560   -2.8561    0.0000 C   0  0
   11.2246   -2.0388    0.0000 C   0  0
   11.2235   -2.8583    0.0000 C   0  0
   11.9315   -3.2673    0.0000 C   0  0
   12.6412   -2.8579    0.0000 C   0  0
   12.6384   -2.0352    0.0000 C   0  0
   11.9298   -1.6300    0.0000 N   0  0
   13.3496   -3.2654    0.0000 N   0  0
   14.0553   -2.0385    0.0000 O   0  0
   14.6940   -3.3622    0.0000 C   0  0
   14.6602   -4.1790    0.0000 C   0  0
   15.4276   -4.4627    0.0000 C   0  0
   15.9335   -3.8194    0.0000 N   0  0
   15.4771   -3.1404    0.0000 N   0  0
  2  3  2  0
  3  4  1  0
  4  5  2  0
  5  6  1  0
  6  7  2  0
  7  2  1  0
  5  8  1  0
  8  1  1  0
  1  9  2  0
 11 12  1  0
 10 11  2  0
 12 13  2  0
 13 14  1  0
 14 10  1  0
  1 10  1  0
M  END