
  SciTegic11201309402D

 68 71  0  0  1  0            999 V2000
    1.0542    3.0625    0.0000 N   0  0
    2.4792    2.2458    0.0000 C   0  0
    2.8042   -0.8417    0.0000 N   0  0
    2.9292    1.5500    0.0000 N   0  0
   -1.2583    2.4375    0.0000 N   0  0
    0.2292    3.1083    0.0000 C   0  0
    3.0917   -0.0750    0.0000 C   0  0
   -1.7833    1.7958    0.0000 C   0  0
    2.2792   -1.4875    0.0000 C   0  0  1  0  0  0
    1.8292    2.7708    0.0000 C   0  0  2  0  0  0
    3.1417    0.7500    0.0000 C   0  0  1  0  0  0
   -2.1208    0.2000    0.0000 N   0  0
   -0.5583    2.8958    0.0000 C   0  0  1  0  0  0
   -1.9083   -0.6000    0.0000 C   0  0
   -2.0708    1.0250    0.0000 C   0  0  2  0  0  0
    3.9667    0.8375    0.0000 C   0  0
    2.8292   -2.1000    0.0000 C   0  0
    3.9042   -5.8375    0.0000 C   0  0
   -1.4583   -1.2917    0.0000 C   0  0
    0.7917   -2.1500    0.0000 S   0  0
   -0.0083   -2.1625    0.0000 S   0  0
    6.3792   -2.9875    0.0000 C   0  0
    4.6417    0.3500    0.0000 C   0  0
   -0.8083   -1.8125    0.0000 C   0  0
    4.3167   -6.5542    0.0000 N   0  0
    3.0917    2.8000    0.0000 O   0  0
    0.0792    3.7208    0.0000 O   0  0
   -2.4958    2.2125    0.0000 O   0  0
    3.9042   -0.2417    0.0000 O   0  0
    1.5917   -1.9375    0.0000 C   0  0
   -0.9083    3.6458    0.0000 C   0  0
   -2.8833    1.2000    0.0000 C   0  0
   -2.6583   -0.9375    0.0000 O   0  0
    2.5792   -2.8875    0.0000 O   0  0
    6.7792   -2.2750    0.0000 O   0  0
    4.4542   -0.2750    0.0000 O   0  0
    4.3167   -5.1250    0.0000 N   0  0
    3.6417   -1.9250    0.0000 N   0  0
    5.5542   -2.9875    0.0000 N   0  0
    6.7917   -3.7000    0.0000 C   0  0
    3.0792   -5.8375    0.0000 N   0  0
    2.2417    3.4833    0.0000 C   0  0
    5.4667    0.4375    0.0000 N   0  0
    7.6042   -3.7000    0.0000 N   0  0
   -3.4333    0.5833    0.0000 C   0  0
   -0.4208    4.3125    0.0000 C   0  0
   -1.5833   -1.7125    0.0000 C   0  0
   -0.3458   -2.4250    0.0000 C   0  0
    5.0042   -2.3750    0.0000 C   0  0
    4.1917   -2.5417    0.0000 C   0  0
    5.1417   -5.1250    0.0000 C   0  0
    6.3792   -4.4125    0.0000 C   0  0
    3.0792    3.4833    0.0000 C   0  0
    1.8292    4.2000    0.0000 C   0  0
    0.4042    4.2167    0.0000 C   0  0
   -3.1833   -0.2042    0.0000 C   0  0
   -4.2458    0.7583    0.0000 C   0  0
   -0.7583    5.0667    0.0000 C   0  0
    5.5542   -4.4125    0.0000 C   0  0
   -0.7583   -3.1500    0.0000 C   0  0
   -1.9958   -2.4250    0.0000 C   0  0
   -3.7333   -0.8167    0.0000 C   0  0
   -4.7958    0.1375    0.0000 C   0  0
   -0.2708    5.7292    0.0000 C   0  0
    0.8917    4.9000    0.0000 C   0  0
    0.5542    5.6500    0.0000 C   0  0
   -4.5458   -0.6500    0.0000 C   0  0
   -1.5833   -3.1500    0.0000 C   0  0
  2 10  1  0
  3  7  1  0
  4  2  1  0
  5 13  1  0
  6  1  1  0
  7 11  1  0
  8  5  1  0
  9  3  1  0
 10  1  1  0
 11  4  1  0
 12 15  1  0
 13  6  1  0
 14 12  1  0
 15  8  1  0
 11 16  1  6
  9 17  1  1
 18 37  2  0
 19 14  1  0
 20 30  1  0
 21 20  1  0
 22 39  1  0
 23 16  1  0
 24 19  1  0
 25 18  1  0
 26  2  2  0
 27  6  2  0
 28  8  2  0
 29  7  2  0
  9 30  1  0
 13 31  1  6
 15 32  1  6
 33 14  2  0
 34 17  2  0
 35 22  2  0
 36 23  2  0
 37 51  1  0
 38 17  1  0
 39 49  1  0
 40 22  1  0
 41 18  1  0
 10 42  1  1
 43 23  1  0
 44 40  1  0
 45 32  1  0
 46 31  1  0
 47 24  1  0
 48 24  1  0
 49 50  1  0
 50 38  1  0
 51 59  1  0
 52 40  1  0
 53 42  1  0
 54 42  1  0
 55 46  1  0
 56 45  1  0
 57 45  2  0
 58 46  2  0
 59 52  1  0
 60 48  1  0
 61 47  1  0
 62 56  2  0
 63 57  1  0
 64 58  1  0
 65 55  2  0
 66 64  2  0
 67 63  2  0
 68 60  1  0
 65 66  1  0
 24 21  1  0
 62 67  1  0
 61 68  1  0
M  END