
  SciTegic06051315212D

 26 28  0  0  0  0            999 V2000
   15.0506  -24.0122    0.0000 C   0  0
   15.0494  -24.8317    0.0000 C   0  0
   15.7575  -25.2407    0.0000 C   0  0
   16.4671  -24.8312    0.0000 C   0  0
   16.4643  -24.0086    0.0000 C   0  0
   15.7557  -23.6033    0.0000 C   0  0
   15.7539  -26.0552    0.0000 N   0  0
   15.0443  -26.4624    0.0000 C   0  0
   15.0422  -27.2760    0.0000 C   0  0
   15.7479  -27.6886    0.0000 N   0  0
   16.4576  -27.2814    0.0000 C   0  0
   16.4614  -26.4616    0.0000 C   0  0
   15.7447  -28.5058    0.0000 C   0  0
   15.7495  -22.7844    0.0000 N   0  3
   15.0406  -22.3779    0.0000 O   0  0
   16.4560  -22.3737    0.0000 O   0  5
   17.1755  -25.2387    0.0000 N   0  0
   17.8826  -24.8290    0.0000 C   0  0
   18.5909  -25.2365    0.0000 C   0  0
   17.8813  -24.0118    0.0000 O   0  0
   18.5876  -26.0521    0.0000 C   0  0
   19.2951  -26.4595    0.0000 C   0  0
   20.0031  -26.0498    0.0000 C   0  0
   19.9992  -25.2284    0.0000 C   0  0
   19.2911  -24.8247    0.0000 C   0  0
   20.7120  -26.4563    0.0000 F   0  0
  1  2  2  0
  2  3  1  0
  3  4  2  0
  4  5  1  0
  5  6  2  0
  6  1  1  0
  7  8  1  0
  7 12  1  0
  8  9  1  0
  9 10  1  0
 10 11  1  0
 11 12  1  0
  3  7  1  0
 10 13  1  0
 14 15  2  0
 14 16  1  0
  6 14  1  0
  4 17  1  0
 17 18  1  0
 18 19  1  0
 18 20  2  0
 19 21  2  0
 21 22  1  0
 22 23  2  0
 23 24  1  0
 24 25  2  0
 25 19  1  0
 23 26  1  0
M  CHG  2  14   1  16  -1
M  END