
          11280715242D 1   1.00000     0.00000     0

 47 52  0     0  0            999 V2000
   10.5667   -1.8917    0.0000 N   0  3  0  0  0  0           0  0  0
    0.6875    0.0208    0.0000 C   0  0  0  0  0  0           0  0  0
   10.0125   -1.2792    0.0000 C   0  0  0  0  0  0           0  0  0
   -0.7458    0.8375    0.0000 C   0  0  0  0  0  0           0  0  0
   -0.7375    0.0208    0.0000 C   0  0  0  0  0  0           0  0  0
   -0.0250   -0.3917    0.0000 O   0  0  0  0  0  0           0  0  0
   -0.0375    1.2583    0.0000 C   0  0  0  0  0  0           0  0  0
   10.1542   -2.6042    0.0000 O   0  0  0  0  0  0           0  0  0
    0.6792    0.8458    0.0000 C   0  0  0  0  0  0           0  0  0
    9.3417   -2.4292    0.0000 N   0  0  0  0  0  0           0  0  0
    1.4000   -0.3875    0.0000 C   0  0  0  0  0  0           0  0  0
    9.2542   -1.6167    0.0000 C   0  0  0  0  0  0           0  0  0
    6.4042   -2.4375    0.0000 N   0  0  3  0  0  0           0  0  0
   10.1792   -0.4667    0.0000 C   0  0  0  0  0  0           0  0  0
    1.4042   -1.2125    0.0000 C   0  0  0  0  0  0           0  0  0
    7.1167   -2.8500    0.0000 C   0  0  0  0  0  0           0  0  0
   11.3875   -1.8042    0.0000 O   0  5  0  0  0  0           0  0  0
    4.9792   -1.6125    0.0000 N   0  0  3  0  0  0           0  0  0
    8.5417   -1.2042    0.0000 C   0  0  0  0  0  0           0  0  0
   -1.4500   -0.4000    0.0000 C   0  0  0  0  0  0           0  0  0
   -0.0458    2.0833    0.0000 O   0  0  0  0  0  0           0  0  0
    7.8292   -1.6125    0.0000 O   0  0  0  0  0  0           0  0  0
    7.8292   -2.4375    0.0000 C   0  0  0  0  0  0           0  0  0
    6.4042   -1.6042    0.0000 C   0  0  0  0  0  0           0  0  0
    5.6875   -2.8417    0.0000 C   0  0  0  0  0  0           0  0  0
    0.6917   -1.6292    0.0000 O   0  0  0  0  0  0           0  0  0
    9.5667    0.0833    0.0000 O   0  0  0  0  0  0           0  0  0
    2.1167   -1.6167    0.0000 N   0  0  0  0  0  0           0  0  0
   10.9667   -0.2125    0.0000 N   0  0  0  0  0  0           0  0  0
    5.6875   -1.1917    0.0000 C   0  0  0  0  0  0           0  0  0
    4.9792   -2.4375    0.0000 C   0  0  0  0  0  0           0  0  0
   -1.4625    1.2458    0.0000 C   0  0  0  0  0  0           0  0  0
    2.1125    0.0250    0.0000 C   0  0  0  0  0  0           0  0  0
    1.3917    1.2583    0.0000 C   0  0  0  0  0  0           0  0  0
    4.2667   -1.2000    0.0000 C   0  0  0  0  0  0           0  0  0
    3.5500   -1.6167    0.0000 C   0  0  0  0  0  0           0  0  0
    2.1042    0.8583    0.0000 C   0  0  0  0  0  0           0  0  0
    7.1167   -3.6750    0.0000 C   0  0  0  0  0  0           0  0  0
    2.8375   -1.2042    0.0000 C   0  0  0  0  0  0           0  0  0
   -1.4500   -1.2292    0.0000 C   0  0  0  0  0  0           0  0  0
   -2.1708    0.0125    0.0000 C   0  0  0  0  0  0           0  0  0
    8.5417   -2.8417    0.0000 C   0  0  0  0  0  0           0  0  0
    7.8292   -4.0875    0.0000 C   0  0  0  0  0  0           0  0  0
   -2.1708   -1.6417    0.0000 C   0  0  0  0  0  0           0  0  0
    8.5417   -3.6750    0.0000 C   0  0  0  0  0  0           0  0  0
   -2.8833   -0.4000    0.0000 C   0  0  0  0  0  0           0  0  0
   -2.8833   -1.2292    0.0000 C   0  0  0  0  0  0           0  0  0
  2 11  1  0     0  0
  3  1  2  0     0  0
  4  7  1  0     0  0
  5  6  1  0     0  0
  6  2  1  0     0  0
  7  9  1  0     0  0
  8  1  1  0     0  0
  9  2  2  0     0  0
 10  8  1  0     0  0
 11 15  1  0     0  0
 12  3  1  0     0  0
 13 16  1  0     0  0
 14  3  1  0     0  0
 15 28  1  0     0  0
 16 23  1  0     0  0
 17  1  1  0     0  0
 18 31  1  0     0  0
 19 12  1  0     0  0
 20  5  1  0     0  0
 21  7  2  0     0  0
 22 19  1  0     0  0
 23 22  1  0     0  0
 24 13  1  0     0  0
 25 13  1  0     0  0
 26 15  2  0     0  0
 27 14  2  0     0  0
 28 39  1  0     0  0
 29 14  1  0     0  0
 30 24  1  0     0  0
 31 25  1  0     0  0
 32  4  1  0     0  0
 33 11  2  0     0  0
 34 37  2  0     0  0
 35 18  1  0     0  0
 36 35  1  0     0  0
 37 33  1  0     0  0
 38 16  2  0     0  0
 39 36  1  0     0  0
 40 20  1  0     0  0
 41 20  2  0     0  0
 42 23  2  0     0  0
 43 45  2  0     0  0
 44 40  2  0     0  0
 45 42  1  0     0  0
 46 41  1  0     0  0
 47 46  2  0     0  0
 12 10  2  0     0  0
 38 43  1  0     0  0
 30 18  1  0     0  0
 34  9  1  0     0  0
  5  4  2  0     0  0
 44 47  1  0     0  0
M  CHG  2   1   1  17  -1
M  END