
  SciTegic02011310432D

 22 23  0  0  0  0            999 V2000
    4.9460   -0.2035    0.0000 N   0  0
    4.9460   -1.0299    0.0000 C   0  0
    5.6598   -1.4410    0.0000 N   0  0
    5.6598    0.2118    0.0000 C   0  0
    6.3736   -0.2035    0.0000 C   0  0
    6.3735   -1.0264    0.0000 C   0  0
    7.1564   -1.2833    0.0000 C   0  0
    7.6418   -0.6170    0.0000 C   0  0
    7.1564    0.0494    0.0000 N   0  0
    5.6598    1.0382    0.0000 O   0  0
    4.2345   -1.4462    0.0000 N   0  0
    7.5768   -1.9925    0.0000 C   0  0
    8.4033   -1.9865    0.0000 N   0  0
    8.8195   -2.6998    0.0000 C   0  0
    9.6459   -2.6938    0.0000 C   0  0
   10.0663   -3.4071    0.0000 C   0  0
   10.8927   -3.4012    0.0000 P   0  0
   11.3090   -4.1144    0.0000 O   0  0
   10.8845   -2.5706    0.0000 O   0  0
   11.5988   -2.9818    0.0000 O   0  0
    9.2608   -3.6171    0.0000 F   0  0
   10.0581   -4.2317    0.0000 F   0  0
  5  6  2  0
  2 11  1  0
  7 12  1  0
  1  2  1  0
 12 13  1  0
  1  4  1  0
 13 14  1  0
  2  3  2  0
 14 15  1  0
  3  6  1  0
 15 16  1  0
  6  7  1  0
 16 17  1  0
  7  8  2  0
 17 18  1  0
  8  9  1  0
 17 19  1  0
  9  5  1  0
 17 20  2  0
  5  4  1  0
 16 21  1  0
  4 10  2  0
 16 22  1  0
M  END