
  SciTegic12231509382D

 37 41  0  0  0  0            999 V2000
    0.6070  -18.3711    0.0000 C   0  0
    1.2153  -18.9327    0.0000 C   0  0
    1.4843  -18.1497    0.0000 C   0  0
    0.9719  -19.7185    0.0000 N   0  0
    1.6424  -20.1941    0.0000 C   0  0
    2.3018  -19.7026    0.0000 N   0  0
    2.0380  -18.9236    0.0000 C   0  0
    1.6525  -21.0181    0.0000 O   0  0
    2.5141  -18.2510    0.0000 O   0  0
    2.2996  -17.9936    0.0000 C   0  0
    2.5661  -17.2154    0.0000 C   0  0
    2.0215  -16.5911    0.0000 C   0  0
    1.2086  -16.7481    0.0000 C   0  0
    0.9433  -17.5301    0.0000 C   0  0
    0.7922  -17.5631    0.0000 C   0  0
    0.1847  -17.0018    0.0000 C   0  0
   -0.6068  -17.2476    0.0000 C   0  0
   -0.7873  -18.0599    0.0000 C   0  0
   -0.1785  -18.6178    0.0000 C   0  0
    0.2605  -20.1345    0.0000 C   0  0
   -0.4554  -19.7263    0.0000 C   0  0
   -1.1668  -20.1423    0.0000 C   0  0
   -0.4599  -18.9024    0.0000 O   0  0
   -1.8827  -19.7341    0.0000 N   0  0
   -1.8868  -18.9072    0.0000 C   0  0
   -2.5986  -18.4991    0.0000 C   0  0
   -3.3124  -18.9116    0.0000 N   0  0
   -3.3099  -19.7365    0.0000 C   0  0
   -2.5936  -20.1492    0.0000 C   0  0
   -4.0234  -18.5016    0.0000 C   0  0
   -4.0234  -17.6764    0.0000 C   0  0
   -4.7369  -17.2656    0.0000 C   0  0
   -5.4509  -17.6790    0.0000 C   0  0
   -5.4468  -18.5072    0.0000 C   0  0
   -4.7327  -18.9143    0.0000 C   0  0
    3.0885  -19.9476    0.0000 C   0  0
   -3.3100  -17.2639    0.0000 F   0  0
 17 18  1  0
  7  9  2  0
 18 19  2  0
 19  1  1  0
  3  2  1  0
  4 20  1  0
  3 10  2  0
 20 21  1  0
  4  5  1  0
 21 22  1  0
 10 11  1  0
 21 23  1  0
  5  6  1  0
 22 24  1  0
 24 25  1  0
 11 12  2  0
  6  7  1  0
 12 13  1  0
  7  2  1  0
 13 14  2  0
 24 29  1  0
 25 26  1  0
 26 27  1  0
 27 28  1  0
 28 29  1  0
 14  3  1  0
  2  4  1  0
 30 31  2  0
  1 15  2  0
 31 32  1  0
 32 33  2  0
 15 16  1  0
 33 34  1  0
  5  8  2  0
 34 35  2  0
 35 30  1  0
 27 30  1  0
 16 17  2  0
  6 36  1  0
  2  1  1  0
 31 37  1  0
M  END