
  Mrv0541 09061316472D          

 33 36  0  0  0  0            999 V2000
   12.7890  -19.4653    0.0000 N   0  0  0  0  0  0  0  0  0  0  0  0
   12.7890  -20.2920    0.0000 C   0  0  0  0  0  0  0  0  0  0  0  0
   13.5029  -19.0519    0.0000 C   0  0  0  0  0  0  0  0  0  0  0  0
   14.2211  -19.4653    0.0000 C   0  0  0  0  0  0  0  0  0  0  0  0
   13.5029  -20.7011    0.0000 N   0  0  0  0  0  0  0  0  0  0  0  0
   14.2211  -20.2920    0.0000 C   0  0  0  0  0  0  0  0  0  0  0  0
   12.0750  -19.0519    0.0000 C   0  0  0  0  0  0  0  0  0  0  0  0
    8.4968  -17.8118    0.0000 C   0  0  0  0  0  0  0  0  0  0  0  0
   10.6387  -19.0519    0.0000 N   0  0  0  0  0  0  0  0  0  0  0  0
   12.0750  -20.7011    0.0000 O   0  0  0  0  0  0  0  0  0  0  0  0
   13.5029  -18.2252    0.0000 O   0  0  0  0  0  0  0  0  0  0  0  0
    7.7828  -18.2252    0.0000 C   0  0  0  0  0  0  0  0  0  0  0  0
    9.2108  -18.2252    0.0000 C   0  0  0  0  0  0  0  0  0  0  0  0
    8.4968  -16.9851    0.0000 O   0  0  0  0  0  0  0  0  0  0  0  0
   11.3527  -19.4653    0.0000 C   0  0  0  0  0  0  0  0  0  0  0  0
    7.0646  -17.8118    0.0000 C   0  0  0  0  0  0  0  0  0  0  0  0
    7.7828  -19.0519    0.0000 C   0  0  0  0  0  0  0  0  0  0  0  0
    9.9247  -17.8118    0.0000 C   0  0  0  0  0  0  0  0  0  0  0  0
    9.2108  -19.0519    0.0000 C   0  0  0  0  0  0  0  0  0  0  0  0
   10.6387  -18.2252    0.0000 C   0  0  0  0  0  0  0  0  0  0  0  0
    9.9247  -19.4653    0.0000 C   0  0  0  0  0  0  0  0  0  0  0  0
    6.3506  -19.0519    0.0000 C   0  0  0  0  0  0  0  0  0  0  0  0
   14.9351  -19.0519    0.0000 C   0  0  0  0  0  0  0  0  0  0  0  0
    7.0646  -19.4653    0.0000 C   0  0  0  0  0  0  0  0  0  0  0  0
    6.3506  -18.2252    0.0000 C   0  0  0  0  0  0  0  0  0  0  0  0
    5.6283  -19.4653    0.0000 F   0  0  0  0  0  0  0  0  0  0  0  0
   14.9351  -20.7011    0.0000 C   0  0  0  0  0  0  0  0  0  0  0  0
   15.6491  -19.4653    0.0000 C   0  0  0  0  0  0  0  0  0  0  0  0
   15.6491  -20.2920    0.0000 C   0  0  0  0  0  0  0  0  0  0  0  0
   10.9402  -20.1798    0.0000 H   0  0  0  0  0  0  0  0  0  0  0  0
   11.5662  -20.2622    0.0000 H   0  0  0  0  0  0  0  0  0  0  0  0
   11.6625  -18.3374    0.0000 H   0  0  0  0  0  0  0  0  0  0  0  0
   12.2885  -18.2550    0.0000 H   0  0  0  0  0  0  0  0  0  0  0  0
  2  1  1  0  0  0  0
  3  1  1  0  0  0  0
  4  3  1  0  0  0  0
  5  2  1  0  0  0  0
  6  4  2  0  0  0  0
  7  1  1  0  0  0  0
  8 13  1  0  0  0  0
  9 15  1  0  0  0  0
 10  2  2  0  0  0  0
 11  3  2  0  0  0  0
 12  8  1  0  0  0  0
 13 19  1  0  0  0  0
 14  8  2  0  0  0  0
 15  7  1  0  0  0  0
 16 12  2  0  0  0  0
 17 12  1  0  0  0  0
 18 20  1  0  0  0  0
 19 21  1  0  0  0  0
 20  9  1  0  0  0  0
 21  9  1  0  0  0  0
 22 24  1  0  0  0  0
 23  4  1  0  0  0  0
 24 17  2  0  0  0  0
 25 16  1  0  0  0  0
 26 22  1  0  0  0  0
 27  6  1  0  0  0  0
 28 23  2  0  0  0  0
 29 28  1  0  0  0  0
  5  6  1  0  0  0  0
 18 13  1  0  0  0  0
 27 29  2  0  0  0  0
 25 22  2  0  0  0  0
 15 30  1  0  0  0  0
 15 31  1  0  0  0  0
  7 32  1  0  0  0  0
  7 33  1  0  0  0  0
M  ISO  4  30   3  31   3  32   3  33   3
M  END