
          11280715182D 1   1.00000     0.00000     0

 17 18  0     0  0            999 V2000
    4.9542   -5.4042    0.0000 N   0  0  3  0  0  0           0  0  0
    5.0375   -4.5792    0.0000 C   0  0  0  0  0  0           0  0  0
    7.1417   -5.2167    0.0000 C   0  0  0  0  0  0           0  0  0
    6.3792   -5.5542    0.0000 C   0  0  0  0  0  0           0  0  0
    5.6167   -5.8917    0.0000 C   0  0  3  0  0  0           0  0  0
    7.9917   -4.0542    0.0000 N   0  0  3  0  0  0           0  0  0
    5.7917   -4.2417    0.0000 O   0  0  0  0  0  0           0  0  0
    7.9042   -4.8792    0.0000 C   0  0  0  0  0  0           0  0  0
    4.2000   -5.7417    0.0000 C   0  0  0  0  0  0           0  0  0
    4.3625   -4.1000    0.0000 C   0  0  0  0  0  0           0  0  0
    7.3250   -3.5667    0.0000 C   0  0  0  0  0  0           0  0  0
    8.6625   -3.5667    0.0000 C   0  0  0  0  0  0           0  0  0
    5.5292   -6.7125    0.0000 C   0  0  0  0  0  0           0  0  0
    4.1125   -6.5667    0.0000 C   0  0  0  0  0  0           0  0  0
    8.4000   -2.7792    0.0000 C   0  0  0  0  0  0           0  0  0
    7.5792   -2.7792    0.0000 C   0  0  0  0  0  0           0  0  0
    4.7792   -7.0500    0.0000 C   0  0  0  0  0  0           0  0  0
  2  1  1  0     0  0
  3  4  3  0     0  0
  4  5  1  0     0  0
  5  1  1  0     0  0
  6  8  1  0     0  0
  7  2  2  0     0  0
  8  3  1  0     0  0
  9  1  1  0     0  0
 10  2  1  0     0  0
 11  6  1  0     0  0
 12  6  1  0     0  0
 13  5  1  0     0  0
 14  9  1  0     0  0
 15 12  1  0     0  0
 16 11  1  0     0  0
 17 14  1  0     0  0
 17 13  1  0     0  0
 15 16  1  0     0  0
M  END