
  SciTegic03291108552D

 25 28  0  0  0  0            999 V2000
    0.4843   -1.4638    0.0000 O   0  0
   -0.9447    1.0112    0.0000 O   0  0
    4.0566    0.5987    0.0000 O   0  5
    3.3422    1.8362    0.0000 O   0  0
   -0.2302   -0.2263    0.0000 N   0  0
    3.3422    1.0112    0.0000 N   0  3
   -1.6591   -2.7013    0.0000 N   0  0
    1.1988    0.5987    0.0000 C   0  0
    1.1988   -0.2263    0.0000 C   0  0
    0.4843    1.0112    0.0000 C   0  0
    1.9132    1.0112    0.0000 C   0  0
    0.4843   -0.6388    0.0000 C   0  0
   -0.2302    0.5987    0.0000 C   0  0
    2.6277    0.5987    0.0000 C   0  0
    1.9132   -0.6388    0.0000 C   0  0
    0.4843    1.8362    0.0000 C   0  0
    1.9132    1.8362    0.0000 C   0  0
    2.6277   -0.2263    0.0000 C   0  0
   -0.9447   -0.6388    0.0000 C   0  0
    1.1988    2.2487    0.0000 C   0  0
   -0.9447   -1.4638    0.0000 C   0  0
   -1.6591   -1.8763    0.0000 C   0  0
   -0.2302   -1.8763    0.0000 C   0  0
   -0.2302   -2.7013    0.0000 C   0  0
   -0.9447   -3.1138    0.0000 C   0  0
  1 12  2  0
  2 13  2  0
  3  6  1  0
  4  6  2  0
  5 12  1  0
  5 13  1  0
  5 19  1  0
  6 14  1  0
  7 22  2  0
  7 25  1  0
  8  9  1  0
  8 10  2  0
  8 11  1  0
  9 12  1  0
  9 15  2  0
 10 13  1  0
 10 16  1  0
 11 14  1  0
 11 17  2  0
 14 18  2  0
 15 18  1  0
 16 20  2  0
 17 20  1  0
 19 21  1  0
 21 22  1  0
 21 23  2  0
 23 24  1  0
 24 25  2  0
M  CHG  2   3  -1   6   1
M  END