
          11280715482D 1   1.00000     0.00000     0

 38 43  0     0  0            999 V2000
    3.7875   -0.9667    0.0000 C   0  0  0  0  0  0           0  0  0
    3.0292   -0.6250    0.0000 N   0  0  0  0  0  0           0  0  0
    2.4792   -1.2375    0.0000 C   0  0  0  0  0  0           0  0  0
    3.6917   -1.7875    0.0000 C   0  0  0  0  0  0           0  0  0
    2.8792   -1.9542    0.0000 N   0  0  0  0  0  0           0  0  0
    4.5042   -0.5542    0.0000 C   0  0  0  0  0  0           0  0  0
    4.7292   -3.7042    0.0000 C   0  0  3  0  0  0           0  0  0
    1.6542   -1.1417    0.0000 C   0  0  0  0  0  0           0  0  0
    5.2167   -0.9750    0.0000 N   0  0  0  0  0  0           0  0  0
    4.9125   -4.9625    0.0000 C   0  0  3  0  0  0           0  0  0
    5.3375   -5.1917    0.0000 C   0  0  3  0  0  0           0  0  0
    6.0417   -4.0417    0.0000 C   0  0  3  0  0  0           0  0  0
    8.7750   -2.2417    0.0000 C   0  0  0  0  0  0           0  0  0
    4.5042    0.2708    0.0000 O   0  0  0  0  0  0           0  0  0
    4.3000   -2.3417    0.0000 C   0  0  0  0  0  0           0  0  0
    5.4917   -3.4292    0.0000 C   0  0  0  0  0  0           0  0  0
    4.7625   -4.5667    0.0000 C   0  0  0  0  0  0           0  0  0
    4.3667   -4.3792    0.0000 C   0  0  0  0  0  0           0  0  0
    5.9292   -0.5667    0.0000 C   0  0  0  0  0  0           0  0  0
    1.1750   -1.8042    0.0000 C   0  0  0  0  0  0           0  0  0
    8.7667   -3.0667    0.0000 O   0  0  0  0  0  0           0  0  0
    4.1250   -3.1500    0.0000 C   0  0  0  0  0  0           0  0  0
    6.1000   -4.9125    0.0000 C   0  0  0  0  0  0           0  0  0
    4.8917   -5.9000    0.0000 C   0  0  0  0  0  0           0  0  0
    5.6125   -4.6792    0.0000 C   0  0  0  0  0  0           0  0  0
    6.6417   -0.9917    0.0000 C   0  0  0  0  0  0           0  0  0
    8.0625   -1.8250    0.0000 C   0  0  0  0  0  0           0  0  0
    9.4917   -1.8375    0.0000 O   0  0  0  0  0  0           0  0  0
    7.3542   -0.5792    0.0000 C   0  0  0  0  0  0           0  0  0
    8.0667   -1.0000    0.0000 C   0  0  0  0  0  0           0  0  0
    1.3292   -0.3875    0.0000 C   0  0  0  0  0  0           0  0  0
    6.6417    0.6583    0.0000 C   0  0  0  0  0  0           0  0  0
    5.9292    0.2500    0.0000 C   0  0  0  0  0  0           0  0  0
    1.5042   -2.5625    0.0000 C   0  0  0  0  0  0           0  0  0
    0.3542   -1.7167    0.0000 C   0  0  0  0  0  0           0  0  0
    7.3625    0.2458    0.0000 C   0  0  0  0  0  0           0  0  0
    0.5042   -0.2917    0.0000 C   0  0  0  0  0  0           0  0  0
    0.0167   -0.9625    0.0000 C   0  0  0  0  0  0           0  0  0
  2  1  1  0     0  0
  3  2  2  0     0  0
  4  1  2  0     0  0
  5  4  1  0     0  0
  6  1  1  0     0  0
  7 22  1  0     0  0
  8  3  1  0     0  0
  9  6  1  0     0  0
 10 18  1  0     0  0
 11 17  1  0     0  0
 12 16  1  0     0  0
 13 27  1  0     0  0
 14  6  2  0     0  0
 15  4  1  0     0  0
 16  7  1  0     0  0
 17  7  1  0     0  0
 18  7  1  0     0  0
 19  9  1  0     0  0
 20  8  1  0     0  0
 21 13  2  0     0  0
 22 15  1  0     0  0
 23 11  1  0     0  0
 24 10  1  0     0  0
 25 10  1  0     0  0
 26 19  2  0     0  0
 27 30  1  0     0  0
 28 13  1  0     0  0
 29 26  1  0     0  0
 30 29  1  0     0  0
 31  8  2  0     0  0
 32 33  2  0     0  0
 33 19  1  0     0  0
 34 20  1  0     0  0
 35 20  2  0     0  0
 36 32  1  0     0  0
 37 31  1  0     0  0
 38 37  2  0     0  0
  3  5  1  0     0  0
 29 36  2  0     0  0
 35 38  1  0     0  0
 25 12  1  0     0  0
 11 24  1  0     0  0
 23 12  1  0     0  0
M  END