
  Mrv0541 05211314572D          

 28 30  0  0  0  0            999 V2000
   -1.2966    0.9319    0.0000 N   0  0  0  0  0  0  0  0  0  0  0  0
   -2.0111   -0.3056    0.0000 C   0  0  0  0  0  0  0  0  0  0  0  0
   -2.0111    0.5194    0.0000 C   0  0  0  0  0  0  0  0  0  0  0  0
   -0.5822    0.5194    0.0000 C   0  0  0  0  0  0  0  0  0  0  0  0
   -1.2966   -0.7181    0.0000 C   0  0  0  0  0  0  0  0  0  0  0  0
   -0.5822   -0.3056    0.0000 N   0  0  0  0  0  0  0  0  0  0  0  0
   -2.7256   -0.7181    0.0000 C   0  0  0  0  0  0  0  0  0  0  0  0
   -1.2966   -1.5431    0.0000 C   0  0  0  0  0  0  0  0  0  0  0  0
    2.2757    0.5194    0.0000 O   0  0  0  0  0  0  0  0  0  0  0  0
    2.2757    2.1694    0.0000 O   0  0  0  0  0  0  0  0  0  0  0  0
   -2.7256   -1.5431    0.0000 C   0  0  0  0  0  0  0  0  0  0  0  0
   -2.0111   -1.9556    0.0000 C   0  0  0  0  0  0  0  0  0  0  0  0
    2.9902    0.9319    0.0000 C   0  0  0  0  0  0  0  0  0  0  0  0
    2.9902    1.7569    0.0000 C   0  0  0  0  0  0  0  0  0  0  0  0
    0.1323    0.9319    0.0000 N   0  0  0  0  0  0  0  0  0  0  0  0
    1.5613    0.9319    0.0000 C   0  0  0  0  0  0  0  0  0  0  0  0
   -2.7256    0.9319    0.0000 N   0  0  0  0  0  0  0  0  0  0  0  0
    1.5613    1.7569    0.0000 C   0  0  0  0  0  0  0  0  0  0  0  0
    0.8468    0.5194    0.0000 C   0  0  0  0  0  0  0  0  0  0  0  0
   -3.4400   -1.9556    0.0000 O   0  0  0  0  0  0  0  0  0  0  0  0
   -2.0111   -2.7806    0.0000 O   0  0  0  0  0  0  0  0  0  0  0  0
    6.6584    0.0000    0.0000 Cl  0  0  0  0  0  0  0  0  0  0  0  0
    3.7047    0.5194    0.0000 C   0  0  0  0  0  0  0  0  0  0  0  0
    3.7047    2.1694    0.0000 C   0  0  0  0  0  0  0  0  0  0  0  0
   -3.4400   -2.7806    0.0000 C   0  0  0  0  0  0  0  0  0  0  0  0
   -2.7256   -3.1931    0.0000 C   0  0  0  0  0  0  0  0  0  0  0  0
    4.4191    0.9319    0.0000 C   0  0  0  0  0  0  0  0  0  0  0  0
    4.4191    1.7569    0.0000 C   0  0  0  0  0  0  0  0  0  0  0  0
  1  3  2  0  0  0  0
  2  3  1  0  0  0  0
  1  4  1  0  0  0  0
  2  5  2  0  0  0  0
  4  6  2  0  0  0  0
  5  6  1  0  0  0  0
  2  7  1  0  0  0  0
  5  8  1  0  0  0  0
  7 11  2  0  0  0  0
  8 12  2  0  0  0  0
 11 12  1  0  0  0  0
  9 13  1  0  0  0  0
 10 14  1  0  0  0  0
 13 14  2  0  0  0  0
  4 15  1  0  0  0  0
  9 16  1  0  0  0  0
  3 17  1  0  0  0  0
 10 18  1  0  0  0  0
 16 18  1  0  0  0  0
 15 19  1  0  0  0  0
 16 19  1  0  0  0  0
 11 20  1  0  0  0  0
 12 21  1  0  0  0  0
 13 23  1  0  0  0  0
 14 24  1  0  0  0  0
 20 25  1  0  0  0  0
 21 26  1  0  0  0  0
 23 27  2  0  0  0  0
 24 28  2  0  0  0  0
 27 28  1  0  0  0  0
M  END