
  SciTegic02011310442D

 41 46  0  0  0  0            999 V2000
   16.8801  -20.0528    0.0000 N   0  0
   17.5898  -19.6433    0.0000 C   0  0
   17.5869  -18.8207    0.0000 N   0  0
   16.8783  -18.4154    0.0000 C   0  0
   16.1720  -19.6438    0.0000 N   0  0
   16.1733  -18.8227    0.0000 C   0  0
   15.3928  -18.5678    0.0000 C   0  0
   14.9091  -19.2314    0.0000 C   0  0
   15.3908  -19.8963    0.0000 C   0  0
   18.2981  -20.0508    0.0000 S   0  0
   19.0052  -19.6411    0.0000 C   0  0
   16.8765  -17.5982    0.0000 N   0  0
   17.5833  -17.1881    0.0000 C   0  0
   19.7102  -20.0490    0.0000 C   0  0
   20.4168  -19.6400    0.0000 C   0  0
   20.4159  -18.8219    0.0000 C   0  0
   19.7026  -18.4146    0.0000 C   0  0
   18.9989  -18.8260    0.0000 C   0  0
   18.3284  -17.5201    0.0000 C   0  0
   18.8739  -16.9116    0.0000 C   0  0
   18.4637  -16.2047    0.0000 N   0  0
   17.6648  -16.3765    0.0000 N   0  0
   19.6868  -16.9952    0.0000 C   0  0
   21.1225  -18.4113    0.0000 N   0  0
   21.8313  -18.8178    0.0000 C   0  0
   22.5379  -18.4072    0.0000 C   0  0
   23.2468  -18.8137    0.0000 N   0  0
   21.8337  -19.6350    0.0000 O   0  0
   23.3317  -19.6240    0.0000 C   0  0
   24.1316  -19.7916    0.0000 C   0  0  1  0  0  0
   24.5381  -19.0826    0.0000 C   0  0
   23.9895  -18.4771    0.0000 C   0  0
   24.4661  -20.5372    0.0000 C   0  0
   23.9877  -21.1997    0.0000 O   0  0
   25.2791  -20.6202    0.0000 N   0  0
   25.6080  -21.3686    0.0000 C   0  0
   26.4172  -21.4533    0.0000 C   0  0
   26.8993  -20.7929    0.0000 C   0  0
   26.5661  -20.0457    0.0000 C   0  0
   25.7509  -19.9588    0.0000 C   0  0
   27.7119  -20.8791    0.0000 O   0  0
  5  1  1  0
  1  2  2  0
  2  3  1  0
  3  4  2  0
  4  6  1  0
  5  6  1  0
  6  7  2  0
  7  8  1  0
  8  9  2  0
  9  5  1  0
  2 10  1  0
 10 11  1  0
  4 12  1  0
 12 13  1  0
 11 14  2  0
 14 15  1  0
 15 16  2  0
 16 17  1  0
 17 18  2  0
 18 11  1  0
 13 19  1  0
 19 20  2  0
 20 21  1  0
 21 22  1  0
 22 13  2  0
 20 23  1  0
 16 24  1  0
 24 25  1  0
 25 26  1  0
 26 27  1  0
 25 28  2  0
 27 29  1  0
 29 30  1  0
 30 31  1  0
 31 32  1  0
 32 27  1  0
 30 33  1  1
 33 34  2  0
 33 35  1  0
 35 36  1  0
 35 40  1  0
 36 37  1  0
 37 38  1  0
 38 39  1  0
 39 40  1  0
 38 41  1  0
M  END