
  SciTegic01181116592D

 44 46  0  0  0  0            999 V2000
   14.9440  -24.5691    0.0000 N   0  0
   -3.0112  -25.9766    0.0000 C   0  0
   -3.4324  -26.6888    0.0000 C   0  0
   -3.0263  -27.4075    0.0000 C   0  0
   -2.1992  -27.4152    0.0000 C   0  0
   -1.7799  -26.6983    0.0000 C   0  0
   -2.1884  -25.9826    0.0000 C   0  0
   -1.7711  -25.2710    0.0000 N   0  0
   -0.9501  -25.1897    0.0000 N   0  0
   -0.7737  -24.3838    0.0000 C   0  0
   -1.4857  -23.9669    0.0000 C   0  0
   -2.1020  -24.5153    0.0000 C   0  0
   -2.9225  -24.5169    0.0000 C   0  0
   -3.3349  -23.8011    0.0000 C   0  0
   -4.1592  -23.8014    0.0000 C   0  0
   -4.5719  -24.5167    0.0000 C   0  0
   -4.1544  -25.2332    0.0000 C   0  0
   -3.3316  -25.2294    0.0000 C   0  0
   -1.5670  -23.1459    0.0000 C   0  0
   -0.0540  -23.9799    0.0000 C   0  0
    0.6555  -24.4008    0.0000 N   0  0
   -0.0443  -23.1549    0.0000 O   0  0
   -0.9549  -26.7027    0.0000 Cl  0  0
   -3.4454  -28.1181    0.0000 Cl  0  0
   -5.3969  -24.5184    0.0000 Cl  0  0
    1.3748  -23.9967    0.0000 C   0  0
    2.0844  -24.4176    0.0000 C   0  0
    2.8036  -24.0135    0.0000 C   0  0
    3.5132  -24.4344    0.0000 C   0  0
    4.2325  -24.0304    0.0000 C   0  0
    4.9421  -24.4513    0.0000 C   0  0
    5.6613  -24.0472    0.0000 C   0  0
    6.3709  -24.4681    0.0000 C   0  0
    7.0902  -24.0641    0.0000 C   0  0
    7.7997  -24.4849    0.0000 N   0  0
    8.5190  -24.0809    0.0000 C   0  0
    9.2286  -24.5018    0.0000 C   0  0
    9.9479  -24.0977    0.0000 C   0  0
   10.6574  -24.5186    0.0000 C   0  0
   11.3767  -24.1146    0.0000 C   0  0
   12.0863  -24.5354    0.0000 C   0  0
   12.8055  -24.1314    0.0000 C   0  0
   13.5151  -24.5523    0.0000 C   0  0
   14.2344  -24.1482    0.0000 C   0  0
 10 11  1  0
 20 22  2  0
 11 12  2  0
  6 23  1  0
 12  8  1  0
  4 24  1  0
  7  8  1  0
 16 25  1  0
  6  7  2  0
 21 26  1  0
  7  2  1  0
 26 27  1  0
 13 14  2  0
 27 28  1  0
  8  9  1  0
 28 29  1  0
 14 15  1  0
 29 30  1  0
  2  3  2  0
 30 31  1  0
 15 16  2  0
 31 32  1  0
  4  5  2  0
 32 33  1  0
 16 17  1  0
 33 34  1  0
 34 35  1  0
 17 18  2  0
 35 36  1  0
 18 13  1  0
 36 37  1  0
 12 13  1  0
 37 38  1  0
  5  6  1  0
 38 39  1  0
 11 19  1  0
 39 40  1  0
  3  4  1  0
 40 41  1  0
 10 20  1  0
 41 42  1  0
  9 10  2  0
 42 43  1  0
 20 21  1  0
 43 44  1  0
 44  1  1  0
M  END