
          11280715462D 1   1.00000     0.00000     0

 34 36  0     1  0            999 V2000
    5.7792   -2.9375    0.0000 C   0  0  0  0  0  0           0  0  0
    6.4917   -2.5250    0.0000 N   0  0  3  0  0  0           0  0  0
    5.0625   -2.5250    0.0000 C   0  0  1  0  0  0           0  0  0
    4.3417   -3.7667    0.0000 C   0  0  0  0  0  0           0  0  0
    4.3500   -2.9375    0.0000 N   0  0  0  0  0  0           0  0  0
    5.7667   -0.4500    0.0000 P   0  0  3  0  0  0           0  0  0
    7.2042   -2.9375    0.0000 C   0  0  2  0  0  0           0  0  0
    5.0625   -1.6917    0.0000 C   0  0  2  0  0  0           0  0  0
    7.2917   -3.7625    0.0000 C   0  0  0  0  0  0           0  0  0
    5.7750   -1.2792    0.0000 O   0  0  0  0  0  0           0  0  0
    3.6250   -4.1750    0.0000 C   0  0  3  0  0  0           0  0  0
    5.7792   -3.7667    0.0000 O   0  0  0  0  0  0           0  0  0
    5.0542   -4.1875    0.0000 O   0  0  0  0  0  0           0  0  0
    6.6000   -0.4500    0.0000 O   0  0  0  0  0  0           0  0  0
    6.6167   -4.2417    0.0000 O   0  0  0  0  0  0           0  0  0
    2.9125   -3.7542    0.0000 C   0  0  0  0  0  0           0  0  0
    3.6167   -5.0000    0.0000 C   0  0  0  0  0  0           0  0  0
    5.7750    0.3708    0.0000 O   0  0  0  0  0  0           0  0  0
    4.9500   -0.4542    0.0000 O   0  0  0  0  0  0           0  0  0
    8.0500   -4.1042    0.0000 N   0  0  0  0  0  0           0  0  0
    6.6667   -1.7167    0.0000 C   0  0  0  0  0  0           0  0  0
    7.8250   -2.3792    0.0000 C   0  0  0  0  0  0           0  0  0
    4.3417   -1.2792    0.0000 C   0  0  0  0  0  0           0  0  0
    7.4792   -1.6292    0.0000 C   0  0  0  0  0  0           0  0  0
    2.9000   -5.4042    0.0000 C   0  0  0  0  0  0           0  0  0
    4.3250   -5.4125    0.0000 C   0  0  0  0  0  0           0  0  0
    2.9167   -2.9292    0.0000 C   0  0  0  0  0  0           0  0  0
    2.1917   -4.1667    0.0000 C   0  0  0  0  0  0           0  0  0
    4.3250   -6.2292    0.0000 C   0  0  0  0  0  0           0  0  0
    2.2125   -2.5167    0.0000 C   0  0  0  0  0  0           0  0  0
    1.4875   -3.7542    0.0000 C   0  0  0  0  0  0           0  0  0
    2.8917   -6.2250    0.0000 C   0  0  0  0  0  0           0  0  0
    3.6042   -6.6417    0.0000 C   0  0  0  0  0  0           0  0  0
    1.4917   -2.9250    0.0000 C   0  0  0  0  0  0           0  0  0
  2  1  1  0     0  0
  3  1  1  1     0  0
  4  5  1  0     0  0
  5  3  1  0     0  0
  6 10  1  0     0  0
  7  2  1  0     0  0
  8  3  1  0     0  0
  7  9  1  1     0  0
  8 10  1  1     0  0
 11  4  1  0     0  0
 12  1  2  0     0  0
 13  4  2  0     0  0
 14  6  2  0     0  0
 15  9  2  0     0  0
 16 11  1  0     0  0
 17 11  1  0     0  0
 18  6  1  0     0  0
 19  6  1  0     0  0
 20  9  1  0     0  0
 21  2  1  0     0  0
 22  7  1  0     0  0
 23  8  1  0     0  0
 24 21  1  0     0  0
 25 17  2  0     0  0
 26 17  1  0     0  0
 27 16  2  0     0  0
 28 16  1  0     0  0
 29 26  2  0     0  0
 30 27  1  0     0  0
 31 28  2  0     0  0
 32 25  1  0     0  0
 33 29  1  0     0  0
 34 31  1  0     0  0
 24 22  1  0     0  0
 33 32  2  0     0  0
 34 30  2  0     0  0
M  END