
  SciTegic12231509382D

 22 24  0  0  0  0            999 V2000
    4.6030   -6.6519    0.0000 C   0  0
    5.4675   -7.1545    0.0000 O   0  0
    6.3350   -6.6570    0.0000 C   0  0
    6.3350   -5.6518    0.0000 C   0  0
    7.2025   -5.1543    0.0000 C   0  0
    8.0700   -5.6518    0.0000 C   0  0
    8.9353   -5.1505    0.0000 C   0  0
    8.9339   -4.1505    0.0000 N   0  0
    9.7991   -3.6493    0.0000 C   0  0
    9.7991   -2.6437    0.0000 C   0  0
   10.6670   -2.1358    0.0000 C   0  0
   11.5349   -2.6437    0.0000 C   0  0
   12.4003   -2.1370    0.0000 N   0  0
   13.2726   -2.6414    0.0000 C   0  0
   14.1385   -2.1411    0.0000 N   0  0
   13.2739   -3.6470    0.0000 N   0  0
   12.4029   -4.1482    0.0000 C   0  0
   12.4029   -5.1482    0.0000 N   0  0
   11.5362   -3.6493    0.0000 C   0  0
   10.6670   -4.1470    0.0000 C   0  0
    8.0700   -6.6570    0.0000 C   0  0
    7.2025   -7.1647    0.0000 C   0  0
  1  2  1  0
  2  3  1  0
  3 22  2  0
  3  4  1  0
  4  5  2  0
  5  6  1  0
  6  7  1  0
  7  8  1  0
  8  9  1  0
  9 20  2  0
  9 10  1  0
 10 11  2  0
 11 12  1  0
 12 19  2  0
 12 13  1  0
 13 14  2  0
 14 15  1  0
 14 16  1  0
 16 17  2  0
 17 18  1  0
 17 19  1  0
 19 20  1  0
  6 21  2  0
 21 22  1  0
M  END