
          11280714582D 1   1.00000     0.00000     0

 30 32  0     1  0            999 V2000
   -1.2083   -7.2125    0.0000 O   0  0  0  0  0  0           0  0  0
   -0.6458   -6.0792    0.0000 C   0  0  2  0  0  0           0  0  0
   -1.3958   -6.4750    0.0000 C   0  0  3  0  0  0           0  0  0
   -1.0708   -5.6667    0.0000 C   0  0  3  0  0  0           0  0  0
   -0.3208   -5.3917    0.0000 C   0  0  2  0  0  0           0  0  0
    2.3167   -6.8000    0.0000 C   0  0  0  0  0  0           0  0  0
    2.9625   -7.4042    0.0000 N   0  0  0  0  0  0           0  0  0
    4.3417   -5.3792    0.0000 C   0  0  0  0  0  0           0  0  0
    2.4625   -6.2167    0.0000 O   0  0  0  0  0  0           0  0  0
    1.4792   -7.0500    0.0000 N   0  0  0  0  0  0           0  0  0
   -2.0833   -6.0667    0.0000 C   0  0  0  0  0  0           0  0  0
   -1.7208   -5.3292    0.0000 C   0  0  0  0  0  0           0  0  0
    0.8375   -6.4375    0.0000 N   0  0  0  0  0  0           0  0  0
    4.3417   -4.6292    0.0000 O   0  0  0  0  0  0           0  0  0
    0.9917   -5.3875    0.0000 C   0  0  0  0  0  0           0  0  0
    1.7500   -5.3875    0.0000 C   0  0  0  0  0  0           0  0  0
   -0.0083   -6.6875    0.0000 C   0  0  0  0  0  0           0  0  0
    2.7542   -8.2667    0.0000 C   0  0  0  0  0  0           0  0  0
    4.9917   -5.7542    0.0000 O   0  0  0  0  0  0           0  0  0
    0.3375   -5.7667    0.0000 C   0  0  0  0  0  0           0  0  0
    3.6917   -5.7542    0.0000 C   0  0  0  0  0  0           0  0  0
    2.4000   -5.7625    0.0000 C   0  0  0  0  0  0           0  0  0
    1.9042   -8.5125    0.0000 C   0  0  0  0  0  0           0  0  0
    3.3917   -8.8750    0.0000 C   0  0  0  0  0  0           0  0  0
    3.0417   -5.3792    0.0000 C   0  0  0  0  0  0           0  0  0
    3.1917   -9.7292    0.0000 C   0  0  0  0  0  0           0  0  0
    1.7000   -9.3667    0.0000 C   0  0  0  0  0  0           0  0  0
    2.3417   -9.9792    0.0000 C   0  0  0  0  0  0           0  0  0
   -0.8750   -5.2250    0.0000 H   0  0  0  0  0  0           0  0  0
   -0.0958   -4.6625    0.0000 H   0  0  0  0  0  0           0  0  0
  2  3  1  0     0  0
  3  1  1  0     0  0
  4  1  1  0     0  0
  5  4  1  0     0  0
  6 10  1  0     0  0
  7  6  1  0     0  0
  8 21  1  0     0  0
  9  6  2  0     0  0
 10 13  1  0     0  0
 11  3  1  0     0  0
 12  4  1  0     0  0
 13 17  1  0     0  0
 14  8  2  0     0  0
 15 20  1  0     0  0
 16 15  2  0     0  0
 17  2  1  0     0  0
 18  7  1  0     0  0
 19  8  1  0     0  0
 20  5  1  0     0  0
 21 25  1  0     0  0
 22 16  1  0     0  0
 23 18  2  0     0  0
 24 18  1  0     0  0
 25 22  1  0     0  0
 26 24  2  0     0  0
 27 23  1  0     0  0
 28 26  1  0     0  0
  2 29  1  1     0  0
  5 30  1  1     0  0
 12 11  1  0     0  0
  2  5  1  0     0  0
 27 28  2  0     0  0
M  END