
  SciTegic05061409512D

 14 15  0  0  0  0            999 V2000
   21.0839   -3.5148    0.0000 C   0  0
   21.0828   -4.3419    0.0000 C   0  0
   21.7972   -4.7545    0.0000 C   0  0
   21.7955   -3.1023    0.0000 C   0  0
   22.5105   -3.5112    0.0000 C   0  0
   22.5107   -4.3373    0.0000 C   0  0
   23.2965   -4.5923    0.0000 N   0  0
   23.7818   -3.9238    0.0000 N   0  0
   23.2953   -3.2564    0.0000 N   0  0
   23.7056   -2.5412    0.0000 C   0  0
   24.5302   -2.5391    0.0000 C   0  0
   24.9445   -3.2521    0.0000 C   0  0
   25.7691   -3.2499    0.0000 O   0  0
   24.5341   -3.9673    0.0000 O   0  0
  1  2  1  0
  2  3  2  0
  3  6  1  0
  5  4  1  0
  4  1  2  0
  5  6  2  0
  6  7  1  0
  7  8  2  0
  8  9  1  0
  9  5  1  0
  9 10  1  0
 10 11  1  0
 11 12  1  0
 12 13  1  0
 12 14  2  0
M  END