
          11280715312D 1   1.00000     0.00000     0

 44 46  0     0  0            999 V2000
    0.2917   -1.3542    0.0000 N   0  0  0  0  0  0           0  0  0
    0.2917   -2.1917    0.0000 C   0  0  0  0  0  0           0  0  0
   -1.1333   -1.3542    0.0000 C   0  0  0  0  0  0           0  0  0
   -0.4208   -0.9625    0.0000 C   0  0  0  0  0  0           0  0  0
   -0.4208   -2.6042    0.0000 N   0  0  0  0  0  0           0  0  0
   -1.1333   -2.1917    0.0000 C   0  0  0  0  0  0           0  0  0
    6.7167   -2.5875    0.0000 C   0  0  0  0  0  0           0  0  0
   -1.8458   -0.9625    0.0000 C   0  0  0  0  0  0           0  0  0
   -1.8458   -2.6042    0.0000 C   0  0  0  0  0  0           0  0  0
    7.4292   -2.1667    0.0000 C   0  0  0  0  0  0           0  0  0
   -2.5583   -1.3542    0.0000 C   0  0  0  0  0  0           0  0  0
   -2.5583   -2.1917    0.0000 C   0  0  0  0  0  0           0  0  0
    1.0042   -2.6000    0.0000 N   0  0  3  0  0  0           0  0  0
    6.0042   -2.1792    0.0000 N   0  0  3  0  0  0           0  0  0
    8.1500   -2.5792    0.0000 C   0  0  0  0  0  0           0  0  0
    6.7250   -3.4125    0.0000 O   0  0  0  0  0  0           0  0  0
   -0.4125   -0.1375    0.0000 N   0  0  0  0  0  0           0  0  0
    8.8625   -2.1667    0.0000 C   0  0  0  0  0  0           0  0  0
    9.5792   -2.5792    0.0000 C   0  0  0  0  0  0           0  0  0
    9.5792   -3.4042    0.0000 N   0  0  3  0  0  0           0  0  0
   -3.2625   -0.9292    0.0000 O   0  0  0  0  0  0           0  0  0
   -3.2625   -2.6167    0.0000 O   0  0  0  0  0  0           0  0  0
   14.5792   -3.7750    0.0000 N   0  0  0  0  0  0           0  0  0
    7.4292   -1.3500    0.0000 C   0  0  0  0  0  0           0  0  0
    8.1375   -0.9292    0.0000 C   0  0  0  0  0  0           0  0  0
    1.7167   -2.1875    0.0000 C   0  0  0  0  0  0           0  0  0
    5.2917   -2.5917    0.0000 C   0  0  0  0  0  0           0  0  0
    1.0042   -3.4250    0.0000 C   0  0  0  0  0  0           0  0  0
    6.0042   -1.3500    0.0000 C   0  0  0  0  0  0           0  0  0
    8.8542   -1.3417    0.0000 C   0  0  0  0  0  0           0  0  0
   10.3000   -3.8125    0.0000 C   0  0  0  0  0  0           0  0  0
    8.8667   -3.8167    0.0000 C   0  0  0  0  0  0           0  0  0
   13.8625   -3.3667    0.0000 C   0  0  0  0  0  0           0  0  0
   15.2875   -3.3542    0.0000 C   0  0  0  0  0  0           0  0  0
   -3.9875   -1.3292    0.0000 C   0  0  0  0  0  0           0  0  0
   -3.9875   -2.2167    0.0000 C   0  0  0  0  0  0           0  0  0
    2.4375   -2.6000    0.0000 C   0  0  0  0  0  0           0  0  0
    4.5792   -2.1792    0.0000 C   0  0  0  0  0  0           0  0  0
   11.0125   -3.3917    0.0000 C   0  0  0  0  0  0           0  0  0
   13.1542   -3.7875    0.0000 C   0  0  0  0  0  0           0  0  0
    3.8667   -2.5917    0.0000 C   0  0  0  0  0  0           0  0  0
    3.1500   -2.1792    0.0000 C   0  0  0  0  0  0           0  0  0
   11.7292   -3.8000    0.0000 C   0  0  0  0  0  0           0  0  0
   12.4375   -3.3792    0.0000 C   0  0  0  0  0  0           0  0  0
  2  1  2  0     0  0
  3  4  2  0     0  0
  4  1  1  0     0  0
  5  2  1  0     0  0
  6  3  1  0     0  0
  7 14  1  0     0  0
  8  3  1  0     0  0
  9  6  1  0     0  0
 10  7  1  0     0  0
 11  8  2  0     0  0
 12 11  1  0     0  0
 13  2  1  0     0  0
 14 27  1  0     0  0
 15 10  2  0     0  0
 16  7  2  0     0  0
 17  4  1  0     0  0
 18 15  1  0     0  0
 19 18  1  0     0  0
 20 19  1  0     0  0
 21 11  1  0     0  0
 22 12  1  0     0  0
 23 33  1  0     0  0
 24 10  1  0     0  0
 25 24  2  0     0  0
 26 13  1  0     0  0
 27 38  1  0     0  0
 28 13  1  0     0  0
 29 14  1  0     0  0
 30 25  1  0     0  0
 31 20  1  0     0  0
 32 20  1  0     0  0
 33 40  1  0     0  0
 34 23  1  0     0  0
 35 21  1  0     0  0
 36 22  1  0     0  0
 37 26  1  0     0  0
 38 41  1  0     0  0
 39 31  1  0     0  0
 40 44  1  0     0  0
 41 42  1  0     0  0
 42 37  1  0     0  0
 43 39  1  0     0  0
 44 43  1  0     0  0
  5  6  2  0     0  0
 12  9  2  0     0  0
 30 18  2  0     0  0
M  END