
  SciTegic10011413212D

 59 58  0  0  0  0            999 V2000
    4.8918   -3.3834    0.0000 O   0  0
    5.7168   -3.3834    0.0000 S   0  0
    5.3043   -2.6689    0.0000 O   0  0
    6.4376   -4.6209    0.0000 C   0  0  2  0  0  0
    6.4376   -5.4459    0.0000 C   0  0  2  0  0  0
    7.1496   -5.8543    0.0000 C   0  0  1  0  0  0
    7.8616   -5.4459    0.0000 C   0  0  2  0  0  0
    7.8616   -4.6209    0.0000 C   0  0  1  0  0  0
    7.1496   -4.2043    0.0000 O   0  0
    8.5773   -4.2105    0.0000 O   0  0
    9.2906   -4.6250    0.0000 C   0  0
   10.0063   -4.2147    0.0000 C   0  0
   10.7195   -4.6293    0.0000 C   0  0
   11.4353   -4.2189    0.0000 O   0  0
   10.0087   -3.3896    0.0000 O   0  0
    8.5755   -5.8594    0.0000 O   0  0
    5.7238   -5.8594    0.0000 O   0  0
    5.7219   -4.2105    0.0000 C   0  0
    7.1496   -6.6792    0.0000 O   0  0
    6.4328   -2.9709    0.0000 O   0  5
   10.7244   -2.9792    0.0000 C   0  0
   10.7268   -2.1542    0.0000 O   0  0
   11.4376   -3.3939    0.0000 C   0  0
   12.1486   -4.6334    0.0000 C   0  0
   12.8643   -4.2230    0.0000 C   0  0
   12.1461   -5.4584    0.0000 O   0  0
   13.5775   -4.6377    0.0000 C   0  0
   14.2932   -4.2273    0.0000 C   0  0
   15.0065   -4.6418    0.0000 C   0  0
   15.7221   -4.2314    0.0000 C   0  0
   16.4354   -4.6460    0.0000 C   0  0
   17.1511   -4.2357    0.0000 C   0  0
   17.8644   -4.6502    0.0000 C   0  0
   18.5800   -4.2398    0.0000 C   0  0
   19.2933   -4.6544    0.0000 C   0  0
   20.0090   -4.2440    0.0000 C   0  0
   20.7222   -4.6586    0.0000 C   0  0
   21.4379   -4.2482    0.0000 C   0  0
   22.1512   -4.6628    0.0000 C   0  0
   22.8669   -4.2523    0.0000 C   0  0
   23.5801   -4.6669    0.0000 C   0  0
   24.2958   -4.2566    0.0000 C   0  0
   12.1533   -2.9835    0.0000 C   0  0
   12.8667   -3.3980    0.0000 C   0  0
   13.5824   -2.9876    0.0000 C   0  0
   14.2956   -3.4023    0.0000 C   0  0
   15.0113   -2.9919    0.0000 C   0  0
   15.7246   -3.4064    0.0000 C   0  0
   16.4403   -2.9960    0.0000 C   0  0
   17.1535   -3.4106    0.0000 C   0  0
   17.8692   -3.0001    0.0000 C   0  0
   18.5825   -3.4148    0.0000 C   0  0
   19.2981   -3.0044    0.0000 C   0  0
   20.0114   -3.4190    0.0000 C   0  0
   20.7271   -3.0085    0.0000 C   0  0
   21.4404   -3.4232    0.0000 C   0  0
   22.1560   -3.0128    0.0000 C   0  0
   22.8693   -3.4274    0.0000 C   0  0
    7.3418   -2.4375    0.0000 Na  0  3
  2  1  2  0
  3  2  2  0
  4  5  1  0
  4  9  1  0
  5  6  1  0
  6  7  1  0
  7  8  1  0
  8  9  1  0
  8 10  1  1
 10 11  1  0
 11 12  1  0
 12 13  1  0
 13 14  1  0
 12 15  1  0
  7 16  1  6
  5 17  1  6
  4 18  1  1
 18  2  1  0
  6 19  1  1
  2 20  1  0
 15 21  1  0
 21 22  2  0
 21 23  1  0
 14 24  1  0
 24 25  1  0
 24 26  2  0
 25 27  1  0
 27 28  1  0
 28 29  1  0
 29 30  1  0
 30 31  1  0
 31 32  1  0
 32 33  1  0
 33 34  1  0
 34 35  1  0
 35 36  1  0
 36 37  1  0
 37 38  1  0
 38 39  1  0
 39 40  1  0
 40 41  1  0
 41 42  1  0
 23 43  1  0
 43 44  1  0
 44 45  1  0
 45 46  1  0
 46 47  1  0
 47 48  1  0
 48 49  1  0
 49 50  1  0
 50 51  1  0
 51 52  1  0
 52 53  1  0
 53 54  1  0
 54 55  1  0
 55 56  1  0
 56 57  1  0
 57 58  1  0
M  CHG  2  20  -1  59   1
M  END