
          11280715252D 1   1.00000     0.00000     0

 12 13  0     0  0            999 V2000
    3.5042   -5.9875    0.0000 C   0  0  0  0  0  0           0  0  0
    3.3500   -6.5625    0.0000 C   0  0  0  0  0  0           0  0  0
    3.0792   -5.5667    0.0000 C   0  0  0  0  0  0           0  0  0
    2.7667   -6.7167    0.0000 C   0  0  0  0  0  0           0  0  0
    4.2417   -5.2417    0.0000 N   0  0  0  0  0  0           0  0  0
    4.0875   -5.8292    0.0000 C   0  0  0  0  0  0           0  0  0
    2.5042   -5.7250    0.0000 C   0  0  0  0  0  0           0  0  0
    3.7667   -6.9875    0.0000 C   0  0  0  0  0  0           0  0  0
    2.3500   -6.2917    0.0000 C   0  0  0  0  0  0           0  0  0
    2.6167   -7.2917    0.0000 C   0  0  0  0  0  0           0  0  0
    3.6167   -7.5542    0.0000 C   0  0  0  0  0  0           0  0  0
    3.0417   -7.7125    0.0000 C   0  0  0  0  0  0           0  0  0
  2  1  1  0     0  0
  3  1  2  0     0  0
  4  2  2  0     0  0
  5  6  1  0     0  0
  6  1  1  0     0  0
  7  3  1  0     0  0
  8  2  1  0     0  0
  9  7  1  0     0  0
 10  4  1  0     0  0
 11  8  2  0     0  0
 12 11  1  0     0  0
  9  4  1  0     0  0
 12 10  2  0     0  0
M  END