
  SciTegic05231716462D

 35 39  0  0  1  0            999 V2000
    6.8298    7.5470    0.0000 S   0  0
   12.8649    5.1494    0.0000 O   0  0
    7.6901    8.7758    0.0000 O   0  0
    5.6807    8.5112    0.0000 O   0  0
    1.8107    6.2021    0.0000 O   0  0
    2.5871    3.3044    0.0000 O   0  0
    8.1288    6.7970    0.0000 N   0  0
    5.7691    6.4864    0.0000 N   0  0
   16.8077    8.4092    0.0000 N   0  0
   18.5275    2.2493    0.0000 N   0  0
   19.7668    3.0943    0.0000 N   0  0
   12.0259    7.5470    0.0000 C   0  0
   14.6611    6.9456    0.0000 C   0  0
   13.1987    6.6118    0.0000 C   0  0
   12.0259    9.0470    0.0000 C   0  0
   15.3119    8.2970    0.0000 C   0  0
    9.4278    7.5470    0.0000 C   0  0
   10.7269    6.7970    0.0000 C   0  0
   17.0018    5.8183    0.0000 C   0  0
   15.5060    5.7062    0.0000 C   0  0
   13.1986    9.9823    0.0000 C   0  0
   14.6610    9.6485    0.0000 C   0  0
   10.7269    9.7970    0.0000 C   0  0
   17.8468    4.5790    0.0000 C   0  0
    9.4278    9.0470    0.0000 C   0  0
    3.2595    5.8139    0.0000 C   0  0  2  0  0  0
   17.6527    7.1698    0.0000 C   0  0
    4.3202    6.8746    0.0000 C   0  0
   17.3409    3.1669    0.0000 C   0  0
   19.3462    4.5341    0.0000 C   0  0
    3.6478    4.3650    0.0000 C   0  0
    6.1573    5.0375    0.0000 C   0  0
    0.7500    5.1415    0.0000 C   0  0
    1.1382    3.6926    0.0000 C   0  0
   18.4826    0.7500    0.0000 C   0  0
  1  3  2  0
  1  4  2  0
  1  7  1  0
  1  8  1  0
 14  2  2  0
  5 26  1  0
 33  5  1  0
 31  6  1  0
  6 34  1  0
  7 17  1  0
  8 28  1  0
  8 32  1  0
  9 16  1  0
 27  9  2  0
 11 10  1  0
 10 29  1  0
 10 35  1  0
 30 11  2  0
 14 12  1  0
 12 15  2  0
 12 18  1  0
 13 14  1  0
 16 13  2  0
 13 20  1  0
 15 21  1  0
 23 15  1  0
 22 16  1  0
 18 17  2  0
 17 25  1  0
 20 19  2  0
 19 24  1  0
 19 27  1  0
 21 22  2  0
 25 23  2  0
 29 24  2  0
 24 30  1  0
 26 28  1  6
 26 31  1  0
 34 33  1  0
M  END