
  SciTegic12171313022D

 31 34  0  0  0  0            999 V2000
   41.0560   -3.6224    0.0000 C   0  0
   41.0548   -4.4497    0.0000 C   0  0
   41.7697   -4.8626    0.0000 C   0  0
   42.4861   -4.4493    0.0000 C   0  0
   42.4832   -3.6187    0.0000 C   0  0
   41.7679   -3.2096    0.0000 C   0  0
   40.3401   -4.8617    0.0000 N   0  0
   40.3394   -5.6867    0.0000 C   0  0
   39.6246   -6.0986    0.0000 N   0  0
   41.0535   -6.0997    0.0000 O   0  0
   39.6240   -6.9236    0.0000 C   0  0
   38.9605   -7.4064    0.0000 N   0  0
   39.2148   -8.1913    0.0000 N   0  0
   40.0399   -8.1919    0.0000 C   0  0
   40.2953   -7.4075    0.0000 C   0  0
   40.5243   -8.8597    0.0000 C   0  0
   40.1882   -9.6131    0.0000 C   0  0
   41.3449   -8.7741    0.0000 C   0  0
   40.9324   -9.5682    0.0000 C   0  0
   38.1646   -7.1892    0.0000 C   0  0
   37.9598   -6.3931    0.0000 C   0  0
   37.1648   -6.1759    0.0000 C   0  0
   36.5778   -6.7570    0.0000 C   0  0
   36.7915   -7.5582    0.0000 C   0  0
   37.5862   -7.7717    0.0000 C   0  0
   35.7816   -6.5409    0.0000 C   0  0
   43.1670   -3.1570    0.0000 N   0  0
   43.9418   -3.4363    0.0000 C   0  0
   44.4495   -2.7860    0.0000 N   0  0
   43.9878   -2.1022    0.0000 C   0  0
   43.1949   -2.3301    0.0000 C   0  0
  1  2  2  0
  2  3  1  0
  3  4  2  0
  4  5  1  0
  5  6  2  0
  6  1  1  0
  2  7  1  0
  7  8  1  0
  8  9  1  0
  8 10  2  0
  9 11  1  0
 11 12  1  0
 12 13  1  0
 13 14  2  0
 14 15  1  0
 15 11  2  0
 14 16  1  0
 16 17  1  0
 16 18  1  0
 16 19  1  0
 12 20  1  0
 20 21  2  0
 21 22  1  0
 22 23  2  0
 23 24  1  0
 24 25  2  0
 25 20  1  0
 23 26  1  0
  5 27  1  0
 27 28  1  0
 28 29  2  0
 29 30  1  0
 30 31  2  0
 31 27  1  0
M  END