
  SciTegic11201309402D

 24 25  0  0  1  0            999 V2000
    5.6667   -5.0250    0.0000 C   0  0
    6.3792   -4.6125    0.0000 N   0  0
   10.6667   -4.6042    0.0000 C   0  0
    5.6667   -5.8500    0.0000 O   0  0
    4.9500   -4.6125    0.0000 C   0  0  2  0  0  0
    7.8125   -4.6125    0.0000 C   0  0
    1.3000   -5.7000    0.0000 N   0  0
   10.6667   -3.7792    0.0000 O   0  0
    8.5250   -5.0250    0.0000 C   0  0
    4.2292   -5.0250    0.0000 C   0  0
    7.0917   -5.0250    0.0000 C   0  0
    9.9542   -5.0167    0.0000 C   0  0
   11.3792   -5.0167    0.0000 O   0  0
    3.5167   -4.6125    0.0000 C   0  0
    6.3792   -3.7792    0.0000 C   0  0
    9.2375   -4.6042    0.0000 C   0  0  1  0  0  0
    2.8042   -5.0167    0.0000 C   0  0
    5.6667   -3.3667    0.0000 C   0  0
    1.3792   -4.8792    0.0000 C   0  0
    1.9667   -6.1792    0.0000 C   0  0
    4.9417   -3.7792    0.0000 C   0  0
    2.1292   -4.5375    0.0000 C   0  0
    2.7167   -5.8417    0.0000 C   0  0
    9.2375   -3.7792    0.0000 C   0  0
  2  1  1  0
  3 12  1  0
  4  1  2  0
  5  1  1  0
  6 11  1  0
  7 20  1  0
  8  3  2  0
  9  6  2  0
  5 10  1  6
 11  2  1  0
 12 16  1  0
 13  3  1  0
 14 10  1  0
 15  2  1  0
 16  9  1  0
 17 14  1  0
 18 21  1  0
 19 22  1  0
 20 23  1  0
  5 21  1  0
 22 17  1  0
 23 17  1  0
 16 24  1  6
 15 18  1  0
  7 19  1  0
M  END