
          11280715402D 1   1.00000     0.00000     0

 17 18  0     0  0            999 V2000
    0.1792   -1.3750    0.0000 C   0  0  0  0  0  0           0  0  0
   -0.3458   -1.0917    0.0000 C   0  0  3  0  0  0           0  0  0
    0.2042   -1.9750    0.0000 C   0  0  3  0  0  0           0  0  0
   -0.9458   -1.1042    0.0000 C   0  0  0  0  0  0           0  0  0
   -0.6625   -0.5792    0.0000 C   0  0  0  0  0  0           0  0  0
   -0.0833   -2.5042    0.0000 C   0  0  0  0  0  0           0  0  0
    0.5167   -2.4792    0.0000 C   0  0  0  0  0  0           0  0  0
    0.6917   -1.0542    0.0000 N   0  0  0  0  0  0           0  0  0
    4.0917   -1.0250    0.0000 C   0  0  3  0  0  0           0  0  0
    3.5792   -1.3417    0.0000 N   0  0  0  0  0  0           0  0  0
    1.4042   -1.3375    0.0000 O   0  0  0  0  0  0           0  0  0
    2.5417   -1.3750    0.0000 C   0  0  0  0  0  0           0  0  0
    3.0542   -1.0542    0.0000 C   0  0  0  0  0  0           0  0  0
    2.0167   -1.0875    0.0000 C   0  0  0  0  0  0           0  0  0
    4.5167   -0.6000    0.0000 C   0  0  0  0  0  0           0  0  0
    4.6167   -1.3042    0.0000 C   0  0  0  0  0  0           0  0  0
    4.0750   -0.4250    0.0000 C   0  0  0  0  0  0           0  0  0
  2  1  1  0     0  0
  3  1  1  0     0  0
  4  2  1  0     0  0
  5  2  1  0     0  0
  6  3  1  0     0  0
  7  3  1  0     0  0
  8  1  2  0     0  0
  9 10  1  0     0  0
 10 13  1  0     0  0
 11  8  1  0     0  0
 12 14  1  0     0  0
 13 12  1  0     0  0
 14 11  1  0     0  0
 15  9  1  0     0  0
 16  9  1  0     0  0
 17  9  1  0     0  0
  7  6  1  0     0  0
  4  5  1  0     0  0
M  END