
          11280715202D 1   1.00000     0.00000     0

 28 28  0     0  0            999 V2000
    0.2625   -2.7042    0.0000 N   0  0  0  0  0  0           0  0  0
   -0.1500   -3.9792    0.0000 N   0  0  0  0  0  0           0  0  0
   -0.4083   -3.1917    0.0000 C   0  0  0  0  0  0           0  0  0
    0.9292   -3.1917    0.0000 C   0  0  0  0  0  0           0  0  0
   11.6917   -2.0417    0.0000 C   0  0  0  0  0  0           0  0  0
   11.6792   -3.6917    0.0000 C   0  0  0  0  0  0           0  0  0
   10.9792   -2.4542    0.0000 C   0  0  0  0  0  0           0  0  0
   10.9750   -3.2792    0.0000 C   0  0  0  0  0  0           0  0  0
    6.8625   -2.7750    0.0000 C   0  0  0  0  0  0           0  0  0
    7.4750   -3.3292    0.0000 N   0  0  0  0  0  0           0  0  0
    6.0792   -3.0292    0.0000 C   0  0  0  0  0  0           0  0  0
    0.6750   -3.9792    0.0000 C   0  0  0  0  0  0           0  0  0
   11.6917   -1.2167    0.0000 O   0  0  0  0  0  0           0  0  0
   11.6792   -4.5167    0.0000 O   0  0  0  0  0  0           0  0  0
    5.9042   -3.8375    0.0000 C   0  0  0  0  0  0           0  0  0
    5.4542   -2.4750    0.0000 C   0  0  0  0  0  0           0  0  0
    4.5042   -3.5375    0.0000 C   0  0  0  0  0  0           0  0  0
   12.4000   -3.2792    0.0000 O   0  0  0  0  0  0           0  0  0
   12.4042   -2.4542    0.0000 O   0  0  0  0  0  0           0  0  0
    8.2542   -3.0667    0.0000 O   0  0  0  0  0  0           0  0  0
    4.6792   -2.7292    0.0000 C   0  0  0  0  0  0           0  0  0
    5.1167   -4.0917    0.0000 C   0  0  0  0  0  0           0  0  0
    3.7250   -3.7917    0.0000 O   0  0  0  0  0  0           0  0  0
    1.7167   -2.9375    0.0000 C   0  0  0  0  0  0           0  0  0
    7.0292   -1.9667    0.0000 C   0  0  0  0  0  0           0  0  0
    3.1125   -3.2375    0.0000 C   0  0  0  0  0  0           0  0  0
    2.3167   -3.4917    0.0000 C   0  0  0  0  0  0           0  0  0
    6.4167   -1.4167    0.0000 C   0  0  0  0  0  0           0  0  0
  2  3  1  0     0  0
  3  1  2  0     0  0
  4  1  1  0     0  0
  6  8  1  0     0  0
  7  5  1  0     0  0
  8  7  2  0     0  0
  9 11  1  0     0  0
 10  9  2  0     0  0
 11 15  2  0     0  0
 12  4  2  0     0  0
 13  5  2  0     0  0
 14  6  2  0     0  0
 15 22  1  0     0  0
 16 21  2  0     0  0
 17 23  1  0     0  0
 18  6  1  0     0  0
 19  5  1  0     0  0
 20 10  1  0     0  0
 21 17  1  0     0  0
 22 17  2  0     0  0
 23 26  1  0     0  0
 24  4  1  0     0  0
 25  9  1  0     0  0
 26 27  1  0     0  0
 27 24  1  0     0  0
 28 25  1  0     0  0
 12  2  1  0     0  0
 11 16  1  0     0  0
M  END