
  SciTegic06051315212D

 37 40  0  0  0  0            999 V2000
   27.4572  -11.6711    0.0000 O   0  0
   27.4614  -10.8473    0.0000 C   0  0  2  0  0  0
   26.7458  -11.2556    0.0000 C   0  0
   28.9798  -11.7929    0.0000 O   0  0
   30.3721  -10.9023    0.0000 O   0  0
   31.8399  -11.6632    0.0000 O   0  0
   31.9132  -13.3113    0.0000 O   0  0
   29.7515  -12.9992    0.0000 O   0  0
   31.3109  -14.4470    0.0000 O   0  0
   29.7120  -12.1746    0.0000 C   0  0  2  0  0  0
   30.4081  -11.7293    0.0000 C   0  0  1  0  0  0
   31.1438  -12.1086    0.0000 C   0  0  2  0  0  0
   31.1799  -12.9354    0.0000 C   0  0  1  0  0  0
   30.4838  -13.3808    0.0000 C   0  0  1  0  0  0
   30.5211  -14.2019    0.0000 C   0  0
   28.9639  -10.9692    0.0000 C   0  0  2  0  0  0
   29.6670  -10.5478    0.0000 O   0  0
   29.6509   -9.7241    0.0000 C   0  0
   28.9320   -9.3218    0.0000 C   0  0
   28.2452  -10.5753    0.0000 C   0  0  1  0  0  0
   28.2245   -9.7472    0.0000 C   0  0  2  0  0  0
   27.4305   -9.5109    0.0000 C   0  0  1  0  0  0
   26.9572  -10.1900    0.0000 C   0  0
   28.2006   -8.9199    0.0000 H   0  0
   28.2569  -11.3991    0.0000 H   0  0
   27.1586   -8.7332    0.0000 O   0  0
   29.0042  -12.5957    0.0000 H   0  0
   27.6962   -8.1089    0.0000 C   0  0
   27.4242   -7.3312    0.0000 O   0  0
   26.0344  -10.8400    0.0000 O   0  0
   28.5034   -8.2598    0.0000 C   0  0
   28.7745   -9.0390    0.0000 C   0  0
   29.5831   -9.1925    0.0000 C   0  0
   30.1214   -8.5678    0.0000 C   0  0
   29.8456   -7.7870    0.0000 C   0  0
   29.0377   -7.6371    0.0000 C   0  0
   30.9312   -8.7200    0.0000 O   0  0
  2  1  1  0
  2  3  1  6
  9 15  1  0
 14  8  1  0
  8 10  1  0
 10 11  1  0
 11 12  1  0
 12 13  1  0
 13 14  1  0
 14 15  1  1
 10  4  1  0
 11  5  1  6
 12  6  1  1
 13  7  1  6
 21 19  1  0
 20 16  1  0
 16 17  1  0
 17 18  1  0
 18 19  2  0
 20 21  1  0
 21 22  1  0
 22 23  1  0
  2 20  1  0
 23  2  1  0
 21 24  1  1
 20 25  1  1
 22 26  1  1
 16  4  1  1
 10 27  1  6
 26 28  1  0
 28 29  2  0
  3 30  1  0
 31 32  2  0
 32 33  1  0
 33 34  2  0
 34 35  1  0
 35 36  2  0
 36 31  1  0
 28 31  1  0
 34 37  1  0
M  END