
          11280715182D 1   1.00000     0.00000     0

 26 28  0     0  0            999 V2000
    2.6292   -2.2542    0.0000 C   0  0  0  0  0  0           0  0  0
    2.6292   -3.0792    0.0000 C   0  0  0  0  0  0           0  0  0
    4.0500   -2.2542    0.0000 C   0  0  0  0  0  0           0  0  0
    3.3375   -1.8417    0.0000 C   0  0  0  0  0  0           0  0  0
    3.3417   -3.4917    0.0000 C   0  0  0  0  0  0           0  0  0
    4.0500   -3.0792    0.0000 C   0  0  0  0  0  0           0  0  0
    1.9167   -3.4917    0.0000 C   0  0  3  0  0  0           0  0  0
    1.9167   -1.8417    0.0000 C   0  0  3  0  0  0           0  0  0
    4.7542   -1.8417    0.0000 C   0  0  3  0  0  0           0  0  0
    7.6125   -3.4792    0.0000 C   0  0  0  0  0  0           0  0  0
    6.8917   -3.0667    0.0000 C   0  0  0  0  0  0           0  0  0
    5.4750   -2.2542    0.0000 C   0  0  0  0  0  0           0  0  0
    1.2042   -2.2542    0.0000 C   0  0  0  0  0  0           0  0  0
    1.2042   -3.0792    0.0000 C   0  0  0  0  0  0           0  0  0
    7.6125   -4.3042    0.0000 O   0  0  0  0  0  0           0  0  0
    6.1792   -3.4792    0.0000 C   0  0  0  0  0  0           0  0  0
    6.8875   -2.2417    0.0000 C   0  0  0  0  0  0           0  0  0
    5.4750   -3.0667    0.0000 C   0  0  0  0  0  0           0  0  0
    6.1792   -1.8417    0.0000 C   0  0  0  0  0  0           0  0  0
    8.3250   -3.0542    0.0000 O   0  0  0  0  0  0           0  0  0
    4.7625   -3.4792    0.0000 C   0  0  0  0  0  0           0  0  0
    2.6292   -1.4167    0.0000 C   0  0  0  0  0  0           0  0  0
    1.1917   -1.4292    0.0000 C   0  0  0  0  0  0           0  0  0
    1.1917   -3.8917    0.0000 C   0  0  0  0  0  0           0  0  0
    2.6292   -3.9042    0.0000 C   0  0  0  0  0  0           0  0  0
    4.7417   -1.0167    0.0000 C   0  0  0  0  0  0           0  0  0
  2  1  2  0     0  0
  3  4  2  0     0  0
  4  1  1  0     0  0
  5  2  1  0     0  0
  6  3  1  0     0  0
  7  2  1  0     0  0
  8  1  1  0     0  0
  9  3  1  0     0  0
 10 11  1  0     0  0
 11 17  1  0     0  0
 12  9  1  0     0  0
 13  8  1  0     0  0
 14 13  1  0     0  0
 15 10  2  0     0  0
 16 18  1  0     0  0
 17 19  2  0     0  0
 18 12  2  0     0  0
 19 12  1  0     0  0
 20 10  1  0     0  0
 21  6  1  0     0  0
 22  8  1  0     0  0
 23  8  1  0     0  0
 24  7  1  0     0  0
 25  7  1  0     0  0
 26  9  1  0     0  0
  7 14  1  0     0  0
  5  6  2  0     0  0
 16 11  2  0     0  0
M  END