
          08180812482D 1   1.00000     0.00000     0

 20 21  0     0  0            999 V2000
    9.2236  -21.0416    0.0000 N   0  0  0  0  0  0           0  0  0
    9.2224  -21.8690    0.0000 C   0  0  0  0  0  0           0  0  0
    9.9372  -22.2819    0.0000 C   0  0  0  0  0  0           0  0  0
    9.9354  -20.6289    0.0000 C   0  0  0  0  0  0           0  0  0
   10.6508  -21.0380    0.0000 C   0  0  0  0  0  0           0  0  0
   10.6511  -21.8690    0.0000 C   0  0  0  0  0  0           0  0  0
   11.4071  -20.7086    0.0000 C   0  0  0  0  0  0           0  0  0
   12.0706  -21.1989    0.0000 N   0  3  0  0  0  0           0  0  0
   12.0610  -22.0232    0.0000 C   0  0  0  0  0  0           0  0  0
   12.8436  -22.2845    0.0000 S   0  0  0  0  0  0           0  0  0
   13.3339  -21.6209    0.0000 C   0  0  0  0  0  0           0  0  0
   12.8543  -20.9497    0.0000 C   0  0  0  0  0  0           0  0  0
   13.1148  -20.1669    0.0000 C   0  0  0  0  0  0           0  0  0
   14.1589  -21.6275    0.0000 C   0  0  0  0  0  0           0  0  0
   14.5656  -22.3453    0.0000 C   0  0  0  0  0  0           0  0  0
   15.3906  -22.3519    0.0000 O   0  0  0  0  0  0           0  0  0
    8.5076  -22.2809    0.0000 C   0  0  3  0  0  0           0  0  0
    7.7875  -22.6875    0.0000 F   0  0  0  0  0  0           0  0  0
    8.9164  -22.9975    0.0000 F   0  0  0  0  0  0           0  0  0
    8.1006  -21.5633    0.0000 F   0  0  0  0  0  0           0  0  0
  5  6  1  0     0  0
  9 10  1  0     0  0
 10 11  1  0     0  0
 11 12  2  0     0  0
 12  8  1  0     0  0
  2  3  1  0     0  0
 12 13  1  0     0  0
  3  6  2  0     0  0
 11 14  1  0     0  0
  5  7  1  0     0  0
 14 15  1  0     0  0
  1  2  2  0     0  0
 15 16  1  0     0  0
  7  8  1  0     0  0
  2 17  1  0     0  0
  8  9  2  0     0  0
 17 18  1  0     0  0
  5  4  2  0     0  0
 17 19  1  0     0  0
  4  1  1  0     0  0
 17 20  1  0     0  0
M  CHG  1   8   1
M  END