
  SciTegic12121614472D

155159  0  0  0  0            999 V2000
   -1.2962    5.2500    0.0000 C   0  0
   -2.5950    6.0021    0.0000 C   0  0
   -2.5939    7.5029    0.0000 N   0  0
   -3.6348    5.4031    0.0000 O   0  0
   -3.8927    8.2550    0.0000 C   0  0
   -3.8916    9.7559    0.0000 C   0  0
   -5.1904   10.5080    0.0000 C   0  0
   -5.1894   12.0088    0.0000 N   0  0
   -6.2302    9.9091    0.0000 O   0  0
   -6.4881   12.7610    0.0000 C   0  0
   -6.4871   14.2618    0.0000 C   0  0
   -7.7858   15.0139    0.0000 C   0  0
   -7.7848   16.5147    0.0000 N   0  0
   -8.8257   14.4150    0.0000 O   0  0
   -9.0836   17.2669    0.0000 C   0  0  2  0  0  0
   -9.0825   18.7677    0.0000 C   0  0
  -10.3856   16.5204    0.0000 C   0  0  2  0  0  0
  -11.4234   17.1230    0.0000 O   0  0
  -10.3889   15.3205    0.0000 C   0  0
   -8.0427   19.3667    0.0000 O   0  0
  -10.3813   19.5198    0.0000 N   0  0
  -10.3802   21.0207    0.0000 C   0  0  2  0  0  0
  -11.6790   21.7728    0.0000 C   0  0
   -9.0813   21.7724    0.0000 C   0  0  1  0  0  0
   -8.0416   21.1732    0.0000 C   0  0
   -9.0818   22.9724    0.0000 O   0  0
  -11.6780   23.2736    0.0000 N   0  0
  -12.7188   21.1738    0.0000 O   0  0
  -12.9767   24.0258    0.0000 C   0  0  2  0  0  0
  -12.9757   25.5266    0.0000 C   0  0
  -14.2788   23.2793    0.0000 C   0  0  1  0  0  0
  -14.2821   22.0793    0.0000 C   0  0
  -15.5767   24.0329    0.0000 C   0  0
  -16.6178   23.4361    0.0000 C   0  0
  -14.2744   26.2787    0.0000 N   0  0
  -11.9358   26.1255    0.0000 O   0  0
  -14.2734   27.7795    0.0000 C   0  0
  -15.5721   28.5317    0.0000 C   0  0
  -15.5711   30.0325    0.0000 N   0  0
  -16.6120   27.9327    0.0000 O   0  0
  -16.8699   30.7846    0.0000 C   0  0  2  0  0  0
  -16.8688   32.2855    0.0000 C   0  0
  -18.1719   30.0382    0.0000 C   0  0
  -19.4698   30.7918    0.0000 C   0  0
  -20.7719   30.0453    0.0000 S   0  0
  -21.8097   30.6479    0.0000 C   0  0
  -15.8290   32.8844    0.0000 O   0  0
  -18.1676   33.0376    0.0000 N   0  0
  -18.1666   34.5384    0.0000 C   0  0  2  0  0  0
  -19.4653   35.2905    0.0000 C   0  0
  -19.4643   36.7914    0.0000 N   0  0
  -20.5051   34.6916    0.0000 O   0  0
  -20.7630   37.5435    0.0000 C   0  0  2  0  0  0
  -20.7620   39.0443    0.0000 C   0  0
  -22.0651   36.7971    0.0000 C   0  0  2  0  0  0
  -23.1029   37.3996    0.0000 O   0  0
  -22.0684   35.5971    0.0000 C   0  0
  -19.7222   39.6433    0.0000 O   0  0
  -22.0607   39.7965    0.0000 N   0  0
  -22.0597   41.2973    0.0000 C   0  0  2  0  0  0
  -23.3585   42.0494    0.0000 C   0  0
  -20.7607   42.0491    0.0000 C   0  0
  -20.7614   43.5499    0.0000 C   0  0
  -19.7228   44.1510    0.0000 C   0  0
  -21.8010   44.1491    0.0000 C   0  0
  -23.3574   43.5502    0.0000 N   0  0
  -24.3983   41.4505    0.0000 O   0  0
  -24.6562   44.3024    0.0000 C   0  0  2  0  0  0
  -24.6551   45.8032    0.0000 C   0  0
  -25.9582   43.5559    0.0000 C   0  0
  -27.2562   44.3095    0.0000 C   0  0
  -28.5582   43.5631    0.0000 C   0  0
  -29.8561   44.3167    0.0000 C   0  0
  -30.8972   43.7199    0.0000 N   0  0
  -25.9539   46.5553    0.0000 N   0  0
  -16.8676   35.2902    0.0000 C   0  0
  -16.8682   36.7910    0.0000 C   0  0
  -15.5692   37.5428    0.0000 S   0  0
  -15.5697   38.7428    0.0000 C   0  0
  -23.6153   46.4022    0.0000 O   0  0
  -25.9529   48.0562    0.0000 C   0  0  2  0  0  0
  -27.2516   48.8083    0.0000 C   0  0
  -24.9130   48.6551    0.0000 C   0  0
  -27.2506   50.3091    0.0000 N   0  0
  -28.2915   48.2093    0.0000 O   0  0
  -28.5493   51.0612    0.0000 C   0  0  2  0  0  0
  -28.5483   52.5621    0.0000 C   0  0
  -29.5892   50.4623    0.0000 C   0  0
  -27.5085   53.1610    0.0000 O   0  0
  -29.8471   53.3142    0.0000 N   0  0
  -29.8460   54.8150    0.0000 C   0  0  2  0  0  0
  -28.5471   55.5668    0.0000 C   0  0
  -31.1448   55.5672    0.0000 C   0  0
  -31.1437   57.0680    0.0000 C   0  0
  -32.4407   57.8216    0.0000 C   0  0
  -32.4366   59.3216    0.0000 C   0  0
  -31.1355   60.0681    0.0000 C   0  0
  -29.8386   59.3145    0.0000 C   0  0
  -29.8426   57.8145    0.0000 C   0  0
  -28.5477   57.0676    0.0000 N   0  0
  -27.5074   54.9676    0.0000 O   0  0
  -27.2487   57.8194    0.0000 C   0  0  2  0  0  0
  -27.2476   59.3203    0.0000 C   0  0
  -25.9498   57.0673    0.0000 C   0  0
  -25.9508   55.5665    0.0000 C   0  0
  -24.6521   54.8144    0.0000 C   0  0
  -24.6531   53.3136    0.0000 C   0  0
  -23.6146   52.7122    0.0000 N   0  0
  -26.2078   59.9192    0.0000 O   0  0
  -28.5464   60.0724    0.0000 N   0  0
  -28.5454   61.5732    0.0000 C   0  0  1  0  0  0
  -29.8442   62.3253    0.0000 C   0  0
  -27.2464   62.3250    0.0000 C   0  0  1  0  0  0
  -26.2068   61.7258    0.0000 C   0  0
  -27.2470   63.5250    0.0000 O   0  0
  -29.8432   63.8261    0.0000 N   0  0
  -30.8840   61.7263    0.0000 O   0  0
  -31.1420   64.5782    0.0000 C   0  0  2  0  0  0
  -31.1410   66.0790    0.0000 C   0  0
  -32.4440   63.8318    0.0000 C   0  0
  -33.7419   64.5853    0.0000 C   0  0
  -34.7830   63.9885    0.0000 C   0  0
  -33.7387   65.7853    0.0000 C   0  0
  -30.1011   66.6780    0.0000 O   0  0
  -32.4397   66.8311    0.0000 N   0  0
  -32.4387   68.3320    0.0000 C   0  0  2  0  0  0
  -33.7375   69.0841    0.0000 C   0  0
  -31.1398   69.0838    0.0000 C   0  0
  -31.1403   70.2838    0.0000 O   0  0
  -33.7367   70.2841    0.0000 O   0  0
  -34.7773   68.4851    0.0000 N   0  0
   -1.2951    3.7499    0.0000 C   0  0
    0.0046    3.0009    0.0000 C   0  0
    1.3030    3.7519    0.0000 C   0  0
    1.3019    5.2519    0.0000 C   0  0
    0.0023    6.0009    0.0000 C   0  0
    0.0000    1.5002    0.0000 C   0  0
    0.0000   -1.5002    0.0000 O   0  0
   -1.2989   -0.7501    0.0000 C   0  0
   -1.2989    0.7501    0.0000 C   0  0
   -2.5978    1.5002    0.0000 C   0  0
   -3.8968    0.7501    0.0000 C   0  0
   -3.8968   -0.7501    0.0000 C   0  0
   -2.5978   -1.5002    0.0000 C   0  0
    1.2806    0.7501    0.0000 C   0  0
    1.2806   -0.7501    0.0000 C   0  0
    2.5978   -1.5002    0.0000 C   0  0
    3.8968   -0.7501    0.0000 C   0  0
    3.8968    0.7501    0.0000 C   0  0
    2.5978    1.5002    0.0000 C   0  0
    4.9360   -1.3500    0.0000 O   0  0
   -4.9360   -1.3500    0.0000 O   0  0
    2.6048    3.0051    0.0000 C   0  0
    3.6428    3.6073    0.0000 O   0  0
    2.6073    2.0051    0.0000 O   0  0
  1  2  1  0
  2  3  1  0
  2  4  2  0
  3  5  1  0
  5  6  1  0
  6  7  1  0
  7  8  1  0
  7  9  2  0
  8 10  1  0
 10 11  1  0
 11 12  1  0
 12 13  1  0
 12 14  2  0
 15 13  1  1
 15 16  1  0
 15 17  1  0
 17 18  1  1
 17 19  1  0
 16 20  2  0
 16 21  1  0
 22 21  1  6
 22 23  1  0
 22 24  1  0
 24 25  1  0
 24 26  1  6
 23 27  1  0
 23 28  2  0
 29 27  1  1
 29 30  1  0
 29 31  1  0
 31 32  1  1
 31 33  1  0
 33 34  1  0
 30 35  1  0
 30 36  2  0
 35 37  1  0
 37 38  1  0
 38 39  1  0
 38 40  2  0
 39 41  1  0
 41 42  1  0
 41 43  1  1
 43 44  1  0
 44 45  1  0
 45 46  1  0
 42 47  2  0
 42 48  1  0
 48 49  1  0
 49 50  1  0
 50 51  1  0
 50 52  2  0
 53 51  1  1
 53 54  1  0
 53 55  1  0
 55 56  1  1
 55 57  1  0
 54 58  2  0
 54 59  1  0
 59 60  1  0
 60 61  1  0
 60 62  1  6
 62 63  1  0
 63 64  1  0
 63 65  1  0
 61 66  1  0
 61 67  2  0
 66 68  1  0
 68 69  1  0
 68 70  1  1
 70 71  1  0
 71 72  1  0
 72 73  1  0
 73 74  1  0
 69 75  1  0
 49 76  1  6
 76 77  1  0
 77 78  1  0
 78 79  1  0
 69 80  2  0
 75 81  1  0
 81 82  1  0
 81 83  1  6
 82 84  1  0
 82 85  2  0
 84 86  1  0
 86 87  1  0
 86 88  1  1
 87 89  2  0
 87 90  1  0
 90 91  1  0
 91 92  1  0
 91 93  1  1
 93 94  1  0
 94 95  2  0
 95 96  1  0
 96 97  2  0
 97 98  1  0
 98 99  2  0
 99 94  1  0
 92100  1  0
 92101  2  0
100102  1  0
102103  1  0
102104  1  6
104105  1  0
105106  1  0
106107  1  0
107108  1  0
103109  2  0
103110  1  0
111110  1  1
111112  1  0
111113  1  0
113114  1  0
113115  1  6
112116  1  0
112117  2  0
116118  1  0
118119  1  0
118120  1  1
120121  1  0
121122  1  0
121123  1  0
119124  2  0
119125  1  0
125126  1  0
126127  1  0
126128  1  6
128129  1  0
127130  2  0
127131  1  0
  1132  2  0
132133  1  0
133134  2  0
134135  1  0
135136  2  0
136  1  1  0
133137  1  0
137140  1  0
137145  2  0
139138  1  0
138146  1  0
139140  2  0
140141  1  0
141142  2  0
142143  1  0
143144  2  0
144139  1  0
145146  1  0
145150  1  0
146147  2  0
147148  1  0
148149  1  0
149150  2  0
148151  2  0
143152  1  0
134153  1  0
153154  2  0
153155  1  0
M  END