
          02060813472D 1   1.00000     0.00000     0

 34 37  0     1  0            999 V2000
   -4.6458  -25.4250    0.0000 C   0  0  0  0  0  0           0  0  0
   -4.6458  -26.2500    0.0000 O   0  0  0  0  0  0           0  0  0
   -3.9338  -26.6583    0.0000 C   0  0  0  0  0  0           0  0  0
   -3.2218  -26.2500    0.0000 C   0  0  0  0  0  0           0  0  0
   -3.2218  -25.4250    0.0000 N   0  0  3  0  0  0           0  0  0
   -3.9338  -25.0083    0.0000 C   0  0  0  0  0  0           0  0  0
   -2.5061  -25.0146    0.0000 C   0  0  0  0  0  0           0  0  0
   -1.7929  -25.4292    0.0000 C   0  0  0  0  0  0           0  0  0
   -2.5037  -24.1896    0.0000 O   0  0  0  0  0  0           0  0  0
   -1.0772  -25.0188    0.0000 C   0  0  1  0  0  0           0  0  0
   -1.0833  -24.1917    0.0000 C   0  0  0  0  0  0           0  0  0
   -0.3618  -25.4297    0.0000 C   0  0  0  0  0  0           0  0  0
   -0.3599  -26.2547    0.0000 O   0  0  0  0  0  0           0  0  0
    0.3518  -25.0156    0.0000 N   0  0  0  0  0  0           0  0  0
    1.0660  -25.4275    0.0000 C   0  0  2  0  0  0           0  0  0
    0.8291  -26.2160    0.0000 C   0  0  0  0  0  0           0  0  0
    1.5062  -26.6874    0.0000 C   0  0  0  0  0  0           0  0  0
    2.1638  -26.1891    0.0000 N   0  0  3  0  0  0           0  0  0
    1.8930  -25.4099    0.0000 C   0  0  0  0  0  0           0  0  0
    1.4766  -24.7071    0.0000 C   0  0  0  0  0  0           0  0  0
    1.8867  -23.9880    0.0000 N   0  0  0  0  0  0           0  0  0
    2.9534  -26.4282    0.0000 C   0  0  3  0  0  0           0  0  0
    3.1347  -27.2298    0.0000 C   0  0  0  0  0  0           0  0  0
    3.9202  -27.4697    0.0000 C   0  0  0  0  0  0           0  0  0
    4.5252  -26.9083    0.0000 C   0  0  0  0  0  0           0  0  0
    4.3392  -26.1035    0.0000 C   0  0  0  0  0  0           0  0  0
    3.5481  -25.8602    0.0000 C   0  0  0  0  0  0           0  0  0
   -0.3719  -23.7739    0.0000 C   0  0  3  0  0  0           0  0  0
    0.3409  -24.1845    0.0000 C   0  0  0  0  0  0           0  0  0
    1.0502  -23.7702    0.0000 C   0  0  0  0  0  0           0  0  0
    1.0483  -22.9449    0.0000 C   0  0  0  0  0  0           0  0  0
    0.3309  -22.5355    0.0000 C   0  0  0  0  0  0           0  0  0
   -0.3846  -22.9515    0.0000 C   0  0  0  0  0  0           0  0  0
   -1.0917  -23.3583    0.0000 C   0  0  0  0  0  0           0  0  0
  1  6  1  0     0  0
  7  9  2  0     0  0
 16 17  1  0     0  0
 17 18  1  0     0  0
 18 19  1  0     0  0
  2  3  1  0     0  0
 15 20  1  0     0  0
  8 10  1  0     0  0
 20 21  3  0     0  0
  3  4  1  0     0  0
 18 22  1  0     0  0
 22 23  1  0     0  0
 10 11  1  1     0  0
  4  5  1  0     0  0
 10 12  1  0     0  0
  5  6  1  0     0  0
 12 13  2  0     0  0
 22 27  1  0     0  0
 23 24  1  0     0  0
 24 25  1  0     0  0
 25 26  1  0     0  0
 26 27  1  0     0  0
 11 28  1  0     0  0
 28 29  1  0     0  0
 12 14  1  0     0  0
  5  7  1  0     0  0
 15 14  1  1     0  0
 15 16  1  0     0  0
  1  2  1  0     0  0
 28 33  1  0     0  0
 29 30  1  0     0  0
 30 31  1  0     0  0
 31 32  1  0     0  0
 32 33  1  0     0  0
  7  8  1  0     0  0
 28 34  1  0     0  0
 15 19  1  0     0  0
M  END