
          11280714502D 1   1.00000     0.00000     0

 30 34  0     1  0            999 V2000
    4.9542   -3.5667    0.0000 N   0  0  3  0  0  0           0  0  0
    5.9750   -5.3667    0.0000 C   0  0  1  0  0  0           0  0  0
    4.4292   -3.8667    0.0000 C   0  0  2  0  0  0           0  0  0
    3.9167   -3.5667    0.0000 C   0  0  0  0  0  0           0  0  0
    5.9792   -4.7667    0.0000 C   0  0  0  0  0  0           0  0  0
    3.9167   -2.9667    0.0000 C   0  0  0  0  0  0           0  0  0
    4.4292   -4.4625    0.0000 C   0  0  0  0  0  0           0  0  0
    5.4667   -4.4667    0.0000 C   0  0  1  0  0  0           0  0  0
    3.4042   -3.8667    0.0000 C   0  0  0  0  0  0           0  0  0
    4.9500   -4.7625    0.0000 C   0  0  1  0  0  0           0  0  0
    6.4917   -5.6667    0.0000 C   0  0  0  0  0  0           0  0  0
    5.4542   -5.6625    0.0000 C   0  0  2  0  0  0           0  0  0
    5.4750   -3.8667    0.0000 C   0  0  0  0  0  0           0  0  0
    2.8875   -3.5667    0.0000 C   0  0  0  0  0  0           0  0  0
    2.8792   -2.9667    0.0000 C   0  0  0  0  0  0           0  0  0
    4.9417   -5.3542    0.0000 C   0  0  0  0  0  0           0  0  0
    3.4042   -2.6667    0.0000 C   0  0  0  0  0  0           0  0  0
    2.3667   -3.8667    0.0000 O   0  0  0  0  0  0           0  0  0
    4.9542   -2.9667    0.0000 C   0  0  0  0  0  0           0  0  0
    2.3667   -2.6667    0.0000 O   0  0  0  0  0  0           0  0  0
    1.6417   -3.2792    0.0000 C   0  0  0  0  0  0           0  0  0
    4.4292   -2.6667    0.0000 C   0  0  0  0  0  0           0  0  0
    7.0042   -5.3667    0.0000 O   0  0  0  0  0  0           0  0  0
    5.7500   -6.1792    0.0000 O   0  0  0  0  0  0           0  0  0
    6.4875   -6.2625    0.0000 O   0  0  0  0  0  0           0  0  0
    7.0042   -6.5625    0.0000 C   0  0  0  0  0  0           0  0  0
    3.9125   -4.1625    0.0000 H   0  0  0  0  0  0           0  0  0
    5.1500   -6.1792    0.0000 H   0  0  0  0  0  0           0  0  0
    5.9875   -4.1667    0.0000 H   0  0  0  0  0  0           0  0  0
    4.4292   -5.0542    0.0000 H   0  0  0  0  0  0           0  0  0
  2  5  1  0     0  0
  3  1  1  0     0  0
  4  3  1  0     0  0
  5  8  1  0     0  0
  6 22  1  0     0  0
  7  3  1  0     0  0
  8 13  1  0     0  0
  9  4  1  0     0  0
 10  8  1  0     0  0
  2 11  1  1     0  0
 12 16  1  0     0  0
 13  1  1  0     0  0
 14  9  2  0     0  0
 15 17  2  0     0  0
 16 10  1  0     0  0
 17  6  1  0     0  0
 18 14  1  0     0  0
 19  1  1  0     0  0
 20 15  1  0     0  0
 21 18  1  0     0  0
 22 19  1  0     0  0
 23 11  2  0     0  0
 12 24  1  1     0  0
 25 11  1  0     0  0
 26 25  1  0     0  0
  3 27  1  6     0  0
 12 28  1  6     0  0
  8 29  1  6     0  0
 10 30  1  6     0  0
  6  4  2  0     0  0
 10  7  1  0     0  0
 14 15  1  0     0  0
  2 12  1  0     0  0
 20 21  1  0     0  0
M  END