
  SciTegic04191613082D

183192  0  0  1  0            999 V2000
  -11.1941   -3.0472    0.0000 N   0  0
   -9.9094   -3.8231    0.0000 C   0  0
   -8.4264   -3.5926    0.0000 C   0  0
   -7.1417   -4.3685    0.0000 C   0  0
   -6.1461   -3.2298    0.0000 C   0  0  2  0  0  0
   -6.7355   -1.8505    0.0000 N   0  0
   -7.0352   -0.3807    0.0000 C   0  0
   -8.2292   -0.5003    0.0000 O   0  0
   -7.0329    1.1193    0.0000 C   0  0  1  0  0  0
   -6.7287    2.5881    0.0000 N   0  0
   -6.1350    3.9657    0.0000 C   0  0
   -7.1833    4.5496    0.0000 O   0  0
   -5.2762    5.1955    0.0000 C   0  0  2  0  0  0
   -6.4243    6.1803    0.0000 C   0  0
   -7.8404    5.6832    0.0000 C   0  0
   -8.9937    6.6604    0.0000 C   0  0
  -10.4057    6.1631    0.0000 C   0  0
  -11.5422    7.1376    0.0000 C   0  0
  -12.9543    6.6403    0.0000 C   0  0
  -13.2298    5.1686    0.0000 C   0  0
  -12.0933    4.1941    0.0000 C   0  0
  -10.6812    4.6914    0.0000 C   0  0
   -9.5447    3.7170    0.0000 C   0  0
   -8.1147    4.2109    0.0000 C   0  0
   -4.1875    6.2273    0.0000 N   0  0
   -2.9133    7.0188    0.0000 C   0  0
   -3.4401    8.0969    0.0000 O   0  0
   -1.5058    7.5375    0.0000 C   0  0  1  0  0  0
   -0.0228    7.7624    0.0000 N   0  0
    1.4752    7.6841    0.0000 C   0  0
    2.9324    7.3249    0.0000 C   0  0  1  0  0  0
    1.4932    7.7475    0.0000 N   0  0
    0.0000    7.8901    0.0000 C   0  0
    0.0000    9.0901    0.0000 O   0  0
   -1.4932    7.7475    0.0000 C   0  0  2  0  0  0
   -2.9325    7.3249    0.0000 N   0  0
   -4.2657    6.6375    0.0000 C   0  0
   -4.9145    7.6470    0.0000 O   0  0
   -5.4448    5.7103    0.0000 C   0  0  1  0  0  0
   -6.4271    4.5767    0.0000 N   0  0
   -7.1771    3.2776    0.0000 C   0  0
   -7.6677    1.8601    0.0000 C   0  0  2  0  0  0
   -9.1371    2.2196    0.0000 C   0  0
  -10.1755    1.1360    0.0000 C   0  0
  -11.6334    1.4927    0.0000 C   0  0
  -12.6718    0.4091    0.0000 N   0  0
  -14.1297    0.7657    0.0000 C   0  0
  -14.4652    1.9178    0.0000 N   0  0
  -14.8216    0.0437    0.0000 N   0  0
   -7.8812    0.3754    0.0000 N   0  0
   -7.8098   -1.1229    0.0000 C   0  0
   -8.9976   -1.2937    0.0000 O   0  0
   -7.4561   -2.5806    0.0000 C   0  0  2  0  0  0
   -8.8866   -3.0726    0.0000 C   0  0
   -9.1744   -4.5456    0.0000 C   0  0
  -10.6009   -5.0459    0.0000 C   0  0
  -10.8864   -6.5154    0.0000 C   0  0
  -12.3020   -7.0027    0.0000 C   0  0
  -12.5875   -8.4723    0.0000 C   0  0
  -11.4575   -9.4546    0.0000 C   0  0
  -10.0420   -8.9673    0.0000 C   0  0
   -9.7564   -7.4978    0.0000 C   0  0
   -8.3409   -7.0105    0.0000 C   0  0
   -8.0433   -5.5272    0.0000 C   0  0
   -6.8330   -3.9451    0.0000 N   0  0
   -5.9629   -5.1669    0.0000 C   0  0
   -6.8698   -5.9528    0.0000 O   0  0
   -4.8773   -6.2020    0.0000 C   0  0  2  0  0  0
   -3.6154   -7.0130    0.0000 N   0  0
   -2.2229   -7.5705    0.0000 C   0  0
   -0.7500   -7.8544    0.0000 C   0  0  1  0  0  0
   -0.8967   -9.3600    0.0000 C   0  0
    0.3236  -10.2336    0.0000 C   0  0
    0.2267  -11.2289    0.0000 O   0  0
    1.4163   -9.7376    0.0000 O   0  0
    0.7500   -7.8544    0.0000 N   0  0
    2.2229   -7.5705    0.0000 C   0  0
    2.5610   -8.7219    0.0000 O   0  0
    3.6155   -7.0130    0.0000 C   0  0
    4.8773   -6.2020    0.0000 N   0  0
    5.2518   -7.3421    0.0000 C   0  0
    5.9629   -5.1669    0.0000 C   0  0
    6.8330   -3.9450    0.0000 C   0  0  2  0  0  0
    7.9465   -4.9631    0.0000 C   0  0
    9.2526   -4.2255    0.0000 C   0  0
    8.9547   -2.7554    0.0000 C   0  0
    7.4561   -2.5806    0.0000 N   0  0
    7.8098   -1.1229    0.0000 C   0  0
    8.7996   -1.2652    0.0000 O   0  0
    7.8812    0.3754    0.0000 C   0  0
    7.9635   -0.2266    0.0000 C   0  0
    7.7547    0.3466    0.0000 C   0  0
    7.6007   -1.1455    0.0000 C   0  0
    7.1494   -2.5760    0.0000 N   0  0
    6.4195   -3.8864    0.0000 C   0  0
    5.4407   -5.0230    0.0000 C   0  0  2  0  0  0
    4.2531   -5.9394    0.0000 N   0  0
    2.9054   -6.5979    0.0000 C   0  0
    1.4527   -6.9717    0.0000 C   0  0  1  0  0  0
   -0.0455   -7.0453    0.0000 N   0  0
   -1.5279   -6.8159    0.0000 C   0  0
   -1.8304   -7.9771    0.0000 O   0  0
   -2.9337   -6.2928    0.0000 C   0  0  1  0  0  0
   -4.2054   -5.4974    0.0000 N   0  0
   -5.2910   -4.4623    0.0000 C   0  0
   -6.0508   -5.1125    0.0000 O   0  0
   -3.0946   -7.7968    0.0000 C   0  0
   -1.8826   -8.6819    0.0000 C   0  0
   -2.0422  -10.1743    0.0000 C   0  0
   -0.8302  -11.0594    0.0000 N   0  0
   -0.9898  -12.5517    0.0000 C   0  0
   -2.0871  -13.0375    0.0000 N   0  0
   -0.0207  -13.2595    0.0000 N   0  0
    1.1571   -8.4551    0.0000 C   0  0
    2.2846   -9.4457    0.0000 C   0  0
    1.9914  -10.9176    0.0000 C   0  0
    3.1189  -11.9082    0.0000 N   0  0
    2.8256  -13.3801    0.0000 C   0  0
    3.7271  -14.1721    0.0000 N   0  0
    1.6891  -13.7651    0.0000 N   0  0
    3.3204   -7.7238    0.0000 O   0  0
    6.0402   -6.4117    0.0000 C   0  0
    5.3235   -7.3743    0.0000 O   0  0
    7.5308   -6.5865    0.0000 N   0  0
    8.1256   -7.9644    0.0000 C   0  0  1  0  0  0
    9.6163   -8.1391    0.0000 C   0  0
   10.2111   -9.5170    0.0000 C   0  0
   11.7017   -9.6917    0.0000 C   0  0
   12.2966  -11.0696    0.0000 C   0  0
   13.4884  -11.2093    0.0000 N   0  0
    7.2319   -9.1700    0.0000 C   0  0
    7.7087  -10.2712    0.0000 O   0  0
    6.0397   -9.0328    0.0000 O   0  0
    8.5799   -1.3483    0.0000 O   0  0
    7.6052    1.8391    0.0000 C   0  0
    7.1771    3.2777    0.0000 C   0  0
    7.6677    1.8602    0.0000 C   0  0
    6.4271    4.5767    0.0000 C   0  0
    7.4046    5.2728    0.0000 O   0  0
    5.4448    5.7103    0.0000 N   0  0
    4.2657    6.6376    0.0000 C   0  0
    6.7187   -5.8218    0.0000 O   0  0
   -2.5046   -8.5300    0.0000 O   0  0
   -3.6922   -8.5198    0.0000 C   0  0
   -5.0255   -9.2071    0.0000 C   0  0
   -6.2874   -8.3961    0.0000 C   0  0
   -6.2160   -6.8978    0.0000 C   0  0
   -8.0867    3.6930    0.0000 O   0  0
   -6.4866    6.8071    0.0000 C   0  0
   -6.0619    8.2466    0.0000 C   0  0
   -7.0955    9.3348    0.0000 C   0  0
   -6.6708   10.7743    0.0000 N   0  0
   -7.7043   11.8625    0.0000 C   0  0
   -8.8710   11.5815    0.0000 N   0  0
   -7.3647   13.0134    0.0000 N   0  0
   -1.2514    9.2408    0.0000 C   0  0
    0.1513    9.7746    0.0000 C   0  0
    0.3913   11.2561    0.0000 C   0  0
    1.7940   11.7899    0.0000 N   0  0
    2.0340   13.2714    0.0000 C   0  0
    3.1556   13.6982    0.0000 N   0  0
    1.1039   14.0295    0.0000 N   0  0
    1.6509    8.8712    0.0000 O   0  0
   -1.8856    9.0017    0.0000 C   0  0
   -3.3318    9.4027    0.0000 C   0  0
   -3.7105   10.8541    0.0000 C   0  0
   -5.1568   11.2519    0.0000 C   0  0
   -6.2245   10.1983    0.0000 C   0  0
   -5.8459    8.7469    0.0000 C   0  0
   -4.3996    8.3491    0.0000 C   0  0
   -8.5377    1.2717    0.0000 C   0  0
   -9.4161    0.0548    0.0000 C   0  0
  -10.9093    0.2060    0.0000 C   0  0
  -11.7876   -1.0110    0.0000 N   0  0
  -13.2808   -0.8598    0.0000 C   0  0
  -13.8660   -1.6706    0.0000 N   0  0
  -13.7727    0.2348    0.0000 N   0  0
  -12.5089   -3.7710    0.0000 C   0  0
  -12.5329   -4.9708    0.0000 N   0  0
  -13.5361   -3.1506    0.0000 N   0  0
    6.9385   -4.9395    0.0000 H   0  0
   -5.8674   -6.0614    0.0000 H   0  0
    1.9670    7.5855    0.0000 H   0  0
  2  1  1  0
  3  2  1  0
  4  3  1  0
  5  4  1  6
  6  5  1  0
  7  6  1  0
  7  8  2  0
  9  7  1  0
 10  9  1  0
 11 10  1  0
 11 12  2  0
 13 11  1  0
 13 14  1  6
 14 15  1  0
 15 16  2  0
 16 17  1  0
 17 18  2  0
 18 19  1  0
 19 20  2  0
 20 21  1  0
 21 22  2  0
 22 23  1  0
 23 24  2  0
 24 15  1  0
 22 17  1  0
 25 13  1  0
 26 25  1  0
 26 27  2  0
 28 26  1  0
 29 28  1  0
 30 29  1  0
 31 30  1  0
 32 31  1  0
 33 32  1  0
 33 34  2  0
 35 33  1  0
 36 35  1  0
 37 36  1  0
 37 38  2  0
 39 37  1  0
 40 39  1  0
 41 40  1  0
 42 41  1  0
 42 43  1  1
 43 44  1  0
 44 45  1  0
 45 46  1  0
 46 47  1  0
 47 48  1  0
 47 49  2  0
 50 42  1  0
 51 50  1  0
 51 52  2  0
 53 51  1  0
 53 54  1  1
 54 55  1  0
 55 56  2  0
 56 57  1  0
 57 58  2  0
 58 59  1  0
 59 60  2  0
 60 61  1  0
 61 62  2  0
 62 57  1  0
 62 63  1  0
 63 64  2  0
 64 55  1  0
 53 65  1  0
 65 66  1  0
 66 67  2  0
 68 66  1  0
 68 69  1  0
 69 70  1  0
 70 71  1  0
 71 72  1  6
 72 73  1  0
 73 74  2  0
 73 75  1  0
 71 76  1  0
 76 77  1  0
 77 78  2  0
 77 79  1  0
 79 80  1  0
 80 81  1  0
 80 82  1  0
 83 82  1  0
 83 84  1  0
 84 85  1  0
 85 86  1  0
 86 87  1  0
 87 83  1  0
 87 88  1  0
 88 89  2  0
 88 90  1  0
 90 91  2  0
 91 92  1  0
 92 93  1  0
 93 94  1  0
 94 95  1  0
 96 95  1  0
 96 97  1  0
 97 98  1  0
 98 99  1  0
 99100  1  0
100101  1  0
101102  2  0
101103  1  0
103104  1  0
105104  1  0
105106  2  0
  5105  1  0
103107  1  6
107108  1  0
108109  1  0
109110  1  0
110111  1  0
111112  1  0
111113  2  0
 99114  1  6
114115  1  0
115116  1  0
116117  1  0
117118  1  0
118119  2  0
118120  1  0
 98121  2  0
 96122  1  1
122123  2  0
122124  1  0
125124  1  1
125126  1  0
126127  1  0
127128  1  0
128129  1  0
129130  1  0
125131  1  0
131132  2  0
131133  1  0
 93134  2  0
 92135  2  0
135136  1  0
136137  2  0
137 90  1  0
136138  1  0
138139  2  0
138140  1  0
141140  1  0
 31141  1  0
 82142  2  0
 70143  2  0
144 69  1  0
145144  1  0
146145  1  0
147146  1  0
 68147  1  0
 41148  2  0
 39149  1  1
149150  1  0
150151  1  0
151152  1  0
152153  1  0
153154  1  0
153155  2  0
 35156  1  6
156157  1  0
157158  1  0
158159  1  0
159160  1  0
160161  2  0
160162  1  0
 30163  2  0
 28164  1  6
164165  1  0
166165  1  0
167166  2  0
168167  1  0
169168  2  0
170169  1  0
165170  2  0
  9171  1  6
171172  1  0
172173  1  0
173174  1  0
174175  1  0
175176  2  0
175177  1  0
  1178  1  0
178179  1  0
178180  2  0
 83181  1  6
 68182  1  1
 31183  1  6
M  END