
  Mrv0541 05211314572D          

 23 24  0  0  0  0            999 V2000
    1.3858   -0.6072    0.0000 C   0  0  0  0  0  0  0  0  0  0  0  0
    0.5608   -0.6064    0.0000 N   0  0  0  0  0  0  0  0  0  0  0  0
   -2.7154    2.0660    0.0000 N   0  0  0  0  0  0  0  0  0  0  0  0
    0.1490    0.1085    0.0000 C   0  0  0  0  0  0  0  0  0  0  0  0
    1.7976   -1.3220    0.0000 C   0  0  0  0  0  0  0  0  0  0  0  0
   -2.1548    1.6261    0.0000 C   0  0  0  0  0  0  0  0  0  0  0  0
   -2.5757    1.2529    0.0000 C   0  0  0  0  0  0  0  0  0  0  0  0
   -1.0878    0.8242    0.0000 C   0  0  0  0  0  0  0  0  0  0  0  0
   -1.2260    1.6416    0.0000 C   0  0  0  0  0  0  0  0  0  0  0  0
   -1.6040    1.2529    0.0000 C   0  0  0  0  0  0  0  0  0  0  0  0
   -0.6760    0.1093    0.0000 N   0  0  0  0  0  0  0  0  0  0  0  0
    2.6226   -1.3229    0.0000 C   0  0  0  0  0  0  0  0  0  0  0  0
    1.7990    0.1069    0.0000 O   0  0  0  0  0  0  0  0  0  0  0  0
    0.5622    0.8226    0.0000 O   0  0  0  0  0  0  0  0  0  0  0  0
   -2.4753    0.9175    0.0000 C   0  0  0  0  0  0  0  0  0  0  0  0
   -3.0956    0.5406    0.0000 C   0  0  0  0  0  0  0  0  0  0  0  0
   -3.1380    2.7746    0.0000 C   0  0  0  0  0  0  0  0  0  0  0  0
    3.0358   -0.6088    0.0000 O   0  0  0  0  0  0  0  0  0  0  0  0
    5.2751    0.0000    0.0000 Cl  0  0  0  0  0  0  0  0  0  0  0  0
    1.3844   -2.0361    0.0000 C   0  0  0  0  0  0  0  0  0  0  0  0
    3.0344   -2.0377    0.0000 C   0  0  0  0  0  0  0  0  0  0  0  0
    1.7962   -2.7510    0.0000 C   0  0  0  0  0  0  0  0  0  0  0  0
    2.6212   -2.7518    0.0000 C   0  0  0  0  0  0  0  0  0  0  0  0
  1  2  1  0  0  0  0
  2  4  1  0  0  0  0
  1  5  1  0  0  0  0
  3  6  1  0  0  0  0
  3  7  1  0  0  0  0
  6  9  1  0  0  0  0
  8  9  1  0  0  0  0
  7 10  1  0  0  0  0
  8 10  1  0  0  0  0
  4 11  1  0  0  0  0
  8 11  1  0  0  0  0
  5 12  2  0  0  0  0
  1 13  2  0  0  0  0
  4 14  2  0  0  0  0
  6 15  1  0  0  0  0
  7 16  1  0  0  0  0
 15 16  1  0  0  0  0
  3 17  1  0  0  0  0
 12 18  1  0  0  0  0
  5 20  1  0  0  0  0
 12 21  1  0  0  0  0
 20 22  2  0  0  0  0
 21 23  2  0  0  0  0
 22 23  1  0  0  0  0
M  END