
          08180812492D 1   1.00000     0.00000     0

 17 15  0     1  0            999 V2000
   -4.2880   -1.0855    0.0000 N   0  0  0  0  0  0           0  0  0
   -3.5773   -0.6738    0.0000 C   0  0  0  0  0  0           0  0  0
   -2.8624   -1.0855    0.0000 N   0  0  0  0  0  0           0  0  0
   -3.5773    0.1497    0.0000 N   0  0  0  0  0  0           0  0  0
   -4.2880    0.5615    0.0000 N   0  0  0  0  0  0           0  0  0
   -2.1517   -0.6738    0.0000 C   0  0  0  0  0  0           0  0  0
   -1.4368   -1.0855    0.0000 C   0  0  0  0  0  0           0  0  0
   -0.7219   -0.6738    0.0000 C   0  0  0  0  0  0           0  0  0
   -0.0112   -1.0855    0.0000 C   0  0  1  0  0  0           0  0  0
    0.7037   -0.6738    0.0000 C   0  0  0  0  0  0           0  0  0
   -0.0112   -1.9090    0.0000 N   0  0  0  0  0  0           0  0  0
    1.4144   -1.0855    0.0000 O   0  0  0  0  0  0           0  0  0
    0.7037    0.1497    0.0000 O   0  0  0  0  0  0           0  0  0
   -1.3767    0.8609    0.0000 C   0  0  0  0  0  0           0  0  0
   -0.6618    1.2727    0.0000 C   0  0  0  0  0  0           0  0  0
    0.0531    0.8609    0.0000 O   0  0  0  0  0  0           0  0  0
   -0.6618    2.0962    0.0000 O   0  0  0  0  0  0           0  0  0
  2  4  2  0     0  0
  8  9  1  0     0  0
  1  2  1  0     0  0
  9 10  1  0     0  0
  4  5  1  0     0  0
  9 11  1  1     0  0
 10 12  1  0     0  0
  3  6  1  0     0  0
 10 13  2  0     0  0
  2  3  1  0     0  0
  6  7  1  0     0  0
 14 15  1  0     0  0
 15 16  1  0     0  0
  7  8  1  0     0  0
 15 17  2  0     0  0
M  END