
          11280715362D 1   1.00000     0.00000     0

 37 40  0     1  0            999 V2000
    3.6625   -4.9417    0.0000 C   0  0  1  0  0  0           0  0  0
    3.7042   -4.1167    0.0000 C   0  0  2  0  0  0           0  0  0
    4.3042   -5.4625    0.0000 N   0  0  3  0  0  0           0  0  0
    2.8667   -5.1542    0.0000 C   0  0  0  0  0  0           0  0  0
    6.6167   -2.4292    0.0000 C   0  0  0  0  0  0           0  0  0
    2.9417   -3.8250    0.0000 C   0  0  2  0  0  0           0  0  0
    5.7917   -2.4417    0.0000 C   0  0  0  0  0  0           0  0  0
    7.9042   -4.5292    0.0000 C   0  0  0  0  0  0           0  0  0
    2.7292   -3.0292    0.0000 O   0  0  0  0  0  0           0  0  0
    7.8542   -3.1417    0.0000 N   0  0  0  0  0  0           0  0  0
    2.4167   -4.4667    0.0000 C   0  0  0  0  0  0           0  0  0
    8.5417   -4.3042    0.0000 O   0  0  0  0  0  0           0  0  0
    7.0167   -1.7167    0.0000 C   0  0  0  0  0  0           0  0  0
    5.3792   -3.1542    0.0000 C   0  0  0  0  0  0           0  0  0
    5.3667   -1.7250    0.0000 C   0  0  0  0  0  0           0  0  0
    5.5792   -3.8375    0.0000 C   0  0  0  0  0  0           0  0  0
    6.2667   -4.0542    0.0000 C   0  0  0  0  0  0           0  0  0
    4.4000   -3.6750    0.0000 O   0  0  0  0  0  0           0  0  0
    3.3167   -2.4417    0.0000 C   0  0  0  0  0  0           0  0  0
    4.1417   -2.4500    0.0000 C   0  0  0  0  0  0           0  0  0
    7.8875   -5.2042    0.0000 O   0  0  0  0  0  0           0  0  0
    4.5417   -1.7292    0.0000 C   0  0  0  0  0  0           0  0  0
    4.5542   -3.1667    0.0000 C   0  0  0  0  0  0           0  0  0
    7.0292   -3.1417    0.0000 C   0  0  0  0  0  0           0  0  0
    5.0417   -5.1167    0.0000 C   0  0  0  0  0  0           0  0  0
    4.1167   -6.2667    0.0000 C   0  0  0  0  0  0           0  0  0
    7.0042   -0.2792    0.0000 O   0  0  0  0  0  0           0  0  0
    5.0167   -4.1167    0.0000 C   0  0  0  0  0  0           0  0  0
    6.6000   -1.0000    0.0000 C   0  0  0  0  0  0           0  0  0
    7.2917   -4.2417    0.0000 C   0  0  0  0  0  0           0  0  0
    8.2667   -2.4167    0.0000 C   0  0  0  0  0  0           0  0  0
    6.6417   -4.5167    0.0000 C   0  0  0  0  0  0           0  0  0
    7.8417   -1.7042    0.0000 C   0  0  0  0  0  0           0  0  0
    4.6250   -6.9167    0.0000 C   0  0  0  0  0  0           0  0  0
    5.7917   -5.4792    0.0000 C   0  0  0  0  0  0           0  0  0
    5.4542   -6.9250    0.0000 C   0  0  0  0  0  0           0  0  0
    5.9667   -6.2792    0.0000 C   0  0  0  0  0  0           0  0  0
  2  1  1  0     0  0
  1  3  1  1     0  0
  4  1  1  0     0  0
  5  7  1  0     0  0
  6  2  1  0     0  0
  7 14  2  0     0  0
  8 30  1  0     0  0
  6  9  1  1     0  0
 10 24  1  0     0  0
 11  4  1  0     0  0
 12  8  2  0     0  0
 13  5  1  0     0  0
 14 23  1  0     0  0
 15 22  2  0     0  0
 16 28  1  0     0  0
 17 16  2  0     0  0
  2 18  1  6     0  0
 19  9  1  0     0  0
 20 19  1  0     0  0
 21  8  1  0     0  0
 22 20  1  0     0  0
 23 20  2  0     0  0
 24  5  2  0     0  0
 25  3  1  0     0  0
 26  3  1  0     0  0
 27 29  1  0     0  0
 28 18  1  0     0  0
 29 13  1  0     0  0
 30 32  1  0     0  0
 31 10  2  0     0  0
 32 17  1  0     0  0
 33 13  2  0     0  0
 34 26  1  0     0  0
 35 25  1  0     0  0
 36 34  1  0     0  0
 37 35  1  0     0  0
 11  6  1  0     0  0
 36 37  1  0     0  0
 15  7  1  0     0  0
 33 31  1  0     0  0
M  END