
  SciTegic11201309402D

 42 45  0  0  0  0            999 V2000
    8.0375  -21.9083    0.0000 N   0  0
    8.7520  -21.4958    0.0000 C   0  0  2  0  0  0
    9.4664  -21.9083    0.0000 C   0  0
   10.1809  -21.4958    0.0000 N   0  0
    9.4664  -22.7333    0.0000 O   0  0
   10.8926  -21.9059    0.0000 C   0  0  1  0  0  0
   11.6049  -21.4970    0.0000 C   0  0
   10.1763  -20.6676    0.0000 C   0  0
   10.8949  -20.2569    0.0000 C   0  0
   11.6052  -20.6733    0.0000 C   0  0
   12.3188  -20.2664    0.0000 C   0  0
   12.3233  -19.4432    0.0000 C   0  0
   11.6083  -19.0287    0.0000 C   0  0
   10.8976  -19.4380    0.0000 C   0  0
   10.8920  -22.7309    0.0000 C   0  0
   10.1772  -23.1429    0.0000 O   0  0
   11.6061  -23.1440    0.0000 N   0  0
   12.3209  -22.7321    0.0000 C   0  0  2  0  0  0
   13.0350  -23.1451    0.0000 C   0  0
   13.7498  -22.7332    0.0000 N   0  0
   13.0344  -23.9701    0.0000 O   0  0
   12.3215  -21.9071    0.0000 C   0  0
   13.0363  -21.4951    0.0000 C   0  0
   13.0370  -20.6701    0.0000 C   0  0
   13.7518  -20.2582    0.0000 C   0  0
   14.4659  -20.6713    0.0000 N   0  0
    8.7520  -20.6708    0.0000 C   0  0
    8.0375  -20.2583    0.0000 C   0  0
    8.0403  -19.4323    0.0000 C   0  0
    7.3266  -19.0198    0.0000 C   0  0
    6.6112  -19.4324    0.0000 C   0  0
    6.6138  -20.2617    0.0000 C   0  0
    7.3281  -20.6703    0.0000 C   0  0
    7.3307  -21.4953    0.0000 C   0  0
    8.7555  -19.0211    0.0000 C   0  0
    5.8962  -19.0208    0.0000 O   0  0
   14.4640  -23.1463    0.0000 C   0  0
   14.4591  -23.9719    0.0000 C   0  0
   15.1724  -24.3849    0.0000 C   0  0
   15.8882  -23.9729    0.0000 C   0  0
   15.8862  -23.1436    0.0000 C   0  0
   15.1723  -22.7344    0.0000 C   0  0
  9 10  2  0
 19 21  2  0
  6  4  1  0
 18 22  1  1
 10 11  1  0
 22 23  1  0
  2  3  1  0
 23 24  1  0
 11 12  2  0
 24 25  1  0
  2  1  1  1
 25 26  1  0
 12 13  1  0
  2 27  1  0
  3  4  1  0
 27 28  1  0
 13 14  2  0
 28 29  2  0
 14  9  1  0
 29 30  1  0
  4  8  1  0
 30 31  2  0
  6 15  1  1
 31 32  1  0
  6  7  1  0
 32 33  2  0
 33 28  1  0
 15 16  2  0
 33 34  1  0
  7 10  1  0
 29 35  1  0
 15 17  1  0
 31 36  1  0
  9  8  1  0
 20 37  1  0
 17 18  1  0
 37 38  2  0
 38 39  1  0
 18 19  1  0
 39 40  2  0
  3  5  2  0
 40 41  1  0
 19 20  1  0
 41 42  2  0
 42 37  1  0
M  END