
          02060813472D 1   1.00000     0.00000     0

 27 29  0     1  0            999 V2000
   -4.2750   -1.8167    0.0000 C   0  0  0  0  0  0           0  0  0
   -4.2750   -2.6417    0.0000 O   0  0  0  0  0  0           0  0  0
   -3.5630   -3.0500    0.0000 C   0  0  0  0  0  0           0  0  0
   -2.8510   -2.6417    0.0000 C   0  0  0  0  0  0           0  0  0
   -2.8510   -1.8167    0.0000 N   0  0  3  0  0  0           0  0  0
   -3.5630   -1.4000    0.0000 C   0  0  0  0  0  0           0  0  0
   -2.1353   -1.4063    0.0000 C   0  0  0  0  0  0           0  0  0
   -1.4220   -1.8209    0.0000 C   0  0  0  0  0  0           0  0  0
   -2.1329   -0.5813    0.0000 O   0  0  0  0  0  0           0  0  0
   -0.7064   -1.4104    0.0000 C   0  0  1  0  0  0           0  0  0
   -0.7125   -0.5833    0.0000 C   0  0  0  0  0  0           0  0  0
   -0.0011   -0.1655    0.0000 C   0  0  3  0  0  0           0  0  0
    0.7157   -0.5784    0.0000 C   0  0  0  0  0  0           0  0  0
    1.4250   -0.1641    0.0000 C   0  0  0  0  0  0           0  0  0
    1.4231    0.6612    0.0000 C   0  0  0  0  0  0           0  0  0
    0.7057    1.0706    0.0000 C   0  0  0  0  0  0           0  0  0
   -0.0098    0.6546    0.0000 C   0  0  0  0  0  0           0  0  0
    0.0090   -1.8213    0.0000 C   0  0  0  0  0  0           0  0  0
    0.0109   -2.6463    0.0000 O   0  0  0  0  0  0           0  0  0
    0.7226   -1.4072    0.0000 N   0  0  0  0  0  0           0  0  0
    1.4355   -1.8165    0.0000 C   0  0  2  0  0  0           0  0  0
    1.8668   -1.1108    0.0000 C   0  0  0  0  0  0           0  0  0
    2.2974   -0.4038    0.0000 N   0  0  0  0  0  0           0  0  0
    1.0978   -2.5664    0.0000 C   0  0  0  0  0  0           0  0  0
    1.8501   -3.0826    0.0000 C   0  0  0  0  0  0           0  0  0
    2.5162   -2.5957    0.0000 N   0  0  0  0  0  0           0  0  0
    2.2588   -1.8119    0.0000 C   0  0  0  0  0  0           0  0  0
  5  7  1  0     0  0
  1  2  1  0     0  0
  7  8  1  0     0  0
 12 17  1  0     0  0
 13 14  1  0     0  0
 14 15  1  0     0  0
 15 16  1  0     0  0
 16 17  1  0     0  0
  1  6  1  0     0  0
 10 18  1  0     0  0
  7  9  2  0     0  0
 18 19  2  0     0  0
  2  3  1  0     0  0
 18 20  1  0     0  0
  8 10  1  0     0  0
 21 20  1  1     0  0
  3  4  1  0     0  0
 21 22  1  0     0  0
 10 11  1  1     0  0
 22 23  3  0     0  0
  4  5  1  0     0  0
 21 24  1  0     0  0
 11 12  1  0     0  0
 12 13  1  0     0  0
  5  6  1  0     0  0
 24 25  1  0     0  0
 25 26  1  0     0  0
 26 27  1  0     0  0
 21 27  1  0     0  0
M  END