
          11280714582D 1   1.00000     0.00000     0

 35 38  0     0  0            999 V2000
    3.8292   -6.2542    0.0000 N   0  0  3  0  0  0           0  0  0
    4.5417   -5.8417    0.0000 C   0  0  0  0  0  0           0  0  0
    3.1167   -5.8417    0.0000 C   0  0  0  0  0  0           0  0  0
    5.9792   -9.9875    0.0000 C   0  0  0  0  0  0           0  0  0
    5.2667   -6.2542    0.0000 C   0  0  0  0  0  0           0  0  0
    4.6667  -10.2667    0.0000 N   0  0  0  0  0  0           0  0  0
    5.2250   -9.6500    0.0000 N   0  0  0  0  0  0           0  0  0
    5.0792  -10.9792    0.0000 N   0  0  0  0  0  0           0  0  0
    5.8917  -10.8125    0.0000 N   0  0  0  0  0  0           0  0  0
    3.8292   -4.5917    0.0000 C   0  0  3  0  0  0           0  0  0
    6.7000   -9.5667    0.0000 C   0  0  0  0  0  0           0  0  0
    4.5417   -5.0167    0.0000 C   0  0  0  0  0  0           0  0  0
    3.1167   -5.0167    0.0000 C   0  0  0  0  0  0           0  0  0
    6.7000   -8.7375    0.0000 C   0  0  0  0  0  0           0  0  0
    5.9792   -5.8417    0.0000 C   0  0  0  0  0  0           0  0  0
    3.8292   -7.0792    0.0000 C   0  0  0  0  0  0           0  0  0
    5.9792   -8.3292    0.0000 C   0  0  0  0  0  0           0  0  0
    2.4000   -6.2542    0.0000 O   0  0  0  0  0  0           0  0  0
    5.9875   -5.0167    0.0000 O   0  0  0  0  0  0           0  0  0
    4.2375   -3.8792    0.0000 C   0  0  3  0  0  0           0  0  0
    5.2625   -8.7417    0.0000 C   0  0  0  0  0  0           0  0  0
    5.9792   -7.4917    0.0000 C   0  0  0  0  0  0           0  0  0
    4.5500   -7.5000    0.0000 C   0  0  0  0  0  0           0  0  0
    6.7042   -6.2542    0.0000 O   0  0  0  0  0  0           0  0  0
    4.5417   -8.3292    0.0000 C   0  0  0  0  0  0           0  0  0
    5.2625   -7.0792    0.0000 C   0  0  0  0  0  0           0  0  0
    3.4042   -3.9042    0.0000 C   0  0  0  0  0  0           0  0  0
    7.4167   -9.9875    0.0000 C   0  0  0  0  0  0           0  0  0
    7.4167   -8.3250    0.0000 C   0  0  0  0  0  0           0  0  0
    3.8000   -3.1750    0.0000 C   0  0  0  0  0  0           0  0  0
    5.0542   -3.8542    0.0000 C   0  0  0  0  0  0           0  0  0
    7.4167   -5.8500    0.0000 C   0  0  0  0  0  0           0  0  0
    8.1292   -8.7292    0.0000 C   0  0  0  0  0  0           0  0  0
    8.1292   -9.5667    0.0000 C   0  0  0  0  0  0           0  0  0
    8.1375   -6.2625    0.0000 C   0  0  0  0  0  0           0  0  0
  2  1  1  0     0  0
  3  1  1  0     0  0
  4 11  1  0     0  0
  5  2  2  0     0  0
  6  7  2  0     0  0
  7  4  1  0     0  0
  8  9  1  0     0  0
  9  4  2  0     0  0
 10 13  1  0     0  0
 11 14  2  0     0  0
 12  2  1  0     0  0
 13  3  1  0     0  0
 14 17  1  0     0  0
 15  5  1  0     0  0
 16  1  1  0     0  0
 17 22  2  0     0  0
 18  3  2  0     0  0
 19 15  2  0     0  0
 20 10  1  0     0  0
 21 25  2  0     0  0
 22 26  1  0     0  0
 23 16  1  0     0  0
 24 15  1  0     0  0
 25 23  1  0     0  0
 26 23  2  0     0  0
 27 10  1  0     0  0
 28 11  1  0     0  0
 29 14  1  0     0  0
 30 20  1  0     0  0
 31 20  1  0     0  0
 32 24  1  0     0  0
 33 29  2  0     0  0
 34 33  1  0     0  0
 35 32  1  0     0  0
 10 12  1  0     0  0
 17 21  1  0     0  0
 34 28  2  0     0  0
  8  6  1  0     0  0
M  END