
          02060813482D 1   1.00000     0.00000     0

 28 30  0     0  0            999 V2000
    4.0111   -5.0666    0.0000 C   0  0  0  0  0  0           0  0  0
    4.0099   -5.8940    0.0000 C   0  0  0  0  0  0           0  0  0
    4.7247   -6.3069    0.0000 C   0  0  0  0  0  0           0  0  0
    5.4412   -5.8935    0.0000 C   0  0  0  0  0  0           0  0  0
    5.4383   -5.0630    0.0000 C   0  0  0  0  0  0           0  0  0
    4.7229   -4.6539    0.0000 C   0  0  0  0  0  0           0  0  0
    6.1512   -4.6478    0.0000 O   0  0  0  0  0  0           0  0  0
    6.1563   -6.3049    0.0000 C   0  0  0  0  0  0           0  0  0
    6.1527   -7.1303    0.0000 C   0  0  0  0  0  0           0  0  0
    6.8670   -7.5416    0.0000 C   0  0  0  0  0  0           0  0  0
    7.5818   -7.1279    0.0000 C   0  0  0  0  0  0           0  0  0
    7.5778   -6.2986    0.0000 C   0  0  0  0  0  0           0  0  0
    6.8630   -5.8910    0.0000 N   0  0  0  0  0  0           0  0  0
    8.2902   -5.8825    0.0000 O   0  0  0  0  0  0           0  0  0
    8.2974   -7.5383    0.0000 C   0  0  0  0  0  0           0  0  0
    9.0083   -7.9500    0.0000 N   0  0  0  0  0  0           0  0  0
    6.8679   -8.3665    0.0000 C   0  0  0  0  0  0           0  0  0
    6.1544   -8.7749    0.0000 C   0  0  0  0  0  0           0  0  0
    6.1550   -9.5991    0.0000 C   0  0  0  0  0  0           0  0  0
    6.8704  -10.0117    0.0000 C   0  0  0  0  0  0           0  0  0
    7.5868   -9.5940    0.0000 C   0  0  0  0  0  0           0  0  0
    7.5827   -8.7711    0.0000 C   0  0  0  0  0  0           0  0  0
    8.2944   -8.3538    0.0000 Cl  0  0  0  0  0  0           0  0  0
    5.4407  -10.0121    0.0000 Cl  0  0  0  0  0  0           0  0  0
    3.2951   -6.3059    0.0000 C   0  0  0  0  0  0           0  0  0
    2.5810   -5.8929    0.0000 C   0  0  3  0  0  0           0  0  0
    1.8662   -6.3048    0.0000 C   0  0  0  0  0  0           0  0  0
    2.5816   -5.0679    0.0000 C   0  0  0  0  0  0           0  0  0
  1  2  2  0     0  0
 12 14  2  0     0  0
  5  7  1  0     0  0
 11 15  1  0     0  0
  3  4  2  0     0  0
 15 16  3  0     0  0
  4  8  1  0     0  0
 10 17  1  0     0  0
 17 18  2  0     0  0
  8  9  2  0     0  0
 18 19  1  0     0  0
  4  5  1  0     0  0
 19 20  2  0     0  0
  9 10  1  0     0  0
 20 21  1  0     0  0
  2  3  1  0     0  0
 21 22  2  0     0  0
 22 17  1  0     0  0
 10 11  2  0     0  0
 22 23  1  0     0  0
  5  6  2  0     0  0
 19 24  1  0     0  0
 11 12  1  0     0  0
  2 25  1  0     0  0
  6  1  1  0     0  0
 25 26  1  0     0  0
 12 13  1  0     0  0
 26 27  1  0     0  0
 13  8  1  0     0  0
 26 28  1  0     0  0
M  END