
  CDK    9/16/09,9:55

 36 39  0  0  0  0  0  0  0  0999 V2000
    6.9653   -8.7235    0.0000 C   0  0  0  0  0  0  0  0  0  0  0  0
    6.9639   -9.5513    0.0000 C   0  0  0  0  0  0  0  0  0  0  0  0
    7.6794   -9.9596    0.0000 C   0  0  0  0  0  0  0  0  0  0  0  0
    7.6773   -8.3106    0.0000 C   0  0  0  0  0  0  0  0  0  0  0  0
    8.3941   -8.7190    0.0000 C   0  0  0  0  0  0  0  0  0  0  0  0
    8.3946   -9.5513    0.0000 C   0  0  0  0  0  0  0  0  0  0  0  0
    9.1868   -9.8059    0.0000 N   0  0  0  0  0  0  0  0  0  0  0  0
    9.6736   -9.1343    0.0000 C   0  0  0  0  0  0  0  0  0  0  0  0
    9.1858   -8.4588    0.0000 N   0  0  0  0  0  0  0  0  0  0  0  0
    9.4325  -10.5883    0.0000 C   0  0  0  0  0  0  0  0  0  0  0  0
    8.8499  -11.1701    0.0000 C   0  0  0  0  0  0  0  0  0  0  0  0
    8.0553  -10.9554    0.0000 C   0  0  0  0  0  0  0  0  0  0  0  0
    7.4686  -11.5361    0.0000 C   0  0  0  0  0  0  0  0  0  0  0  0
    7.6842  -12.3361    0.0000 C   0  0  0  0  0  0  0  0  0  0  0  0
    8.4834  -12.5471    0.0000 C   0  0  0  0  0  0  0  0  0  0  0  0
    9.0619  -11.9645    0.0000 C   0  0  0  0  0  0  0  0  0  0  0  0
    7.0982  -12.9181    0.0000 C   0  0  0  0  0  0  0  0  0  0  0  0
    6.3031  -12.7049    0.0000 C   0  0  0  0  0  0  0  0  0  0  0  0
    5.7172  -13.2866    0.0000 C   0  0  0  0  0  0  0  0  0  0  0  0
    5.9342  -14.0862    0.0000 C   0  0  0  0  0  0  0  0  0  0  0  0
    6.7336  -14.2959    0.0000 C   0  0  0  0  0  0  0  0  0  0  0  0
    7.3159  -13.7126    0.0000 C   0  0  0  0  0  0  0  0  0  0  0  0
    6.0871  -11.9062    0.0000 C   0  0  0  0  0  0  0  0  0  0  0  0
    6.6739  -11.3243    0.0000 O   0  0  0  0  0  0  0  0  0  0  0  0
    5.2930  -11.6939    0.0000 O   0  0  0  0  0  0  0  0  0  0  0  0
    5.5359   -7.8985    0.0000 N   0  0  0  0  0  0  0  0  0  0  0  0
    6.6640   -7.5938    0.0000 O   0  0  0  0  0  0  0  0  0  0  0  0
    5.8442   -9.0267    0.0000 O   0  0  0  0  0  0  0  0  0  0  0  0
    6.2490   -8.3110    0.0000 S   0  0  0  0  0  0  0  0  0  0  0  0
   10.4986   -9.1349    0.0000 C   0  0  0  0  0  0  0  0  0  0  0  0
   10.9105   -9.8498    0.0000 C   0  0  0  0  0  0  0  0  0  0  0  0
   11.7355   -9.8505    0.0000 C   0  0  0  0  0  0  0  0  0  0  0  0
   12.1474  -10.5653    0.0000 C   0  0  0  0  0  0  0  0  0  0  0  0
    4.8211   -8.3105    0.0000 C   0  0  0  0  0  0  0  0  0  0  0  0
    4.1068   -7.8973    0.0000 C   0  0  0  0  0  0  0  0  0  0  0  0
    4.8204   -9.1355    0.0000 C   0  0  0  0  0  0  0  0  0  0  0  0
 18 19  1  0  0  0  0 
  4  1  1  0  0  0  0 
 19 20  2  0  0  0  0 
 20 21  1  0  0  0  0 
  5  6  1  0  0  0  0 
 21 22  2  0  0  0  0 
 22 17  1  0  0  0  0 
 14 17  1  0  0  0  0 
  7 10  1  0  0  0  0 
 18 23  1  0  0  0  0 
 23 24  2  0  0  0  0 
 10 11  1  0  0  0  0 
 23 25  1  0  0  0  0 
  2  3  1  0  0  0  0 
 11 12  2  0  0  0  0 
  3  6  2  0  0  0  0 
 12 13  1  0  0  0  0 
  1  2  2  0  0  0  0 
  1 29  1  0  0  0  0 
 13 14  2  0  0  0  0 
 29 26  1  0  0  0  0 
  5  4  2  0  0  0  0 
 29 27  2  0  0  0  0 
 14 15  1  0  0  0  0 
  6  7  1  0  0  0  0 
 28 29  2  0  0  0  0 
  8 30  1  0  0  0  0 
 15 16  2  0  0  0  0 
 30 31  1  0  0  0  0 
 16 11  1  0  0  0  0 
 31 32  1  0  0  0  0 
  7  8  1  0  0  0  0 
 32 33  1  0  0  0  0 
  8  9  2  0  0  0  0 
 26 34  1  0  0  0  0 
 17 18  2  0  0  0  0 
 34 35  1  0  0  0  0 
  9  5  1  0  0  0  0 
 34 36  1  0  0  0  0 
M  END