
  CDK    9/16/09,9:56

 37 39  0  0  0  0  0  0  0  0999 V2000
   12.8707  -14.9069    0.0000 O   0  0  0  0  0  0  0  0  0  0  0  0
   12.8673  -15.7276    0.0000 C   0  0  0  0  0  0  0  0  0  0  0  0
   12.1335  -16.1013    0.0000 C   0  0  0  0  0  0  0  0  0  0  0  0
   11.4018  -15.7255    0.0000 C   0  0  0  0  0  0  0  0  0  0  0  0
   11.2727  -14.9108    0.0000 O   0  0  0  0  0  0  0  0  0  0  0  0
   10.8182  -16.3079    0.0000 C   0  0  0  0  0  0  0  0  0  0  0  0
   10.0038  -16.1757    0.0000 O   0  0  0  0  0  0  0  0  0  0  0  0
   11.1917  -17.0416    0.0000 C   0  0  0  0  0  0  0  0  0  0  0  0
   12.0014  -16.9156    0.0000 O   0  0  0  0  0  0  0  0  0  0  0  0
   10.8160  -17.7733    0.0000 N   0  0  0  0  0  0  0  0  0  0  0  0
   10.0013  -17.9024    0.0000 C   0  0  0  0  0  0  0  0  0  0  0  0
    9.8691  -18.7167    0.0000 N   0  0  0  0  0  0  0  0  0  0  0  0
   10.6059  -19.0896    0.0000 C   0  0  0  0  0  0  0  0  0  0  0  0
   10.8172  -19.8865    0.0000 C   0  0  0  0  0  0  0  0  0  0  0  0
   10.2336  -20.4689    0.0000 N   0  0  0  0  0  0  0  0  0  0  0  0
   11.6120  -20.1012    0.0000 N   0  0  0  0  0  0  0  0  0  0  0  0
   12.1957  -19.5188    0.0000 C   0  0  0  0  0  0  0  0  0  0  0  0
   11.9834  -18.7258    0.0000 N   0  0  0  0  0  0  0  0  0  0  0  0
   11.1885  -18.5111    0.0000 C   0  0  0  0  0  0  0  0  0  0  0  0
   13.5682  -16.1593    0.0000 N   0  0  0  0  0  0  0  0  0  0  0  0
   17.1150  -14.9112    0.0000 C   0  0  0  0  0  0  0  0  0  0  0  0
   17.8280  -14.4995    0.0000 N   0  0  0  0  0  0  0  0  0  0  0  0
   16.3979  -14.4995    0.0000 C   0  0  0  0  0  0  0  0  0  0  0  0
   17.1150  -15.7386    0.0000 O   0  0  0  0  0  0  0  0  0  0  0  0
   18.5452  -14.9112    0.0000 C   0  0  0  0  0  0  0  0  0  0  0  0
   19.2623  -14.4995    0.0000 C   0  0  0  0  0  0  0  0  0  0  0  0
   18.5452  -15.7386    0.0000 C   0  0  0  0  0  0  0  0  0  0  0  0
   19.9795  -14.9112    0.0000 N   0  0  0  0  0  0  0  0  0  0  0  0
   19.2623  -13.6720    0.0000 O   0  0  0  0  0  0  0  0  0  0  0  0
   19.2623  -16.1545    0.0000 C   0  0  0  0  0  0  0  0  0  0  0  0
   19.2623  -16.9820    0.0000 C   0  0  0  0  0  0  0  0  0  0  0  0
   19.9795  -17.3936    0.0000 C   0  0  0  0  0  0  0  0  0  0  0  0
   15.6806  -14.9112    0.0000 C   0  0  0  0  0  0  0  0  0  0  0  0
   14.9635  -14.4995    0.0000 C   0  0  0  0  0  0  0  0  0  0  0  0
   14.2492  -14.9045    0.0000 C   0  0  0  0  0  0  0  0  0  0  0  0
   14.2702  -15.7311    0.0000 C   0  0  0  0  0  0  0  0  0  0  0  0
   19.9816  -18.2169    0.0000 N   0  0  0  0  0  0  0  0  0  0  0  0
 17 18  2  0  0  0  0 
 18 19  1  0  0  0  0 
 13 19  2  0  0  0  0 
 10 19  1  0  0  0  0 
  2 20  1  0  0  0  0 
  1  2  2  0  0  0  0 
  3  2  1  1  0  0  0 
 21 22  1  0  0  0  0 
  3  4  1  0  0  0  0 
 21 23  1  0  0  0  0 
  4  5  1  6  0  0  0 
 21 24  2  0  0  0  0 
  4  6  1  0  0  0  0 
 22 25  1  0  0  0  0 
  6  7  1  6  0  0  0 
 25 26  1  0  0  0  0 
  6  8  1  0  0  0  0 
 25 27  1  1  0  0  0 
  8  9  1  0  0  0  0 
 26 28  1  0  0  0  0 
  3  9  1  0  0  0  0 
 26 29  2  0  0  0  0 
  8 10  1  1  0  0  0 
 27 30  1  0  0  0  0 
 10 11  1  0  0  0  0 
 30 31  1  0  0  0  0 
 11 12  2  0  0  0  0 
 31 32  1  0  0  0  0 
 12 13  1  0  0  0  0 
 23 33  1  0  0  0  0 
 13 14  1  0  0  0  0 
 33 34  1  0  0  0  0 
 14 15  1  0  0  0  0 
 34 35  1  0  0  0  0 
 14 16  2  0  0  0  0 
 35 36  1  0  0  0  0 
 36 20  1  0  0  0  0 
 16 17  1  0  0  0  0 
 32 37  1  0  0  0  0 
M  END