
          11280715452D 1   1.00000     0.00000     0

 26 29  0     0  0            999 V2000
   -0.1583    0.6208    0.0000 N   0  0  3  0  0  0           0  0  0
    0.5125    0.1333    0.0000 C   0  0  0  0  0  0           0  0  0
    0.2542   -0.6542    0.0000 C   0  0  3  0  0  0           0  0  0
   -0.8208    0.1333    0.0000 C   0  0  0  0  0  0           0  0  0
   -0.5708   -0.6542    0.0000 C   0  0  0  0  0  0           0  0  0
   -0.1583    1.4458    0.0000 C   0  0  0  0  0  0           0  0  0
    0.5625    1.8708    0.0000 C   0  0  0  0  0  0           0  0  0
   -0.8708    1.8583    0.0000 C   0  0  0  0  0  0           0  0  0
    1.0500   -0.8667    0.0000 C   0  0  0  0  0  0           0  0  0
    1.3000    0.3958    0.0000 O   0  0  0  0  0  0           0  0  0
    0.5625    2.6833    0.0000 C   0  0  0  0  0  0           0  0  0
   -0.8708    2.6833    0.0000 C   0  0  0  0  0  0           0  0  0
   -0.1583    3.0958    0.0000 C   0  0  0  0  0  0           0  0  0
    0.2500   -1.4792    0.0000 C   0  0  0  0  0  0           0  0  0
    1.2792    3.0958    0.0000 Cl  0  0  0  0  0  0           0  0  0
   -1.5875    3.0958    0.0000 Cl  0  0  0  0  0  0           0  0  0
   -1.6333    0.3083    0.0000 C   0  0  0  0  0  0           0  0  0
    1.0417   -1.6917    0.0000 C   0  0  0  0  0  0           0  0  0
   -1.1208   -1.2542    0.0000 C   0  0  0  0  0  0           0  0  0
    1.7542   -2.0917    0.0000 C   0  0  0  0  0  0           0  0  0
    0.3250   -2.0917    0.0000 C   0  0  0  0  0  0           0  0  0
   -2.1833   -0.3042    0.0000 C   0  0  0  0  0  0           0  0  0
   -1.9208   -1.0917    0.0000 C   0  0  0  0  0  0           0  0  0
    1.7542   -2.9167    0.0000 C   0  0  0  0  0  0           0  0  0
    0.3167   -2.9167    0.0000 C   0  0  0  0  0  0           0  0  0
    1.0292   -3.3292    0.0000 C   0  0  0  0  0  0           0  0  0
  2  1  1  0     0  0
  3  2  1  0     0  0
  4  1  1  0     0  0
  5  4  2  0     0  0
  6  1  1  0     0  0
  7  6  2  0     0  0
  8  6  1  0     0  0
  9  3  1  0     0  0
 10  2  2  0     0  0
 11  7  1  0     0  0
 12  8  2  0     0  0
 13 12  1  0     0  0
 14  3  1  0     0  0
 15 11  1  0     0  0
 16 12  1  0     0  0
 17  4  1  0     0  0
 18  9  1  0     0  0
 19  5  1  0     0  0
 20 18  1  0     0  0
 21 18  2  0     0  0
 22 17  2  0     0  0
 23 22  1  0     0  0
 24 20  2  0     0  0
 25 21  1  0     0  0
 26 25  2  0     0  0
  5  3  1  0     0  0
 11 13  2  0     0  0
 19 23  2  0     0  0
 24 26  1  0     0  0
M  END