
  SciTegic01161211252D

 43 48  0  0  0  0            999 V2000
   15.2601  -19.5121    0.0000 N   0  0
   16.6823  -20.3471    0.0000 C   0  0
   16.6865  -19.5193    0.0000 C   0  0  1  0  0  0
   15.9753  -19.0995    0.0000 C   0  0
   13.8825  -17.8174    0.0000 C   0  0
   14.5872  -18.2517    0.0000 C   0  0
   14.5635  -19.0792    0.0000 C   0  0
   17.4216  -19.1614    0.0000 C   0  0
   18.1222  -19.5958    0.0000 N   0  0
   17.4411  -18.3340    0.0000 O   0  0
   18.0941  -20.4195    0.0000 C   0  0
   18.7905  -20.8535    0.0000 C   0  0
   19.5213  -20.4639    0.0000 N   0  0
   19.5471  -19.6356    0.0000 C   0  0
   18.8420  -19.1968    0.0000 C   0  0
   20.2173  -20.9000    0.0000 C   0  0
   20.1890  -21.7285    0.0000 C   0  0
   20.8913  -22.1653    0.0000 C   0  0
   21.6180  -21.7749    0.0000 C   0  0
   21.6424  -20.9431    0.0000 C   0  0
   20.9436  -20.5100    0.0000 C   0  0
   22.3229  -22.2128    0.0000 N   0  3
   23.0482  -21.8215    0.0000 O   0  0
   22.2971  -23.0403    0.0000 O   0  5
   15.3115  -17.8586    0.0000 C   0  0
   13.1582  -18.2107    0.0000 C   0  0
   12.4570  -17.7741    0.0000 C   0  0
   12.4146  -19.4292    0.0000 C   0  0
   13.1396  -19.0343    0.0000 C   0  0
   11.7090  -18.9949    0.0000 C   0  0
   11.7323  -18.1685    0.0000 C   0  0
   10.9535  -17.8908    0.0000 O   0  0
   10.4529  -18.5458    0.0000 C   0  0
   10.9157  -19.2280    0.0000 O   0  0
   15.9668  -20.7551    0.0000 C   0  0  1  0  0  0
   15.2560  -20.3399    0.0000 C   0  0  2  0  0  0
   14.5491  -20.7457    0.0000 C   0  0
   14.5427  -21.5683    0.0000 C   0  0
   15.2494  -21.9836    0.0000 C   0  0
   15.9666  -21.5761    0.0000 C   0  0
   14.5411  -19.9260    0.0000 H   0  0
   16.6774  -21.1677    0.0000 H   0  0
   16.6817  -18.6885    0.0000 H   0  0
 20 21  2  0
 21 16  1  0
 13 16  1  0
  8 10  2  0
  9 11  1  0
 22 23  2  0
 22 24  1  0
 19 22  1  0
  1 36  1  0
  6 25  1  0
  5  6  1  0
  5 26  1  0
  1  4  1  0
 26 27  2  0
 27 31  1  0
  6  7  1  0
 30 28  1  0
  9 15  1  0
 28 29  2  0
 29 26  1  0
 30 31  2  0
 11 12  1  0
 12 13  1  0
 13 14  1  0
 14 15  1  0
  7  1  1  0
 31 32  1  0
 32 33  1  0
 33 34  1  0
 34 30  1  0
 35 36  1  0
 35  2  1  0
 16 17  2  0
  3  8  1  0
 17 18  1  0
  2  3  1  0
 18 19  2  0
 35 40  1  0
 36 37  1  0
 37 38  1  0
 38 39  1  0
 39 40  1  0
  8  9  1  0
 36 41  1  1
 19 20  1  0
 35 42  1  1
  3  4  1  0
  3 43  1  6
M  CHG  2  22   1  24  -1
M  END