
  Mrv0541 04051115152D          

 49 53  0  0  0  0            999 V2000
   -4.4696   -1.4645    0.0000 C   0  0  0  0  0  0  0  0  0  0  0  0
   -3.5709   -1.2715    0.0000 C   0  0  0  0  0  0  0  0  0  0  0  0
   -2.5103   -1.2715    0.0000 C   0  0  0  0  0  0  0  0  0  0  0  0
   -3.7551   -0.2270    0.0000 C   0  0  2  0  0  0  0  0  0  0  0  0
   -3.7551    0.5980    0.0000 C   0  0  2  0  0  0  0  0  0  0  0  0
   -3.0406    1.0105    0.0000 C   0  0  2  0  0  0  0  0  0  0  0  0
   -2.3262    0.5980    0.0000 C   0  0  1  0  0  0  0  0  0  0  0  0
   -3.0406   -0.6395    0.0000 C   0  0  0  0  0  0  0  0  0  0  0  0
   -0.1827    1.8355    0.0000 Cl  0  0  0  0  0  0  0  0  0  0  0  0
   -0.8972    0.5980    0.0000 C   0  0  0  0  0  0  0  0  0  0  0  0
   -0.1827    1.0105    0.0000 C   0  0  0  0  0  0  0  0  0  0  0  0
    0.5317    0.5980    0.0000 C   0  0  0  0  0  0  0  0  0  0  0  0
    1.9607    0.5980    0.0000 C   0  0  0  0  0  0  0  0  0  0  0  0
    1.9607   -0.2270    0.0000 C   0  0  0  0  0  0  0  0  0  0  0  0
    1.2462   -0.6395    0.0000 C   0  0  0  0  0  0  0  0  0  0  0  0
    0.5317   -0.2270    0.0000 C   0  0  0  0  0  0  0  0  0  0  0  0
   -0.1827   -0.6395    0.0000 C   0  0  0  0  0  0  0  0  0  0  0  0
   -0.8972   -0.2270    0.0000 C   0  0  0  0  0  0  0  0  0  0  0  0
    3.3896   -0.2270    0.0000 C   0  0  0  0  0  0  0  0  0  0  0  0
    4.1041   -0.6395    0.0000 C   0  0  0  0  0  0  0  0  0  0  0  0
    4.8185   -0.2270    0.0000 C   0  0  0  0  0  0  0  0  0  0  0  0
    5.5330   -0.6395    0.0000 C   0  0  0  0  0  0  0  0  0  0  0  0
    5.5330   -1.4645    0.0000 C   0  0  0  0  0  0  0  0  0  0  0  0
    4.8185   -1.8770    0.0000 C   0  0  0  0  0  0  0  0  0  0  0  0
    4.1041   -1.4645    0.0000 C   0  0  0  0  0  0  0  0  0  0  0  0
    6.2475   -0.2270    0.0000 C   0  0  0  0  0  0  0  0  0  0  0  0
    6.9620   -0.6395    0.0000 C   0  0  0  0  0  0  0  0  0  0  0  0
    7.6764   -0.2270    0.0000 C   0  0  0  0  0  0  0  0  0  0  0  0
    8.3909   -0.6395    0.0000 C   0  0  0  0  0  0  0  0  0  0  0  0
    7.6764    0.5980    0.0000 C   0  0  0  0  0  0  0  0  0  0  0  0
    2.6751   -0.6395    0.0000 N   0  0  0  0  0  0  0  0  0  0  0  0
   -4.4696   -0.6395    0.0000 O   0  0  0  0  0  0  0  0  0  0  0  0
   -4.4696    1.0105    0.0000 O   0  0  0  0  0  0  0  0  0  0  0  0
   -2.3262   -0.2270    0.0000 O   0  0  0  0  0  0  0  0  0  0  0  0
   -1.6117    1.0105    0.0000 O   0  0  0  0  0  0  0  0  0  0  0  0
    1.2462   -1.4645    0.0000 O   0  0  0  0  0  0  0  0  0  0  0  0
    1.2462    1.0105    0.0000 O   0  0  0  0  0  0  0  0  0  0  0  0
    2.6751    1.0105    0.0000 O   0  0  0  0  0  0  0  0  0  0  0  0
    3.3896    0.5980    0.0000 O   0  0  0  0  0  0  0  0  0  0  0  0
    6.2475   -1.8770    0.0000 O   0  0  0  0  0  0  0  0  0  0  0  0
   -6.7917    2.0025    0.0000 C   0  0  0  0  0  0  0  0  0  0  0  0
   -5.9848    1.8310    0.0000 C   0  0  0  0  0  0  0  0  0  0  0  0
   -5.8985    1.0105    0.0000 C   0  0  0  0  0  0  0  0  0  0  0  0
   -6.6522    0.6749    0.0000 N   0  0  0  0  0  0  0  0  0  0  0  0
   -7.2042    1.2880    0.0000 C   0  0  0  0  0  0  0  0  0  0  0  0
   -8.0247    1.2018    0.0000 C   0  0  0  0  0  0  0  0  0  0  0  0
   -5.1840    0.5980    0.0000 C   0  0  0  0  0  0  0  0  0  0  0  0
   -5.1840   -0.2270    0.0000 O   0  0  0  0  0  0  0  0  0  0  0  0
   -3.0406    1.8355    0.0000 O   0  0  0  0  0  0  0  0  0  0  0  0
  1 32  1  0  0  0  0
  8  2  1  0  0  0  0
  3  8  1  0  0  0  0
  4  5  1  0  0  0  0
  4  8  1  0  0  0  0
  4 32  1  6  0  0  0
  5  6  1  0  0  0  0
  5 33  1  1  0  0  0
  6  7  1  0  0  0  0
  6 49  1  1  0  0  0
  7 34  1  0  0  0  0
  7 35  1  6  0  0  0
  8 34  1  0  0  0  0
 11  9  1  0  0  0  0
 10 11  2  0  0  0  0
 10 18  1  0  0  0  0
 10 35  1  0  0  0  0
 11 12  1  0  0  0  0
 16 12  2  0  0  0  0
 12 37  1  0  0  0  0
 13 14  1  0  0  0  0
 13 37  1  0  0  0  0
 13 38  2  0  0  0  0
 14 15  2  0  0  0  0
 14 31  1  0  0  0  0
 16 15  1  0  0  0  0
 15 36  1  0  0  0  0
 16 17  1  0  0  0  0
 17 18  2  0  0  0  0
 19 20  1  0  0  0  0
 19 31  1  0  0  0  0
 19 39  2  0  0  0  0
 20 21  2  0  0  0  0
 20 25  1  0  0  0  0
 21 22  1  0  0  0  0
 22 23  2  0  0  0  0
 22 26  1  0  0  0  0
 23 24  1  0  0  0  0
 23 40  1  0  0  0  0
 24 25  2  0  0  0  0
 26 27  1  0  0  0  0
 27 28  2  0  0  0  0
 28 29  1  0  0  0  0
 28 30  1  0  0  0  0
 47 33  1  0  0  0  0
 41 42  1  0  0  0  0
 41 45  2  0  0  0  0
 42 43  2  0  0  0  0
 43 44  1  0  0  0  0
 47 43  1  0  0  0  0
 45 44  1  0  0  0  0
 45 46  1  0  0  0  0
 47 48  2  0  0  0  0
M  END