
  CDK    9/16/09,10:0

 20 21  0  0  0  0  0  0  0  0999 V2000
    8.8118  -26.2474    0.0000 C   0  0  0  0  0  0  0  0  0  0  0  0
    8.8104  -27.0749    0.0000 C   0  0  0  0  0  0  0  0  0  0  0  0
    9.5234  -27.4878    0.0000 C   0  0  0  0  0  0  0  0  0  0  0  0
   10.2427  -27.0745    0.0000 C   0  0  0  0  0  0  0  0  0  0  0  0
   10.2395  -26.2433    0.0000 C   0  0  0  0  0  0  0  0  0  0  0  0
    9.5214  -25.8346    0.0000 C   0  0  0  0  0  0  0  0  0  0  0  0
   10.9519  -25.8273    0.0000 C   0  0  0  0  0  0  0  0  0  0  0  0
   11.6684  -26.2363    0.0000 C   0  0  0  0  0  0  0  0  0  0  0  0
   11.7613  -27.0561    0.0000 C   0  0  0  0  0  0  0  0  0  0  0  0
   12.5691  -27.2236    0.0000 N   0  0  0  0  0  0  0  0  0  0  0  0
   12.9780  -26.5071    0.0000 C   0  0  0  0  0  0  0  0  0  0  0  0
   12.4230  -25.8970    0.0000 N   0  0  0  0  0  0  0  0  0  0  0  0
    8.0955  -27.4864    0.0000 Cl  0  0  0  0  0  0  0  0  0  0  0  0
   12.5908  -25.0893    0.0000 C   0  0  0  0  0  0  0  0  0  0  0  0
   13.8025  -26.5210    0.0000 S   0  0  0  0  0  0  0  0  0  0  0  0
   14.2034  -27.2420    0.0000 C   0  0  0  0  0  0  0  0  0  0  0  0
   15.0282  -27.2554    0.0000 C   0  0  0  0  0  0  0  0  0  0  0  0
   15.4290  -27.9764    0.0000 N   0  0  0  0  0  0  0  0  0  0  0  0
   15.0050  -28.6840    0.0000 C   0  0  0  0  0  0  0  0  0  0  0  0
   16.2539  -27.9898    0.0000 C   0  0  0  0  0  0  0  0  0  0  0  0
  2  3  1  0  0  0  0 
  5  6  2  0  0  0  0 
  9 10  1  0  0  0  0 
 10 11  2  0  0  0  0 
 11 12  1  0  0  0  0 
 12  8  1  0  0  0  0 
  6  1  1  0  0  0  0 
  2 13  1  0  0  0  0 
  1  2  2  0  0  0  0 
 12 14  1  0  0  0  0 
  5  7  1  0  0  0  0 
 11 15  1  0  0  0  0 
  3  4  2  0  0  0  0 
 15 16  1  0  0  0  0 
  7  8  1  0  0  0  0 
 16 17  1  0  0  0  0 
  8  9  2  0  0  0  0 
 17 18  1  0  0  0  0 
 18 19  1  0  0  0  0 
  4  5  1  0  0  0  0 
 18 20  1  0  0  0  0 
M  END