
          11280714512D 1   1.00000     0.00000     0

 14 15  0     0  0            999 V2000
    5.7292   -2.7125    0.0000 C   0  0  0  0  0  0           0  0  0
    5.7292   -3.5292    0.0000 C   0  0  0  0  0  0           0  0  0
    6.4417   -2.3000    0.0000 N   0  0  0  0  0  0           0  0  0
    7.1625   -3.5292    0.0000 N   0  0  0  0  0  0           0  0  0
    5.0167   -3.9500    0.0000 N   0  0  0  0  0  0           0  0  0
    6.4417   -3.9500    0.0000 C   0  0  0  0  0  0           0  0  0
    7.1625   -2.7125    0.0000 C   0  0  0  0  0  0           0  0  0
    5.0167   -2.3000    0.0000 N   0  0  0  0  0  0           0  0  0
    4.3042   -3.5292    0.0000 C   0  0  0  0  0  0           0  0  0
    4.3042   -2.7125    0.0000 C   0  0  0  0  0  0           0  0  0
    6.4417   -4.7750    0.0000 N   0  0  0  0  0  0           0  0  0
    7.8792   -2.3000    0.0000 N   0  0  0  0  0  0           0  0  0
    3.5875   -3.9542    0.0000 C   0  0  0  0  0  0           0  0  0
    3.5792   -2.3000    0.0000 C   0  0  0  0  0  0           0  0  0
  2  1  2  0     0  0
  3  1  1  0     0  0
  4  7  1  0     0  0
  5  2  1  0     0  0
  6  2  1  0     0  0
  7  3  2  0     0  0
  8  1  1  0     0  0
  9 10  1  0     0  0
 10  8  2  0     0  0
 11  6  1  0     0  0
 12  7  1  0     0  0
 13  9  1  0     0  0
 14 10  1  0     0  0
  6  4  2  0     0  0
  9  5  2  0     0  0
M  END