
  CDK    9/16/09,9:41

 86 86  0  0  0  0  0  0  0  0999 V2000
   -4.3319   -5.9694    0.0000 N   0  0  0  0  0  0  0  0  0  0  0  0
   -3.6233   -6.3810    0.0000 C   0  0  0  0  0  0  0  0  0  0  0  0
   -2.9050   -5.1473    0.0000 O   0  0  0  0  0  0  0  0  0  0  0  0
   -2.9055   -5.9721    0.0000 C   0  0  0  0  0  0  0  0  0  0  0  0
   -3.6265   -7.2091    0.0000 C   0  0  0  0  0  0  0  0  0  0  0  0
   -2.9064   -7.6274    0.0000 C   0  0  0  0  0  0  0  0  0  0  0  0
   -2.9099   -8.4481    0.0000 C   0  0  0  0  0  0  0  0  0  0  0  0
   -2.1876   -8.8677    0.0000 C   0  0  0  0  0  0  0  0  0  0  0  0
   -2.1922   -6.3865    0.0000 N   0  0  0  0  0  0  0  0  0  0  0  0
   -1.4759   -5.9719    0.0000 C   0  0  0  0  0  0  0  0  0  0  0  0
   -0.7698   -7.2011    0.0000 O   0  0  0  0  0  0  0  0  0  0  0  0
   -0.7674   -6.3835    0.0000 C   0  0  0  0  0  0  0  0  0  0  0  0
   -1.4727   -5.1438    0.0000 C   0  0  0  0  0  0  0  0  0  0  0  0
   -0.0460   -5.9706    0.0000 N   0  0  0  0  0  0  0  0  0  0  0  0
    0.6618   -6.3817    0.0000 C   0  0  0  0  0  0  0  0  0  0  0  0
    1.3858   -5.1349    0.0000 O   0  0  0  0  0  0  0  0  0  0  0  0
    1.3814   -5.9662    0.0000 C   0  0  0  0  0  0  0  0  0  0  0  0
    0.6880   -7.2011    0.0000 C   0  0  0  0  0  0  0  0  0  0  0  0
   -0.0502   -7.6076    0.0000 C   0  0  0  0  0  0  0  0  0  0  0  0
    2.8099   -5.9813    0.0000 C   0  0  0  0  0  0  0  0  0  0  0  0
    3.5124   -7.2113    0.0000 O   0  0  0  0  0  0  0  0  0  0  0  0
    3.5174   -6.3923    0.0000 C   0  0  0  0  0  0  0  0  0  0  0  0
    4.9434   -6.3889    0.0000 C   0  0  0  0  0  0  0  0  0  0  0  0
    5.6658   -5.1452    0.0000 O   0  0  0  0  0  0  0  0  0  0  0  0
    5.6650   -5.9788    0.0000 C   0  0  0  0  0  0  0  0  0  0  0  0
    6.3689   -6.3877    0.0000 N   0  0  0  0  0  0  0  0  0  0  0  0
    7.0926   -5.9740    0.0000 C   0  0  0  0  0  0  0  0  0  0  0  0
    7.7972   -7.2003    0.0000 O   0  0  0  0  0  0  0  0  0  0  0  0
    7.8000   -6.3850    0.0000 C   0  0  0  0  0  0  0  0  0  0  0  0
    7.0934   -5.1404    0.0000 C   0  0  0  0  0  0  0  0  0  0  0  0
    6.3741   -4.7226    0.0000 C   0  0  0  0  0  0  0  0  0  0  0  0
    6.3791   -3.9038    0.0000 C   0  0  0  0  0  0  0  0  0  0  0  0
    5.6598   -3.4860    0.0000 C   0  0  0  0  0  0  0  0  0  0  0  0
    9.2278   -6.3869    0.0000 C   0  0  0  0  0  0  0  0  0  0  0  0
    9.9523   -5.1396    0.0000 O   0  0  0  0  0  0  0  0  0  0  0  0
    9.2285   -7.2043    0.0000 C   0  0  0  0  0  0  0  0  0  0  0  0
    9.9515   -5.9732    0.0000 C   0  0  0  0  0  0  0  0  0  0  0  0
   10.6589   -6.3842    0.0000 N   0  0  0  0  0  0  0  0  0  0  0  0
   11.4207   -6.1065    0.0000 C   0  0  0  0  0  0  0  0  0  0  0  0
   10.7553   -4.8661    0.0000 O   0  0  0  0  0  0  0  0  0  0  0  0
   11.4668   -5.2818    0.0000 C   0  0  0  0  0  0  0  0  0  0  0  0
   12.1075   -6.5703    0.0000 C   0  0  0  0  0  0  0  0  0  0  0  0
   10.8265   -7.2605    0.0000 C   0  0  0  0  0  0  0  0  0  0  0  0
   11.7182   -7.3817    0.0000 C   0  0  0  0  0  0  0  0  0  0  0  0
   10.0424   -1.1560    0.0000 C   0  0  0  0  0  0  0  0  0  0  0  0
   12.1820   -4.0401    0.0000 C   0  0  0  0  0  0  0  0  0  0  0  0
   13.6110   -4.0445    0.0000 O   0  0  0  0  0  0  0  0  0  0  0  0
   12.8977   -3.6326    0.0000 C   0  0  0  0  0  0  0  0  0  0  0  0
   11.4706   -3.6244    0.0000 C   0  0  0  0  0  0  0  0  0  0  0  0
   11.4748   -2.8012    0.0000 C   0  0  0  0  0  0  0  0  0  0  0  0
   10.7596   -2.3836    0.0000 C   0  0  0  0  0  0  0  0  0  0  0  0
   13.6241   -2.4104    0.0000 C   0  0  0  0  0  0  0  0  0  0  0  0
   12.9131   -1.1696    0.0000 O   0  0  0  0  0  0  0  0  0  0  0  0
   13.6302   -1.5834    0.0000 C   0  0  0  0  0  0  0  0  0  0  0  0
   14.3356   -2.8261    0.0000 C   0  0  0  0  0  0  0  0  0  0  0  0
   15.0531   -2.4149    0.0000 C   0  0  0  0  0  0  0  0  0  0  0  0
   15.7645   -2.8306    0.0000 C   0  0  0  0  0  0  0  0  0  0  0  0
   16.4802   -2.4230    0.0000 C   0  0  0  0  0  0  0  0  0  0  0  0
   14.3525   -0.3420    0.0000 C   0  0  0  0  0  0  0  0  0  0  0  0
   15.0742    0.8926    0.0000 O   0  0  0  0  0  0  0  0  0  0  0  0
   15.0700    0.0693    0.0000 C   0  0  0  0  0  0  0  0  0  0  0  0
   13.6410    0.0737    0.0000 C   0  0  0  0  0  0  0  0  0  0  0  0
   13.6453    0.8970    0.0000 C   0  0  0  0  0  0  0  0  0  0  0  0
   12.9301    1.3145    0.0000 C   0  0  0  0  0  0  0  0  0  0  0  0
   12.9361    2.1415    0.0000 O   0  0  0  0  0  0  0  0  0  0  0  0
   10.7025   -5.6901    0.0000 H   0  0  0  0  0  0  0  0  0  0  0  0
    6.3708   -2.2479    0.0000 C   0  0  0  0  0  0  0  0  0  0  0  0
    6.3700   -1.4229    0.0000 O   0  0  0  0  0  0  0  0  0  0  0  0
    7.0856   -2.6597    0.0000 C   0  0  0  0  0  0  0  0  0  0  0  0
    7.7997   -2.2466    0.0000 C   0  0  0  0  0  0  0  0  0  0  0  0
   -2.1944   -9.6779    0.0000 N   0  0  0  0  0  0  0  0  0  0  0  0
   -0.7755   -4.7379    0.0000 O   0  0  0  0  0  0  0  0  0  0  0  0
    1.4046   -7.6202    0.0000 O   0  0  0  0  0  0  0  0  0  0  0  0
    2.0913   -6.3865    0.0000 N   0  0  0  0  0  0  0  0  0  0  0  0
    4.2294   -5.9756    0.0000 N   0  0  0  0  0  0  0  0  0  0  0  0
    5.6567   -2.6610    0.0000 N   0  0  0  0  0  0  0  0  0  0  0  0
    8.5144   -5.9725    0.0000 N   0  0  0  0  0  0  0  0  0  0  0  0
   10.7625   -1.5586    0.0000 N   0  0  0  0  0  0  0  0  0  0  0  0
    9.3183   -1.5491    0.0000 N   0  0  0  0  0  0  0  0  0  0  0  0
   10.0363   -0.3127    0.0000 N   0  0  0  0  0  0  0  0  0  0  0  0
   12.1788   -4.8651    0.0000 N   0  0  0  0  0  0  0  0  0  0  0  0
   12.9010   -2.8076    0.0000 N   0  0  0  0  0  0  0  0  0  0  0  0
   17.1890   -2.8334    0.0000 N   0  0  0  0  0  0  0  0  0  0  0  0
   14.3424   -1.1670    0.0000 N   0  0  0  0  0  0  0  0  0  0  0  0
   12.2144    0.9070    0.0000 N   0  0  0  0  0  0  0  0  0  0  0  0
   15.7815   -0.3464    0.0000 O   0  0  0  0  0  0  0  0  0  0  0  0
 10 12  1  0  0  0  0 
 12 11  2  0  0  0  0 
 10 13  1  0  0  0  0 
 15 14  1  6  0  0  0 
 15 17  1  0  0  0  0 
 17 16  2  0  0  0  0 
 15 18  1  0  0  0  0 
 18 19  1  0  0  0  0 
 20 22  1  0  0  0  0 
 22 21  2  0  0  0  0 
 23 25  1  0  0  0  0 
 25 24  2  0  0  0  0 
 27 26  1  1  0  0  0 
 27 29  1  0  0  0  0 
 29 28  2  0  0  0  0 
 27 30  1  0  0  0  0 
 30 31  1  0  0  0  0 
 31 32  1  0  0  0  0 
 32 33  1  0  0  0  0 
 34 37  1  0  0  0  0 
 37 35  2  0  0  0  0 
 34 36  1  6  0  0  0 
 38 39  1  0  0  0  0 
 39 41  1  0  0  0  0 
 41 40  2  0  0  0  0 
 39 42  1  0  0  0  0 
 43 44  1  0  0  0  0 
 44 42  1  0  0  0  0 
 43 38  1  0  0  0  0 
 46 48  1  0  0  0  0 
 48 47  2  0  0  0  0 
 46 49  1  1  0  0  0 
 49 50  1  0  0  0  0 
 50 51  1  0  0  0  0 
 52 54  1  0  0  0  0 
 54 53  2  0  0  0  0 
 52 55  1  6  0  0  0 
 55 56  1  0  0  0  0 
 56 57  1  0  0  0  0 
 57 58  1  0  0  0  0 
 59 61  1  0  0  0  0 
 61 60  2  0  0  0  0 
 59 62  1  1  0  0  0 
 62 63  1  0  0  0  0 
 63 64  1  0  0  0  0 
 64 65  2  0  0  0  0 
 39 66  1  1  0  0  0 
  4  9  1  0  0  0  0 
 12 14  1  0  0  0  0 
 67 68  2  0  0  0  0 
 67 69  1  0  0  0  0 
 69 70  1  0  0  0  0 
 25 26  1  0  0  0  0 
 37 38  1  0  0  0  0 
  2  1  1  6  0  0  0 
  2  4  1  0  0  0  0 
  4  3  2  0  0  0  0 
  2  5  1  0  0  0  0 
  5  6  1  0  0  0  0 
  6  7  1  0  0  0  0 
  7  8  1  0  0  0  0 
 10  9  1  1  0  0  0 
 78 45  1  0  0  0  0 
 51 78  1  0  0  0  0 
 74 20  1  0  0  0  0 
 17 74  1  0  0  0  0 
 45 79  1  0  0  0  0 
 13 72  1  0  0  0  0 
 45 80  2  0  0  0  0 
 75 23  1  0  0  0  0 
 22 75  1  0  0  0  0 
 81 46  1  0  0  0  0 
 41 81  1  0  0  0  0 
  8 71  1  0  0  0  0 
 82 52  1  0  0  0  0 
 48 82  1  0  0  0  0 
 33 76  1  0  0  0  0 
 76 67  1  0  0  0  0 
 58 83  1  0  0  0  0 
 18 73  1  6  0  0  0 
 84 59  1  0  0  0  0 
 54 84  1  0  0  0  0 
 77 34  1  0  0  0  0 
 29 77  1  0  0  0  0 
 64 85  1  0  0  0  0 
 61 86  1  0  0  0  0 
M  END