
  SciTegic02271514372D

 56 57  0  0  0  0            999 V2000
   15.0586   -5.1992    0.0000 O   0  0
   16.4769   -1.9191    0.0000 C   0  0
   15.0572   -2.7365    0.0000 C   0  0
   12.9234   -3.9658    0.0000 C   0  0
   15.0586   -4.3783    0.0000 C   0  0
    6.5261   -5.1992    0.0000 O   0  0
   12.2117   -4.3783    0.0000 C   0  0  2  0  0  0
    9.3731   -4.3783    0.0000 N   0  0
    4.3958   -3.9670    0.0000 C   0  0
    8.6613   -3.9658    0.0000 C   0  0
    7.9455   -5.1992    0.0000 C   0  0
   11.4986   -3.1449    0.0000 C   0  0
   11.4999   -3.9658    0.0000 N   0  0
   15.0546   -1.9210    0.0000 C   0  0
   14.3469   -3.9658    0.0000 C   0  0  1  0  0  0
    8.6599   -6.4284    0.0000 C   0  0
   12.9220   -6.4284    0.0000 C   0  0
   10.7924   -5.1992    0.0000 O   0  0
    3.6862   -4.3807    0.0000 O   0  0
   15.7662   -3.9658    0.0000 O   0  0
   12.2117   -5.1992    0.0000 C   0  0
   10.0806   -3.1449    0.0000 C   0  0
    9.3703   -5.1992    0.0000 C   0  0
   16.4764   -2.7409    0.0000 C   0  0
   13.6324   -5.1992    0.0000 C   0  0
   15.7666   -3.1486    0.0000 C   0  0
    7.9455   -4.3783    0.0000 C   0  0  1  0  0  0
   10.7910   -1.9157    0.0000 C   0  0
    8.6613   -3.1449    0.0000 O   0  0
    2.9751   -3.9694    0.0000 C   0  0
    8.6599   -5.6075    0.0000 C   0  0
    4.3944   -3.1461    0.0000 O   0  0
    6.5261   -4.3783    0.0000 C   0  0
   13.6352   -4.3783    0.0000 N   0  0
    2.2613   -4.3831    0.0000 C   0  0
   12.2103   -1.9157    0.0000 C   0  0
   15.7615   -1.5068    0.0000 C   0  0
   10.0806   -3.9658    0.0000 C   0  0  1  0  0  0
   12.9234   -3.1449    0.0000 O   0  0
   10.7924   -4.3783    0.0000 C   0  0
    6.5248   -2.7365    0.0000 O   0  0
   10.7910   -2.7365    0.0000 C   0  0
    2.2571   -3.5573    0.0000 C   0  0
    7.2337   -3.9658    0.0000 N   0  0
   14.3469   -3.1449    0.0000 C   0  0
    2.9737   -3.1485    0.0000 C   0  0
   12.2103   -2.7365    0.0000 C   0  0
    5.1068   -4.3783    0.0000 N   0  0
    5.8144   -3.9658    0.0000 C   0  0  1  0  0  0
    5.8144   -3.1449    0.0000 C   0  0
   12.9220   -5.6075    0.0000 C   0  0
   11.4986   -1.5032    0.0000 C   0  0
    6.5263   -1.9194    0.0000 C   0  0
    7.2347   -1.5121    0.0000 C   0  0
    5.8193   -1.5095    0.0000 C   0  0
    6.5210   -1.1020    0.0000 C   0  0
  5 20  1  0
  2 37  1  0
 51 17  1  0
 31 16  1  0
 28 42  2  0
 45  3  1  0
 40 13  1  0
 33  6  2  0
 47 36  1  0
 27 10  1  0
 30 46  1  0
 33 44  1  0
 30 35  1  0
 31 23  1  0
  7  4  1  0
 24  2  2  0
 13  7  1  0
 30 43  1  0
 51 25  1  0
  7 21  1  1
  9 19  1  0
  8 38  1  0
 34 15  1  0
 19 30  1  0
 11 31  1  0
 12 47  2  0
 14  3  1  0
 15  5  1  0
 15 45  1  1
 27 11  1  1
 26 24  1  0
  4 34  1  0
 10  8  1  0
 42 12  1  0
  4 39  2  0
 37 14  2  0
  3 26  2  0
 38 22  1  1
 36 52  2  0
 22 42  1  0
 10 29  2  0
  9 32  2  0
 21 51  1  0
 49 50  1  0
 38 40  1  0
 48 49  1  0
 49 33  1  1
 50 41  1  0
 44 27  1  0
 40 18  2  0
 52 28  1  0
 48  9  1  0
  5  1  2  0
 41 53  1  0
 53 54  1  0
 53 55  1  0
 53 56  1  0
M  END