
  SciTegic11301210262D

 27 27  0  0  0  0            999 V2000
   -0.7958   -1.0417    0.0000 N   0  3
    3.4750    1.3958    0.0000 P   0  0
    3.2250    0.0083    0.0000 P   0  0
    3.7500    0.6208    0.0000 O   0  0
   -0.0833   -1.4625    0.0000 C   0  0
   -0.6125   -0.2375    0.0000 C   0  0
   -2.9083    0.2000    0.0000 N   0  0
   -2.2083   -1.0500    0.0000 C   0  0
   -2.2083   -0.2042    0.0000 C   0  0
    0.1917   -0.1792    0.0000 S   0  0
   -1.5000   -1.4625    0.0000 C   0  0
    0.5167   -0.9042    0.0000 C   0  0
   -3.6208   -1.0167    0.0000 N   0  0
   -3.6208   -0.2167    0.0000 C   0  0
   -2.9083   -1.4375    0.0000 C   0  0
    2.6917    1.1083    0.0000 O   0  0
    2.6000    0.5333    0.0000 O   0  0
   -0.4000    1.1333    0.0000 Cl  0  5
    2.6917   -0.5917    0.0000 O   0  0
    4.2542    1.6708    0.0000 O   0  0
    3.2000    2.1750    0.0000 O   0  0
    3.8292   -0.5167    0.0000 O   0  0
   -1.4833    0.2208    0.0000 N   0  0
    1.3417   -1.0792    0.0000 C   0  0
    1.8792   -0.4417    0.0000 C   0  0
    0.0167   -2.3000    0.0000 C   0  0
   -4.3458    0.1958    0.0000 C   0  0
  2  4  1  0
  3 19  1  0
  4  3  1  0
  5  1  1  0
  6  1  2  0
  7  9  2  0
  8 11  1  0
  9  8  1  0
 10  6  1  0
 11  1  1  0
 12  5  2  0
 13 15  1  0
 14 13  2  0
 15  8  2  0
 16  2  2  0
 17  3  2  0
 19 25  1  0
 20  2  1  0
 21  2  1  0
 22  3  1  0
 23  9  1  0
 24 12  1  0
 25 24  1  0
 26  5  1  0
 27 14  1  0
 12 10  1  0
  7 14  1  0
M  CHG  2   1   1  18  -1
M  END