
  SciTegic02261315432D

 84 88  0  0  1  0            999 V2000
    3.6141   -4.3184    0.0000 N   0  0
    4.3084   -4.7648    0.0000 C   0  0
    9.7444   -4.3944    0.0000 N   0  0
    5.0425   -4.3944    0.0000 C   0  0  1  0  0  0
    8.5937   -5.5451    0.0000 C   0  0
    5.5286   -5.0623    0.0000 N   0  0
    7.8101   -5.7964    0.0000 N   0  0
   12.2640    0.0661    0.0000 N   0  3
    6.9834   -0.5886    0.0000 C   0  0
    7.8101   -0.5886    0.0000 N   0  0
    9.7444   -1.9972    0.0000 N   0  0
   10.0023   -3.6042    0.0000 C   0  0
    6.1998   -5.5451    0.0000 C   0  0
    9.2583   -1.3292    0.0000 C   0  0
    2.6320   -5.4095    0.0000 C   0  0
    9.2583   -5.0623    0.0000 C   0  0  2  0  0  0
    6.9834   -5.7964    0.0000 C   0  0  2  0  0  0
    2.8469   -4.6160    0.0000 C   0  0  2  0  0  0
    6.1998   -0.8465    0.0000 C   0  0
   10.0023   -2.7808    0.0000 C   0  0  2  0  0  0
    8.5937   -0.8465    0.0000 C   0  0  2  0  0  0
    2.2055   -7.0066    0.0000 C   0  0
    3.2173   -5.9948    0.0000 N   0  0
    1.9873   -7.8002    0.0000 N   0  0
    6.8545   -6.6164    0.0000 C   0  0
    1.1937   -8.0151    0.0000 C   0  0  2  0  0  0
    0.9820   -8.8120    0.0000 C   0  0
    6.0841   -6.9074    0.0000 C   0  0
   11.4407    0.0198    0.0000 C   0  0
    3.0056   -6.7884    0.0000 C   0  0  1  0  0  0
    4.7912   -2.7808    0.0000 S   0  0
   12.6508   -0.6679    0.0000 O   0  5
    5.0425   -1.9972    0.0000 S   0  0
   12.7104    0.7605    0.0000 O   0  0
    4.2688   -5.5881    0.0000 O   0  0
    8.9673   -6.2825    0.0000 O   0  0
    1.8385   -5.6244    0.0000 O   0  0
    6.8545    0.2248    0.0000 O   0  0
   10.8157   -3.7331    0.0000 O   0  0
    9.8436   -0.7473    0.0000 O   0  0
    5.8262   -6.2825    0.0000 O   0  0
    4.7912   -3.6042    0.0000 C   0  0
    8.9673   -0.1091    0.0000 C   0  0
   10.8157   -2.6519    0.0000 C   0  0
    1.6202   -6.4213    0.0000 O   0  0
    0.6150   -7.4331    0.0000 C   0  0
    0.1819   -9.0269    0.0000 O   0  0
    5.9551   -7.7274    0.0000 O   0  0
   10.9909    0.7109    0.0000 C   0  0
   11.0637   -0.7175    0.0000 C   0  0
    1.5673   -9.3972    0.0000 N   0  0
    5.5286   -1.3292    0.0000 C   0  0
    9.8436   -5.6443    0.0000 C   0  0
    3.5744   -3.4950    0.0000 C   0  0
    5.4393   -6.3916    0.0000 N   0  0
    9.7940   -0.0629    0.0000 C   0  0
   -0.1851   -7.6480    0.0000 C   0  0
   -1.7756   -8.0746    0.0000 C   0  0
   11.3315   -3.2966    0.0000 C   0  0
   10.2404   -0.7572    0.0000 C   0  0
   10.1676    0.6712    0.0000 C   0  0
    5.8262   -0.1091    0.0000 C   0  0
    6.5701   -1.5806    0.0000 C   0  0
   -0.7638   -7.0628    0.0000 C   0  0
   -0.3935   -8.4449    0.0000 C   0  0
    4.3283  -10.1313    0.0000 N   0  0
   -1.1870   -8.6598    0.0000 C   0  0
   -1.5640   -7.2744    0.0000 C   0  0
    2.3245   -3.9712    0.0000 C   0  0
   -2.5758   -8.2862    0.0000 O   0  0
    2.7775   -3.2768    0.0000 C   0  0
    3.5843   -7.3736    0.0000 C   0  0
    3.7430   -9.5526    0.0000 C   0  0
    9.6320   -6.4412    0.0000 C   0  0
   10.6438   -5.4294    0.0000 C   0  0
   11.0405   -4.0670    0.0000 C   0  0
   12.1515   -3.1677    0.0000 C   0  0
    6.1237   -2.2716    0.0000 C   0  0
    4.9995   -0.0629    0.0000 C   0  0
    3.3760   -8.1738    0.0000 C   0  0
    3.9579   -8.7524    0.0000 C   0  0
   12.6707   -3.8091    0.0000 C   0  0
   11.5597   -4.7052    0.0000 C   0  0
   12.3731   -4.5763    0.0000 C   0  0
  2  1  1  0
  3 16  1  0
  4  2  1  6
  5  7  1  0
  6  4  1  0
  7 17  1  0
  8 29  1  0
  9 19  1  0
 10  9  1  0
 11 14  1  0
 12  3  1  0
 13  6  1  0
 14 21  1  0
 18 15  1  6
 16  5  1  0
 17 13  1  0
 18  1  1  0
 19 52  1  0
 20 12  1  0
 21 10  1  0
 30 22  1  1
 23 15  1  0
 24 22  1  0
 17 25  1  1
 26 24  1  0
 27 26  1  0
 28 25  1  0
 29 49  1  0
 30 23  1  0
 31 42  1  0
 32  8  1  0
 33 31  1  0
 34  8  2  0
 35  2  2  0
 36  5  2  0
 37 15  2  0
 38  9  2  0
 39 12  2  0
 40 14  2  0
 41 13  2  0
 42  4  1  0
 21 43  1  1
 20 44  1  1
 45 22  2  0
 26 46  1  6
 47 27  2  0
 48 28  2  0
 49 61  2  0
 50 60  1  0
 51 27  1  0
 52 33  1  0
 16 53  1  1
 54  1  1  0
 55 28  1  0
 56 43  1  0
 57 46  1  0
 58 67  1  0
 59 44  1  0
 60 56  2  0
 61 56  1  0
 62 19  1  0
 63 19  1  0
 64 57  2  0
 65 57  1  0
 66 73  1  0
 67 65  2  0
 68 64  1  0
 69 18  1  0
 70 58  1  0
 71 54  1  0
 72 30  1  0
 73 81  1  0
 74 53  1  0
 75 53  1  0
 76 59  2  0
 77 59  1  0
 78 63  1  0
 79 62  1  0
 80 72  1  0
 81 80  1  0
 82 77  2  0
 83 76  1  0
 84 82  1  0
 71 69  1  0
 68 58  2  0
 11 20  1  0
 29 50  2  0
 84 83  2  0
M  CHG  2   8   1  32  -1
M  END