
  SciTegic04151115542D

 24 25  0  0  0  0            999 V2000
    3.7361  -11.4083    0.0000 C   0  0
    3.7349  -12.2357    0.0000 C   0  0
    4.4497  -12.6485    0.0000 C   0  0
    5.1662  -12.2352    0.0000 C   0  0
    5.1633  -11.4047    0.0000 C   0  0
    4.4479  -10.9955    0.0000 C   0  0
    3.0201  -12.6476    0.0000 Cl  0  0
    5.8762  -10.9895    0.0000 N   0  0
    6.5922  -11.3993    0.0000 C   0  0
    7.3052  -10.9841    0.0000 C   0  0
    6.5954  -12.2243    0.0000 O   0  0
    8.0212  -11.3939    0.0000 N   0  0
    7.3020  -10.1591    0.0000 O   0  0
    8.7341  -10.9787    0.0000 C   0  0
    4.4495  -13.4735    0.0000 F   0  0
    9.4501  -11.3885    0.0000 C   0  0
   10.1630  -10.9733    0.0000 N   0  0
   10.8762  -11.3845    0.0000 C   0  0  2  0  0  0
   11.5870  -10.9728    0.0000 C   0  0
   11.5882  -10.1474    0.0000 C   0  0
   10.8723   -9.7354    0.0000 C   0  0
   10.1553  -10.1488    0.0000 C   0  0  1  0  0  0
    9.4390   -9.7394    0.0000 C   0  0
   10.8771  -12.2095    0.0000 C   0  0
 10 12  1  0
  6  1  1  0
 10 13  2  0
  1  2  2  0
 12 14  1  0
  2  7  1  0
  3 15  1  0
  3  4  2  0
 14 16  1  0
  5  8  1  0
 16 17  1  0
 17 18  1  0
  8  9  1  0
  4  5  1  0
  9 10  1  0
  2  3  1  0
 17 22  1  0
 18 19  1  0
 19 20  1  0
 20 21  1  0
 21 22  1  0
  9 11  2  0
 22 23  1  6
  5  6  2  0
 18 24  1  6
M  END