
          08180812492D 1   1.00000     0.00000     0

 30 33  0     0  0            999 V2000
    1.3486   -8.1625    0.0000 C   0  0  0  0  0  0           0  0  0
    1.3474   -8.9898    0.0000 C   0  0  0  0  0  0           0  0  0
    2.0622   -9.4027    0.0000 C   0  0  0  0  0  0           0  0  0
    2.7787   -8.9894    0.0000 C   0  0  0  0  0  0           0  0  0
    2.7758   -8.1588    0.0000 C   0  0  0  0  0  0           0  0  0
    2.0604   -7.7497    0.0000 C   0  0  0  0  0  0           0  0  0
    0.6327   -9.4015    0.0000 C   0  0  0  0  0  0           0  0  0
   -0.1098   -9.0419    0.0000 N   0  0  3  0  0  0           0  0  0
    0.6320  -10.2268    0.0000 O   0  0  0  0  0  0           0  0  0
    3.4887   -7.7436    0.0000 O   0  0  0  0  0  0           0  0  0
    3.4856   -6.9186    0.0000 C   0  0  0  0  0  0           0  0  0
    4.2003   -6.5083    0.0000 C   0  0  0  0  0  0           0  0  0
    4.1975   -5.6841    0.0000 C   0  0  0  0  0  0           0  0  0
    3.4810   -5.2734    0.0000 C   0  0  0  0  0  0           0  0  0
    2.7657   -5.6931    0.0000 C   0  0  0  0  0  0           0  0  0
    2.7720   -6.5159    0.0000 C   0  0  0  0  0  0           0  0  0
    3.4938   -9.4007    0.0000 C   0  0  0  0  0  0           0  0  0
    4.2076   -8.9871    0.0000 N   0  0  0  0  0  0           0  0  0
    4.9227   -9.3985    0.0000 C   0  0  0  0  0  0           0  0  0
   -0.7536   -9.5545    0.0000 C   0  0  0  0  0  0           0  0  0
   -1.5598   -9.3705    0.0000 C   0  0  0  0  0  0           0  0  0
   -0.1090   -8.2178    0.0000 C   0  0  0  0  0  0           0  0  0
   -1.9200   -8.6297    0.0000 C   0  0  0  0  0  0           0  0  0
   -0.7551   -7.7026    0.0000 C   0  0  0  0  0  0           0  0  0
   -1.5599   -7.8887    0.0000 N   0  0  3  0  0  0           0  0  0
   -2.0740   -7.2435    0.0000 C   0  0  3  0  0  0           0  0  0
   -2.1992   -6.4244    0.0000 C   0  0  0  0  0  0           0  0  0
   -2.8444   -6.9386    0.0000 C   0  0  0  0  0  0           0  0  0
    4.9147   -6.9155    0.0000 C   0  0  0  0  0  0           0  0  0
    5.6294   -7.3276    0.0000 N   0  0  0  0  0  0           0  0  0
 14 15  1  0     0  0
  3  4  2  0     0  0
 15 16  2  0     0  0
 16 11  1  0     0  0
  7  8  1  0     0  0
  4 17  1  0     0  0
 17 18  1  0     0  0
  7  9  2  0     0  0
 18 19  1  0     0  0
  4  5  1  0     0  0
  8 20  1  0     0  0
  5 10  1  0     0  0
 20 21  1  0     0  0
  2  3  1  0     0  0
  8 22  1  0     0  0
 10 11  1  0     0  0
 21 23  1  0     0  0
  5  6  2  0     0  0
 22 24  1  0     0  0
 11 12  2  0     0  0
 23 25  1  0     0  0
 24 25  1  0     0  0
  6  1  1  0     0  0
 25 26  1  0     0  0
 27 26  1  0     0  0
 28 27  1  0     0  0
 26 28  1  0     0  0
 12 13  1  0     0  0
  1  2  2  0     0  0
 13 14  2  0     0  0
  2  7  1  0     0  0
 29 30  3  0     0  0
 12 29  1  0     0  0
M  END