
  SciTegic12161611442D

 34 37  0  0  0  0            999 V2000
   -2.8315   -0.7623    0.0000 C   0  0
   -2.8315    0.7623    0.0000 C   0  0
   -1.4884    1.5247    0.0000 C   0  0
   -1.4884   -1.5247    0.0000 C   0  0
    0.0000    0.7623    0.0000 C   0  0
    0.0000   -0.7623    0.0000 C   0  0
    0.7442   -1.6517    0.0000 O   0  0
    0.7805    1.6880    0.0000 C   0  0
    2.2325   -1.4158    0.0000 C   0  0
    2.2507    1.3976    0.0000 N   0  0
    2.9404    0.0000    0.0000 C   0  0
   -4.1284    1.5175    0.0000 C   0  0
   -4.1293    3.0174    0.0000 C   0  0
   -5.4287    3.7667    0.0000 C   0  0
   -6.7274    3.0159    0.0000 C   0  0
   -6.7266    1.5159    0.0000 C   0  0
   -5.4271    0.7667    0.0000 C   0  0
   -8.0291    3.7630    0.0000 O   0  0
   -9.0671    3.1609    0.0000 C   0  0
   -5.4265    5.2675    0.0000 O   0  0
   -4.3867    5.8666    0.0000 C   0  0
    3.1520    2.5995    0.0000 C   0  0
    2.6799    3.7027    0.0000 O   0  0
    4.6422    2.4214    0.0000 C   0  0
    5.3619    3.3816    0.0000 C   0  0
   -1.5580   -3.0236    0.0000 O   0  0
   -2.8911   -3.7130    0.0000 C   0  0
   -2.9616   -5.2122    0.0000 C   0  0  2  0  0  0
   -4.2930   -5.9032    0.0000 C   0  0
   -4.3603   -7.4017    0.0000 N   0  0
   -3.0963   -8.2093    0.0000 C   0  0
   -1.7648   -7.5183    0.0000 C   0  0
   -1.6975   -6.0198    0.0000 C   0  0
   -5.4254   -7.9544    0.0000 C   0  0
  1  2  2  0
  2  3  1  0
  3  5  2  0
  6  4  2  0
  4  1  1  0
  5  6  1  0
  6  7  1  0
  5  8  1  0
  7  9  1  0
  8 10  1  0
  9 11  1  0
 10 11  1  0
 12 13  2  0
 13 14  1  0
 14 15  2  0
 15 16  1  0
 16 17  2  0
 17 12  1  0
  2 12  1  0
 15 18  1  0
 18 19  1  0
 14 20  1  0
 20 21  1  0
 10 22  1  0
 22 23  2  0
 22 24  1  0
 24 25  1  0
  4 26  1  0
 26 27  1  0
 28 27  1  1
 28 29  1  0
 28 33  1  0
 29 30  1  0
 30 31  1  0
 31 32  1  0
 32 33  1  0
 30 34  1  0
M  END