
  Mrv0541 04051115152D          

 11 10  0  0  0  0            999 V2000
   -0.8339   -2.0558    0.0000 O   0  0  0  0  0  0  0  0  0  0  0  0
   -0.8339   -1.2308    0.0000 C   0  0  0  0  0  0  0  0  0  0  0  0
   -1.5484   -0.8183    0.0000 O   0  0  0  0  0  0  0  0  0  0  0  0
   -0.1194   -0.8183    0.0000 C   0  0  2  0  0  0  0  0  0  0  0  0
    0.5950   -1.2308    0.0000 O   0  0  0  0  0  0  0  0  0  0  0  0
   -0.1194    0.0067    0.0000 C   0  0  0  0  0  0  0  0  0  0  0  0
    0.5950    0.4192    0.0000 O   0  0  0  0  0  0  0  0  0  0  0  0
    0.5950    1.2442    0.0000 P   0  0  0  0  0  0  0  0  0  0  0  0
    0.5950    2.0692    0.0000 O   0  0  0  0  0  0  0  0  0  0  0  0
    1.4200    1.2442    0.0000 O   0  0  0  0  0  0  0  0  0  0  0  0
   -0.2300    1.2442    0.0000 O   0  0  0  0  0  0  0  0  0  0  0  0
  2  1  2  0  0  0  0
  2  3  1  0  0  0  0
  2  4  1  0  0  0  0
  4  5  1  1  0  0  0
  4  6  1  0  0  0  0
  6  7  1  0  0  0  0
  7  8  1  0  0  0  0
  9  8  2  0  0  0  0
 10  8  1  0  0  0  0
 11  8  1  0  0  0  0
M  END