
  SciTegic12231509382D

  7  7  0  0  0  0            999 V2000
   -2.0583   -0.9000    0.0000 O   0  0
   -0.6208   -0.9000    0.0000 C   0  0
    0.0792   -2.1500    0.0000 C   0  0
    0.0792    0.3250    0.0000 C   0  0
    1.5292    0.3250    0.0000 C   0  0
    1.5292   -2.1500    0.0000 C   0  0
    2.2375   -0.9000    0.0000 C   0  0
  2  1  1  0
  3  2  2  0
  4  2  1  0
  5  4  2  0
  6  3  1  0
  7  6  2  0
  5  7  1  0
M  END