
  SciTegic11201309402D

122131  0  0  0  0            999 V2000
    5.1316   -9.6102    0.0000 C   0  0
    5.1341  -10.4343    0.0000 C   0  0
    5.8479  -10.8515    0.0000 C   0  0
    6.5643  -10.4336    0.0000 C   0  0
    6.5599   -9.6046    0.0000 C   0  0
    5.8451   -9.1975    0.0000 C   0  0
    4.4160  -10.8500    0.0000 O   0  0
    7.2751   -9.1881    0.0000 C   0  0
    7.2703   -8.3634    0.0000 C   0  0  1  0  0  0
    7.9855   -7.9512    0.0000 C   0  0
    6.5546   -7.9552    0.0000 N   0  0
    8.7012   -8.3594    0.0000 O   0  0
    7.9807   -7.1222    0.0000 N   0  0
    8.6959   -6.7100    0.0000 C   0  0  2  0  0  0
    8.6910   -5.8853    0.0000 C   0  0
    9.4116   -7.1182    0.0000 C   0  0
    9.4121   -7.9428    0.0000 S   0  0
   10.1279   -8.3553    0.0000 S   0  0
   10.1327   -9.1800    0.0000 C   0  0
   10.8484   -9.5881    0.0000 C   0  0  1  0  0  0
   10.8532  -10.4128    0.0000 C   0  0
   11.5636   -9.1716    0.0000 N   0  0
   10.1380  -10.8293    0.0000 N   0  0
   11.5690  -10.8252    0.0000 O   0  0
   10.1429  -11.6540    0.0000 C   0  0  2  0  0  0
    9.4277  -12.0705    0.0000 C   0  0
   10.8586  -12.0664    0.0000 C   0  0
    8.7119  -11.6581    0.0000 O   0  0
    9.4325  -12.8952    0.0000 N   0  0
   10.8634  -12.8911    0.0000 C   0  0
   10.1459  -13.3039    0.0000 C   0  0
   10.1502  -14.1274    0.0000 C   0  0
   10.8667  -14.5368    0.0000 C   0  0
   11.5813  -14.1177    0.0000 C   0  0
   11.5759  -13.2964    0.0000 C   0  0
   10.8690  -15.3615    0.0000 O   0  0
   12.2794   -9.5841    0.0000 C   0  0
   12.9903   -9.1676    0.0000 C   0  0  2  0  0  0
   12.2799  -10.4087    0.0000 O   0  0
   13.7060   -9.5800    0.0000 C   0  0
   12.9897   -8.3429    0.0000 N   0  0
   13.7108  -10.4047    0.0000 C   0  0
   12.9968  -10.8181    0.0000 C   0  0
   13.0011  -11.6416    0.0000 C   0  0
   13.7176  -12.0510    0.0000 C   0  0
   14.4322  -11.6319    0.0000 C   0  0
   14.4268  -10.8105    0.0000 C   0  0
   13.7007   -7.9264    0.0000 C   0  0
   13.7001   -7.1017    0.0000 C   0  0  1  0  0  0
   14.4164   -8.3388    0.0000 O   0  0
   14.4110   -6.6895    0.0000 N   0  0
   15.1268   -7.0976    0.0000 C   0  0
   15.8420   -6.6811    0.0000 C   0  0  2  0  0  0
   15.1316   -7.9223    0.0000 O   0  0
   16.5577   -7.0936    0.0000 C   0  0
   15.8371   -5.8565    0.0000 N   0  0
   16.5583   -7.9182    0.0000 C   0  0
   17.2740   -8.3264    0.0000 N   0  0
   15.8473   -8.3305    0.0000 O   0  0
   16.5523   -5.4400    0.0000 C   0  0
   16.5610   -4.6061    0.0000 C   0  0  1  0  0  0
   17.2681   -5.8524    0.0000 O   0  0
   15.8412   -4.1976    0.0000 N   0  0
    9.4062   -5.4688    0.0000 N   0  0
    9.4014   -4.6441    0.0000 C   0  0  2  0  0  0
   10.1447   -4.2276    0.0000 C   0  0
   10.8281   -4.6358    0.0000 O   0  0
    8.6783   -4.2245    0.0000 C   0  0
   15.8463   -3.3761    0.0000 C   0  0
   14.4193   -4.2047    0.0000 C   0  0
   15.1356   -4.6159    0.0000 C   0  0
   14.4180   -3.3743    0.0000 S   0  0
   15.1294   -2.9659    0.0000 C   0  0  1  0  0  0
   15.1324   -2.1494    0.0000 N   0  0
   14.4228   -1.7339    0.0000 C   0  0
   14.4278   -0.9092    0.0000 O   0  0
   15.1382   -5.4405    0.0000 O   0  0
   12.9963   -1.7291    0.0000 N   0  0
   12.2807   -2.1375    0.0000 C   0  0
   12.2804   -2.9622    0.0000 C   0  0  1  0  0  0
   11.5648   -3.3748    0.0000 C   0  0
   12.9914   -3.3785    0.0000 N   0  0
   13.7039   -2.9631    0.0000 C   0  0
   13.7025   -2.1384    0.0000 C   0  0  2  0  0  0
   15.8453   -2.5585    0.0000 C   0  0
   16.5612   -2.9695    0.0000 C   0  0
   17.2720   -2.5602    0.0000 C   0  0
   17.9879   -2.9755    0.0000 N   0  0
   18.7030   -2.5662    0.0000 C   0  0
   19.4188   -2.9815    0.0000 N   0  0
   18.7064   -1.7373    0.0000 N   0  0
   17.2720   -4.1978    0.0000 C   0  0
   17.9628   -4.6550    0.0000 C   0  0
   19.2415   -5.0187    0.0000 N   0  0
   18.7320   -4.3705    0.0000 C   0  0
   18.7842   -5.7054    0.0000 C   0  0
   17.9912   -5.4800    0.0000 C   0  0
   17.4080   -6.0551    0.0000 C   0  0
   17.6074   -6.8516    0.0000 C   0  0
   18.4024   -7.0681    0.0000 C   0  0
   18.9889   -6.4948    0.0000 C   0  0
   12.9801   -6.6935    0.0000 C   0  0
    7.9753   -5.4729    0.0000 O   0  0
    7.8368   -4.2432    0.0000 C   0  0
    7.3247   -3.5750    0.0000 N   0  0
    6.5302   -3.8529    0.0000 C   0  0
    6.5489   -4.6944    0.0000 N   0  0
    7.3549   -4.9365    0.0000 C   0  0
   10.8361   -2.9536    0.0000 C   0  0
    9.3845   -2.9580    0.0000 C   0  0
   10.1129   -3.3754    0.0000 C   0  0
   10.8420   -2.1177    0.0000 C   0  0
    9.3822   -2.1120    0.0000 C   0  0
   10.1101   -1.6957    0.0000 C   0  0
   11.5529   -1.7147    0.0000 O   0  0
    8.6536   -1.6906    0.0000 C   0  0
    8.6562   -0.8449    0.0000 C   0  0
    7.9285   -0.4236    0.0000 C   0  0
    7.1982   -0.8440    0.0000 C   0  0
    7.2003   -1.6900    0.0000 C   0  0
    7.9287   -2.1075    0.0000 C   0  0
   13.7093   -1.1384    0.0000 H   0  0
  1  2  2  0
  2  3  1  0
  3  4  2  0
  4  5  1  0
  5  6  2  0
  6  1  1  0
  2  7  1  0
  5  8  1  0
  9  8  1  0
  9 10  1  0
  9 11  1  6
 10 12  2  0
 10 13  1  0
 14 13  1  6
 14 15  1  0
 14 16  1  0
 16 17  1  0
 17 18  1  0
 18 19  1  0
 20 19  1  0
 20 21  1  6
 20 22  1  0
 21 23  1  0
 21 24  2  0
 25 23  1  1
 25 26  1  0
 25 27  1  0
 26 28  2  0
 26 29  1  0
 27 30  1  0
 30 31  2  0
 31 32  1  0
 32 33  2  0
 33 34  1  0
 34 35  2  0
 35 30  1  0
 33 36  1  0
 22 37  1  0
 37 38  1  0
 37 39  2  0
 38 40  1  1
 38 41  1  0
 40 42  1  0
 42 43  2  0
 43 44  1  0
 44 45  2  0
 45 46  1  0
 46 47  2  0
 47 42  1  0
 41 48  1  0
 48 49  1  0
 48 50  2  0
 49 51  1  0
 51 52  1  0
 52 53  1  0
 52 54  2  0
 53 55  1  1
 53 56  1  0
 55 57  1  0
 57 58  1  0
 57 59  2  0
 56 60  1  0
 60 61  1  0
 60 62  2  0
 61 63  1  0
 15 64  1  0
 64 65  1  0
 65 66  1  0
 66 67  2  0
 65 68  1  1
 63 69  1  0
 63 71  1  0
 69 73  1  0
 72 70  1  0
 70 71  1  0
 73 74  1  0
 74 75  1  0
 75 84  1  0
 75 76  2  0
 71 77  2  0
 84 78  1  0
 78 79  1  0
 79 80  1  0
 80 81  1  6
 80 82  1  0
 66 82  1  0
 72 83  1  0
 83 84  1  0
 73 85  1  6
 85 86  1  0
 86 87  1  0
 87 88  1  0
 88 89  1  0
 89 90  1  0
 89 91  2  0
 61 92  1  1
 92 93  1  0
 93 97  1  0
 96 94  1  0
 94 95  1  0
 95 93  2  0
 96 97  2  0
 97 98  1  0
 98 99  2  0
 99100  1  0
100101  2  0
101 96  1  0
 49102  1  6
 15103  2  0
 68104  1  0
104105  1  0
105106  1  0
106107  2  0
107108  1  0
108104  2  0
 81109  1  0
109112  2  0
113110  1  0
110111  2  0
111109  1  0
114112  1  0
113114  2  0
 79115  2  0
113116  1  0
116117  2  0
117118  1  0
118119  2  0
119120  1  0
120121  2  0
121116  1  0
 84122  1  6
M  END