
  SciTegic02131210002D

 19 21  0  0  0  0            999 V2000
    9.2510  -23.6547    0.0000 N   0  0
    9.2438  -24.4784    0.0000 C   0  0
   10.0250  -24.7398    0.0000 C   0  0
   10.5150  -24.0777    0.0000 C   0  0  2  0  0  0
   10.0366  -23.4071    0.0000 C   0  0
    5.6667  -23.1850    0.0000 C   0  0
    6.3909  -23.5882    0.0000 N   0  0
    7.1147  -23.1923    0.0000 C   0  0
    7.8187  -23.6228    0.0000 C   0  0
    8.5420  -23.2276    0.0000 C   0  0
    8.4991  -22.4332    0.0000 N   0  0
    7.8519  -21.9731    0.0000 C   0  0
    7.1314  -22.4020    0.0000 N   0  0
    4.9565  -23.6048    0.0000 C   0  0
    7.8681  -21.1482    0.0000 N   0  0
    4.1295  -23.6140    0.0000 C   0  0
    4.5493  -24.3242    0.0000 C   0  0
   11.3400  -24.0849    0.0000 N   0  0
   11.7462  -24.8029    0.0000 C   0  0
  9 10  1  0
  5  1  1  0
 10 11  2  0
  1  2  1  0
 11 12  1  0
 12 13  2  0
 13  8  1  0
 10  1  1  0
  6  7  1  0
  6 14  1  0
  2  3  1  0
 12 15  1  0
 16 14  1  0
 17 16  1  0
 14 17  1  0
  7  8  1  0
  3  4  1  0
  8  9  2  0
  4 18  1  6
  4  5  1  0
 18 19  1  0
M  END