
  SciTegic09081514172D

 30 32  0  0  0  0            999 V2000
   10.5932    1.5746    0.0000 C   0  0
   11.0376    0.1419    0.0000 C   0  0
   10.0190   -0.9592    0.0000 C   0  0
    8.5561   -0.6279    0.0000 C   0  0
    8.1117    0.8049    0.0000 C   0  0
    9.1303    1.9061    0.0000 C   0  0
    7.5353   -1.7280    0.0000 C   0  0
    7.9774   -3.1613    0.0000 C   0  0
    6.9571   -4.2609    0.0000 C   0  0
    5.4947   -3.9271    0.0000 C   0  0
    5.0525   -2.4938    0.0000 C   0  0
    6.0729   -1.3942    0.0000 C   0  0
    3.5900   -2.1568    0.0000 C   0  0
    3.1497   -0.7220    0.0000 N   0  0
    2.7723   -3.0350    0.0000 O   0  0
    4.4717   -5.0252    0.0000 O   0  0
    3.3021   -4.7566    0.0000 C   0  0
    7.4024   -5.6942    0.0000 C   0  0
    1.6852   -0.3846    0.0000 C   0  0
    1.3514    1.0778    0.0000 C   0  0
    0.0000    1.7286    0.0000 C   0  0
    0.7500   -1.5574    0.0000 C   0  0
   -0.7500   -1.5574    0.0000 C   0  0
   -1.6852   -0.3847    0.0000 C   0  0
   -1.3515    1.0777    0.0000 C   0  0
   11.6100    2.6785    0.0000 O   0  0
   11.2528    3.8241    0.0000 C   0  0
    8.8661   -6.0261    0.0000 C   0  0
    9.3114   -7.4593    0.0000 C   0  0
   10.4817   -7.7247    0.0000 C   0  0
  1  2  2  0
  2  3  1  0
  3  4  2  0
  4  5  1  0
  5  6  2  0
  6  1  1  0
  7  8  2  0
  8  9  1  0
  9 10  2  0
 10 11  1  0
 11 12  2  0
 12  7  1  0
  4  7  1  0
 11 13  1  0
 13 14  1  0
 13 15  2  0
 10 16  1  0
 16 17  1  0
  9 18  1  0
 14 19  1  0
 19 20  1  0
 20 21  1  0
 19 22  1  0
 23 24  1  0
 24 25  1  0
 25 21  1  0
 22 23  1  0
  1 26  1  0
 26 27  1  0
 18 28  1  0
 28 29  1  0
 29 30  1  0
M  END