
  CDK    9/16/09,9:44

 24 27  0  0  0  0  0  0  0  0999 V2000
   -1.3056  -22.6041    0.0000 C   0  0  0  0  0  0  0  0  0  0  0  0
   -1.3068  -23.4315    0.0000 C   0  0  0  0  0  0  0  0  0  0  0  0
   -0.5919  -23.8444    0.0000 C   0  0  0  0  0  0  0  0  0  0  0  0
    0.1245  -23.4310    0.0000 C   0  0  0  0  0  0  0  0  0  0  0  0
    0.1216  -22.6005    0.0000 C   0  0  0  0  0  0  0  0  0  0  0  0
   -0.5937  -22.1914    0.0000 C   0  0  0  0  0  0  0  0  0  0  0  0
   -2.0202  -22.1918    0.0000 C   0  0  0  0  0  0  0  0  0  0  0  0
   -2.7345  -22.6045    0.0000 C   0  0  0  0  0  0  0  0  0  0  0  0
   -3.4854  -22.2707    0.0000 N   0  0  0  0  0  0  0  0  0  0  0  0
   -4.0373  -22.8840    0.0000 C   0  0  0  0  0  0  0  0  0  0  0  0
   -3.6246  -23.5984    0.0000 N   0  0  0  0  0  0  0  0  0  0  0  0
   -2.8177  -23.4266    0.0000 C   0  0  0  0  0  0  0  0  0  0  0  0
    0.8346  -22.1853    0.0000 C   0  0  0  0  0  0  0  0  0  0  0  0
    1.5891  -22.5155    0.0000 O   0  0  0  0  0  0  0  0  0  0  0  0
    2.1388  -21.9003    0.0000 C   0  0  0  0  0  0  0  0  0  0  0  0
    1.7236  -21.1873    0.0000 C   0  0  0  0  0  0  0  0  0  0  0  0
    0.9173  -21.3620    0.0000 N   0  0  0  0  0  0  0  0  0  0  0  0
    2.0562  -20.4324    0.0000 C   0  0  0  0  0  0  0  0  0  0  0  0
    2.8764  -20.3430    0.0000 C   0  0  0  0  0  0  0  0  0  0  0  0
    3.3604  -21.0108    0.0000 C   0  0  0  0  0  0  0  0  0  0  0  0
    4.1798  -20.9219    0.0000 C   0  0  0  0  0  0  0  0  0  0  0  0
    4.5132  -20.1663    0.0000 C   0  0  0  0  0  0  0  0  0  0  0  0
    4.0211  -19.4988    0.0000 C   0  0  0  0  0  0  0  0  0  0  0  0
    3.2034  -19.5911    0.0000 C   0  0  0  0  0  0  0  0  0  0  0  0
 11 12  1  0  0  0  0 
 12  8  2  0  0  0  0 
  6  1  1  0  0  0  0 
  5 13  1  0  0  0  0 
 13 14  1  0  0  0  0 
  1  2  2  0  0  0  0 
  1  7  1  0  0  0  0 
  3  4  2  0  0  0  0 
  7  8  1  0  0  0  0 
 14 15  1  0  0  0  0 
 15 16  1  0  0  0  0 
 16 17  1  0  0  0  0 
 17 13  2  0  0  0  0 
  8  9  1  0  0  0  0 
 16 18  1  6  0  0  0 
 18 19  1  0  0  0  0 
  4  5  1  0  0  0  0 
 19 20  2  0  0  0  0 
  2  3  1  0  0  0  0 
 20 21  1  0  0  0  0 
  5  6  2  0  0  0  0 
 21 22  2  0  0  0  0 
  9 10  2  0  0  0  0 
 22 23  1  0  0  0  0 
 10 11  1  0  0  0  0 
 23 24  2  0  0  0  0 
 24 19  1  0  0  0  0 
M  END