
  SciTegic01161211252D

 27 30  0  0  0  0            999 V2000
    3.1417   -5.6064    0.0000 N   0  0
    3.9427   -5.4283    0.0000 C   0  0
    4.5885   -5.9445    0.0000 C   0  0
    2.7811   -6.3515    0.0000 C   0  0
    4.5902   -6.7680    0.0000 N   0  0
    3.1388   -7.0962    0.0000 C   0  0
    3.9443   -7.2787    0.0000 C   0  0
    5.3040   -7.1813    0.0000 C   0  0
    5.3020   -8.0062    0.0000 O   0  0
    6.0192   -6.7714    0.0000 C   0  0  2  0  0  0
    6.6895   -7.2463    0.0000 N   0  0
    7.3497   -6.7518    0.0000 C   0  0
    7.0832   -5.9710    0.0000 C   0  0  2  0  0  0
    6.2585   -5.9832    0.0000 C   0  0
    7.5586   -5.2963    0.0000 O   0  0
    2.5749   -5.0074    0.0000 C   0  0
    2.5970   -4.1833    0.0000 C   0  0
    1.7722   -4.1612    0.0000 C   0  0
    1.7501   -4.9860    0.0000 C   0  0
    7.0726   -4.6298    0.0000 C   0  0
    7.3268   -3.8435    0.0000 C   0  0
    6.6579   -3.3592    0.0000 S   0  0
    5.9913   -3.8470    0.0000 C   0  0
    6.2505   -4.6311    0.0000 C   0  0
    6.7004   -8.0711    0.0000 C   0  0
    5.9916   -8.4930    0.0000 O   0  0
    7.4202   -8.4740    0.0000 C   0  0
 13 12  1  0
 13 14  1  0
 14 10  1  0
  6  7  1  0
 13 15  1  6
  1  4  1  0
  1 16  1  0
 16 17  1  0
  5  8  1  0
  8  9  2  0
 17 18  1  0
 18 19  1  0
 19 16  1  0
  3  5  1  0
 15 20  1  0
 21 22  1  0
 10  8  1  1
 10 11  1  0
  2  3  1  0
  4  6  1  0
 20 21  2  0
 22 23  1  0
 23 24  2  0
 24 20  1  0
  1  2  1  0
 11 25  1  0
  5  7  1  0
 25 26  2  0
 11 12  1  0
 25 27  1  0
M  END