
          11280715142D 1   1.00000     0.00000     0

 25 28  0     0  0            999 V2000
    1.5167   -2.9167    0.0000 C   0  0  3  0  0  0           0  0  0
   -0.7583   -3.8917    0.0000 C   0  0  3  0  0  0           0  0  0
   -0.8458   -4.7125    0.0000 C   0  0  0  0  0  0           0  0  0
    1.4042   -3.7375    0.0000 C   0  0  3  0  0  0           0  0  0
    0.0000   -3.5667    0.0000 C   0  0  3  0  0  0           0  0  0
    0.6542   -4.0542    0.0000 C   0  0  3  0  0  0           0  0  0
    2.9292   -3.0917    0.0000 C   0  0  3  0  0  0           0  0  0
    4.4125   -1.4125    0.0000 N   0  3  0  0  0  0           0  0  0
   -1.5958   -5.0417    0.0000 C   0  0  0  0  0  0           0  0  0
    0.8542   -2.4167    0.0000 C   0  0  0  0  0  0           0  0  0
    5.1625   -1.0792    0.0000 N   0  5  0  0  0  0           0  0  0
    0.0917   -2.7417    0.0000 C   0  0  0  0  0  0           0  0  0
    2.0667   -4.2375    0.0000 C   0  0  0  0  0  0           0  0  0
   -1.4208   -3.4042    0.0000 C   0  0  0  0  0  0           0  0  0
    2.8292   -3.9167    0.0000 C   0  0  0  0  0  0           0  0  0
    0.5667   -4.8750    0.0000 C   0  0  0  0  0  0           0  0  0
    3.5750   -2.5750    0.0000 C   0  0  0  0  0  0           0  0  0
    3.6542   -1.7542    0.0000 C   0  0  0  0  0  0           0  0  0
   -0.1833   -5.2042    0.0000 C   0  0  0  0  0  0           0  0  0
   -2.2583   -4.5542    0.0000 C   0  0  0  0  0  0           0  0  0
    4.0875   -3.2125    0.0000 O   0  0  0  0  0  0           0  0  0
   -3.0125   -4.8917    0.0000 O   0  0  0  0  0  0           0  0  0
   -2.1708   -3.7417    0.0000 C   0  0  0  0  0  0           0  0  0
    1.5917   -2.0917    0.0000 C   0  0  0  0  0  0           0  0  0
   -0.6750   -3.0667    0.0000 C   0  0  0  0  0  0           0  0  0
  2  5  1  0     0  0
  3  2  1  0     0  0
  4  1  1  0     0  0
  5 12  1  0     0  0
  6  4  1  0     0  0
  7  1  1  0     0  0
  8 18  2  0     0  0
  9  3  2  0     0  0
 10  1  1  0     0  0
 11  8  2  0     0  0
 12 10  1  0     0  0
 13  4  1  0     0  0
 14  2  1  0     0  0
 15  7  1  0     0  0
 16  6  1  0     0  0
 17  7  1  0     0  0
 18 17  1  0     0  0
 19 16  1  0     0  0
 20 23  1  0     0  0
 21 17  2  0     0  0
 22 20  2  0     0  0
 23 14  1  0     0  0
 24  1  1  0     0  0
 25  2  1  0     0  0
 13 15  1  0     0  0
  6  5  1  0     0  0
  3 19  1  0     0  0
  9 20  1  0     0  0
M  CHG  2   8   1  11  -1
M  END