
  SciTegic01161211252D

 35 38  0  0  0  0            999 V2000
    5.1381   -7.1860    0.0000 N   0  0
    4.7265   -6.4714    0.0000 C   0  0
    3.9015   -6.4750    0.0000 C   0  0
    3.4900   -7.1852    0.0000 C   0  0
    3.9000   -7.8993    0.0000 C   0  0
    4.7288   -7.9035    0.0000 C   0  0
    5.9654   -7.1860    0.0000 C   0  0
    6.3770   -7.9003    0.0000 O   0  0
    6.3770   -6.4719    0.0000 C   0  0
    7.2042   -6.4719    0.0000 C   0  0
    7.6158   -7.1860    0.0000 C   0  0
    8.4428   -7.1808    0.0000 C   0  0
    8.8555   -7.8951    0.0000 C   0  0
    8.4433   -8.6147    0.0000 C   0  0
    7.6096   -8.6100    0.0000 C   0  0
    7.2043   -7.8959    0.0000 C   0  0
    2.6627   -7.1852    0.0000 N   0  0
    3.4884   -8.6178    0.0000 F   0  0
    2.2515   -7.8987    0.0000 C   0  0
    1.4238   -7.8987    0.0000 C   0  0
    2.2507   -6.4702    0.0000 C   0  0
    2.6625   -5.7556    0.0000 C   0  0
    1.0148   -7.1841    0.0000 C   0  0
    0.1931   -7.1815    0.0000 C   0  0
   -0.2214   -7.8957    0.0000 C   0  0
    0.1913   -8.6143    0.0000 C   0  0
    1.0153   -8.6155    0.0000 C   0  0
   -1.0486   -7.8957    0.0000 F   0  0
    3.4916   -5.7562    0.0000 N   0  0
    3.9045   -5.0468    0.0000 C   0  0
    3.4946   -4.3302    0.0000 C   0  0
    2.6608   -4.3282    0.0000 C   0  0
    2.2534   -5.0452    0.0000 C   0  0
    8.8544   -6.4665    0.0000 C   0  0
    9.2659   -5.7523    0.0000 N   0  0
  4 17  1  0
  1  6  1  0
  5 18  1  0
  7  9  1  0
 17 19  1  0
  2  3  1  0
 19 20  1  0
  9 10  2  0
 17 21  1  0
  3  4  1  0
 21 22  1  0
 10 11  1  0
 20 23  2  0
  4  5  1  0
 23 24  1  0
 11 12  2  0
 24 25  2  0
  5  6  1  0
 25 26  1  0
 12 13  1  0
 26 27  2  0
 27 20  1  0
 25 28  1  0
 13 14  2  0
 22 29  2  0
  1  7  1  0
 29 30  1  0
 14 15  1  0
 30 31  2  0
  1  2  1  0
 31 32  1  0
 15 16  2  0
 32 33  2  0
 33 22  1  0
 16 11  1  0
  7  8  2  0
 34 35  3  0
 12 34  1  0
M  END