
  SciTegic01091216402D

 20 21  0  0  0  0            999 V2000
    7.5269   -6.4765    0.0000 N   0  0
    7.6290   -7.2939    0.0000 N   0  0
    8.4375   -7.4528    0.0000 C   0  0
    8.8349   -6.7339    0.0000 C   0  0
    8.2746   -6.1266    0.0000 C   0  0
    6.8058   -6.0755    0.0000 C   0  0
    6.0994   -6.4994    0.0000 N   0  0
    6.7935   -5.2541    0.0000 N   0  0
    9.6523   -6.6319    0.0000 C   0  0
   10.1510   -7.2903    0.0000 C   0  0
    5.3805   -6.1018    0.0000 S   0  0
    4.6588   -6.4973    0.0000 C   0  0
    4.6415   -7.3209    0.0000 C   0  0
    3.9182   -7.7178    0.0000 C   0  0
    3.2121   -7.2911    0.0000 C   0  0
    3.2294   -6.4674    0.0000 C   0  0
    3.9527   -6.0705    0.0000 C   0  0
    3.9010   -8.5415    0.0000 Cl  0  0
    4.7933   -5.5131    0.0000 O   0  0
    5.9624   -5.5131    0.0000 O   0  0
  2  3  2  0
  3  4  1  0
  4  5  1  0
  1  5  1  0
  6  7  2  0
  6  8  1  0
  1  6  1  0
  9 10  1  0
  4  9  1  0
 12 13  1  0
 13 14  2  0
 14 15  1  0
 15 16  2  0
 16 17  1  0
 12 17  2  0
 11 12  1  0
 14 18  1  0
  7 11  1  0
 11 19  2  0
  1  2  1  0
 11 20  2  0
M  END