
  SciTegic09081514172D

 23 24  0  0  0  0            999 V2000
    0.0000    0.7486    0.0000 C   0  0
   -1.2964    1.4973    0.0000 C   0  0
   -2.6111    0.7486    0.0000 C   0  0
    0.0000   -0.7486    0.0000 C   0  0
   -6.5121    1.4924    0.0000 N   0  3
   -2.6111   -0.7486    0.0000 C   0  0
   -7.8109    0.7403    0.0000 C   0  0
   -1.2964   -1.4973    0.0000 C   0  0
   -5.2109    0.7445    0.0000 C   0  0
   -3.9122    1.4966    0.0000 C   0  0  2  0  0  0
    1.2964   -1.4973    0.0000 O   0  0
    1.2964    1.4973    0.0000 C   0  0
   -3.9141    2.6966    0.0000 O   0  0
    2.5929    0.7486    0.0000 O   0  0
   -8.8513    1.3383    0.0000 C   0  0
   -8.8491    0.1384    0.0000 C   0  0
   -7.8090   -0.4597    0.0000 C   0  0
    2.5929   -0.7486    0.0000 B   0  5
    3.6170   -0.1233    0.0000 O   0  0
    2.5565   -2.2286    0.0000 C   0  0
    1.2571   -2.9796    0.0000 C   0  0
    1.2569   -4.1796    0.0000 C   0  0
    0.2177   -2.3798    0.0000 C   0  0
  2  1  2  0
  3  2  1  0
  4  1  1  0
  5  9  1  0
  6  8  1  0
  7  5  1  0
  8  4  2  0
  9 10  1  0
 10  3  1  0
 11  4  1  0
 12  1  1  0
 10 13  1  6
 14 12  1  0
 15  7  1  0
 16  7  1  0
 17  7  1  0
  6  3  2  0
 11 18  1  0
 14 18  1  0
 18 19  1  0
 18 20  1  0
 20 21  1  0
 21 22  1  0
 21 23  1  0
M  CHG  2   5   1  18  -1
M  END