
          11280714512D 1   1.00000     0.00000     0

 24 24  0     0  0            999 V2000
    1.4292   -6.1917    0.0000 C   0  0  0  0  0  0           0  0  0
    2.0292   -6.1917    0.0000 C   0  0  0  0  0  0           0  0  0
    2.9917   -3.4792    0.0000 C   0  0  0  0  0  0           0  0  0
    2.9917   -4.0792    0.0000 C   0  0  3  0  0  0           0  0  0
    2.4792   -4.3792    0.0000 N   0  0  0  0  0  0           0  0  0
    0.9125   -5.8917    0.0000 C   0  0  0  0  0  0           0  0  0
    0.9125   -5.2792    0.0000 O   0  0  0  0  0  0           0  0  0
    2.3292   -5.6667    0.0000 O   0  0  0  0  0  0           0  0  0
    2.4667   -3.1792    0.0000 O   0  0  0  0  0  0           0  0  0
    1.9542   -4.0792    0.0000 C   0  0  0  0  0  0           0  0  0
    1.4292   -4.3750    0.0000 C   0  0  3  0  0  0           0  0  0
    1.4292   -4.9792    0.0000 C   0  0  0  0  0  0           0  0  0
    2.3292   -6.7042    0.0000 O   0  0  0  0  0  0           0  0  0
    3.5125   -3.1792    0.0000 O   0  0  0  0  0  0           0  0  0
    1.4292   -6.7792    0.0000 C   0  0  0  0  0  0           0  0  0
    0.9125   -4.0792    0.0000 O   0  0  0  0  0  0           0  0  0
    3.5167   -4.3792    0.0000 C   0  0  0  0  0  0           0  0  0
    2.9917   -4.6792    0.0000 C   0  0  0  0  0  0           0  0  0
    0.3792   -6.1875    0.0000 C   0  0  0  0  0  0           0  0  0
    3.5042   -2.5792    0.0000 C   0  0  0  0  0  0           0  0  0
    2.9292   -6.7042    0.0000 C   0  0  0  0  0  0           0  0  0
    0.9125   -7.0875    0.0000 C   0  0  0  0  0  0           0  0  0
    4.0250   -2.2750    0.0000 C   0  0  0  0  0  0           0  0  0
    0.3792   -6.7917    0.0000 C   0  0  0  0  0  0           0  0  0
  2  1  1  0     0  0
  3  4  1  0     0  0
  4  5  1  0     0  0
  5 10  1  0     0  0
  6  1  1  0     0  0
  7  6  1  0     0  0
  8  2  2  0     0  0
  9  3  2  0     0  0
 10 11  1  0     0  0
 11 12  1  0     0  0
 12  7  1  0     0  0
 13  2  1  0     0  0
 14  3  1  0     0  0
 15  1  2  0     0  0
 16 11  1  0     0  0
 17  4  1  0     0  0
 18  4  1  0     0  0
 19  6  2  0     0  0
 20 14  1  0     0  0
 21 13  1  0     0  0
 22 15  1  0     0  0
 23 20  1  0     0  0
 24 22  2  0     0  0
 19 24  1  0     0  0
M  END