
  CDK    9/16/09,9:46

 30 33  0  0  0  0  0  0  0  0999 V2000
   14.8489   -1.6834    0.0000 C   0  0  0  0  0  0  0  0  0  0  0  0
   14.6270   -2.4806    0.0000 C   0  0  0  0  0  0  0  0  0  0  0  0
   15.2039   -3.0687    0.0000 C   0  0  0  0  0  0  0  0  0  0  0  0
   15.6430   -1.4749    0.0000 C   0  0  0  0  0  0  0  0  0  0  0  0
   16.2260   -2.0603    0.0000 C   0  0  0  0  0  0  0  0  0  0  0  0
   16.0047   -2.8620    0.0000 C   0  0  0  0  0  0  0  0  0  0  0  0
   16.6987   -3.3201    0.0000 N   0  0  0  0  0  0  0  0  0  0  0  0
   17.0568   -2.0232    0.0000 C   0  0  0  0  0  0  0  0  0  0  0  0
   17.3484   -2.8015    0.0000 C   0  0  0  0  0  0  0  0  0  0  0  0
   18.1665   -2.9366    0.0000 C   0  0  0  0  0  0  0  0  0  0  0  0
   18.6938   -2.2945    0.0000 N   0  0  0  0  0  0  0  0  0  0  0  0
   18.3972   -1.5148    0.0000 C   0  0  0  0  0  0  0  0  0  0  0  0
   17.5799   -1.3832    0.0000 C   0  0  0  0  0  0  0  0  0  0  0  0
   18.9182   -0.8751    0.0000 C   0  0  0  0  0  0  0  0  0  0  0  0
   19.7325   -1.0064    0.0000 O   0  0  0  0  0  0  0  0  0  0  0  0
   18.6246   -0.1042    0.0000 O   0  0  0  0  0  0  0  0  0  0  0  0
   19.1455    0.5355    0.0000 C   0  0  0  0  0  0  0  0  0  0  0  0
   18.8521    1.3065    0.0000 C   0  0  0  0  0  0  0  0  0  0  0  0
   14.2700   -1.0958    0.0000 O   0  0  0  0  0  0  0  0  0  0  0  0
   14.4893   -0.3006    0.0000 C   0  0  0  0  0  0  0  0  0  0  0  0
   13.9103    0.2870    0.0000 C   0  0  0  0  0  0  0  0  0  0  0  0
   14.1332    1.0808    0.0000 C   0  0  0  0  0  0  0  0  0  0  0  0
   13.5550    1.6681    0.0000 C   0  0  0  0  0  0  0  0  0  0  0  0
   12.7557    1.4607    0.0000 C   0  0  0  0  0  0  0  0  0  0  0  0
   12.5377    0.6606    0.0000 C   0  0  0  0  0  0  0  0  0  0  0  0
   13.1175    0.0768    0.0000 C   0  0  0  0  0  0  0  0  0  0  0  0
   17.2870   -0.6121    0.0000 C   0  0  0  0  0  0  0  0  0  0  0  0
   16.4727   -0.4801    0.0000 O   0  0  0  0  0  0  0  0  0  0  0  0
   16.1798    0.2910    0.0000 C   0  0  0  0  0  0  0  0  0  0  0  0
   19.9600    0.4042    0.0000 C   0  0  0  0  0  0  0  0  0  0  0  0
 12 14  1  0  0  0  0 
  6  7  1  0  0  0  0 
 14 15  2  0  0  0  0 
  7  9  1  0  0  0  0 
 14 16  1  0  0  0  0 
  8  5  1  0  0  0  0 
 16 17  1  0  0  0  0 
  1  2  2  0  0  0  0 
 17 18  1  0  0  0  0 
  5  4  2  0  0  0  0 
  1 19  1  0  0  0  0 
  8  9  2  0  0  0  0 
 19 20  1  0  0  0  0 
  4  1  1  0  0  0  0 
 20 21  1  0  0  0  0 
  9 10  1  0  0  0  0 
 21 22  2  0  0  0  0 
  5  6  1  0  0  0  0 
 22 23  1  0  0  0  0 
 10 11  2  0  0  0  0 
 23 24  2  0  0  0  0 
 24 25  1  0  0  0  0 
 11 12  1  0  0  0  0 
 25 26  2  0  0  0  0 
 26 21  1  0  0  0  0 
  2  3  1  0  0  0  0 
 13 27  1  0  0  0  0 
 12 13  2  0  0  0  0 
 27 28  1  0  0  0  0 
 13  8  1  0  0  0  0 
 28 29  1  0  0  0  0 
  3  6  2  0  0  0  0 
 17 30  1  0  0  0  0 
M  END