
  SciTegic01161211252D

 40 41  0  0  0  0            999 V2000
   19.6946   -9.0773    0.0000 Na  0  3
   13.7145   -6.6276    0.0000 C   0  0  1  0  0  0
   13.7145   -7.4559    0.0000 C   0  0  2  0  0  0
   14.4258   -7.8657    0.0000 C   0  0  2  0  0  0
   15.1413   -7.4559    0.0000 C   0  0
   15.1413   -6.6276    0.0000 C   0  0  2  0  0  0
   14.4258   -6.2093    0.0000 O   0  0
   15.8527   -7.0439    0.0000 O   0  0
   15.5463   -5.9134    0.0000 C   0  0
   16.3746   -5.9020    0.0000 O   0  0
   15.1287   -5.1999    0.0000 O   0  5
   12.9976   -6.2188    0.0000 C   0  0  1  0  0  0
   12.2802   -6.6339    0.0000 C   0  0  2  0  0  0
   10.8530   -7.4691    0.0000 C   0  0
   10.1356   -7.8842    0.0000 C   0  0
   10.8494   -6.6408    0.0000 O   0  0
    9.4238   -7.4698    0.0000 C   0  0
    8.7072   -7.8839    0.0000 C   0  0
    8.7101   -8.7135    0.0000 C   0  0
    9.4346   -9.1221    0.0000 C   0  0
   10.1427   -8.7043    0.0000 C   0  0
   12.2802   -7.4590    0.0000 C   0  0
   13.0013   -8.6925    0.0000 C   0  0
   12.2871   -9.1062    0.0000 O   0  0
   13.7214   -9.1030    0.0000 C   0  0
   13.6932   -5.8038    0.0000 H   0  0
   15.8480   -7.8678    0.0000 C   0  0
   16.5593   -8.2840    0.0000 C   0  0
   16.5500   -9.1068    0.0000 C   0  0
   17.2604   -9.5229    0.0000 C   0  0
   17.9774   -9.1149    0.0000 C   0  0
   17.9796   -8.2866    0.0000 C   0  0
   17.2685   -7.8742    0.0000 C   0  0
    7.9993   -9.1304    0.0000 Cl  0  0
   18.6893   -9.5302    0.0000 Cl  0  0
   12.9972   -5.3886    0.0000 O   0  0
   11.5655   -6.2196    0.0000 O   0  0
   11.5695   -7.8781    0.0000 N   0  0
   14.4291   -8.6879    0.0000 O   0  0
   12.9995   -7.8675    0.0000 N   0  0
 12 13  1  0
 13 22  1  0
 14 15  1  0
 14 16  2  0
 15 17  2  0
 17 18  1  0
 18 19  2  0
 19 20  1  0
 20 21  2  0
 21 15  1  0
 23 24  2  0
 23 25  1  0
  2 26  1  1
  8 27  1  0
 27 28  1  0
  2  3  1  0
 28 29  2  0
  2  7  1  0
 29 30  1  0
  3  4  1  0
 30 31  2  0
  4  5  1  0
 31 32  1  0
  5  6  1  0
 32 33  2  0
 33 28  1  0
  6  7  1  0
 19 34  1  0
  6  8  1  0
 31 35  1  0
  6  9  1  1
  9 10  2  0
  9 11  1  0
  2 12  1  0
 13 37  1  1
 22 38  1  0
 38 14  1  0
 12 36  1  6
  4 39  1  6
  3 40  1  1
 40 23  1  0
M  CHG  2   1   1  11  -1
M  END