
  SciTegic01161211242D

 11 10  0  0  0  0            999 V2000
    0.7500   -1.0323    0.0000 S   0  0
    1.2135    0.3943    0.0000 C   0  0
    0.0000    1.2760    0.0000 N   0  0
   -0.7500   -1.0323    0.0000 C   0  0
   -1.2135    0.3943    0.0000 C   0  0
    2.3548    0.7651    0.0000 C   0  0
   -1.6281   -2.2462    0.0000 C   0  0
   -1.7190   -4.5887    0.0000 N   0  0
   -1.0157   -3.6164    0.0000 C   0  0
   -2.3548    0.7651    0.0000 C   0  0
    5.1408   -1.7782    0.0000 Br  0  0
  1  2  1  0
  2  3  2  0
  1  4  1  0
  3  5  1  0
  4  5  2  0
  2  6  1  0
  4  7  1  0
  7  9  1  0
  8  9  1  0
  5 10  1  0
M  END