
  Mrv0541 05211314572D          

 97 99  0  0  0  0            999 V2000
  -12.6495   -1.8401    0.0000 C   0  0  0  0  0  0  0  0  0  0  0  0
  -12.5876   -1.0175    0.0000 O   0  0  0  0  0  0  0  0  0  0  0  0
  -13.2690   -0.5525    0.0000 C   0  0  0  0  0  0  0  0  0  0  0  0
  -14.0125   -0.9102    0.0000 C   0  0  0  0  0  0  0  0  0  0  0  0
  -14.6939   -0.4452    0.0000 C   0  0  0  0  0  0  0  0  0  0  0  0
  -14.6320    0.3775    0.0000 C   0  0  0  0  0  0  0  0  0  0  0  0
  -13.8886    0.7352    0.0000 C   0  0  0  0  0  0  0  0  0  0  0  0
  -13.2071    0.2702    0.0000 C   0  0  0  0  0  0  0  0  0  0  0  0
  -12.4637    0.6279    0.0000 C   0  0  0  0  0  0  0  0  0  0  0  0
  -11.7822    0.1629    0.0000 N   0  0  0  0  0  0  0  0  0  0  0  0
  -11.0388    0.5206    0.0000 C   0  0  0  0  0  0  0  0  0  0  0  0
  -10.3573    0.0556    0.0000 C   0  0  0  0  0  0  0  0  0  0  0  0
   -9.6138    0.4133    0.0000 C   0  0  0  0  0  0  0  0  0  0  0  0
   -8.9324   -0.0517    0.0000 C   0  0  0  0  0  0  0  0  0  0  0  0
   -8.1889    0.3060    0.0000 C   0  0  0  0  0  0  0  0  0  0  0  0
   -7.5075   -0.1590    0.0000 C   0  0  0  0  0  0  0  0  0  0  0  0
   -6.7640    0.1986    0.0000 N   0  0  0  0  0  0  0  0  0  0  0  0
   -6.7021    1.0213    0.0000 C   0  0  0  0  0  0  0  0  0  0  0  0
   -6.0826   -0.2663    0.0000 C   0  0  0  0  0  0  0  0  0  0  0  0
   -5.3391    0.0913    0.0000 C   0  0  0  0  0  0  0  0  0  0  0  0
   -4.6576   -0.3736    0.0000 C   0  0  0  0  0  0  0  0  0  0  0  0
   -3.9142   -0.0160    0.0000 C   0  0  0  0  0  0  0  0  0  0  0  0
   -3.2327   -0.4809    0.0000 C   0  0  0  0  0  0  0  0  0  0  0  0
   -2.4893   -0.1233    0.0000 C   0  0  0  0  0  0  0  0  0  0  0  0
   -1.8078   -0.5883    0.0000 C   0  0  0  0  0  0  0  0  0  0  0  0
   -1.0644   -0.2306    0.0000 C   0  0  0  0  0  0  0  0  0  0  0  0
   -0.3829   -0.6956    0.0000 N   0  0  0  0  0  0  0  0  0  0  0  0
   -0.4449   -1.5182    0.0000 C   0  0  0  0  0  0  0  0  0  0  0  0
    0.3605   -0.3379    0.0000 C   0  0  0  0  0  0  0  0  0  0  0  0
    1.0420   -0.8029    0.0000 C   0  0  0  0  0  0  0  0  0  0  0  0
    1.7854   -0.4452    0.0000 C   0  0  0  0  0  0  0  0  0  0  0  0
    2.4669   -0.9102    0.0000 C   0  0  0  0  0  0  0  0  0  0  0  0
    3.2103   -0.5525    0.0000 C   0  0  0  0  0  0  0  0  0  0  0  0
    3.8918   -1.0175    0.0000 C   0  0  0  0  0  0  0  0  0  0  0  0
    4.6352   -0.6598    0.0000 N   0  0  0  0  0  0  0  0  0  0  0  0
    5.3167   -1.1248    0.0000 C   0  0  0  0  0  0  0  0  0  0  0  0
    6.0601   -0.7671    0.0000 C   0  0  0  0  0  0  0  0  0  0  0  0
    6.1221    0.0556    0.0000 O   0  0  0  0  0  0  0  0  0  0  0  0
    6.7416   -1.2321    0.0000 N   0  0  0  0  0  0  0  0  0  0  0  0
    7.4562   -0.8198    0.0000 C   0  0  0  0  0  0  0  0  0  0  0  0
    7.3336   -0.0040    0.0000 C   0  0  0  0  0  0  0  0  0  0  0  0
    7.9788    0.5101    0.0000 C   0  0  0  0  0  0  0  0  0  0  0  0
    8.7466    0.2084    0.0000 C   0  0  0  0  0  0  0  0  0  0  0  0
    8.8693   -0.6074    0.0000 C   0  0  0  0  0  0  0  0  0  0  0  0
    8.2241   -1.1215    0.0000 C   0  0  0  0  0  0  0  0  0  0  0  0
    8.4670   -1.9100    0.0000 C   0  0  0  0  0  0  0  0  0  0  0  0
    9.2827   -2.0332    0.0000 O   0  0  0  0  0  0  0  0  0  0  0  0
    8.0020   -2.5914    0.0000 N   0  0  0  0  0  0  0  0  0  0  0  0
    7.1793   -2.6528    0.0000 C   0  0  0  0  0  0  0  0  0  0  0  0
    6.9358   -3.4411    0.0000 C   0  0  0  0  0  0  0  0  0  0  0  0
    6.1314   -3.6243    0.0000 C   0  0  0  0  0  0  0  0  0  0  0  0
    5.5705   -3.0194    0.0000 C   0  0  0  0  0  0  0  0  0  0  0  0
    5.8140   -2.2311    0.0000 N   0  0  0  0  0  0  0  0  0  0  0  0
    6.6184   -2.0478    0.0000 C   0  0  0  0  0  0  0  0  0  0  0  0
    4.6972    0.1629    0.0000 C   0  0  0  0  0  0  0  0  0  0  0  0
    4.0157    0.6279    0.0000 C   0  0  0  0  0  0  0  0  0  0  0  0
    3.2723    0.2702    0.0000 O   0  0  0  0  0  0  0  0  0  0  0  0
    4.0777    1.4505    0.0000 N   0  0  0  0  0  0  0  0  0  0  0  0
    3.3633    1.8633    0.0000 C   0  0  0  0  0  0  0  0  0  0  0  0
    2.7181    1.3492    0.0000 C   0  0  0  0  0  0  0  0  0  0  0  0
    1.9503    1.6508    0.0000 C   0  0  0  0  0  0  0  0  0  0  0  0
    1.8276    2.4667    0.0000 C   0  0  0  0  0  0  0  0  0  0  0  0
    2.4728    2.9808    0.0000 C   0  0  0  0  0  0  0  0  0  0  0  0
    3.2407    2.6791    0.0000 C   0  0  0  0  0  0  0  0  0  0  0  0
    3.8020    3.2837    0.0000 C   0  0  0  0  0  0  0  0  0  0  0  0
    3.5009    4.0518    0.0000 O   0  0  0  0  0  0  0  0  0  0  0  0
    4.6247    3.2217    0.0000 N   0  0  0  0  0  0  0  0  0  0  0  0
    5.0892    2.5399    0.0000 C   0  0  0  0  0  0  0  0  0  0  0  0
    5.8936    2.7232    0.0000 C   0  0  0  0  0  0  0  0  0  0  0  0
    6.4545    2.1182    0.0000 C   0  0  0  0  0  0  0  0  0  0  0  0
    6.2110    1.3300    0.0000 C   0  0  0  0  0  0  0  0  0  0  0  0
    5.4067    1.1467    0.0000 N   0  0  0  0  0  0  0  0  0  0  0  0
    4.8457    1.7517    0.0000 C   0  0  0  0  0  0  0  0  0  0  0  0
   12.2291    1.0717    0.0000 O   0  0  0  0  0  0  0  0  0  0  0  0
   12.6416    0.3572    0.0000 C   0  0  0  0  0  0  0  0  0  0  0  0
   13.4666    0.3572    0.0000 O   0  0  0  0  0  0  0  0  0  0  0  0
   12.2291   -0.3572    0.0000 C   0  0  0  0  0  0  0  0  0  0  0  0
   12.6416   -1.0717    0.0000 O   0  0  0  0  0  0  0  0  0  0  0  0
   11.4041   -0.3572    0.0000 O   0  0  0  0  0  0  0  0  0  0  0  0
   16.4131    1.0717    0.0000 O   0  0  0  0  0  0  0  0  0  0  0  0
   16.8256    0.3572    0.0000 C   0  0  0  0  0  0  0  0  0  0  0  0
   17.6506    0.3572    0.0000 O   0  0  0  0  0  0  0  0  0  0  0  0
   16.4131   -0.3572    0.0000 C   0  0  0  0  0  0  0  0  0  0  0  0
   16.8256   -1.0717    0.0000 O   0  0  0  0  0  0  0  0  0  0  0  0
   15.5881   -0.3572    0.0000 O   0  0  0  0  0  0  0  0  0  0  0  0
   -0.2063   -5.2743    0.0000 O   0  0  0  0  0  0  0  0  0  0  0  0
    0.2062   -5.9888    0.0000 C   0  0  0  0  0  0  0  0  0  0  0  0
    1.0313   -5.9888    0.0000 O   0  0  0  0  0  0  0  0  0  0  0  0
   -0.2063   -6.7033    0.0000 C   0  0  0  0  0  0  0  0  0  0  0  0
    0.2063   -7.4178    0.0000 O   0  0  0  0  0  0  0  0  0  0  0  0
   -1.0313   -6.7033    0.0000 O   0  0  0  0  0  0  0  0  0  0  0  0
    3.9777   -5.2743    0.0000 O   0  0  0  0  0  0  0  0  0  0  0  0
    4.3902   -5.9888    0.0000 C   0  0  0  0  0  0  0  0  0  0  0  0
    5.2152   -5.9888    0.0000 O   0  0  0  0  0  0  0  0  0  0  0  0
    3.9777   -6.7033    0.0000 C   0  0  0  0  0  0  0  0  0  0  0  0
    4.3902   -7.4178    0.0000 O   0  0  0  0  0  0  0  0  0  0  0  0
    3.1527   -6.7033    0.0000 O   0  0  0  0  0  0  0  0  0  0  0  0
  1  2  1  0  0  0  0
  2  3  1  0  0  0  0
  3  4  2  0  0  0  0
  4  5  1  0  0  0  0
  5  6  2  0  0  0  0
  6  7  1  0  0  0  0
  7  8  2  0  0  0  0
  8  3  1  0  0  0  0
  8  9  1  0  0  0  0
  9 10  1  0  0  0  0
 10 11  1  0  0  0  0
 11 12  1  0  0  0  0
 12 13  1  0  0  0  0
 13 14  1  0  0  0  0
 14 15  1  0  0  0  0
 15 16  1  0  0  0  0
 16 17  1  0  0  0  0
 17 18  1  0  0  0  0
 17 19  1  0  0  0  0
 19 20  1  0  0  0  0
 20 21  1  0  0  0  0
 21 22  1  0  0  0  0
 22 23  1  0  0  0  0
 23 24  1  0  0  0  0
 24 25  1  0  0  0  0
 25 26  1  0  0  0  0
 26 27  1  0  0  0  0
 27 28  1  0  0  0  0
 27 29  1  0  0  0  0
 29 30  1  0  0  0  0
 30 31  1  0  0  0  0
 31 32  1  0  0  0  0
 32 33  1  0  0  0  0
 33 34  1  0  0  0  0
 34 35  1  0  0  0  0
 35 36  1  0  0  0  0
 36 37  1  0  0  0  0
 37 38  2  0  0  0  0
 37 39  1  0  0  0  0
 39 40  1  0  0  0  0
 40 41  2  0  0  0  0
 41 42  1  0  0  0  0
 42 43  2  0  0  0  0
 43 44  1  0  0  0  0
 44 45  2  0  0  0  0
 45 40  1  0  0  0  0
 45 46  1  0  0  0  0
 46 47  2  0  0  0  0
 46 48  1  0  0  0  0
 48 49  1  0  0  0  0
 49 50  2  0  0  0  0
 50 51  1  0  0  0  0
 51 52  2  0  0  0  0
 52 53  1  0  0  0  0
 53 54  2  0  0  0  0
 54 39  1  0  0  0  0
 54 49  1  0  0  0  0
 35 55  1  0  0  0  0
 55 56  1  0  0  0  0
 56 57  2  0  0  0  0
 56 58  1  0  0  0  0
 58 59  1  0  0  0  0
 59 60  2  0  0  0  0
 60 61  1  0  0  0  0
 61 62  2  0  0  0  0
 62 63  1  0  0  0  0
 63 64  2  0  0  0  0
 64 59  1  0  0  0  0
 64 65  1  0  0  0  0
 65 66  2  0  0  0  0
 65 67  1  0  0  0  0
 67 68  1  0  0  0  0
 68 69  2  0  0  0  0
 69 70  1  0  0  0  0
 70 71  2  0  0  0  0
 71 72  1  0  0  0  0
 72 73  2  0  0  0  0
 73 58  1  0  0  0  0
 73 68  1  0  0  0  0
 74 75  1  0  0  0  0
 75 76  2  0  0  0  0
 75 77  1  0  0  0  0
 77 78  2  0  0  0  0
 77 79  1  0  0  0  0
 80 81  1  0  0  0  0
 81 82  2  0  0  0  0
 81 83  1  0  0  0  0
 83 84  2  0  0  0  0
 83 85  1  0  0  0  0
 86 87  1  0  0  0  0
 87 88  2  0  0  0  0
 87 89  1  0  0  0  0
 89 90  2  0  0  0  0
 89 91  1  0  0  0  0
 92 93  1  0  0  0  0
 93 94  2  0  0  0  0
 93 95  1  0  0  0  0
 95 96  2  0  0  0  0
 95 97  1  0  0  0  0
M  END