
  SciTegic03161210572D

 37 38  0  0  0  0            999 V2000
   11.2042  -17.5125    0.0000 F   0  0
   11.6208  -18.2292    0.0000 C   0  0
   12.0332  -17.5100    0.0000 F   0  0
   11.3125  -19.3542    0.0000 F   0  0
   10.9042  -18.6417    0.0000 C   0  0
   10.4913  -19.3515    0.0000 F   0  0
    9.7750  -17.5125    0.0000 F   0  0
   10.1917  -18.2292    0.0000 C   0  0
   10.6040  -17.5100    0.0000 F   0  0
    9.8833  -19.3542    0.0000 F   0  0
    9.4750  -18.6417    0.0000 C   0  0
    9.0621  -19.3515    0.0000 F   0  0
    8.3458  -17.5125    0.0000 F   0  0
    8.7625  -18.2292    0.0000 C   0  0
    9.1748  -17.5100    0.0000 F   0  0
    8.4542  -19.3542    0.0000 F   0  0
    8.0458  -18.6417    0.0000 C   0  0
    7.6330  -19.3515    0.0000 F   0  0
    6.6208  -18.6458    0.0000 N   0  0
    7.3353  -18.2333    0.0000 C   0  0
    7.3353  -17.4083    0.0000 O   0  0
   12.3366  -18.6458    0.0000 C   0  0
   13.0511  -18.2333    0.0000 N   0  0
   12.3366  -19.4708    0.0000 O   0  0
   13.7655  -18.6458    0.0000 O   0  0
    5.9064  -18.2333    0.0000 C   0  0
    5.9113  -17.4073    0.0000 C   0  0
    5.1977  -16.9948    0.0000 C   0  0
    4.4822  -17.4074    0.0000 C   0  0
    4.4849  -18.2367    0.0000 C   0  0
    5.1991  -18.6453    0.0000 C   0  0
    5.2036  -19.4652    0.0000 C   0  0
    4.4891  -19.8799    0.0000 C   0  0
    4.4920  -20.7041    0.0000 C   0  0
    5.2086  -21.1147    0.0000 C   0  0
    5.9238  -20.6950    0.0000 C   0  0
    5.9174  -19.8721    0.0000 C   0  0
 17 14  1  0
 14 11  1  0
 11  8  1  0
  8  5  1  0
  5  2  1  0
 14 13  1  0
  2 22  1  0
 15 14  1  0
 22 23  1  0
  9  8  1  0
 22 24  2  0
  5  4  1  0
 23 25  1  0
  6  5  1  0
 19 26  1  0
 17 16  1  0
 26 27  2  0
 18 17  1  0
 27 28  1  0
 28 29  2  0
 11 10  1  0
 29 30  1  0
 12 11  1  0
 30 31  2  0
 31 26  1  0
  2  1  1  0
  3  2  1  0
 32 33  2  0
 19 20  1  0
 33 34  1  0
 20 17  1  0
 34 35  2  0
  8  7  1  0
 35 36  1  0
 20 21  2  0
 36 37  2  0
 37 32  1  0
 31 32  1  0
M  END