
  SciTegic05061116452D

 32 34  0  0  0  0            999 V2000
    7.4563  -22.4406    0.0000 C   0  0
    7.4604  -23.2638    0.0000 C   0  0
    6.7461  -23.6764    0.0000 C   0  0
    6.0302  -23.2632    0.0000 C   0  0
    6.0331  -22.4332    0.0000 C   0  0
    6.7481  -22.0245    0.0000 C   0  0
    8.1675  -22.0239    0.0000 C   0  0
    8.1669  -21.1987    0.0000 N   0  0
    5.3162  -23.6726    0.0000 C   0  0
    4.6014  -23.2567    0.0000 C   0  0
    3.8862  -23.6677    0.0000 C   0  0
    3.8843  -24.4943    0.0000 C   0  0
    4.6037  -24.9082    0.0000 C   0  0
    5.3161  -24.4949    0.0000 C   0  0
    7.7509  -19.9291    0.0000 N   0  0
    7.4967  -20.7140    0.0000 C   0  0
    8.5761  -19.9284    0.0000 C   0  0
    8.8343  -20.7082    0.0000 C   0  0
    9.6557  -20.7038    0.0000 N   0  0
    9.9053  -19.9211    0.0000 C   0  0
    9.2381  -19.4420    0.0000 C   0  0
   10.6893  -19.6616    0.0000 C   0  0
   10.8565  -18.8530    0.0000 O   0  0
   11.3059  -20.2108    0.0000 O   0  0
   11.6404  -18.5936    0.0000 C   0  0
    6.7117  -20.9704    0.0000 C   0  0
    6.0973  -20.4189    0.0000 C   0  0
    5.3125  -20.6752    0.0000 C   0  0
    4.6037  -22.4310    0.0000 C   0  0
    5.3200  -22.0202    0.0000 O   0  0
    3.8897  -22.0163    0.0000 O   0  5
    3.6250  -20.2813    0.0000 Na  0  3
  3  4  2  0
  7  8  1  0
 17 15  1  0
 15 16  2  0
 16  8  1  0
 17 18  2  0
  7  1  1  0
  4  5  1  0
  9 10  2  0
  2  3  1  0
 18 19  1  0
 19 20  1  0
 20 21  2  0
 21 17  1  0
 10 11  1  0
 20 22  1  0
  5  6  2  0
 22 23  1  0
 11 12  2  0
 22 24  2  0
  6  1  1  0
 23 25  1  0
 12 13  1  0
 16 26  1  0
  1  2  2  0
 26 27  1  0
 13 14  2  0
 27 28  1  0
 14  9  1  0
 10 29  1  0
  4  9  1  0
 29 30  2  0
  8 18  1  0
 29 31  1  0
M  CHG  2  31  -1  32   1
M  END