
          11280715342D 1   1.00000     0.00000     0

 30 31  0     0  0            999 V2000
    1.5000   -5.1500    0.0000 S   0  0  3  0  0  0           0  0  0
    4.7917   -5.1292    0.0000 C   0  0  0  0  0  0           0  0  0
    7.6667   -7.2667    0.0000 C   0  0  3  0  0  0           0  0  0
    8.4917   -7.2917    0.0000 C   0  0  0  0  0  0           0  0  0
    7.2750   -6.5417    0.0000 N   0  0  0  0  0  0           0  0  0
    2.3167   -5.1417    0.0000 C   0  0  0  0  0  0           0  0  0
    6.4500   -6.5500    0.0000 C   0  0  0  0  0  0           0  0  0
    5.2042   -5.8417    0.0000 N   0  0  0  0  0  0           0  0  0
    1.4917   -5.9667    0.0000 O   0  0  0  0  0  0           0  0  0
    1.5000   -4.3167    0.0000 O   0  0  0  0  0  0           0  0  0
    3.9667   -5.1375    0.0000 C   0  0  0  0  0  0           0  0  0
    0.6750   -5.1417    0.0000 N   0  0  0  0  0  0           0  0  0
    7.2375   -7.9750    0.0000 C   0  0  0  0  0  0           0  0  0
    5.2000   -4.4167    0.0000 O   0  0  0  0  0  0           0  0  0
    8.9250   -6.5917    0.0000 O   0  0  0  0  0  0           0  0  0
    6.0417   -7.2667    0.0000 O   0  0  0  0  0  0           0  0  0
    2.7250   -4.4292    0.0000 C   0  0  0  0  0  0           0  0  0
    2.7375   -5.8542    0.0000 C   0  0  0  0  0  0           0  0  0
    3.5542   -5.8542    0.0000 C   0  0  0  0  0  0           0  0  0
    3.5417   -4.4250    0.0000 C   0  0  0  0  0  0           0  0  0
    6.0292   -5.8375    0.0000 C   0  0  0  0  0  0           0  0  0
    7.6292   -8.7000    0.0000 C   0  0  0  0  0  0           0  0  0
    8.8875   -8.0167    0.0000 O   0  0  0  0  0  0           0  0  0
    8.4167  -10.1417    0.0000 C   0  0  0  0  0  0           0  0  0
    8.4542   -8.7167    0.0000 C   0  0  0  0  0  0           0  0  0
    7.1917   -9.3917    0.0000 C   0  0  0  0  0  0           0  0  0
    7.5875  -10.1167    0.0000 C   0  0  0  0  0  0           0  0  0
    8.8417   -9.4417    0.0000 C   0  0  0  0  0  0           0  0  0
    8.8042  -10.8667    0.0000 O   0  0  0  0  0  0           0  0  0
    9.6292  -10.8917    0.0000 C   0  0  0  0  0  0           0  0  0
  2 11  1  0     0  0
  3  5  1  0     0  0
  4  3  1  0     0  0
  5  7  1  0     0  0
  6  1  1  0     0  0
  7 21  1  0     0  0
  8  2  1  0     0  0
  9  1  2  0     0  0
 10  1  2  0     0  0
 11 19  2  0     0  0
 12  1  1  0     0  0
 13  3  1  0     0  0
 14  2  2  0     0  0
 15  4  2  0     0  0
 16  7  2  0     0  0
 17  6  1  0     0  0
 18  6  2  0     0  0
 19 18  1  0     0  0
 20 17  2  0     0  0
 21  8  1  0     0  0
 22 13  1  0     0  0
 23  4  1  0     0  0
 24 27  1  0     0  0
 25 22  2  0     0  0
 26 22  1  0     0  0
 27 26  2  0     0  0
 28 25  1  0     0  0
 29 24  1  0     0  0
 30 29  1  0     0  0
 11 20  1  0     0  0
 24 28  2  0     0  0
M  END