
  SciTegic09081514172D

 68 71  0  0  0  0            999 V2000
   -1.0150   -9.4143    0.0000 N   0  0
    0.4858   -9.4089    0.0000 C   0  0  2  0  0  0
    0.6289   -7.0697    0.0000 O   0  0
    1.2323   -8.1069    0.0000 C   0  0
    1.2431  -10.7046    0.0000 C   0  0
    2.4431  -10.6990    0.0000 O   0  0
    2.7305   -8.1014    0.0000 N   0  0
    3.6078   -6.9005    0.0000 C   0  0
    1.9582   -5.2359    0.0000 O   0  0
    3.1338   -5.4765    0.0000 C   0  0
    5.0317   -7.3301    0.0000 C   0  0
    3.6233   -9.3068    0.0000 C   0  0
    5.0456   -8.8301    0.0000 C   0  0
    4.1293   -4.3534    0.0000 N   0  0
    3.6552   -2.9294    0.0000 C   0  0  2  0  0  0
    5.8263   -2.0469    0.0000 O   0  0
    4.6507   -1.8062    0.0000 C   0  0
    2.1855   -2.6254    0.0000 C   0  0
    2.5889    0.0182    0.0000 C   0  0
    1.7138   -1.2033    0.0000 C   0  0
    1.7138    1.2033    0.0000 N   0  0
    0.2917   -0.7475    0.0000 C   0  0
    0.2917    0.7475    0.0000 C   0  0
   -1.0028    1.5132    0.0000 C   0  0
   -2.3155    0.7475    0.0000 C   0  0
   -2.3155   -0.7475    0.0000 C   0  0
   -1.0028   -1.5132    0.0000 C   0  0
    4.1767   -0.3822    0.0000 N   0  0
    5.1721    0.7409    0.0000 C   0  0  1  0  0  0
    3.5225    2.4056    0.0000 O   0  0
    6.3478    0.5003    0.0000 C   0  0
    4.6981    2.1649    0.0000 C   0  0
    5.6936    3.2881    0.0000 N   0  0
    5.2195    4.7121    0.0000 C   0  0  2  0  0  0
    7.3906    5.5946    0.0000 O   0  0
    6.2150    5.8352    0.0000 C   0  0
    3.7498    5.0161    0.0000 C   0  0  2  0  0  0
    3.3721    6.1551    0.0000 O   0  0
    2.9520    4.1197    0.0000 C   0  0
    5.7410    7.2592    0.0000 N   0  0
    6.7365    8.3824    0.0000 C   0  0  2  0  0  0
    5.0868   10.0471    0.0000 O   0  0
    6.2624    9.8064    0.0000 C   0  0
    8.2074    8.0844    0.0000 C   0  0
    9.0024    8.9833    0.0000 S   0  0
    7.2579   10.9295    0.0000 N   0  0
    6.7839   12.3535    0.0000 C   0  0  2  0  0  0
    8.9550   13.2360    0.0000 O   0  0
    7.7794   13.4767    0.0000 C   0  0
    5.3141   12.6576    0.0000 C   0  0
    4.8417   14.0821    0.0000 C   0  0
    3.6666   14.3252    0.0000 O   0  0
    5.6395   14.9785    0.0000 O   0  0
    7.3053   14.9007    0.0000 N   0  0
    8.3008   16.0239    0.0000 C   0  0  2  0  0  0
   10.5667   16.6248    0.0000 O   0  0
    9.7717   15.7259    0.0000 C   0  0
    7.8268   17.4479    0.0000 C   0  0
    8.3505   19.9949    0.0000 C   0  0
    8.8222   18.5710    0.0000 C   0  0
   10.2913   18.2677    0.0000 C   0  0
   11.2885   19.3882    0.0000 C   0  0
   10.8167   20.8121    0.0000 C   0  0
    9.3477   21.1155    0.0000 C   0  0
   10.1531   14.5881    0.0000 N   0  0
   -1.7616  -10.7163    0.0000 C   0  0
   -2.9616  -10.7206    0.0000 O   0  0
   -1.1582  -11.7536    0.0000 C   0  0
  4  7  1  0
 10 14  1  0
 17 28  1  0
 32 33  1  0
 36 40  1  0
 43 46  1  0
 49 54  1  0
 57 65  1  0
  2  1  1  6
  2  4  1  0
  4  3  2  0
  2  5  1  0
  5  6  1  0
  7  8  1  0
 10  8  1  0
 10  9  2  0
  8 11  1  0
 12 13  1  0
 13 11  1  0
 12  7  1  0
 14 15  1  0
 15 17  1  0
 17 16  2  0
 15 18  1  1
 18 20  1  0
 19 20  2  0
 20 22  1  0
 21 19  1  0
 23 21  1  0
 22 23  2  0
 23 24  1  0
 24 25  2  0
 25 26  1  0
 26 27  2  0
 27 22  1  0
 28 29  1  0
 29 32  1  0
 32 30  2  0
 29 31  1  6
 34 33  1  1
 34 36  1  0
 36 35  2  0
 34 37  1  0
 37 38  1  1
 37 39  1  0
 40 41  1  0
 41 43  1  0
 43 42  2  0
 41 44  1  6
 44 45  1  0
 46 47  1  0
 47 49  1  0
 49 48  2  0
 47 50  1  1
 50 51  1  0
 51 52  2  0
 51 53  1  0
 54 55  1  0
 55 57  1  0
 57 56  2  0
 55 58  1  1
 58 60  1  0
 59 60  2  0
 60 61  1  0
 61 62  2  0
 62 63  1  0
 63 64  2  0
 64 59  1  0
  1 66  1  0
 66 67  2  0
 66 68  1  0
M  END