
  SciTegic07101214422D

 37 40  0  0  0  0            999 V2000
    4.9496  -19.9781    0.0000 C   0  0
    6.0346  -20.7883    0.0000 C   0  0  2  0  0  0
    5.5100  -20.3559    0.0000 C   0  0
    4.5242  -20.3559    0.0000 C   0  0
    4.3844  -19.5313    0.0000 N   0  3  2  0  0  0
    5.8920  -19.9599    0.0000 C   0  0
    3.9961  -21.0759    0.0000 C   0  0
    4.6282  -20.6949    0.0000 C   0  0
    6.4488  -21.5019    0.0000 C   0  0
    7.2739  -21.5000    0.0000 C   0  0
    7.6881  -22.2135    0.0000 C   0  0
    7.4839  -20.6975    0.0000 C   0  0
    7.6940  -19.8951    0.0000 N   0  0
    8.0674  -21.2809    0.0000 C   0  0
    7.2760  -22.9257    0.0000 C   0  0
    7.6895  -23.6387    0.0000 C   0  0
    8.5154  -23.6372    0.0000 C   0  0
    8.9261  -22.9168    0.0000 C   0  0
    8.5103  -22.2066    0.0000 C   0  0
    8.6526  -21.8613    0.0000 C   0  0
    9.4454  -21.6428    0.0000 C   0  0
    9.6531  -20.8453    0.0000 C   0  0
    9.0617  -20.2667    0.0000 C   0  0
    8.2712  -20.4882    0.0000 C   0  0
    3.5836  -19.3141    0.0000 C   0  0
    4.7921  -18.8140    0.0000 C   0  0
    4.3748  -18.1023    0.0000 C   0  0
    4.7824  -17.3850    0.0000 C   0  0
    4.3651  -16.6733    0.0000 O   0  0
    4.7728  -15.9560    0.0000 C   0  0
    4.3555  -15.2442    0.0000 C   0  0
    4.7663  -14.5290    0.0000 C   0  0
    4.3497  -13.8177    0.0000 C   0  0
    3.5238  -13.8229    0.0000 C   0  0
    3.1163  -14.5452    0.0000 C   0  0
    3.5352  -15.2535    0.0000 C   0  0
    5.9088  -18.3390    0.0000 Br  0  5
  1  8  1  0
 17 18  1  0
  7  8  1  0
 18 19  2  0
 19 11  1  0
 14 20  2  0
  2  9  1  6
 20 21  1  0
 21 22  2  0
  9 10  1  0
 22 23  1  0
  2  3  1  0
 23 24  2  0
 24 14  1  0
 10 11  1  0
  5 25  1  0
  3  4  1  0
  5 26  1  1
 10 12  1  0
 26 27  1  0
  4  5  1  0
 27 28  1  0
 12 13  3  0
 28 29  1  0
  5  1  1  0
 29 30  1  0
 10 14  1  0
 30 31  1  0
  1  6  1  0
 31 32  2  0
 11 15  2  0
 32 33  1  0
  6  2  1  0
 33 34  2  0
 15 16  1  0
 34 35  1  0
  4  7  1  0
 35 36  2  0
 36 31  1  0
 16 17  2  0
M  CHG  2   5   1  37  -1
M  END