
          11280715122D 1   1.00000     0.00000     0

 31 34  0     0  0            999 V2000
    7.7125   -8.6750    0.0000 C   0  0  0  0  0  0           0  0  0
    7.1792   -9.9042    0.0000 N   0  0  0  0  0  0           0  0  0
    4.7042   -4.3417    0.0000 C   0  0  0  0  0  0           0  0  0
    7.8917   -9.4792    0.0000 N   0  0  0  0  0  0           0  0  0
    6.5667   -9.3667    0.0000 N   0  0  0  0  0  0           0  0  0
    3.9875   -4.7542    0.0000 N   0  0  0  0  0  0           0  0  0
    6.8917   -8.6000    0.0000 N   0  0  0  0  0  0           0  0  0
    8.2625   -8.0542    0.0000 C   0  0  0  0  0  0           0  0  0
    4.7042   -3.5167    0.0000 C   0  0  0  0  0  0           0  0  0
    3.2750   -4.3417    0.0000 C   0  0  0  0  0  0           0  0  0
    8.2625   -7.2292    0.0000 C   0  0  0  0  0  0           0  0  0
    3.2750   -3.5167    0.0000 N   0  0  0  0  0  0           0  0  0
    5.4125   -4.7542    0.0000 N   0  0  3  0  0  0           0  0  0
    3.9875   -3.1042    0.0000 C   0  0  0  0  0  0           0  0  0
    7.5542   -6.8167    0.0000 C   0  0  0  0  0  0           0  0  0
    5.4125   -5.5792    0.0000 C   0  0  0  0  0  0           0  0  0
    7.5500   -5.9917    0.0000 C   0  0  0  0  0  0           0  0  0
    6.8375   -7.2292    0.0000 C   0  0  0  0  0  0           0  0  0
    6.1292   -5.9917    0.0000 C   0  0  0  0  0  0           0  0  0
    6.8375   -5.5792    0.0000 C   0  0  0  0  0  0           0  0  0
    6.1250   -6.8167    0.0000 C   0  0  0  0  0  0           0  0  0
    8.9750   -8.4667    0.0000 C   0  0  0  0  0  0           0  0  0
    8.9750   -6.8167    0.0000 C   0  0  0  0  0  0           0  0  0
    6.1250   -4.3417    0.0000 C   0  0  0  0  0  0           0  0  0
    2.5542   -4.7542    0.0000 C   0  0  0  0  0  0           0  0  0
    3.9792   -2.2792    0.0000 C   0  0  0  0  0  0           0  0  0
    6.8292   -4.7542    0.0000 C   0  0  0  0  0  0           0  0  0
    7.5417   -4.3500    0.0000 C   0  0  0  0  0  0           0  0  0
    9.6917   -8.0542    0.0000 C   0  0  0  0  0  0           0  0  0
    9.6875   -7.2292    0.0000 C   0  0  0  0  0  0           0  0  0
    8.2542   -4.7542    0.0000 C   0  0  0  0  0  0           0  0  0
  2  4  2  0     0  0
  3 13  1  0     0  0
  4  1  1  0     0  0
  5  7  1  0     0  0
  6  3  2  0     0  0
  7  1  2  0     0  0
  8  1  1  0     0  0
  9  3  1  0     0  0
 10  6  1  0     0  0
 11  8  2  0     0  0
 12 14  1  0     0  0
 13 16  1  0     0  0
 14  9  2  0     0  0
 15 11  1  0     0  0
 16 19  1  0     0  0
 17 15  2  0     0  0
 18 15  1  0     0  0
 19 21  1  0     0  0
 20 17  1  0     0  0
 21 18  2  0     0  0
 22  8  1  0     0  0
 23 11  1  0     0  0
 24 13  1  0     0  0
 25 10  1  0     0  0
 26 14  1  0     0  0
 27 24  1  0     0  0
 28 27  1  0     0  0
 29 22  2  0     0  0
 30 29  1  0     0  0
 31 28  1  0     0  0
  2  5  1  0     0  0
 23 30  2  0     0  0
 19 20  2  0     0  0
 10 12  2  0     0  0
M  END