
          11280714522D 1   1.00000     0.00000     0

 21 23  0     1  0            999 V2000
    0.4875   -1.9542    0.0000 S   0  0  3  0  0  0           0  0  0
   -0.7333    0.6708    0.0000 C   0  0  3  0  0  0           0  0  0
   -0.7333   -0.1542    0.0000 C   0  0  0  0  0  0           0  0  0
   -0.0083    1.0833    0.0000 N   0  0  3  0  0  0           0  0  0
    0.7000   -1.1542    0.0000 N   0  0  3  0  0  0           0  0  0
   -0.0208   -0.5792    0.0000 C   0  0  2  0  0  0           0  0  0
   -1.4583    1.0833    0.0000 C   0  0  0  0  0  0           0  0  0
   -0.3125   -1.7417    0.0000 O   0  0  0  0  0  0           0  0  0
    1.2792   -2.1667    0.0000 O   0  0  0  0  0  0           0  0  0
    0.6917   -0.1667    0.0000 C   0  0  0  0  0  0           0  0  0
    0.7042    0.6583    0.0000 C   0  0  0  0  0  0           0  0  0
   -1.4458    1.9083    0.0000 C   0  0  0  0  0  0           0  0  0
   -0.0083    1.9083    0.0000 C   0  0  0  0  0  0           0  0  0
   -0.7333    2.3333    0.0000 C   0  0  0  0  0  0           0  0  0
    0.2875   -2.7542    0.0000 C   0  0  0  0  0  0           0  0  0
    1.4625   -0.6875    0.0000 C   0  0  0  0  0  0           0  0  0
   -2.1583    0.6708    0.0000 C   0  0  0  0  0  0           0  0  0
   -2.1583    2.3208    0.0000 C   0  0  0  0  0  0           0  0  0
   -2.8708    1.0833    0.0000 C   0  0  0  0  0  0           0  0  0
   -2.8708    1.9083    0.0000 C   0  0  0  0  0  0           0  0  0
   -0.7250   -0.9042    0.0000 H   0  0  0  0  0  0           0  0  0
  2  3  1  0     0  0
  3  6  1  0     0  0
  4 11  1  0     0  0
  5  1  1  0     0  0
  6  5  1  0     0  0
  7  2  1  0     0  0
  8  1  2  0     0  0
  9  1  2  0     0  0
 10  6  1  0     0  0
 11 10  1  0     0  0
 12  7  1  0     0  0
 13  4  1  0     0  0
 14 13  1  0     0  0
 15  1  1  0     0  0
 16  5  1  0     0  0
 17  7  2  0     0  0
 18 12  2  0     0  0
 19 17  1  0     0  0
 20 19  2  0     0  0
  6 21  1  6     0  0
  2  4  1  0     0  0
 14 12  1  0     0  0
 20 18  1  0     0  0
M  END