
  CDK    9/16/09,9:46

 17 19  0  0  0  0  0  0  0  0999 V2000
   -5.0392   -1.2991    0.0000 C   0  0  0  0  0  0  0  0  0  0  0  0
   -5.2605   -2.0938    0.0000 C   0  0  0  0  0  0  0  0  0  0  0  0
   -4.6854   -2.6800    0.0000 C   0  0  0  0  0  0  0  0  0  0  0  0
   -4.2477   -1.0912    0.0000 C   0  0  0  0  0  0  0  0  0  0  0  0
   -3.6664   -1.6749    0.0000 C   0  0  0  0  0  0  0  0  0  0  0  0
   -3.8870   -2.4739    0.0000 C   0  0  0  0  0  0  0  0  0  0  0  0
   -3.1952   -2.9307    0.0000 N   0  0  0  0  0  0  0  0  0  0  0  0
   -2.8383   -1.6378    0.0000 C   0  0  0  0  0  0  0  0  0  0  0  0
   -2.5475   -2.4137    0.0000 C   0  0  0  0  0  0  0  0  0  0  0  0
   -1.7319   -2.5485    0.0000 C   0  0  0  0  0  0  0  0  0  0  0  0
   -1.2062   -1.9083    0.0000 N   0  0  0  0  0  0  0  0  0  0  0  0
   -1.5018   -1.1309    0.0000 C   0  0  0  0  0  0  0  0  0  0  0  0
   -2.3167   -0.9998    0.0000 C   0  0  0  0  0  0  0  0  0  0  0  0
   -0.9825   -0.4932    0.0000 C   0  0  0  0  0  0  0  0  0  0  0  0
   -0.1706   -0.6241    0.0000 O   0  0  0  0  0  0  0  0  0  0  0  0
   -1.2752    0.2753    0.0000 O   0  0  0  0  0  0  0  0  0  0  0  0
   -0.7558    0.9131    0.0000 C   0  0  0  0  0  0  0  0  0  0  0  0
  1  2  2  0  0  0  0 
  5  4  2  0  0  0  0 
  8  9  2  0  0  0  0 
  4  1  1  0  0  0  0 
  9 10  1  0  0  0  0 
  5  6  1  0  0  0  0 
 10 11  2  0  0  0  0 
 11 12  1  0  0  0  0 
  2  3  1  0  0  0  0 
 12 13  2  0  0  0  0 
 13  8  1  0  0  0  0 
  3  6  2  0  0  0  0 
 12 14  1  0  0  0  0 
  6  7  1  0  0  0  0 
 14 15  2  0  0  0  0 
  7  9  1  0  0  0  0 
 14 16  1  0  0  0  0 
  8  5  1  0  0  0  0 
 16 17  1  0  0  0  0 
M  END