
  SciTegic01181116592D

 36 38  0  0  0  0            999 V2000
   10.8945  -11.2549    0.0000 N   0  0
   -1.3487  -12.7308    0.0000 C   0  0
   -1.7699  -13.4430    0.0000 C   0  0
   -1.3638  -14.1616    0.0000 C   0  0
   -0.5367  -14.1694    0.0000 C   0  0
   -0.1174  -13.4525    0.0000 C   0  0
   -0.5259  -12.7367    0.0000 C   0  0
   -0.1086  -12.0251    0.0000 N   0  0
    0.7124  -11.9439    0.0000 N   0  0
    0.8888  -11.1380    0.0000 C   0  0
    0.1768  -10.7211    0.0000 C   0  0
   -0.4395  -11.2694    0.0000 C   0  0
   -1.2600  -11.2711    0.0000 C   0  0
   -1.6724  -10.5553    0.0000 C   0  0
   -2.4967  -10.5555    0.0000 C   0  0
   -2.9094  -11.2709    0.0000 C   0  0
   -2.4919  -11.9874    0.0000 C   0  0
   -1.6691  -11.9836    0.0000 C   0  0
    0.0955   -9.9001    0.0000 C   0  0
    1.6085  -10.7340    0.0000 C   0  0
    2.3180  -11.1549    0.0000 N   0  0
    1.6182   -9.9091    0.0000 O   0  0
    0.7076  -13.4569    0.0000 Cl  0  0
   -1.7829  -14.8722    0.0000 Cl  0  0
   -3.7344  -11.2726    0.0000 Cl  0  0
    3.0373  -10.7509    0.0000 C   0  0
    3.7469  -11.1718    0.0000 C   0  0
    4.4661  -10.7677    0.0000 C   0  0
    5.1757  -11.1886    0.0000 C   0  0
    5.8950  -10.7845    0.0000 C   0  0
    6.6046  -11.2054    0.0000 N   0  0
    7.3238  -10.8014    0.0000 C   0  0
    8.0334  -11.2223    0.0000 C   0  0
    8.7527  -10.8182    0.0000 C   0  0
    9.4622  -11.2391    0.0000 C   0  0
   10.1815  -10.8351    0.0000 C   0  0
 18 13  1  0
 12 13  1  0
  5  6  1  0
 11 19  1  0
  3  4  1  0
 10 20  1  0
  9 10  2  0
 20 21  1  0
 10 11  1  0
 20 22  2  0
 11 12  2  0
  6 23  1  0
 12  8  1  0
  4 24  1  0
  7  8  1  0
 16 25  1  0
  6  7  2  0
 21 26  1  0
  7  2  1  0
 26 27  1  0
 13 14  2  0
 27 28  1  0
  8  9  1  0
 28 29  1  0
 14 15  1  0
 29 30  1  0
  2  3  2  0
 30 31  1  0
 15 16  2  0
 31 32  1  0
  4  5  2  0
 32 33  1  0
 16 17  1  0
 33 34  1  0
 34 35  1  0
 17 18  2  0
 35 36  1  0
 36  1  1  0
M  END