
          11280715262D 1   1.00000     0.00000     0

 24 28  0     0  0            999 V2000
    2.0042   -3.2250    0.0000 C   0  0  3  0  0  0           0  0  0
    7.5542   -2.8042    0.0000 N   0  0  0  0  0  0           0  0  0
    6.2917   -2.3875    0.0000 C   0  0  0  0  0  0           0  0  0
    7.0667   -3.4667    0.0000 N   0  0  0  0  0  0           0  0  0
    6.2917   -3.2125    0.0000 C   0  0  0  0  0  0           0  0  0
    3.4292   -2.3875    0.0000 C   0  0  0  0  0  0           0  0  0
    4.1417   -1.9750    0.0000 N   0  0  0  0  0  0           0  0  0
    2.7292   -4.4625    0.0000 C   0  0  3  0  0  0           0  0  0
    1.5542   -4.9000    0.0000 C   0  0  3  0  0  0           0  0  0
    1.2542   -4.5250    0.0000 C   0  0  3  0  0  0           0  0  0
    5.5792   -1.9750    0.0000 C   0  0  0  0  0  0           0  0  0
    7.0667   -2.1375    0.0000 C   0  0  0  0  0  0           0  0  0
    4.8542   -2.3875    0.0000 C   0  0  0  0  0  0           0  0  0
    1.5542   -3.8542    0.0000 C   0  0  0  0  0  0           0  0  0
    1.2542   -3.6250    0.0000 C   0  0  0  0  0  0           0  0  0
    2.7292   -3.6417    0.0000 C   0  0  0  0  0  0           0  0  0
    3.4417   -3.2125    0.0000 O   0  0  0  0  0  0           0  0  0
    2.3667   -5.1750    0.0000 C   0  0  0  0  0  0           0  0  0
    0.9042   -5.1750    0.0000 C   0  0  0  0  0  0           0  0  0
    2.0292   -4.8250    0.0000 C   0  0  0  0  0  0           0  0  0
    5.5792   -3.6250    0.0000 C   0  0  0  0  0  0           0  0  0
    2.0042   -2.4000    0.0000 C   0  0  0  0  0  0           0  0  0
    2.7167   -1.9792    0.0000 C   0  0  0  0  0  0           0  0  0
    4.8542   -3.2125    0.0000 C   0  0  0  0  0  0           0  0  0
  2 12  2  0     0  0
  3 11  1  0     0  0
  4  5  1  0     0  0
  5 21  1  0     0  0
  6 23  1  0     0  0
  7  6  1  0     0  0
  8 16  1  0     0  0
  9 14  1  0     0  0
 10 15  1  0     0  0
 11 13  2  0     0  0
 12  3  1  0     0  0
 13  7  1  0     0  0
 14  1  1  0     0  0
 15  1  1  0     0  0
 16  1  1  0     0  0
 17  6  2  0     0  0
 18  8  1  0     0  0
 19 10  1  0     0  0
 20  8  1  0     0  0
 21 24  2  0     0  0
 22  1  1  0     0  0
 23 22  1  0     0  0
 24 13  1  0     0  0
 20 10  1  0     0  0
 18  9  1  0     0  0
 19  9  1  0     0  0
  5  3  2  0     0  0
  4  2  1  0     0  0
M  END