
          11280715052D 1   1.00000     0.00000     0

 45 49  0     0  0            999 V2000
    2.6125   -1.4875    0.0000 S   0  0  3  0  0  0           0  0  0
    3.3292   -2.7167    0.0000 C   0  0  0  0  0  0           0  0  0
    3.3292   -1.8917    0.0000 N   0  0  0  0  0  0           0  0  0
    4.0417   -3.1250    0.0000 C   0  0  0  0  0  0           0  0  0
    2.6167   -3.1292    0.0000 N   0  0  0  0  0  0           0  0  0
    3.3375   -4.3667    0.0000 N   0  0  0  0  0  0           0  0  0
    2.6167   -3.9542    0.0000 C   0  0  0  0  0  0           0  0  0
    4.0542   -3.9500    0.0000 C   0  0  0  0  0  0           0  0  0
    1.9000   -1.9042    0.0000 C   0  0  0  0  0  0           0  0  0
    4.7542   -2.7042    0.0000 O   0  0  0  0  0  0           0  0  0
    8.3417   -3.9167    0.0000 N   0  0  0  0  0  0           0  0  0
    1.9042   -4.3750    0.0000 C   0  0  0  0  0  0           0  0  0
    7.6292   -4.3375    0.0000 C   0  0  0  0  0  0           0  0  0
    1.1792   -1.4917    0.0000 N   0  0  0  0  0  0           0  0  0
    2.0167   -0.9000    0.0000 O   0  0  0  0  0  0           0  0  0
    4.7500   -1.8792    0.0000 C   0  0  0  0  0  0           0  0  0
    3.1917   -0.9000    0.0000 O   0  0  0  0  0  0           0  0  0
    9.0542   -4.3167    0.0000 C   0  0  0  0  0  0           0  0  0
    1.1917   -3.9542    0.0000 N   0  0  0  0  0  0           0  0  0
    1.9125   -5.1917    0.0000 N   0  0  0  0  0  0           0  0  0
    9.7625   -3.9042    0.0000 N   0  0  0  0  0  0           0  0  0
    7.6292   -5.1625    0.0000 O   0  0  0  0  0  0           0  0  0
    1.9000   -2.7292    0.0000 C   0  0  0  0  0  0           0  0  0
    5.4625   -1.4667    0.0000 C   0  0  0  0  0  0           0  0  0
    0.4667   -1.9042    0.0000 C   0  0  0  0  0  0           0  0  0
    4.7667   -4.3542    0.0000 O   0  0  0  0  0  0           0  0  0
    6.9125   -3.9292    0.0000 O   0  0  0  0  0  0           0  0  0
    1.1792   -3.1417    0.0000 C   0  0  0  0  0  0           0  0  0
    0.4667   -2.7292    0.0000 C   0  0  0  0  0  0           0  0  0
    6.1792   -1.8750    0.0000 O   0  0  0  0  0  0           0  0  0
    0.4792   -5.2000    0.0000 C   0  0  0  0  0  0           0  0  0
    0.4792   -4.3667    0.0000 C   0  0  0  0  0  0           0  0  0
    1.2042   -5.6042    0.0000 C   0  0  0  0  0  0           0  0  0
    4.0292   -1.4792    0.0000 C   0  0  0  0  0  0           0  0  0
   10.4792   -4.3042    0.0000 C   0  0  0  0  0  0           0  0  0
    9.0542   -5.1500    0.0000 C   0  0  0  0  0  0           0  0  0
    5.4542   -0.6417    0.0000 C   0  0  0  0  0  0           0  0  0
    5.4792   -3.9375    0.0000 C   0  0  0  0  0  0           0  0  0
    6.2000   -4.3417    0.0000 C   0  0  0  0  0  0           0  0  0
   -0.2458   -3.1417    0.0000 C   0  0  0  0  0  0           0  0  0
    6.1875   -2.7000    0.0000 C   0  0  0  0  0  0           0  0  0
   10.4875   -5.1375    0.0000 C   0  0  0  0  0  0           0  0  0
    4.0250   -0.6542    0.0000 C   0  0  0  0  0  0           0  0  0
    9.7750   -5.5542    0.0000 C   0  0  0  0  0  0           0  0  0
    4.7375   -0.2292    0.0000 C   0  0  0  0  0  0           0  0  0
  2  3  1  0     0  0
  3  1  1  0     0  0
  4  2  1  0     0  0
  5  2  2  0     0  0
  6  7  2  0     0  0
  7  5  1  0     0  0
  8  4  2  0     0  0
  9  1  1  0     0  0
 10  4  1  0     0  0
 11 13  1  0     0  0
 12  7  1  0     0  0
 13 27  1  0     0  0
 14  9  2  0     0  0
 15  1  2  0     0  0
 16 10  1  0     0  0
 17  1  2  0     0  0
 18 11  1  0     0  0
 19 12  2  0     0  0
 20 12  1  0     0  0
 21 18  1  0     0  0
 22 13  2  0     0  0
 23  9  1  0     0  0
 24 16  2  0     0  0
 25 14  1  0     0  0
 26  8  1  0     0  0
 27 39  1  0     0  0
 28 23  2  0     0  0
 29 28  1  0     0  0
 30 24  1  0     0  0
 31 33  1  0     0  0
 32 19  1  0     0  0
 33 20  2  0     0  0
 34 16  1  0     0  0
 35 21  2  0     0  0
 36 18  2  0     0  0
 37 24  1  0     0  0
 38 26  1  0     0  0
 39 38  1  0     0  0
 40 29  1  0     0  0
 41 30  1  0     0  0
 42 44  2  0     0  0
 43 34  2  0     0  0
 44 36  1  0     0  0
 45 43  1  0     0  0
 29 25  2  0     0  0
  8  6  1  0     0  0
 31 32  2  0     0  0
 45 37  2  0     0  0
 42 35  1  0     0  0
M  END