
  SciTegic01161211252D

 26 27  0  0  0  0            999 V2000
    0.4721    0.2796    0.0000 C   0  0  2  0  0  0
    0.4721   -0.5500    0.0000 C   0  0  1  0  0  0
    1.1866   -0.9625    0.0000 C   0  0  2  0  0  0
    1.9056   -0.5500    0.0000 C   0  0  1  0  0  0
    1.9056    0.2796    0.0000 O   0  0
    1.1866    0.6966    0.0000 C   0  0  2  0  0  0
   -0.2424   -0.9625    0.0000 N   0  0
   -0.2434    0.6904    0.0000 O   0  0
    2.6195   -0.9635    0.0000 S   0  0
    3.3345   -0.5520    0.0000 C   0  0
   -0.9569   -0.5500    0.0000 C   0  0
   -1.6713   -0.9625    0.0000 C   0  0
   -0.9569    0.2750    0.0000 O   0  0
   -2.3846   -0.5458    0.0000 C   0  0
   -3.0986   -0.9577    0.0000 C   0  0
   -3.0990   -1.7835    0.0000 C   0  0
   -2.3795   -2.1958    0.0000 C   0  0
   -1.6685   -1.7817    0.0000 C   0  0
   -3.8129   -2.1969    0.0000 C   0  0
    1.1854   -1.7875    0.0000 O   0  0
    1.8993   -2.2010    0.0000 S   0  0
    2.6079   -2.6125    0.0000 O   0  0
    2.3054   -1.4850    0.0000 O   0  0
    1.4804   -2.9104    0.0000 O   0  0
    1.1854    1.5216    0.0000 C   0  0
    1.8993    1.9351    0.0000 O   0  0
 11 13  2  0
 12 14  2  0
  2  7  1  1
 14 15  1  0
  1  2  1  0
 15 16  2  0
  1  8  1  1
 16 17  1  0
  1  6  1  0
 17 18  2  0
 18 12  1  0
  4  9  1  1
 16 19  1  0
  2  3  1  0
  3 20  1  6
  9 10  1  0
 20 21  1  0
  3  4  1  0
 21 22  1  0
  7 11  1  0
 21 23  2  0
  4  5  1  0
 21 24  2  0
 11 12  1  0
  6 25  1  1
  5  6  1  0
 25 26  1  0
M  END