
  SciTegic02011310462D

 30 32  0  0  0  0            999 V2000
   23.1441   -4.4285    0.0000 C   0  0
   23.1429   -5.2480    0.0000 C   0  0
   23.8510   -5.6570    0.0000 C   0  0
   23.8492   -4.0196    0.0000 C   0  0
   24.5578   -4.4249    0.0000 C   0  0
   24.5567   -5.2455    0.0000 C   0  0
   25.2628   -5.6546    0.0000 O   0  0
   25.9747   -5.2475    0.0000 C   0  0
   25.2652   -4.0133    0.0000 C   0  0
   25.9749   -4.4282    0.0000 C   0  0
   26.6815   -5.6577    0.0000 O   0  0
   23.8468   -3.2024    0.0000 O   0  0
   26.6837   -4.0216    0.0000 C   0  0
   26.6861   -3.2045    0.0000 C   0  0
   27.3954   -2.8001    0.0000 C   0  0
   27.3981   -1.9836    0.0000 C   0  0
   26.6910   -1.5722    0.0000 C   0  0
   25.9798   -1.9832    0.0000 C   0  0
   25.9806   -2.7983    0.0000 C   0  0
   22.4349   -5.6561    0.0000 C   0  0
   21.7275   -5.2469    0.0000 C   0  0
   21.0195   -5.6549    0.0000 C   0  0
   20.3121   -5.2458    0.0000 C   0  0
   19.6041   -5.6538    0.0000 C   0  0
   22.2169   -6.4426    0.0000 C   0  0
   22.8360   -6.3601    0.0000 C   0  0
   18.8967   -5.2447    0.0000 C   0  0
   18.1887   -5.6527    0.0000 C   0  0
   28.1013   -3.2117    0.0000 O   0  0
   17.4813   -5.2435    0.0000 C   0  0
  1  2  2  0
  2  3  1  0
  3  6  2  0
  5  4  2  0
  4  1  1  0
  5  6  1  0
  5  9  1  0
  6  7  1  0
  7  8  1  0
  8 10  1  0
  9 10  2  0
  8 11  2  0
  4 12  1  0
 10 13  1  0
 13 14  1  0
 14 15  2  0
 15 16  1  0
 16 17  2  0
 17 18  1  0
 18 19  2  0
 19 14  1  0
  2 20  1  0
 20 21  1  0
 21 22  1  0
 22 23  1  0
 23 24  1  0
 20 25  1  0
 20 26  1  0
 24 27  1  0
 27 28  1  0
 15 29  1  0
 28 30  1  0
M  END