
  SciTegic01161211262D

 42 45  0  0  0  0            999 V2000
    8.2542   -1.8417    0.0000 N   0  0
    7.4667   -2.0917    0.0000 C   0  0  1  0  0  0
    7.2167   -2.8792    0.0000 C   0  0  1  0  0  0
    4.9542   -5.3542    0.0000 C   0  0  1  0  0  0
    8.9667   -2.2500    0.0000 C   0  0
    9.5792   -1.7042    0.0000 C   0  0
    4.2417   -4.9417    0.0000 C   0  0  1  0  0  0
    9.2417   -0.9500    0.0000 N   0  0
    6.3917   -2.8792    0.0000 C   0  0  2  0  0  0
    5.6667   -4.1167    0.0000 C   0  0  2  0  0  0
    5.6667   -4.9417    0.0000 C   0  0  2  0  0  0
    8.4292   -1.0375    0.0000 C   0  0
    6.8042   -1.6125    0.0000 O   0  0
    4.9542   -6.9500    0.0000 P   0  0
    8.1542   -4.1667    0.0000 P   0  0
    2.8625   -5.7417    0.0000 P   0  0
    4.9542   -3.7042    0.0000 O   0  0
    6.3792   -3.7042    0.0000 O   0  0
    6.1292   -2.0917    0.0000 C   0  0  2  0  0  0
    4.2417   -4.1167    0.0000 C   0  0  2  0  0  0
    4.9542   -6.1792    0.0000 O   0  0
    7.7000   -3.5500    0.0000 O   0  0
   10.3542   -1.9542    0.0000 C   0  0
    9.1375   -3.0500    0.0000 N   0  0
    3.5292   -5.3542    0.0000 O   0  0
   10.5167   -2.7542    0.0000 N   0  0
    9.9167   -3.3042    0.0000 C   0  0
    2.0250   -5.9292    0.0000 O   0  0
    2.2875   -5.1625    0.0000 O   0  0
    4.1625   -7.1500    0.0000 O   0  0
    4.7000   -7.7667    0.0000 O   0  0
    8.4250   -4.9792    0.0000 O   0  0
    7.6292   -4.8000    0.0000 O   0  0
    5.7667   -7.1917    0.0000 O   0  0
    3.0625   -6.5667    0.0000 O   0  0
    8.9542   -3.8875    0.0000 O   0  0
    6.3792   -5.3542    0.0000 O   0  0
   10.9667   -1.4042    0.0000 N   0  0
    3.5292   -3.7042    0.0000 C   0  0
    5.3500   -1.8417    0.0000 C   0  0
    3.5250   -2.8792    0.0000 O   0  0
    5.1792   -1.0292    0.0000 O   0  0
  2  1  1  1
  3  2  1  0
  4 11  1  0
  5  1  1  0
  6  5  2  0
  7 20  1  0
  8 12  2  0
  9  3  1  0
 10 18  1  6
 11 10  1  0
 12  1  1  0
 13  2  1  0
 14 21  1  0
 15 22  1  0
 16 25  1  0
 17 10  1  0
  9 18  1  6
 19 13  1  0
 20 17  1  0
  4 21  1  1
  3 22  1  6
 23  6  1  0
 24  5  1  0
  7 25  1  6
 26 27  1  0
 27 24  2  0
 28 16  1  0
 29 16  1  0
 30 14  1  0
 31 14  1  0
 32 15  1  0
 33 15  1  0
 34 14  2  0
 35 16  2  0
 36 15  2  0
 11 37  1  6
 38 23  1  0
 20 39  1  1
 19 40  1  1
 41 39  1  0
 42 40  1  0
  8  6  1  0
  9 19  1  0
 23 26  2  0
  4  7  1  0
M  END