
          11280715502D 1   1.00000     0.00000     0

 30 33  0     0  0            999 V2000
    1.1053    1.1534    0.0000 C   0  0  0  0  0  0           0  0  0
   -1.0382   -0.0841    0.0000 C   0  0  3  0  0  0           0  0  0
   -0.3223   -0.4966    0.0000 C   0  0  0  0  0  0           0  0  0
    0.3894   -0.0841    0.0000 C   0  0  0  0  0  0           0  0  0
    0.3894    0.7409    0.0000 N   0  0  3  0  0  0           0  0  0
   -0.3223    1.1534    0.0000 C   0  0  0  0  0  0           0  0  0
   -1.0382    0.7409    0.0000 C   0  0  0  0  0  0           0  0  0
   -1.7540   -0.4966    0.0000 C   0  0  0  0  0  0           0  0  0
   -2.4657   -0.0841    0.0000 C   0  0  0  0  0  0           0  0  0
   -2.5547    0.7341    0.0000 C   0  0  0  0  0  0           0  0  0
   -3.3607    0.9064    0.0000 N   0  0  0  0  0  0           0  0  0
   -3.7732    0.1947    0.0000 C   0  0  0  0  0  0           0  0  0
   -3.2202   -0.4217    0.0000 N   0  0  0  0  0  0           0  0  0
    1.8194    0.7403    0.0000 C   0  0  0  0  0  0           0  0  0
    2.5292    1.1583    0.0000 C   0  0  0  0  0  0           0  0  0
    3.2472    0.7520    0.0000 O   0  0  0  0  0  0           0  0  0
    3.9581    1.1707    0.0000 C   0  0  0  0  0  0           0  0  0
    4.6793    0.7597    0.0000 C   0  0  0  0  0  0           0  0  0
    5.3897    1.1777    0.0000 C   0  0  0  0  0  0           0  0  0
    3.9525    1.9893    0.0000 C   0  0  0  0  0  0           0  0  0
    4.6599    2.4096    0.0000 C   0  0  0  0  0  0           0  0  0
    5.3797    2.0028    0.0000 C   0  0  0  0  0  0           0  0  0
    6.0898    2.4229    0.0000 C   0  0  0  0  0  0           0  0  0
    6.8086    2.0180    0.0000 N   0  0  3  0  0  0           0  0  0
    6.0810    3.2478    0.0000 O   0  0  0  0  0  0           0  0  0
    6.8151    1.1906    0.0000 C   0  0  0  0  0  0           0  0  0
    7.5298    0.7858    0.0000 C   0  0  0  0  0  0           0  0  0
    8.2423    1.2023    0.0000 C   0  0  0  0  0  0           0  0  0
    8.2355    2.0283    0.0000 C   0  0  0  0  0  0           0  0  0
    7.5162    2.4376    0.0000 C   0  0  0  0  0  0           0  0  0
  4  5  1  0     0  0
 14 15  1  0     0  0
  5  6  1  0     0  0
 15 16  1  0     0  0
  6  7  1  0     0  0
 16 17  1  0     0  0
  2  8  1  0     0  0
 17 18  2  0     0  0
  8  9  1  0     0  0
 18 19  1  0     0  0
 19 22  2  0     0  0
  9 10  2  0     0  0
 21 20  2  0     0  0
 20 17  1  0     0  0
  2  3  1  0     0  0
 10 11  1  0     0  0
 21 22  1  0     0  0
 11 12  1  0     0  0
 22 23  1  0     0  0
 12 13  2  0     0  0
 23 24  1  0     0  0
 13  9  1  0     0  0
 23 25  2  0     0  0
 24 26  1  0     0  0
  5  1  1  0     0  0
  2  7  1  0     0  0
  3  4  1  0     0  0
  1 14  1  0     0  0
 24 30  1  0     0  0
 26 27  1  0     0  0
 27 28  1  0     0  0
 28 29  1  0     0  0
 29 30  1  0     0  0
M  END