
  SciTegic11201309402D

106115  0  0  0  0            999 V2000
   -0.7827  -17.1668    0.0000 C   0  0
   -0.7362  -18.8209    0.0000 O   0  0
    3.0300  -15.0497    0.0000 N   0  0
    2.2069  -15.0627    0.0000 C   0  0
    1.8065  -15.7840    0.0000 N   0  0
    1.7825  -14.3553    0.0000 S   0  0
    0.9817  -15.7979    0.0000 C   0  0
    0.5629  -15.0899    0.0000 C   0  0
   -0.2612  -15.1035    0.0000 C   0  0
    0.5892  -16.5180    0.0000 C   0  0
   -0.2335  -16.5351    0.0000 C   0  0
   -0.6641  -15.8210    0.0000 C   0  0
   -1.4764  -16.0099    0.0000 C   0  0
   -1.5477  -16.8408    0.0000 O   0  0
   -2.0999  -15.4696    0.0000 O   0  0
   -0.0533  -17.5556    0.0000 C   0  0
   -0.0340  -18.3850    0.0000 C   0  0
    0.6927  -18.7812    0.0000 C   0  0
    1.4006  -18.3491    0.0000 C   0  0
    1.3772  -17.5167    0.0000 C   0  0
    0.6500  -17.1243    0.0000 C   0  0
   -1.4641  -18.4258    0.0000 C   0  0
   -1.4855  -17.6037    0.0000 C   0  0
   -2.2070  -17.2129    0.0000 C   0  0
   -2.9077  -17.6431    0.0000 C   0  0
   -2.8822  -18.4683    0.0000 C   0  0
   -2.1602  -18.8554    0.0000 C   0  0
    2.1256  -18.7428    0.0000 O   0  0
   -3.5835  -18.9028    0.0000 O   0  0
   12.2943  -16.2130    0.0000 C   0  0
   13.1191  -16.1961    0.0000 N   0  0
   11.8965  -16.9357    0.0000 O   0  0
   13.5461  -16.9020    0.0000 C   0  0  2  0  0  0
   14.3710  -16.8851    0.0000 C   0  0
   13.1483  -17.6248    0.0000 C   0  0  1  0  0  0
   12.3235  -17.6416    0.0000 C   0  0
   13.5754  -18.3306    0.0000 O   0  0
   14.7980  -17.5910    0.0000 N   0  0
   14.7688  -16.1624    0.0000 O   0  0
   11.0475  -15.5230    0.0000 N   0  0
   11.8677  -15.5073    0.0000 C   0  0  1  0  0  0
   12.1061  -14.7223    0.0000 C   0  0
   11.4331  -14.2529    0.0000 C   0  0
   10.7788  -14.7480    0.0000 C   0  0
   15.6228  -17.5741    0.0000 C   0  0  2  0  0  0
   16.0499  -18.2800    0.0000 C   0  0
   16.0206  -16.8514    0.0000 C   0  0
   15.6521  -19.0028    0.0000 O   0  0
   16.8722  -18.2631    0.0000 N   0  0
   16.8851  -19.0868    0.0000 C   0  0
   17.6722  -19.3338    0.0000 C   0  0
   18.1504  -18.6615    0.0000 C   0  0
   17.6590  -17.9974    0.0000 C   0  0  1  0  0  0
   18.0302  -17.2607    0.0000 C   0  0
   18.8531  -17.2139    0.0000 N   0  0
   17.5778  -16.5708    0.0000 O   0  0
   19.1516  -17.9823    0.0000 C   0  0
   19.9754  -17.9381    0.0000 C   0  0
   20.1879  -17.1409    0.0000 C   0  0
   19.4957  -16.6913    0.0000 C   0  0  1  0  0  0
   19.1868  -15.9263    0.0000 C   0  0
   19.6932  -15.2678    0.0000 N   0  0
   18.3698  -15.8114    0.0000 O   0  0
   12.5463  -16.9224    0.0000 H   0  0
   10.6555  -16.2489    0.0000 C   0  0
    9.8308  -16.2723    0.0000 C   0  0
   11.0881  -16.9513    0.0000 O   0  0
    9.3982  -15.5699    0.0000 N   0  0
   19.2729  -14.5580    0.0000 C   0  0  2  0  0  0
   18.4479  -14.5667    0.0000 C   0  0
   19.6769  -13.8394    0.0000 C   0  0
   20.5012  -13.8052    0.0000 C   0  0
   20.9431  -14.5019    0.0000 C   0  0
   20.5621  -15.2339    0.0000 O   0  0
   21.7689  -14.4686    0.0000 O   0  0
   18.0276  -13.8567    0.0000 N   0  0
   18.0429  -15.2854    0.0000 O   0  0
   18.3288  -13.0876    0.0000 C   0  0
   19.1449  -12.9672    0.0000 C   0  0
   19.4488  -12.2002    0.0000 N   0  0
   19.6573  -13.6138    0.0000 O   0  0
    8.5735  -15.5933    0.0000 C   0  0
    8.1410  -14.8906    0.0000 C   0  0  2  0  0  0
    8.1815  -16.3192    0.0000 O   0  0
   17.0694  -13.8972    0.0000 C   0  0
   15.6977  -12.7740    0.0000 C   0  0
    8.4075  -14.1143    0.0000 C   0  0
    7.7494  -13.6169    0.0000 C   0  0
    7.0728  -14.0891    0.0000 C   0  0
    7.3118  -14.8783    0.0000 N   0  0
    6.6140  -15.3184    0.0000 C   0  0
    5.8839  -14.9342    0.0000 C   0  0
    6.6463  -16.1428    0.0000 O   0  0
    5.1861  -15.3744    0.0000 C   0  0
    4.4561  -14.9902    0.0000 C   0  0
    3.7583  -15.4303    0.0000 C   0  0
    9.3917  -14.7417    0.0000 C   0  0
   10.1029  -14.3236    0.0000 C   0  0
   10.1006  -13.4819    0.0000 C   0  0
   10.8139  -13.0675    0.0000 C   0  0
   11.5295  -13.4780    0.0000 C   0  0
   12.3262  -12.7719    0.0000 C   0  0
   13.3210  -12.7450    0.0000 C   0  0
   20.2674  -16.0553    0.0000 H   0  0
   18.6554  -17.9124    0.0000 H   0  0
   12.8600  -15.3832    0.0000 H   0  0
 49 50  1  0
 22 23  2  0
 10  7  1  0
 23 24  1  0
 11 12  1  0
 50 51  1  0
 51 52  1  0
 52 53  1  0
 53 49  1  0
 24 25  2  0
 53 54  1  0
  1 16  1  0
 54 55  1  0
 25 26  1  0
 54 56  2  0
 55 57  1  0
  4  5  1  0
 26 27  2  0
 27 22  1  0
 22  2  1  0
 57 58  1  0
 58 59  1  0
 59 60  1  0
 60 55  1  0
 19 28  1  0
 60 61  1  0
  4  6  2  0
 61 62  1  0
 26 29  1  0
 61 63  2  0
 12 13  1  0
 33 64  1  1
 41 30  1  0
 40 65  1  0
 13 14  1  0
 65 66  1  0
 30 31  1  0
 65 67  2  0
 14  1  1  0
 66 68  1  0
 30 32  2  0
 62 69  1  0
  1 11  1  0
 69 70  1  0
 31 33  1  0
 69 71  1  6
  2 17  1  0
 71 72  1  0
 33 34  1  0
 72 73  1  0
 13 15  2  0
 33 35  1  0
 73 74  1  0
 73 75  2  0
  5  7  1  0
 70 76  1  0
 35 36  1  6
 70 77  2  0
 76 78  1  0
 35 37  1  0
 78 79  1  0
 16 17  2  0
 79 80  1  0
 34 38  1  0
 79 81  2  0
  7  8  2  0
 68 82  1  0
 34 39  2  0
 83 82  1  1
 40 41  1  0
 82 84  2  0
 17 18  1  0
 76 85  1  0
  1 23  1  0
 85 86  1  0
 83 87  1  0
 18 19  2  0
  8  9  1  0
 19 20  1  0
 41 42  1  0
 87 88  1  0
 88 89  1  0
 89 90  1  0
 90 83  1  0
 42 43  1  0
 90 91  1  0
 43 44  1  0
 91 92  1  0
 44 40  1  0
 91 93  2  0
  9 12  2  0
 92 94  1  0
 38 45  1  0
 94 95  1  0
 20 21  2  0
 95 96  1  0
 96  3  1  0
 45 46  1  0
 68 97  1  0
 21 16  1  0
 97 98  1  0
 45 47  1  1
 98 99  1  0
  3  4  1  0
 99100  1  0
 46 48  2  0
100101  1  0
 11 10  2  0
101102  1  0
 46 49  1  0
103 86  2  0
102103  1  0
 60104  1  1
 53105  1  1
 41106  1  6
M  END