
  CDK    9/16/09,10:4

 21 23  0  0  0  0  0  0  0  0999 V2000
   10.7633  -11.1836    0.0000 C   0  0  0  0  0  0  0  0  0  0  0  0
   11.4770  -10.7715    0.0000 N   0  0  0  0  0  0  0  0  0  0  0  0
   10.0495  -10.7715    0.0000 N   0  0  0  0  0  0  0  0  0  0  0  0
   10.7633  -12.0077    0.0000 S   0  0  0  0  0  0  0  0  0  0  0  0
    9.3359  -11.1836    0.0000 C   0  0  0  0  0  0  0  0  0  0  0  0
    8.6228  -10.7685    0.0000 C   0  0  0  0  0  0  0  0  0  0  0  0
    7.9096  -11.1798    0.0000 C   0  0  0  0  0  0  0  0  0  0  0  0
    7.9091  -12.0048    0.0000 C   0  0  0  0  0  0  0  0  0  0  0  0
    8.6278  -12.4167    0.0000 C   0  0  0  0  0  0  0  0  0  0  0  0
    9.3381  -12.0029    0.0000 C   0  0  0  0  0  0  0  0  0  0  0  0
   12.1906  -11.1836    0.0000 C   0  0  0  0  0  0  0  0  0  0  0  0
   12.1881  -12.0088    0.0000 C   0  0  0  0  0  0  0  0  0  0  0  0
   12.9009  -12.4207    0.0000 C   0  0  0  0  0  0  0  0  0  0  0  0
   12.8995  -10.7720    0.0000 C   0  0  0  0  0  0  0  0  0  0  0  0
   13.6129  -11.1803    0.0000 C   0  0  0  0  0  0  0  0  0  0  0  0
   13.6166  -12.0072    0.0000 C   0  0  0  0  0  0  0  0  0  0  0  0
   14.4042  -12.2593    0.0000 C   0  0  0  0  0  0  0  0  0  0  0  0
   14.8873  -11.5882    0.0000 O   0  0  0  0  0  0  0  0  0  0  0  0
   14.3983  -10.9214    0.0000 C   0  0  0  0  0  0  0  0  0  0  0  0
   14.6494  -10.1365    0.0000 O   0  0  0  0  0  0  0  0  0  0  0  0
    8.6307  -13.2408    0.0000 Cl  0  0  0  0  0  0  0  0  0  0  0  0
  1  3  1  0  0  0  0 
  2 11  1  0  0  0  0 
  5  6  2  0  0  0  0 
 11 12  2  0  0  0  0 
  1  2  1  0  0  0  0 
 12 13  1  0  0  0  0 
 13 16  2  0  0  0  0 
  6  7  1  0  0  0  0 
 15 14  2  0  0  0  0 
 14 11  1  0  0  0  0 
 15 16  1  0  0  0  0 
  1  4  2  0  0  0  0 
  7  8  2  0  0  0  0 
  8  9  1  0  0  0  0 
  3  5  1  0  0  0  0 
 16 17  1  0  0  0  0 
 17 18  1  0  0  0  0 
 18 19  1  0  0  0  0 
 19 15  1  0  0  0  0 
  9 10  2  0  0  0  0 
 19 20  2  0  0  0  0 
 10  5  1  0  0  0  0 
  9 21  1  0  0  0  0 
M  END