
          02060813472D 1   1.00000     0.00000     0

 72 74  0     1  0            999 V2000
    7.8643   -3.1632    0.0000 C   0  0  0  0  0  0           0  0  0
    7.1505   -2.7490    0.0000 S   0  0  0  0  0  0           0  0  0
    6.4310   -3.1547    0.0000 S   0  0  0  0  0  0           0  0  0
    5.7170   -2.7364    0.0000 C   0  0  0  0  0  0           0  0  0
    5.7278   -1.9064    0.0000 C   0  0  0  0  0  0           0  0  0
    5.0147   -1.4880    0.0000 C   0  0  0  0  0  0           0  0  0
    5.0233   -0.6634    0.0000 N   0  0  0  0  0  0           0  0  0
    4.2924   -1.8937    0.0000 O   0  0  0  0  0  0           0  0  0
    4.3096   -0.2438    0.0000 C   0  0  2  0  0  0           0  0  0
    4.3161    0.5809    0.0000 C   0  0  0  0  0  0           0  0  0
    3.5900   -0.6485    0.0000 C   0  0  0  0  0  0           0  0  0
    2.8825   -0.2291    0.0000 C   0  0  0  0  0  0           0  0  0
    2.8893    0.5991    0.0000 C   0  0  0  0  0  0           0  0  0
    2.1758    1.0192    0.0000 C   0  0  0  0  0  0           0  0  0
    1.4585    0.6132    0.0000 C   0  0  0  0  0  0           0  0  0
    1.4521   -0.2235    0.0000 C   0  0  0  0  0  0           0  0  0
    2.1639   -0.6377    0.0000 C   0  0  0  0  0  0           0  0  0
    5.0405    0.9865    0.0000 N   0  0  0  0  0  0           0  0  0
    3.6030    0.9992    0.0000 O   0  0  0  0  0  0           0  0  0
    5.8160    1.0099    0.0000 C   0  0  2  0  0  0           0  0  0
    6.4634    1.0095    0.0000 C   0  0  0  0  0  0           0  0  0
    7.1765    0.5577    0.0000 N   0  0  0  0  0  0           0  0  0
    6.4742    1.8019    0.0000 O   0  0  0  0  0  0           0  0  0
    7.9009    0.9592    0.0000 C   0  0  2  0  0  0           0  0  0
    8.6139    0.5450    0.0000 C   0  0  0  0  0  0           0  0  0
    7.9074    1.7934    0.0000 C   0  0  0  0  0  0           0  0  0
    8.6269    2.1991    0.0000 C   0  0  0  0  0  0           0  0  0
    8.6334    3.0238    0.0000 C   0  0  0  0  0  0           0  0  0
    9.3530    3.4285    0.0000 N   0  0  0  0  0  0           0  0  0
    7.9203    3.4379    0.0000 O   0  0  0  0  0  0           0  0  0
    9.3334    0.9507    0.0000 O   0  0  0  0  0  0           0  0  0
    8.6075   -0.2797    0.0000 N   0  0  0  0  0  0           0  0  0
    9.3205   -0.7034    0.0000 C   0  0  2  0  0  0           0  0  0
    9.3098   -1.5281    0.0000 C   0  0  0  0  0  0           0  0  0
   10.0305   -0.2944    0.0000 C   0  0  0  0  0  0           0  0  0
   10.7483   -0.7181    0.0000 C   0  0  0  0  0  0           0  0  0
   11.4679   -0.3070    0.0000 N   0  0  0  0  0  0           0  0  0
   10.7419   -1.5428    0.0000 O   0  0  0  0  0  0           0  0  0
    8.5903   -1.9337    0.0000 N   0  0  0  0  0  0           0  0  0
   10.0175   -1.9421    0.0000 O   0  0  0  0  0  0           0  0  0
    8.5816   -2.7638    0.0000 C   0  0  2  0  0  0           0  0  0
    9.2947   -3.1821    0.0000 C   0  0  0  0  0  0           0  0  0
   10.0109   -2.7764    0.0000 O   0  0  0  0  0  0           0  0  0
    5.8054    0.3088    0.0000 C   0  0  2  0  0  0           0  0  0
    5.8471    1.7411    0.0000 H   0  0  0  0  0  0           0  0  0
    6.4839   -0.0577    0.0000 C   0  0  0  0  0  0           0  0  0
    6.4406   -0.9666    0.0000 C   0  0  0  0  0  0           0  0  0
    5.1943   -0.0866    0.0000 C   0  0  0  0  0  0           0  0  0
    9.2864   -4.0070    0.0000 N   0  0  3  0  0  0           0  0  0
    8.5712   -4.4115    0.0000 C   0  0  0  0  0  0           0  0  0
    9.9878   -5.2441    0.0000 C   0  0  0  0  0  0           0  0  0
   10.0004   -4.4195    0.0000 C   0  0  1  0  0  0           0  0  0
   10.7212   -4.0131    0.0000 C   0  0  0  0  0  0           0  0  0
   11.4320   -4.4274    0.0000 N   0  0  0  0  0  0           0  0  0
   10.7292   -3.1882    0.0000 O   0  0  0  0  0  0           0  0  0
   12.1466   -4.0232    0.0000 C   0  0  2  0  0  0           0  0  0
   12.8615   -4.4417    0.0000 C   0  0  0  0  0  0           0  0  0
   12.1545   -3.1983    0.0000 C   0  0  0  0  0  0           0  0  0
   12.8691   -2.7918    0.0000 C   0  0  3  0  0  0           0  0  0
   12.8792   -1.9669    0.0000 C   0  0  0  0  0  0           0  0  0
   13.5799   -3.2062    0.0000 C   0  0  0  0  0  0           0  0  0
   12.8535   -5.2666    0.0000 O   0  0  0  0  0  0           0  0  0
   13.5761   -4.0311    0.0000 N   0  0  0  0  0  0           0  0  0
   14.2868   -4.4518    0.0000 C   0  0  0  0  0  0           0  0  0
   15.0077   -4.0453    0.0000 C   0  0  0  0  0  0           0  0  0
   15.7185   -4.4597    0.0000 N   0  0  0  0  0  0           0  0  0
   15.0157   -3.2204    0.0000 O   0  0  0  0  0  0           0  0  0
    9.2690   -5.6515    0.0000 C   0  0  0  0  0  0           0  0  0
    8.5641   -5.2261    0.0000 C   0  0  0  0  0  0           0  0  0
    0.0300    0.6128    0.0000 C   0  0  0  0  0  0           0  0  0
   -0.6840    1.0286    0.0000 C   0  0  0  0  0  0           0  0  0
    0.7441    1.0259    0.0000 O   0  0  0  0  0  0           0  0  0
 41  1  1  0     0  0
  1  2  1  0     0  0
  2  3  1  0     0  0
  3  4  1  0     0  0
  4  5  1  0     0  0
  5  6  1  0     0  0
  6  7  1  0     0  0
  6  8  2  0     0  0
  7  9  1  0     0  0
  9 10  1  0     0  0
  9 11  1  1     0  0
 11 12  1  0     0  0
 12 13  2  0     0  0
 13 14  1  0     0  0
 14 15  2  0     0  0
 15 16  1  0     0  0
 16 17  2  0     0  0
 17 12  1  0     0  0
 10 18  1  0     0  0
 10 19  2  0     0  0
 18 20  1  0     0  0
 20 21  1  0     0  0
 21 22  1  0     0  0
 21 23  2  0     0  0
 22 24  1  0     0  0
 24 25  1  0     0  0
 24 26  1  1     0  0
 26 27  1  0     0  0
 27 28  1  0     0  0
 28 29  1  0     0  0
 28 30  2  0     0  0
 25 31  2  0     0  0
 25 32  1  0     0  0
 32 33  1  0     0  0
 33 34  1  0     0  0
 33 35  1  1     0  0
 35 36  1  0     0  0
 36 37  1  0     0  0
 36 38  2  0     0  0
 34 39  1  0     0  0
 34 40  2  0     0  0
 39 41  1  0     0  0
 41 42  1  6     0  0
 42 43  2  0     0  0
 20 44  1  0     0  0
 20 45  1  1     0  0
 44 46  1  0     0  0
 46 47  1  0     0  0
 44 48  1  6     0  0
 42 49  1  0     0  0
 49 50  1  0     0  0
 49 52  1  0     0  0
 50 69  1  0     0  0
 68 51  1  0     0  0
 51 52  1  0     0  0
 52 53  1  6     0  0
 53 54  1  0     0  0
 53 55  2  0     0  0
 54 56  1  0     0  0
 56 57  1  0     0  0
 56 58  1  1     0  0
 58 59  1  0     0  0
 59 60  1  0     0  0
 59 61  1  0     0  0
 57 62  2  0     0  0
 57 63  1  0     0  0
 63 64  1  0     0  0
 64 65  1  0     0  0
 65 66  1  0     0  0
 65 67  2  0     0  0
 68 69  1  0     0  0
 70 71  1  0     0  0
 15 72  1  0     0  0
 72 70  1  0     0  0
M  END