
  SciTegic06051313522D

 22 24  0  0  0  0            999 V2000
   13.8259   -8.5584    0.0000 C   0  0
   14.5356   -8.1490    0.0000 C   0  0
   14.5328   -7.3263    0.0000 C   0  0
   13.8242   -6.9211    0.0000 C   0  0
   15.2389   -6.9151    0.0000 N   0  0
   15.9482   -7.3210    0.0000 C   0  0
   13.1179   -8.1495    0.0000 C   0  0
   13.1191   -7.3284    0.0000 C   0  0
   12.3386   -7.0735    0.0000 N   0  0
   11.8549   -7.7370    0.0000 O   0  0
   12.3366   -8.4019    0.0000 N   0  0
   13.8242   -6.1001    0.0000 N   0  3
   13.1156   -5.6930    0.0000 O   0  0
   14.5310   -5.6899    0.0000 O   0  5
   16.6543   -6.9097    0.0000 C   0  0
   17.3620   -7.3191    0.0000 C   0  0
   18.0677   -6.9085    0.0000 C   0  0
   18.0651   -6.0904    0.0000 C   0  0
   17.3508   -5.6847    0.0000 C   0  0
   16.6481   -6.0976    0.0000 C   0  0
   17.3449   -4.8675    0.0000 F   0  0
   18.7767   -7.3147    0.0000 Cl  0  0
  7  1  1  0
  1  2  2  0
  2  3  1  0
  3  4  2  0
  4  8  1  0
  3  5  1  0
  5  6  1  0
  7  8  1  0
  8  9  2  0
  9 10  1  0
 10 11  1  0
 11  7  2  0
 12 13  2  0
 12 14  1  0
  4 12  1  0
  6 15  1  0
 15 16  2  0
 16 17  1  0
 17 18  2  0
 18 19  1  0
 19 20  2  0
 20 15  1  0
 19 21  1  0
 17 22  1  0
M  CHG  2  12   1  14  -1
M  END