
          11280715122D 1   1.00000     0.00000     0

 35 38  0     0  0            999 V2000
    4.6167   -4.6042    0.0000 C   0  0  0  0  0  0           0  0  0
    3.9042   -5.0167    0.0000 N   0  0  0  0  0  0           0  0  0
    5.3500   -4.9292    0.0000 C   0  0  0  0  0  0           0  0  0
    5.1375   -5.7292    0.0000 N   0  0  3  0  0  0           0  0  0
    5.3292   -3.3625    0.0000 C   0  0  0  0  0  0           0  0  0
    4.3125   -5.7292    0.0000 C   0  0  0  0  0  0           0  0  0
    4.6167   -3.7750    0.0000 C   0  0  0  0  0  0           0  0  0
    5.3292   -2.5375    0.0000 C   0  0  0  0  0  0           0  0  0
    6.0500   -4.6042    0.0000 N   0  0  0  0  0  0           0  0  0
    0.3250   -3.8292    0.0000 N   0  0  3  0  0  0           0  0  0
    6.0500   -3.7750    0.0000 C   0  0  0  0  0  0           0  0  0
   -0.3875   -3.4250    0.0000 C   0  0  0  0  0  0           0  0  0
   -0.3875   -2.5917    0.0000 C   0  0  0  0  0  0           0  0  0
    1.7667   -4.6250    0.0000 N   0  0  3  0  0  0           0  0  0
   -1.1083   -2.1792    0.0000 C   0  0  0  0  0  0           0  0  0
    6.0417   -2.1250    0.0000 N   0  0  3  0  0  0           0  0  0
   -1.1083   -3.8375    0.0000 C   0  0  0  0  0  0           0  0  0
    4.6167   -2.1292    0.0000 O   0  0  0  0  0  0           0  0  0
    1.0292   -3.4042    0.0000 C   0  0  0  0  0  0           0  0  0
    0.3375   -4.6542    0.0000 C   0  0  0  0  0  0           0  0  0
    3.9125   -3.3667    0.0000 N   0  0  0  0  0  0           0  0  0
   -1.8208   -2.6000    0.0000 C   0  0  0  0  0  0           0  0  0
    1.0625   -5.0542    0.0000 C   0  0  0  0  0  0           0  0  0
    1.7500   -3.8042    0.0000 C   0  0  0  0  0  0           0  0  0
    5.6417   -6.3792    0.0000 C   0  0  0  0  0  0           0  0  0
   -1.8208   -3.4250    0.0000 C   0  0  0  0  0  0           0  0  0
    0.3167   -2.1792    0.0000 O   0  0  0  0  0  0           0  0  0
    3.9000   -6.4417    0.0000 C   0  0  0  0  0  0           0  0  0
   -2.5333   -2.1875    0.0000 F   0  0  0  0  0  0           0  0  0
    2.4917   -5.0250    0.0000 C   0  0  0  0  0  0           0  0  0
    3.2042   -4.6042    0.0000 C   0  0  0  0  0  0           0  0  0
    3.2000   -3.7792    0.0000 C   0  0  0  0  0  0           0  0  0
    6.7542   -2.5292    0.0000 C   0  0  0  0  0  0           0  0  0
    6.0417   -1.3000    0.0000 C   0  0  0  0  0  0           0  0  0
    1.0375   -2.5917    0.0000 C   0  0  0  0  0  0           0  0  0
  2  1  1  0     0  0
  3  1  1  0     0  0
  4  3  1  0     0  0
  5  7  1  0     0  0
  6  2  2  0     0  0
  7  1  2  0     0  0
  8  5  1  0     0  0
  9  3  2  0     0  0
 10 19  1  0     0  0
 11  5  2  0     0  0
 12 10  1  0     0  0
 13 12  1  0     0  0
 14 30  1  0     0  0
 15 13  2  0     0  0
 16  8  1  0     0  0
 17 12  2  0     0  0
 18  8  2  0     0  0
 19 24  1  0     0  0
 20 23  1  0     0  0
 21  7  1  0     0  0
 22 26  2  0     0  0
 23 14  1  0     0  0
 24 14  1  0     0  0
 25  4  1  0     0  0
 26 17  1  0     0  0
 27 13  1  0     0  0
 28  6  1  0     0  0
 29 22  1  0     0  0
 30 31  1  0     0  0
 31 32  1  0     0  0
 32 21  1  0     0  0
 33 16  1  0     0  0
 34 16  1  0     0  0
 35 27  1  0     0  0
  4  6  1  0     0  0
 11  9  1  0     0  0
 20 10  1  0     0  0
 22 15  1  0     0  0
M  END