
  SciTegic06051313522D

 36 40  0  0  0  0            999 V2000
   27.4570   -1.1803    0.0000 C   0  0
   27.4559   -1.9999    0.0000 N   0  0
   28.1639   -2.4089    0.0000 C   0  0
   28.8736   -1.9994    0.0000 C   0  0
   28.8708   -1.1768    0.0000 C   0  0
   28.1621   -0.7715    0.0000 C   0  0
   29.5784   -2.4061    0.0000 C   0  0
   29.5784   -3.2244    0.0000 N   0  0
   30.2859   -3.6318    0.0000 C   0  0
   30.9939   -3.2221    0.0000 N   0  0
   30.9900   -2.4007    0.0000 C   0  0
   30.2819   -1.9970    0.0000 C   0  0
   30.2868   -4.4490    0.0000 N   0  0
   30.9949   -4.8569    0.0000 C   0  0
   30.9936   -5.6719    0.0000 C   0  0
   31.7009   -6.0796    0.0000 C   0  0
   32.4092   -5.6702    0.0000 C   0  0
   32.4057   -4.8488    0.0000 C   0  0
   31.6978   -4.4448    0.0000 C   0  0
   30.2857   -6.0801    0.0000 C   0  0
   33.1115   -4.4369    0.0000 C   0  0
   33.8211   -4.8423    0.0000 N   0  0
   33.1077   -3.6198    0.0000 O   0  0
   34.5269   -4.4304    0.0000 C   0  0
   35.2331   -4.8400    0.0000 C   0  0
   35.9384   -4.4288    0.0000 C   0  0
   35.9351   -3.6108    0.0000 C   0  0
   35.2205   -3.2056    0.0000 C   0  0
   34.5181   -3.6191    0.0000 C   0  0
   36.5910   -4.9146    0.0000 N   0  0
   36.5816   -5.7318    0.0000 C   0  0
   37.3558   -5.9933    0.0000 N   0  0
   37.8438   -5.3377    0.0000 C   0  0
   37.3710   -4.6712    0.0000 C   0  0
   38.6609   -5.3471    0.0000 C   0  0
   35.2139   -2.3884    0.0000 F   0  0
  1  2  2  0
  2  3  1  0
  3  4  2  0
  4  5  1  0
  5  6  2  0
  6  1  1  0
  7  8  2  0
  8  9  1  0
  9 10  2  0
 10 11  1  0
 11 12  2  0
 12  7  1  0
  4  7  1  0
  9 13  1  0
 13 14  1  0
 14 15  2  0
 15 16  1  0
 16 17  2  0
 17 18  1  0
 18 19  2  0
 19 14  1  0
 15 20  1  0
 18 21  1  0
 21 22  1  0
 21 23  2  0
 22 24  1  0
 24 25  2  0
 25 26  1  0
 26 27  2  0
 27 28  1  0
 28 29  2  0
 29 24  1  0
 30 31  1  0
 31 32  2  0
 32 33  1  0
 33 34  2  0
 34 30  1  0
 26 30  1  0
 33 35  1  0
 28 36  1  0
M  END