
  SciTegic11201309402D

 76 81  0  0  0  0            999 V2000
    1.7000   -3.0542    0.0000 N   0  0
    1.6667   -2.2042    0.0000 C   0  0
    1.8667   -1.3875    0.0000 C   0  0  2  0  0  0
    7.4875   -4.0292    0.0000 N   0  0
    3.0667   -5.1250    0.0000 N   0  0
    5.5167   -5.5292    0.0000 N   0  0
    7.7292   -1.5542    0.0000 N   0  0
    7.8792   -2.3917    0.0000 C   0  0
    4.6667   -5.6167    0.0000 C   0  0
    9.2000   -2.8167    0.0000 C   0  0
    6.9792   -4.7042    0.0000 C   0  0
    2.4292   -4.5667    0.0000 C   0  0
    1.9625   -3.8625    0.0000 C   0  0  1  0  0  0
    7.7917   -3.2375    0.0000 C   0  0  2  0  0  0
    1.0750   -1.0750    0.0000 N   0  0
    3.8375   -5.4792    0.0000 C   0  0  2  0  0  0
    0.9500   -0.2375    0.0000 C   0  0
   10.4042   -2.1625    0.0000 N   0  0
    2.2792   -0.6417    0.0000 C   0  0
   10.0417   -2.9292    0.0000 C   0  0
    9.2542   -7.4417    0.0000 C   0  0
    2.8750   -0.0417    0.0000 C   0  0
   10.1000   -7.4500    0.0000 N   0  0
    6.3000   -5.2167    0.0000 C   0  0  1  0  0  0
    8.6167   -3.4375    0.0000 C   0  0
    9.0417   -1.9875    0.0000 C   0  0
    8.0667   -0.3292    0.0000 C   0  0
    7.3625   -0.7917    0.0000 C   0  0  2  0  0  0
    0.0292    0.9083    0.0000 N   0  0
    9.7875   -1.5792    0.0000 C   0  0
    0.6917    1.3083    0.0000 C   0  0
    0.1542    0.0708    0.0000 C   0  0  2  0  0  0
    3.6125    0.3750    0.0000 N   0  0
    0.8250   -2.1250    0.0000 O   0  0
    3.5875   -6.2917    0.0000 C   0  0
    4.6500   -6.4667    0.0000 O   0  0
    8.7167   -2.3542    0.0000 O   0  0
    7.5792   -5.3000    0.0000 O   0  0
    1.6042    0.2958    0.0000 O   0  0
    4.4792   -8.3500    0.0000 C   0  0
    4.1542   -6.9167    0.0000 C   0  0
    3.9042   -7.7250    0.0000 C   0  0
    7.3042    0.2833    0.0000 O   0  0
    2.3542    0.6333    0.0000 O   0  0
    1.4417    0.9083    0.0000 O   0  0
    8.8292   -6.7042    0.0000 N   0  0
    5.3042   -8.1625    0.0000 C   0  0
    8.8250   -8.1667    0.0000 N   0  0
    0.8542   -3.0542    0.0000 C   0  0
    8.1917    0.5958    0.0000 N   0  0
    5.5542   -7.3542    0.0000 C   0  0
    1.7917   -5.1292    0.0000 O   0  0
    4.9792   -6.7292    0.0000 C   0  0
    1.2750   -4.3625    0.0000 C   0  0
    0.5917   -3.8542    0.0000 C   0  0
    8.3167   -1.5417    0.0000 C   0  0
    4.4292    0.5833    0.0000 C   0  0
    6.7250   -5.9542    0.0000 C   0  0
    0.6750    2.1583    0.0000 C   0  0
    6.8000   -0.1542    0.0000 C   0  0
   -0.5000   -0.4625    0.0000 C   0  0
    4.2292   -9.1542    0.0000 C   0  0
    9.8042   -0.7292    0.0000 C   0  0
    7.9875   -6.7000    0.0000 C   0  0
    5.8792   -8.7875    0.0000 C   0  0
    7.5667   -5.9625    0.0000 C   0  0
   -0.3708   -1.3000    0.0000 C   0  0
   -1.0333   -1.8292    0.0000 C   0  0
    5.2792    0.5583    0.0000 C   0  0
    8.3417   -0.6917    0.0000 C   0  0
   -0.9083   -2.6667    0.0000 C   0  0
    6.0917    0.3000    0.0000 C   0  0
    4.8000   -9.7792    0.0000 C   0  0
    9.0875   -0.2917    0.0000 C   0  0
    5.6250   -9.5917    0.0000 C   0  0
    1.7851   -4.8466    0.0000 H   0  0
  2  1  1  0
  3  2  1  0
  4 11  1  0
  5 12  1  0
  6  9  1  0
  7 28  1  0
  8 14  1  0
  9 16  1  0
 10 25  1  0
 11 24  1  0
 12 13  1  0
 13  1  1  0
 14  4  1  0
  3 15  1  6
 16  5  1  0
 17 15  1  0
 18 20  1  0
  3 19  1  0
 20 10  2  0
 21 46  1  0
 22 19  1  0
 23 21  2  0
 24  6  1  0
 14 25  1  6
 26 10  1  0
 28 27  1  1
 28 60  1  0
 32 29  1  1
 30 26  2  0
 31 29  1  0
 32 17  1  0
 33 22  1  0
 34  2  2  0
 16 35  1  6
 36  9  2  0
 37  8  2  0
 38 11  2  0
 39 17  2  0
 40 42  2  0
 41 35  1  0
 42 41  1  0
 43 27  2  0
 44 22  2  0
 45 31  2  0
 46 64  1  0
 47 51  2  0
 48 21  1  0
 49  1  1  0
 50 27  1  0
 51 53  1  0
 52 12  1  0
 53 41  2  0
 13 54  1  0
 55 49  1  0
 56 26  1  0
 57 33  1  0
 24 58  1  1
 59 31  1  0
 60 72  1  0
 32 61  1  0
 62 40  1  0
 63 30  1  0
 64 66  1  0
 65 47  1  0
 66 58  1  0
 67 61  1  0
 68 67  1  0
 69 57  1  0
 70 56  2  0
 71 68  1  0
 72 69  1  0
 73 62  2  0
 74 70  1  0
 75 65  2  0
 55 54  1  0
 40 47  1  0
 73 75  1  0
  8  7  1  0
 30 18  1  0
 63 74  2  0
 13 76  1  6
M  END