
  SciTegic03291108592D

 25 27  0  0  0  0            999 V2000
    5.8978   -5.8630    0.0000 S   0  0
    5.4853   -6.5775    0.0000 O   0  0
    6.3103   -5.1486    0.0000 O   0  0
    8.0412   -8.7505    0.0000 O   0  0
    6.6123   -9.5755    0.0000 O   0  0
    1.6110   -4.2130    0.0000 O   0  0
    6.6123   -6.2755    0.0000 N   0  0
    3.0399   -4.2130    0.0000 N   0  0
    5.1833   -5.4505    0.0000 C   0  0
    3.7544   -5.4505    0.0000 C   0  0
    3.7544   -4.6255    0.0000 C   0  0
    4.4689   -5.8630    0.0000 C   0  0
    6.6123   -7.1005    0.0000 C   0  0
    5.1833   -4.6255    0.0000 C   0  0
    4.4689   -4.2130    0.0000 C   0  0
    7.3268   -8.3380    0.0000 C   0  0
    7.3268   -7.5130    0.0000 C   0  0
    6.6123   -8.7505    0.0000 C   0  0
    3.0399   -5.8630    0.0000 C   0  0
    5.8978   -7.5130    0.0000 C   0  0
    2.3255   -4.6255    0.0000 C   0  0
    5.8978   -8.3380    0.0000 C   0  0
    2.3255   -5.4505    0.0000 C   0  0
    8.0412   -9.5755    0.0000 C   0  0
    7.3268   -9.9880    0.0000 C   0  0
  1  2  2  0
  1  3  2  0
  1  7  1  0
  1  9  1  0
  4 16  1  0
  4 24  1  0
  5 18  1  0
  5 25  1  0
  6 21  2  0
  7 13  1  0
  8 11  1  0
  8 21  1  0
  9 12  1  0
  9 14  2  0
 10 11  1  0
 10 12  2  0
 10 19  1  0
 11 15  2  0
 13 17  1  0
 13 20  2  0
 14 15  1  0
 16 17  2  0
 16 18  1  0
 18 22  2  0
 19 23  2  0
 20 22  1  0
 21 23  1  0
M  END