
          11280714502D 1   1.00000     0.00000     0

 31 34  0     1  0            999 V2000
    4.6417   -3.1042    0.0000 C   0  0  0  0  0  0           0  0  0
   -1.0000   -0.0125    0.0000 N   0  0  3  0  0  0           0  0  0
    5.0250   -3.8375    0.0000 N   0  0  3  0  0  0           0  0  0
    3.8167   -3.0750    0.0000 C   0  0  0  0  0  0           0  0  0
   -0.1750    0.0333    0.0000 C   0  0  2  0  0  0           0  0  0
   -1.3000    0.7583    0.0000 C   0  0  2  0  0  0           0  0  0
    5.0792   -2.4125    0.0000 O   0  0  0  0  0  0           0  0  0
    2.1667   -3.0042    0.0000 C   0  0  0  0  0  0           0  0  0
    1.3500   -2.9750    0.0000 C   0  0  0  0  0  0           0  0  0
    3.3750   -3.7750    0.0000 C   0  0  0  0  0  0           0  0  0
    3.4292   -2.3417    0.0000 C   0  0  0  0  0  0           0  0  0
    2.5542   -3.7375    0.0000 C   0  0  0  0  0  0           0  0  0
    2.6042   -2.3125    0.0000 C   0  0  0  0  0  0           0  0  0
   -0.6625    1.2833    0.0000 C   0  0  0  0  0  0           0  0  0
    0.0292    0.8333    0.0000 C   0  0  0  0  0  0           0  0  0
    5.7875   -5.2917    0.0000 O   0  0  0  0  0  0           0  0  0
    0.9667   -2.2417    0.0000 C   0  0  0  0  0  0           0  0  0
    0.9042   -3.6667    0.0000 C   0  0  0  0  0  0           0  0  0
   -1.4458   -0.7042    0.0000 C   0  0  0  0  0  0           0  0  0
   -0.3083   -2.9042    0.0000 C   0  0  0  0  0  0           0  0  0
    0.1417   -2.2042    0.0000 C   0  0  0  0  0  0           0  0  0
    0.0792   -3.6375    0.0000 C   0  0  0  0  0  0           0  0  0
    4.5792   -4.5292    0.0000 C   0  0  0  0  0  0           0  0  0
    5.8500   -3.8625    0.0000 C   0  0  0  0  0  0           0  0  0
   -1.0625   -1.4417    0.0000 C   0  0  0  0  0  0           0  0  0
   -1.1333   -2.8667    0.0000 O   0  0  0  0  0  0           0  0  0
    6.2292   -4.6000    0.0000 C   0  0  0  0  0  0           0  0  0
    4.9625   -5.2542    0.0000 C   0  0  0  0  0  0           0  0  0
   -1.5083   -2.1292    0.0000 C   0  0  0  0  0  0           0  0  0
    0.3500   -0.6042    0.0000 C   0  0  0  0  0  0           0  0  0
   -2.0958    0.9625    0.0000 C   0  0  0  0  0  0           0  0  0
  2 19  1  0     0  0
  3  1  1  0     0  0
  4  1  1  0     0  0
  5  2  1  0     0  0
  6  2  1  0     0  0
  7  1  2  0     0  0
  8 13  1  0     0  0
  9  8  1  0     0  0
 10  4  2  0     0  0
 11  4  1  0     0  0
 12 10  1  0     0  0
 13 11  2  0     0  0
 14  6  1  0     0  0
 15  5  1  0     0  0
 16 27  1  0     0  0
 17  9  1  0     0  0
 18  9  2  0     0  0
 19 25  1  0     0  0
 20 22  2  0     0  0
 21 17  2  0     0  0
 22 18  1  0     0  0
 23  3  1  0     0  0
 24  3  1  0     0  0
 25 29  1  0     0  0
 26 20  1  0     0  0
 27 24  1  0     0  0
 28 23  1  0     0  0
 29 26  1  0     0  0
  5 30  1  6     0  0
  6 31  1  1     0  0
  8 12  2  0     0  0
 28 16  1  0     0  0
 21 20  1  0     0  0
 15 14  1  0     0  0
M  END