
  SciTegic02011310452D

 39 42  0  0  0  0            999 V2000
    5.0350  -27.3980    0.0000 N   0  0
    5.0011  -26.5815    0.0000 C   0  0
    4.3449  -27.8356    0.0000 C   0  0
    5.6913  -26.1439    0.0000 C   0  0
    3.6208  -27.4567    0.0000 C   0  0
    3.5869  -26.6402    0.0000 C   0  0
    8.9476  -25.5420    0.0000 N   0  0
    9.6572  -25.1325    0.0000 C   0  0
    9.6544  -24.3099    0.0000 N   0  0
    8.9458  -23.9046    0.0000 C   0  0
    8.2395  -25.1330    0.0000 C   0  0
    8.2362  -24.3165    0.0000 C   0  0
    7.4586  -24.0673    0.0000 C   0  0
    6.9813  -24.7298    0.0000 C   0  0
    7.4640  -25.3884    0.0000 N   0  0
    8.9431  -23.0874    0.0000 N   0  0
    7.2163  -26.1708    0.0000 C   0  0  2  0  0  0
    6.4401  -26.4265    0.0000 O   0  0
    6.4435  -27.2437    0.0000 C   0  0  1  0  0  0
    7.2217  -27.4930    0.0000 C   0  0  2  0  0  0
    7.6992  -26.8299    0.0000 C   0  0  1  0  0  0
    8.5164  -26.8266    0.0000 O   0  0
    7.4775  -28.2692    0.0000 O   0  0
    5.7843  -27.7267    0.0000 C   0  0
    4.2771  -26.2026    0.0000 C   0  0
    2.8629  -26.2613    0.0000 N   0  0
    2.8290  -25.4448    0.0000 C   0  0
    2.1049  -25.0660    0.0000 N   0  0
    3.5191  -25.0072    0.0000 O   0  0
    2.0710  -24.2495    0.0000 C   0  0
    2.7592  -23.8105    0.0000 C   0  0
    2.7256  -22.9947    0.0000 C   0  0
    2.0010  -22.6151    0.0000 C   0  0
    1.3087  -23.0571    0.0000 C   0  0
    1.3457  -23.8714    0.0000 C   0  0
    1.9660  -21.7986    0.0000 C   0  0
    2.6556  -21.3601    0.0000 C   0  0
    1.2415  -21.4207    0.0000 C   0  0
    1.9604  -20.9787    0.0000 C   0  0
  1  2  1  0
  1  3  1  0
  2  4  1  0
  3  5  1  0
  5  6  1  0
 11  7  1  0
  7  8  2  0
  8  9  1  0
  9 10  2  0
 10 12  1  0
 11 12  2  0
 12 13  1  0
 13 14  2  0
 14 15  1  0
 15 11  1  0
 10 16  1  0
 17 18  1  0
 18 19  1  0
 19 20  1  0
 20 21  1  0
 21 17  1  0
 17 15  1  1
 21 22  1  6
 20 23  1  6
 19 24  1  1
 24  1  1  0
  2 25  1  0
  6 26  1  0
 26 27  1  0
 27 28  1  0
 27 29  2  0
 28 30  1  0
 30 31  2  0
 31 32  1  0
 32 33  2  0
 33 34  1  0
 34 35  2  0
 35 30  1  0
 33 36  1  0
 36 37  1  0
 36 38  1  0
 36 39  1  0
M  END