
  SciTegic10041313272D

117126  0  0  1  0            999 V2000
   -3.5502  -20.2487    0.0000 C   0  0
   -4.5549  -19.3692    0.0000 C   0  0
   -4.3737  -20.1739    0.0000 O   0  0
   -5.1757  -21.7032    0.0000 C   0  0
   -4.7611  -22.4155    0.0000 C   0  0
   -3.9290  -22.4025    0.0000 C   0  0
   -4.7800  -20.9863    0.0000 C   0  0
   -3.9487  -20.9721    0.0000 C   0  0
   -3.5272  -21.6814    0.0000 C   0  0
   -2.7026  -21.6708    0.0000 O   0  0
   -2.7274  -20.2376    0.0000 C   0  0
   -2.3000  -20.9482    0.0000 C   0  0
   -1.4754  -20.9375    0.0000 C   0  0
   -1.0726  -20.2131    0.0000 C   0  0
   -1.5036  -19.4972    0.0000 C   0  0
   -2.3301  -19.5175    0.0000 C   0  0
   -3.8453  -18.9484    0.0000 C   0  0
   -3.2279  -19.4919    0.0000 C   0  0
   -2.4543  -19.2288    0.0000 C   0  0
   -2.2920  -18.4227    0.0000 C   0  0
   -2.9127  -17.8804    0.0000 C   0  0
   -3.6869  -18.1439    0.0000 C   0  0
   -5.3133  -19.0415    0.0000 O   0  0
   -1.3397  -17.3530    0.0000 C   0  0
   -1.9693  -16.8207    0.0000 S   0  0
    0.0237  -17.6441    0.0000 C   0  0
    0.8327  -17.3692    0.0000 C   0  0
    1.4205  -17.9446    0.0000 C   0  0
    2.2254  -17.6697    0.0000 C   0  0
    2.8173  -18.2450    0.0000 C   0  0
    3.6115  -17.9860    0.0000 N   0  0
    2.6544  -19.0411    0.0000 O   0  0
    4.2719  -18.4679    0.0000 C   0  0  1  0  0  0
    4.9511  -17.9890    0.0000 C   0  0
    4.6974  -17.2008    0.0000 C   0  0
    3.8728  -17.1970    0.0000 C   0  0
    4.2836  -19.2923    0.0000 C   0  0
    3.5701  -19.7194    0.0000 O   0  0
    5.0659  -20.5191    0.0000 C   0  0  2  0  0  0
    5.7874  -20.9212    0.0000 C   0  0
    4.3482  -20.9471    0.0000 C   0  0
    3.6421  -20.6151    0.0000 C   0  0
    2.9325  -21.0376    0.0000 C   0  0
    2.9443  -21.8718    0.0000 O   0  0
    5.8364  -21.7338    0.0000 N   0  0
    6.5052  -20.4932    0.0000 O   0  0
    5.1956  -22.2447    0.0000 C   0  0
    5.4852  -23.0161    0.0000 C   0  0
    6.3090  -22.9806    0.0000 C   0  0
    6.5283  -22.1853    0.0000 C   0  0  1  0  0  0
    7.3096  -21.8816    0.0000 C   0  0
    7.4726  -21.0856    0.0000 O   0  0
    8.6921  -22.2200    0.0000 C   0  0  2  0  0  0
    9.2840  -22.7954    0.0000 C   0  0
    9.1168  -23.5915    0.0000 O   0  0
    8.8442  -21.4357    0.0000 C   0  0  1  0  0  0
    9.6384  -21.1725    0.0000 C   0  0
   10.6275  -23.0847    0.0000 C   0  0  2  0  0  0
   11.4323  -22.8098    0.0000 C   0  0
   12.0243  -23.3851    0.0000 N   0  0
   11.8563  -24.1793    0.0000 C   0  0
   12.4662  -24.7314    0.0000 C   0  0
   13.2509  -24.4825    0.0000 C   0  0
   13.4245  -23.6733    0.0000 C   0  0
   12.8132  -23.1249    0.0000 C   0  0
   10.4644  -23.8807    0.0000 C   0  0
   11.5954  -22.0179    0.0000 O   0  0
   12.9811  -22.3160    0.0000 C   0  0
   12.3635  -21.7688    0.0000 O   0  0
   13.7648  -22.0571    0.0000 N   0  0
   14.0129  -21.2741    0.0000 C   0  0  1  0  0  0
   14.8376  -21.2677    0.0000 C   0  0  2  0  0  0
   15.1008  -22.0501    0.0000 C   0  0
   14.4352  -22.5397    0.0000 C   0  0
   13.5205  -20.6116    0.0000 C   0  0
   12.7032  -20.7051    0.0000 O   0  0
   13.8497  -19.8557    0.0000 N   0  0
   13.3966  -19.1670    0.0000 C   0  0  2  0  0  0
   13.7662  -18.4276    0.0000 C   0  0
   12.5737  -19.2135    0.0000 C   0  0
   12.2040  -19.9529    0.0000 C   0  0
   11.3811  -19.9994    0.0000 C   0  0
   10.9279  -19.3108    0.0000 O   0  0
   13.3131  -17.7389    0.0000 N   0  0
   14.5891  -18.3810    0.0000 O   0  0
   13.6829  -17.0038    0.0000 C   0  0  2  0  0  0
   13.2297  -16.3151    0.0000 C   0  0
   13.5995  -15.5757    0.0000 O   0  0
   14.5058  -16.9572    0.0000 C   0  0
   14.8754  -16.2178    0.0000 C   0  0
   15.6974  -16.1709    0.0000 C   0  0
   16.1514  -16.8557    0.0000 O   0  0
   -0.2480  -20.1988    0.0000 O   0  0
   -5.1666  -23.1337    0.0000 O   0  0
   -1.5099  -18.1603    0.0000 N   0  0
   -0.5659  -17.0670    0.0000 N   0  0
    5.0028  -19.6965    0.0000 N   0  0
    2.2040  -20.6698    0.0000 O   0  0
    7.9016  -22.4562    0.0000 N   0  0
   10.0518  -22.4937    0.0000 N   0  0
    8.2505  -20.8586    0.0000 O   0  0
   11.0096  -20.7371    0.0000 O   0  0
   12.4050  -16.3599    0.0000 N   0  0
   16.0680  -15.4319    0.0000 O   0  0
   15.3165  -20.5959    0.0000 O   0  0
   14.9741  -19.8453    0.0000 N   0  0
   15.4529  -19.1735    0.0000 C   0  0
   16.2742  -19.2523    0.0000 C   0  0
   16.6143  -20.0026    0.0000 C   0  0
   17.4347  -20.0817    0.0000 C   0  0
   17.9144  -19.4094    0.0000 C   0  0
   17.5679  -18.6560    0.0000 C   0  0
   16.7485  -18.5806    0.0000 C   0  0
   18.7358  -19.4871    0.0000 O   0  0
   18.0462  -17.9802    0.0000 C   0  0
   18.8677  -18.0561    0.0000 O   0  0
   17.7012  -17.2308    0.0000 O   0  0
 22 17  1  0
  2 23  2  0
 24 25  2  0
 26 27  1  0
 27 28  1  0
 28 29  1  0
 29 30  1  0
 30 31  1  0
 30 32  2  0
 31 33  1  0
 33 34  1  0
 34 35  1  0
 35 36  1  0
 36 31  1  0
 33 37  1  1
 37 38  2  0
 39 40  1  0
 39 41  1  6
 41 42  1  0
 42 43  1  0
 43 44  2  0
 40 45  1  0
 40 46  2  0
 45 47  1  0
 47 48  1  0
 48 49  1  0
 49 50  1  0
 50 45  1  0
 50 51  1  6
 51 52  2  0
 53 54  1  0
 54 55  2  0
 53 56  1  0
 56 57  1  0
 58 59  1  0
 59 60  1  0
 60 61  1  0
 60 65  1  0
 61 62  1  0
 62 63  1  0
 63 64  1  0
 64 65  1  0
 58 66  1  6
 59 67  2  0
 68 69  2  0
 68 70  1  0
 65 68  1  0
 71 70  1  0
 72 71  1  0
 72 73  1  0
 73 74  1  0
 74 70  1  0
 71 75  1  6
 75 76  2  0
 75 77  1  0
 78 77  1  1
 78 79  1  0
 78 80  1  0
 80 81  1  0
 81 82  1  0
 82 83  2  0
 79 84  1  0
 79 85  2  0
 86 84  1  6
 86 87  1  0
 87 88  2  0
 86 89  1  0
 89 90  1  0
 90 91  1  0
 91 92  2  0
 14 93  1  0
  1 18  1  0
  5 94  1  0
 17  2  1  0
  2  3  1  0
  3  1  1  0
  4  5  2  0
  5  6  1  0
  6  9  2  0
  8  7  2  0
  7  4  1  0
  8  9  1  0
  9 10  1  0
 10 12  1  0
 11  1  1  0
 51 99  1  0
 53 99  1  1
 20 95  1  0
 95 24  1  0
 54100  1  0
100 58  1  0
 37 97  1  0
 97 39  1  0
 56101  1  6
 82102  1  0
 43 98  1  0
 87103  1  0
 24 96  1  0
 96 26  1  0
 91104  1  0
 72105  1  1
  1  8  1  0
105106  1  0
 11 12  2  0
106107  2  0
 12 13  1  0
107108  1  0
 13 14  2  0
108109  2  0
 14 15  1  0
109110  1  0
 15 16  2  0
110111  2  0
 16 11  1  0
111112  1  0
 17 18  2  0
112113  2  0
113108  1  0
 18 19  1  0
111114  1  0
 19 20  2  0
 20 21  1  0
 21 22  2  0
115116  1  0
115117  2  0
112115  1  0
M  END