
  SciTegic05171617282D

 36 39  0  0  0  0            999 V2000
    2.3383   -1.3500    0.0000 C   0  0
    1.2990   -0.7500    0.0000 N   0  0
    1.2990    0.7500    0.0000 C   0  0
    0.0000    1.5000    0.0000 C   0  0
   -1.2990    0.7500    0.0000 N   0  0
   -1.2990   -0.7500    0.0000 C   0  0
    0.0000   -1.5000    0.0000 C   0  0
   -2.5987    1.5004    0.0000 C   0  0
   -2.6012    3.0004    0.0000 C   0  0
   -3.9015    3.7484    0.0000 C   0  0
   -5.1993    2.9963    0.0000 C   0  0
   -5.1969    1.4963    0.0000 C   0  0
   -6.4939    0.7411    0.0000 N   0  0
   -7.7969    1.4860    0.0000 C   0  0
   -9.0943    0.7331    0.0000 N   0  0
  -10.3950    1.4802    0.0000 C   0  0
  -10.3984    2.9802    0.0000 C   0  0
   -9.1010    3.7331    0.0000 C   0  0
   -9.1013    5.2340    0.0000 C   0  0
   -7.8022    5.9854    0.0000 C   0  0
   -7.8025    7.4863    0.0000 C   0  0
   -9.1032    8.2335    0.0000 C   0  0
   -9.1065    9.7335    0.0000 C   0  0
   -7.8092   10.4863    0.0000 C   0  0
   -6.5085    9.7392    0.0000 C   0  0
   -6.5051    8.2392    0.0000 C   0  0
   -5.2021    7.4944    0.0000 C   0  0
   -3.9052    8.2496    0.0000 C   0  0
   -3.9100    9.4496    0.0000 N   0  0
   -2.8633    7.6541    0.0000 O   0  0
   -7.8003    2.9860    0.0000 N   0  0
  -11.6998    3.7277    0.0000 C   0  0
  -12.7381    3.1260    0.0000 F   0  0
  -11.7021    4.9277    0.0000 F   0  0
  -12.7401    4.3259    0.0000 F   0  0
   -3.8967    0.7484    0.0000 C   0  0
  1  2  1  0
  2  3  1  0
  3  4  1  0
  4  5  1  0
  5  6  1  0
  6  7  1  0
  2  7  1  0
  5  8  1  0
  8  9  2  0
  9 10  1  0
 10 11  2  0
 11 12  1  0
 12 13  1  0
 13 14  1  0
 14 15  2  0
 15 16  1  0
 16 17  2  0
 17 18  1  0
 18 19  1  0
 19 20  1  0
 20 21  1  0
 21 22  2  0
 22 23  1  0
 23 24  2  0
 24 25  1  0
 25 26  2  0
 21 26  1  0
 26 27  1  0
 27 28  1  0
 28 29  1  0
 28 30  2  0
 18 31  2  0
 14 31  1  0
 17 32  1  0
 32 33  1  0
 32 34  1  0
 32 35  1  0
 12 36  2  0
  8 36  1  0
M  END