
          02060813462D 1   1.00000     0.00000     0

 18 19  0     0  0            999 V2000
   -4.0943  -14.4001    0.0000 C   0  0  0  0  0  0           0  0  0
   -4.0956  -15.2277    0.0000 N   0  0  0  0  0  0           0  0  0
   -3.3827  -15.6406    0.0000 C   0  0  0  0  0  0           0  0  0
   -2.6633  -15.2272    0.0000 C   0  0  0  0  0  0           0  0  0
   -2.6665  -14.3962    0.0000 C   0  0  0  0  0  0           0  0  0
   -3.3847  -13.9874    0.0000 C   0  0  0  0  0  0           0  0  0
   -1.9541  -13.9802    0.0000 C   0  0  0  0  0  0           0  0  0
   -1.2377  -14.3891    0.0000 N   0  0  0  0  0  0           0  0  0
   -1.9582  -13.1552    0.0000 O   0  0  0  0  0  0           0  0  0
   -1.2336  -15.2141    0.0000 N   0  0  0  0  0  0           0  0  0
   -0.5171  -15.6229    0.0000 C   0  0  0  0  0  0           0  0  0
   -0.5130  -16.4479    0.0000 O   0  0  0  0  0  0           0  0  0
    0.1954  -15.2069    0.0000 C   0  0  0  0  0  0           0  0  0
    0.9100  -15.6209    0.0000 C   0  0  0  0  0  0           0  0  0
    1.6219  -15.2057    0.0000 C   0  0  0  0  0  0           0  0  0
    1.6182  -14.3799    0.0000 N   0  0  0  0  0  0           0  0  0
    0.8968  -13.9711    0.0000 C   0  0  0  0  0  0           0  0  0
    0.1878  -14.3888    0.0000 C   0  0  0  0  0  0           0  0  0
  7  9  2  0     0  0
  4  5  1  0     0  0
  8 10  1  0     0  0
  2  3  1  0     0  0
 10 11  1  0     0  0
  5  6  2  0     0  0
 11 12  2  0     0  0
  6  1  1  0     0  0
 11 13  1  0     0  0
  1  2  2  0     0  0
 13 14  2  0     0  0
  5  7  1  0     0  0
 14 15  1  0     0  0
  3  4  2  0     0  0
 15 16  2  0     0  0
  7  8  1  0     0  0
 16 17  1  0     0  0
 17 18  2  0     0  0
 18 13  1  0     0  0
M  END