
          11280714452D 1   1.00000     0.00000     0

 23 25  0     0  0            999 V2000
   -0.9083   -0.2417    0.0000 N   0  0  0  0  0  0           0  0  0
   -1.2083   -0.7542    0.0000 C   0  0  0  0  0  0           0  0  0
   -0.8125   -1.2042    0.0000 N   0  0  0  0  0  0           0  0  0
   -0.3208   -0.3750    0.0000 C   0  0  0  0  0  0           0  0  0
   -0.2708   -0.9667    0.0000 C   0  0  0  0  0  0           0  0  0
   -2.7708   -0.5542    0.0000 C   0  0  3  0  0  0           0  0  0
   -2.1833   -0.4292    0.0000 C   0  0  0  0  0  0           0  0  0
   -1.7875   -0.8750    0.0000 C   0  0  0  0  0  0           0  0  0
   -2.9500   -1.1250    0.0000 C   0  0  0  0  0  0           0  0  0
   -3.1708   -0.1042    0.0000 C   0  0  0  0  0  0           0  0  0
    0.1292    0.0208    0.0000 C   0  0  0  0  0  0           0  0  0
    0.4750    0.9958    0.0000 N   0  0  0  0  0  0           0  0  0
    0.0167    0.6083    0.0000 C   0  0  0  0  0  0           0  0  0
   -2.9875    0.4583    0.0000 C   0  0  0  0  0  0           0  0  0
   -3.5333   -1.2500    0.0000 C   0  0  0  0  0  0           0  0  0
   -2.5500   -1.5667    0.0000 C   0  0  0  0  0  0           0  0  0
   -3.7500   -0.2292    0.0000 C   0  0  0  0  0  0           0  0  0
   -3.7208   -1.8167    0.0000 C   0  0  0  0  0  0           0  0  0
   -2.7333   -2.1292    0.0000 C   0  0  0  0  0  0           0  0  0
   -3.3833    0.9000    0.0000 C   0  0  0  0  0  0           0  0  0
   -4.1583    0.2083    0.0000 C   0  0  0  0  0  0           0  0  0
   -3.3125   -2.2667    0.0000 C   0  0  0  0  0  0           0  0  0
   -3.9708    0.7750    0.0000 C   0  0  0  0  0  0           0  0  0
  2  1  2  0     0  0
  3  2  1  0     0  0
  4  1  1  0     0  0
  5  4  2  0     0  0
  6  7  1  0     0  0
  7  8  1  0     0  0
  8  2  1  0     0  0
  9  6  1  0     0  0
 10  6  1  0     0  0
 11  4  1  0     0  0
 12 13  1  0     0  0
 13 11  1  0     0  0
 14 10  2  0     0  0
 15  9  2  0     0  0
 16  9  1  0     0  0
 17 10  1  0     0  0
 18 15  1  0     0  0
 19 16  2  0     0  0
 20 14  1  0     0  0
 21 17  2  0     0  0
 22 19  1  0     0  0
 23 21  1  0     0  0
  5  3  1  0     0  0
 23 20  2  0     0  0
 22 18  2  0     0  0
M  END