
  Mrv0541 05211314572D          

 16 18  0  0  0  0            999 V2000
    1.0840   -0.2421    0.0000 C   0  0  0  0  0  0  0  0  0  0  0  0
    1.0840   -1.0671    0.0000 C   0  0  0  0  0  0  0  0  0  0  0  0
    0.3695   -1.4796    0.0000 C   0  0  0  0  0  0  0  0  0  0  0  0
    0.3695    0.1704    0.0000 C   0  0  0  0  0  0  0  0  0  0  0  0
   -0.3450   -0.2421    0.0000 C   0  0  0  0  0  0  0  0  0  0  0  0
   -0.3450   -1.0671    0.0000 C   0  0  0  0  0  0  0  0  0  0  0  0
   -1.1296   -1.3221    0.0000 N   0  0  0  0  0  0  0  0  0  0  0  0
   -1.6145   -0.6546    0.0000 C   0  0  0  0  0  0  0  0  0  0  0  0
   -1.1296    0.0128    0.0000 C   0  0  0  0  0  0  0  0  0  0  0  0
   -2.4395   -0.6546    0.0000 O   0  0  0  0  0  0  0  0  0  0  0  0
   -1.3845    0.7974    0.0000 C   0  0  0  0  0  0  0  0  0  0  0  0
   -2.1915    0.9690    0.0000 C   0  0  0  0  0  0  0  0  0  0  0  0
   -2.8046    0.4169    0.0000 N   0  0  0  0  0  0  0  0  0  0  0  0
   -3.5191    0.8294    0.0000 C   0  0  0  0  0  0  0  0  0  0  0  0
   -3.3475    1.6364    0.0000 C   0  0  0  0  0  0  0  0  0  0  0  0
   -2.5271    1.7226    0.0000 C   0  0  0  0  0  0  0  0  0  0  0  0
  6  7  1  0  0  0  0
  7  8  1  0  0  0  0
  8  9  1  0  0  0  0
  9  5  1  0  0  0  0
  4  1  1  0  0  0  0
  8 10  2  0  0  0  0
  5  6  1  0  0  0  0
  9 11  2  0  0  0  0
 11 12  1  0  0  0  0
 12 13  1  0  0  0  0
  2  3  1  0  0  0  0
  3  6  2  0  0  0  0
  1  2  2  0  0  0  0
  5  4  2  0  0  0  0
 13 14  1  0  0  0  0
 14 15  2  0  0  0  0
 15 16  1  0  0  0  0
 16 12  2  0  0  0  0
M  END