
  CDK    9/16/09,10:2

 38 39  0  0  0  0  0  0  0  0999 V2000
   -4.3895    1.7884    0.0000 C   0  0  0  0  0  0  0  0  0  0  0  0
   -4.3908    0.9607    0.0000 C   0  0  0  0  0  0  0  0  0  0  0  0
   -3.6784    0.5455    0.0000 C   0  0  0  0  0  0  0  0  0  0  0  0
   -2.9596    0.9613    0.0000 C   0  0  0  0  0  0  0  0  0  0  0  0
   -2.9628    1.7924    0.0000 C   0  0  0  0  0  0  0  0  0  0  0  0
   -3.6804    2.1989    0.0000 C   0  0  0  0  0  0  0  0  0  0  0  0
   -5.1052    0.5469    0.0000 C   0  0  0  0  0  0  0  0  0  0  0  0
   -5.1064   -0.2781    0.0000 C   0  0  0  0  0  0  0  0  0  0  0  0
   -5.8209   -0.6873    0.0000 C   0  0  0  0  0  0  0  0  0  0  0  0
   -4.3931   -0.6894    0.0000 C   0  0  0  0  0  0  0  0  0  0  0  0
   -4.3944   -1.5144    0.0000 C   0  0  0  0  0  0  0  0  0  0  0  0
   -3.6811   -1.9302    0.0000 C   0  0  0  0  0  0  0  0  0  0  0  0
   -3.6823   -2.7553    0.0000 C   0  0  0  0  0  0  0  0  0  0  0  0
   -2.9666   -1.5165    0.0000 O   0  0  0  0  0  0  0  0  0  0  0  0
   -4.3968   -3.1645    0.0000 C   0  0  0  0  0  0  0  0  0  0  0  0
   -2.9690   -3.1665    0.0000 C   0  0  0  0  0  0  0  0  0  0  0  0
   -2.2545   -2.7573    0.0000 C   0  0  0  0  0  0  0  0  0  0  0  0
   -5.1088   -1.9282    0.0000 O   0  0  0  0  0  0  0  0  0  0  0  0
   -2.2454    0.5471    0.0000 N   0  0  0  0  0  0  0  0  0  0  0  0
   -1.5319    0.9626    0.0000 C   0  0  0  0  0  0  0  0  0  0  0  0
   -0.8129    0.5485    0.0000 C   0  0  0  0  0  0  0  0  0  0  0  0
   -1.5326    1.7876    0.0000 O   0  0  0  0  0  0  0  0  0  0  0  0
   -0.8123   -0.2767    0.0000 C   0  0  0  0  0  0  0  0  0  0  0  0
   -0.0994    0.9639    0.0000 C   0  0  0  0  0  0  0  0  0  0  0  0
   -0.0980   -0.6862    0.0000 C   0  0  0  0  0  0  0  0  0  0  0  0
   -0.0972   -1.5112    0.0000 C   0  0  0  0  0  0  0  0  0  0  0  0
   -1.4334   -2.7563    0.0000 C   0  0  0  0  0  0  0  0  0  0  0  0
   -2.4646   -1.9605    0.0000 C   0  0  0  0  0  0  0  0  0  0  0  0
   -1.0177   -3.4696    0.0000 O   0  0  0  0  0  0  0  0  0  0  0  0
   -1.0196   -2.0418    0.0000 C   0  0  0  0  0  0  0  0  0  0  0  0
   -1.4353   -1.3285    0.0000 O   0  0  0  0  0  0  0  0  0  0  0  0
   -2.2604   -1.3295    0.0000 C   0  0  0  0  0  0  0  0  0  0  0  0
   -0.1927   -3.4686    0.0000 C   0  0  0  0  0  0  0  0  0  0  0  0
    0.2166   -2.7541    0.0000 O   0  0  0  0  0  0  0  0  0  0  0  0
    0.2185   -4.1819    0.0000 N   0  0  0  0  0  0  0  0  0  0  0  0
   -5.1078    2.2033    0.0000 O   0  0  0  0  0  0  0  0  0  0  0  0
   -3.6843    3.0285    0.0000 Cl  0  0  0  0  0  0  0  0  0  0  0  0
   -5.8279   -1.5143    0.0000 C   0  0  0  0  0  0  0  0  0  0  0  0
  4 19  1  0  0  0  0 
  4  5  1  0  0  0  0 
 19 20  1  0  0  0  0 
  8 10  1  0  0  0  0 
 20 21  1  0  0  0  0 
  2  3  1  0  0  0  0 
 20 22  2  0  0  0  0 
 10 11  1  0  0  0  0 
 21 23  2  0  0  0  0 
  5  6  2  0  0  0  0 
 21 24  1  0  0  0  0 
 11 12  1  0  0  0  0 
 23 25  1  0  0  0  0 
  6  1  1  0  0  0  0 
 25 26  1  0  0  0  0 
 12 13  1  0  0  0  0 
 17 27  1  0  0  0  0 
  1  2  2  0  0  0  0 
 17 28  1  0  0  0  0 
 12 14  1  6  0  0  0 
 27 29  1  1  0  0  0 
  2  7  1  0  0  0  0 
 27 30  1  0  0  0  0 
 13 15  1  6  0  0  0 
 30 31  1  1  0  0  0 
  3  4  2  0  0  0  0 
 31 32  1  0  0  0  0 
 30 26  1  0  0  0  0 
 13 16  1  0  0  0  0 
 29 33  1  0  0  0  0 
  7  8  1  0  0  0  0 
 33 34  2  0  0  0  0 
 16 17  2  0  0  0  0 
 33 35  1  0  0  0  0 
  1 36  1  0  0  0  0 
 11 18  1  1  0  0  0 
  6 37  1  0  0  0  0 
  8  9  1  6  0  0  0 
 18 38  1  0  0  0  0 
M  END