
  SciTegic07111214002D

 38 40  0  0  0  0            999 V2000
    7.5535    0.9328    0.0000 C   0  0
    8.3795    0.9338    0.0000 C   0  0
    8.6359    0.1492    0.0000 C   0  0
    7.9666   -0.3375    0.0000 N   0  0
    7.3016    0.1492    0.0000 N   0  0
    8.7943    1.6431    0.0000 C   0  0
    9.6203    1.6359    0.0000 C   0  0
   10.0378    2.3465    0.0000 C   0  0
    9.6304    3.0649    0.0000 C   0  0
    8.8011    3.0682    0.0000 C   0  0
    8.3874    2.3569    0.0000 C   0  0
    7.1623    1.6539    0.0000 C   0  0
    7.5972    2.3564    0.0000 C   0  0
    7.2063    3.0820    0.0000 C   0  0
    6.3808    3.1065    0.0000 C   0  0
    5.9477    2.3993    0.0000 C   0  0
    6.3410    1.6765    0.0000 C   0  0
    5.9883    3.8321    0.0000 Cl  0  0
    7.9654   -1.1625    0.0000 C   0  0
    7.2503   -1.5739    0.0000 N   0  0
    7.2490   -2.3989    0.0000 S   0  0
    6.5339   -2.8103    0.0000 C   0  0
    5.8226   -2.3943    0.0000 C   0  0
    5.1079   -2.8050    0.0000 C   0  0
    5.1062   -3.6309    0.0000 C   0  0
    5.8251   -4.0443    0.0000 C   0  0
    6.5368   -3.6312    0.0000 C   0  0
    7.6542   -3.1083    0.0000 O   0  0
    7.9583   -1.9792    0.0000 O   0  0
    4.3917   -4.0432    0.0000 Cl  0  0
    8.6792   -1.5761    0.0000 N   0  0
    9.3943   -1.1647    0.0000 C   0  0
   10.1082   -1.5783    0.0000 C   0  0
   10.8233   -1.1669    0.0000 C   0  0
   11.5371   -1.5804    0.0000 N   0  0
   12.2522   -1.1690    0.0000 C   0  0
   11.5358   -2.4054    0.0000 C   0  0
   13.5708    0.1583    0.0000 Cl  0  0
 15 18  1  0
  8  9  2  0
  4 19  1  0
  3  4  1  0
 19 20  2  0
  9 10  1  0
 20 21  1  0
  4  5  1  0
 21 22  1  0
 10 11  2  0
 22 23  2  0
 11  6  1  0
 23 24  1  0
  2  6  1  0
 24 25  2  0
  5  1  2  0
 25 26  1  0
  1  2  1  0
 26 27  2  0
 27 22  1  0
 12 13  2  0
 21 28  2  0
 21 29  2  0
 13 14  1  0
 25 30  1  0
  6  7  2  0
 19 31  1  0
 14 15  2  0
 31 32  1  0
 32 33  1  0
 15 16  1  0
 33 34  1  0
  7  8  1  0
 34 35  1  0
 16 17  2  0
 35 36  1  0
 17 12  1  0
 35 37  1  0
  1 12  1  0
  2  3  1  0
M  END