
  SciTegic05071316502D

 17 18  0  0  0  0            999 V2000
    4.5839   -0.9121    0.0000 C   0  0
    4.5828   -1.7316    0.0000 C   0  0
    5.2908   -2.1406    0.0000 C   0  0
    5.2890   -0.5032    0.0000 C   0  0
    5.9977   -0.9085    0.0000 C   0  0
    5.9979   -1.7317    0.0000 N   0  0
    6.7809   -1.9858    0.0000 C   0  0
    7.2646   -1.3197    0.0000 C   0  0
    6.7805   -0.6539    0.0000 N   0  0
    7.0341   -2.7651    0.0000 N   0  3
    7.8335   -2.9348    0.0000 O   0  0
    6.4875   -3.3726    0.0000 O   0  5
    8.0852   -1.3178    0.0000 C   0  0
    8.4941   -2.0254    0.0000 O   0  0
    8.4936   -0.6100    0.0000 O   0  0
    9.3113   -2.0251    0.0000 C   0  0
    9.7201   -2.7327    0.0000 C   0  0
  1  2  1  0
  2  3  2  0
  3  6  1  0
  5  4  1  0
  4  1  2  0
  5  6  1  0
  6  7  1  0
  7  8  2  0
  8  9  1  0
  9  5  2  0
 10 11  2  0
 10 12  1  0
  7 10  1  0
 13 14  1  0
 13 15  2  0
  8 13  1  0
 14 16  1  0
 16 17  1  0
M  CHG  2  10   1  12  -1
M  END