
  SciTegic11201309402D

 77 80  0  0  1  0            999 V2000
    7.2004   -6.5818    0.0000 N   0  0
    6.8309   -5.8426    0.0000 C   0  0
    6.0045   -5.7969    0.0000 C   0  0  1  0  0  0
    5.9173   -4.9830    0.0000 N   0  0
    4.3145   -3.2058    0.0000 N   0  0
    0.7392   -5.5229    0.0000 N   0  0
    1.9351   -3.4549    0.0000 N   0  0
    5.5852   -4.2273    0.0000 C   0  0
    1.3247   -4.0030    0.0000 C   0  0
    0.8264   -6.3451    0.0000 C   0  0
    8.5999   -6.1208    0.0000 C   0  0
    3.5130   -3.0314    0.0000 C   0  0
    5.0328   -3.6169    0.0000 C   0  0  2  0  0  0
    1.7191   -7.7112    0.0000 N   0  0
    8.0144   -6.7063    0.0000 C   0  0  2  0  0  0
    0.9136   -4.7214    0.0000 C   0  0  2  0  0  0
    2.4292   -8.1223    0.0000 C   0  0
    1.1627   -7.0925    0.0000 C   0  0  1  0  0  0
    8.3839   -5.3235    0.0000 N   0  0
    5.5478   -2.9773    0.0000 C   0  0
    2.6908   -3.1186    0.0000 C   0  0  2  0  0  0
    8.7494   -3.9532    0.0000 C   0  0
   12.5198   -4.2231    0.0000 C   0  0
    5.4232   -7.3250    0.0000 S   0  0
    3.2307   -8.2884    0.0000 C   0  0
    4.8086   -7.8731    0.0000 S   0  0
    5.5478   -2.1551    0.0000 C   0  0
    9.3349   -3.3677    0.0000 N   0  0
    4.0529   -8.2095    0.0000 C   0  0
    8.9694   -4.7463    0.0000 C   0  0  2  0  0  0
    9.7086   -1.9849    0.0000 C   0  0
    2.8445   -0.9385    0.0000 C   0  0
   13.1053   -3.6376    0.0000 N   0  0
    7.2794   -5.1491    0.0000 O   0  0
    5.8343   -6.6067    0.0000 C   0  0
    9.3930   -6.3409    0.0000 O   0  0
    0.0291   -6.5568    0.0000 O   0  0
    6.2703   -3.7788    0.0000 O   0  0
    0.6893   -3.4881    0.0000 O   0  0
    3.5546   -2.2092    0.0000 O   0  0
    0.4734   -7.5493    0.0000 C   0  0
    0.1412   -4.4224    0.0000 C   0  0
    2.1344   -8.8864    0.0000 O   0  0
    7.9603   -3.7373    0.0000 O   0  0
    4.8252   -1.7482    0.0000 O   0  0
   10.5059   -2.1967    0.0000 O   0  0
    3.4300   -0.3613    0.0000 O   0  0
    2.4790   -2.3213    0.0000 C   0  0
   11.7267   -4.0030    0.0000 N   0  0
    9.1231   -2.5704    0.0000 C   0  0
   12.7358   -5.0204    0.0000 N   0  0
    6.8309   -7.3126    0.0000 C   0  0
    6.2537   -1.7358    0.0000 N   0  0
    3.0563   -1.7358    0.0000 C   0  0
   -0.3488   -7.5493    0.0000 C   0  0
    2.0472   -0.7267    0.0000 N   0  0
    9.4926   -1.1876    0.0000 N   0  0
   -2.0015   -7.5410    0.0000 C   0  0
   -0.2699   -3.7041    0.0000 C   0  0
   -0.7599   -6.8267    0.0000 C   0  0
   -0.7599   -8.2593    0.0000 C   0  0
   -1.5904   -8.2593    0.0000 C   0  0
   -1.5904   -6.8267    0.0000 C   0  0
    8.1472   -7.5161    0.0000 C   0  0
   -2.8237   -7.5410    0.0000 O   0  0
    7.4122   -7.8981    0.0000 C   0  0
    4.7630   -8.6123    0.0000 C   0  0
    3.3428   -8.6123    0.0000 C   0  0
    9.7667   -4.9581    0.0000 C   0  0
   11.1412   -4.5885    0.0000 C   0  0
   -1.0963   -3.7123    0.0000 C   0  0
    0.1412   -2.9815    0.0000 C   0  0
   -3.2348   -8.2511    0.0000 C   0  0
   10.3439   -4.3768    0.0000 C   0  0
   -0.2741   -2.2715    0.0000 C   0  0
   -1.5156   -2.9940    0.0000 C   0  0
   -1.1045   -2.2715    0.0000 C   0  0
  2  1  1  0
  3  2  1  6
  4  3  1  0
  5 13  1  0
  6 10  1  0
  7 21  1  0
  8  4  1  0
  9  7  1  0
 10 18  1  0
 15 11  1  6
 12  5  1  0
 13  8  1  0
 14 17  1  0
 15  1  1  0
 16  9  1  0
 17 25  1  0
 18 14  1  0
 19 11  1  0
 13 20  1  1
 21 12  1  0
 22 30  1  0
 23 49  2  0
 24 35  1  0
 25 29  1  0
 26 24  1  0
 27 20  1  0
 28 22  1  0
 29 26  1  0
 30 19  1  6
 31 50  1  0
 32 54  1  0
 33 23  1  0
 34  2  2  0
  3 35  1  0
 36 11  2  0
 37 10  2  0
 38  8  2  0
 39  9  2  0
 40 12  2  0
 18 41  1  1
 16 42  1  1
 43 17  2  0
 44 22  2  0
 45 27  2  0
 46 31  2  0
 47 32  2  0
 21 48  1  1
 49 70  1  0
 50 28  1  0
 51 23  1  0
 52  1  1  0
 53 27  1  0
 54 48  1  0
 55 41  1  0
 56 32  1  0
 57 31  1  0
 58 62  1  0
 59 42  1  0
 60 55  2  0
 61 55  1  0
 62 61  2  0
 63 60  1  0
 15 64  1  0
 65 58  1  0
 66 52  1  0
 67 29  1  0
 68 29  1  0
 30 69  1  0
 70 74  1  0
 71 59  1  0
 72 59  2  0
 73 65  1  0
 74 69  1  0
 75 72  1  0
 76 71  2  0
 77 75  2  0
 64 66  1  0
  6 16  1  0
 58 63  2  0
 77 76  1  0
M  END