
          11280714552D 1   1.00000     0.00000     0

 40 44  0     0  0            999 V2000
    3.0000   -3.2792    0.0000 C   0  0  0  0  0  0           0  0  0
    4.4292   -3.2875    0.0000 C   0  0  0  0  0  0           0  0  0
    3.7167   -3.7000    0.0000 C   0  0  0  0  0  0           0  0  0
    4.4292   -2.4542    0.0000 C   0  0  0  0  0  0           0  0  0
    3.7167   -2.0417    0.0000 O   0  0  0  0  0  0           0  0  0
    3.0042   -2.4542    0.0000 C   0  0  0  0  0  0           0  0  0
    2.2875   -3.7000    0.0000 C   0  0  0  0  0  0           0  0  0
    7.2792   -2.4667    0.0000 O   0  0  0  0  0  0           0  0  0
    1.5750   -3.2875    0.0000 C   0  0  0  0  0  0           0  0  0
    8.0000   -2.0667    0.0000 C   0  0  3  0  0  0           0  0  0
    7.2917   -0.8167    0.0000 O   0  0  0  0  0  0           0  0  0
    6.5667   -2.0542    0.0000 C   0  0  0  0  0  0           0  0  0
    8.0042   -1.2417    0.0000 C   0  0  3  0  0  0           0  0  0
    5.1500   -2.0500    0.0000 C   0  0  0  0  0  0           0  0  0
    2.2875   -2.0417    0.0000 C   0  0  0  0  0  0           0  0  0
    1.5750   -2.4542    0.0000 C   0  0  0  0  0  0           0  0  0
    8.7042   -2.4875    0.0000 C   0  0  0  0  0  0           0  0  0
    6.5792   -1.2292    0.0000 C   0  0  0  0  0  0           0  0  0
    0.8542   -3.7000    0.0000 C   0  0  0  0  0  0           0  0  0
    5.8625   -2.4667    0.0000 C   0  0  0  0  0  0           0  0  0
    9.4250   -2.0792    0.0000 C   0  0  0  0  0  0           0  0  0
   10.1292   -2.4917    0.0000 C   0  0  0  0  0  0           0  0  0
    0.1417   -3.2875    0.0000 C   0  0  0  0  0  0           0  0  0
    3.7125   -4.5250    0.0000 O   0  0  0  0  0  0           0  0  0
   10.1292   -3.3250    0.0000 C   0  0  0  0  0  0           0  0  0
    5.1500   -1.2292    0.0000 C   0  0  0  0  0  0           0  0  0
    8.7000   -3.3125    0.0000 C   0  0  0  0  0  0           0  0  0
    5.1417   -3.7000    0.0000 O   0  0  0  0  0  0           0  0  0
    5.8625   -0.8167    0.0000 C   0  0  0  0  0  0           0  0  0
   -0.5708   -3.7000    0.0000 C   0  0  0  0  0  0           0  0  0
    9.4042   -3.7292    0.0000 C   0  0  0  0  0  0           0  0  0
    2.2917   -4.5250    0.0000 O   0  0  0  0  0  0           0  0  0
    0.8625   -2.0500    0.0000 O   0  0  0  0  0  0           0  0  0
   10.8500   -2.0917    0.0000 O   0  0  0  0  0  0           0  0  0
    8.7250   -0.8375    0.0000 C   0  0  0  0  0  0           0  0  0
   10.8417   -3.7417    0.0000 O   0  0  0  0  0  0           0  0  0
    9.4292   -1.2542    0.0000 O   0  0  0  0  0  0           0  0  0
   -1.2833   -3.2875    0.0000 C   0  0  0  0  0  0           0  0  0
   -0.5708   -4.5250    0.0000 C   0  0  0  0  0  0           0  0  0
   11.5542   -2.5042    0.0000 C   0  0  0  0  0  0           0  0  0
  2  3  1  0     0  0
  3  1  1  0     0  0
  4  5  1  0     0  0
  5  6  1  0     0  0
  6  1  1  0     0  0
  7  1  2  0     0  0
  8 12  1  0     0  0
  9  7  1  0     0  0
 10  8  1  0     0  0
 11 18  1  0     0  0
 12 20  1  0     0  0
 13 11  1  0     0  0
 14  4  1  0     0  0
 15  6  2  0     0  0
 16  9  2  0     0  0
 17 10  1  0     0  0
 18 29  1  0     0  0
 19  9  1  0     0  0
 20 14  2  0     0  0
 21 17  1  0     0  0
 22 21  2  0     0  0
 23 19  1  0     0  0
 24  3  2  0     0  0
 25 31  2  0     0  0
 26 14  1  0     0  0
 27 17  2  0     0  0
 28  2  1  0     0  0
 29 26  2  0     0  0
 30 23  2  0     0  0
 31 27  1  0     0  0
 32  7  1  0     0  0
 33 16  1  0     0  0
 34 22  1  0     0  0
 35 13  1  0     0  0
 36 25  1  0     0  0
 37 35  1  0     0  0
 38 30  1  0     0  0
 39 30  1  0     0  0
 40 34  1  0     0  0
 16 15  1  0     0  0
  4  2  2  0     0  0
 18 12  2  0     0  0
 13 10  1  0     0  0
 25 22  1  0     0  0
M  END