
  SciTegic05171617282D

 36 40  0  0  0  0            999 V2000
   -9.7990    2.4708    0.0000 O   0  0
   -8.6268    2.2137    0.0000 C   0  0
   -8.1728    0.7832    0.0000 O   0  0
   -9.1839   -0.3259    0.0000 C   0  0
   -8.7298   -1.7564    0.0000 C   0  0
   -9.7388   -2.8664    0.0000 C   0  0
   -9.2820   -4.2952    0.0000 C   0  0
   -7.8163   -4.6140    0.0000 C   0  0
   -6.8073   -3.5041    0.0000 C   0  0
   -7.2640   -2.0753    0.0000 C   0  0
   -7.6144    3.3243    0.0000 N   0  0
   -8.1718    4.7169    0.0000 C   0  0
   -7.4306    6.0209    0.0000 C   0  0
   -5.9489    6.2545    0.0000 N   0  0
   -4.8425    5.2417    0.0000 C   0  0
   -3.7306    5.6931    0.0000 O   0  0
   -4.9300    3.7369    0.0000 C   0  0
   -6.1781    2.8918    0.0000 C   0  0
   -3.6267    2.9927    0.0000 N   0  0
   -3.6187    1.4919    0.0000 C   0  0
   -4.6549    0.8867    0.0000 O   0  0
   -2.3155    0.7475    0.0000 C   0  0
   -2.3155   -0.7475    0.0000 C   0  0
   -1.0028   -1.5132    0.0000 C   0  0
    0.2917   -0.7475    0.0000 C   0  0
    1.7138   -1.2033    0.0000 N   0  0
    2.5889    0.0182    0.0000 N   0  0
    1.7138    1.2033    0.0000 C   0  0
    2.1749    2.6315    0.0000 C   0  0
    1.2517    3.8078    0.0000 C   0  0
    1.8114    5.1995    0.0000 C   0  0
    3.2965    5.4106    0.0000 N   0  0
    4.2218    4.2301    0.0000 C   0  0
    3.6621    2.8384    0.0000 C   0  0
    0.2917    0.7475    0.0000 C   0  0
   -1.0028    1.5132    0.0000 C   0  0
  1  2  2  0
  2  3  1  0
  3  4  1  0
  4  5  1  0
  5  6  2  0
  6  7  1  0
  7  8  2  0
  8  9  1  0
  9 10  2  0
  5 10  1  0
  2 11  1  0
 11 12  1  0
 12 13  1  0
 13 14  1  0
 14 15  1  0
 15 16  2  0
 15 17  1  0
 17 18  1  0
 11 18  1  0
 17 19  1  0
 19 20  1  0
 20 21  2  0
 20 22  1  0
 22 23  2  0
 23 24  1  0
 24 25  2  0
 25 26  1  0
 26 27  1  0
 27 28  2  0
 28 29  1  0
 29 30  2  0
 30 31  1  0
 31 32  2  0
 32 33  1  0
 33 34  2  0
 29 34  1  0
 28 35  1  0
 25 35  1  0
 35 36  2  0
 22 36  1  0
M  END