
          11280715072D 1   1.00000     0.00000     0

 27 29  0     1  0            999 V2000
    1.4042   -0.2042    0.0000 C   0  0  2  0  0  0           0  0  0
    2.1167   -0.6167    0.0000 C   0  0  1  0  0  0           0  0  0
    2.1167    0.2125    0.0000 C   0  0  0  0  0  0           0  0  0
   -0.7333   -0.6167    0.0000 C   0  0  0  0  0  0           0  0  0
    0.6917   -0.6167    0.0000 C   0  0  0  0  0  0           0  0  0
   -0.7333   -1.4417    0.0000 C   0  0  0  0  0  0           0  0  0
   -0.0208   -0.2042    0.0000 C   0  0  0  0  0  0           0  0  0
    2.1167   -1.4417    0.0000 C   0  0  0  0  0  0           0  0  0
   -1.4458   -0.2042    0.0000 C   0  0  3  0  0  0           0  0  0
   -1.4458   -1.8542    0.0000 C   0  0  3  0  0  0           0  0  0
   -0.0208   -1.8542    0.0000 C   0  0  0  0  0  0           0  0  0
    3.5292   -3.0917    0.0000 C   0  0  0  0  0  0           0  0  0
    2.8250   -1.8542    0.0000 C   0  0  0  0  0  0           0  0  0
    3.5292   -3.9167    0.0000 C   0  0  0  0  0  0           0  0  0
    2.8167   -2.6792    0.0000 C   0  0  0  0  0  0           0  0  0
    0.6917   -1.4417    0.0000 C   0  0  0  0  0  0           0  0  0
   -2.1500   -0.6167    0.0000 C   0  0  0  0  0  0           0  0  0
   -2.1500   -1.4417    0.0000 C   0  0  0  0  0  0           0  0  0
    2.8125   -4.3292    0.0000 O   0  0  0  0  0  0           0  0  0
    1.4042    0.6208    0.0000 C   0  0  0  0  0  0           0  0  0
    4.2417   -4.3375    0.0000 O   0  0  0  0  0  0           0  0  0
   -2.1583    0.2083    0.0000 C   0  0  0  0  0  0           0  0  0
   -0.7333    0.2125    0.0000 C   0  0  0  0  0  0           0  0  0
   -0.7333   -2.2667    0.0000 C   0  0  0  0  0  0           0  0  0
   -2.1583   -2.2625    0.0000 C   0  0  0  0  0  0           0  0  0
    2.1042   -3.0875    0.0000 C   0  0  0  0  0  0           0  0  0
    2.8292   -0.2000    0.0000 H   0  0  0  0  0  0           0  0  0
  2  1  1  0     0  0
  3  1  1  0     0  0
  4  7  1  0     0  0
  5  1  1  0     0  0
  6 11  1  0     0  0
  7  5  2  0     0  0
  8  2  1  0     0  0
  9  4  1  0     0  0
 10  6  1  0     0  0
 11 16  2  0     0  0
 12 15  2  0     0  0
 13  8  2  0     0  0
 14 12  1  0     0  0
 15 13  1  0     0  0
 16  5  1  0     0  0
 17  9  1  0     0  0
 18 10  1  0     0  0
 19 14  2  0     0  0
  1 20  1  6     0  0
 21 14  1  0     0  0
 22  9  1  0     0  0
 23  9  1  0     0  0
 24 10  1  0     0  0
 25 10  1  0     0  0
 26 15  1  0     0  0
  2 27  1  6     0  0
  3  2  1  0     0  0
  4  6  2  0     0  0
 17 18  1  0     0  0
M  END