
  SciTegic12211612392D

 24 25  0  0  0  0            999 V2000
   -3.8969   -0.4545    0.0000 O   0  0
   -3.8990    0.7455    0.0000 S   0  0
   -2.8588    0.1471    0.0000 O   0  0
    1.2990   -0.7500    0.0000 C   0  0
    1.2990    0.7500    0.0000 C   0  0
    0.0000    1.5000    0.0000 C   0  0
   -1.2990    0.7500    0.0000 C   0  0
   -1.2990   -0.7500    0.0000 C   0  0
    0.0000   -1.5000    0.0000 C   0  0
    2.3383   -1.3500    0.0000 C   0  0
    2.3383    1.3500    0.0000 C   0  0
   -2.6003    1.4977    0.0000 N   0  0
   -5.2003    1.4932    0.0000 C   0  0
   -6.4978    0.7405    0.0000 C   0  0
   -7.7984    1.4878    0.0000 C   0  0
   -7.8015    2.9878    0.0000 C   0  0
   -6.5040    3.7405    0.0000 C   0  0
   -5.2034    2.9932    0.0000 C   0  0
   -6.5065    4.9405    0.0000 C   0  0
   -9.1043    3.7329    0.0000 O   0  0
  -10.4015    2.9780    0.0000 C   0  0
  -11.7043    3.7230    0.0000 C   0  0
  -11.7089    4.9230    0.0000 O   0  0
  -12.7414    3.1194    0.0000 O   0  0
  2  1  2  0
  3  2  2  0
  4  5  2  0
  5  6  1  0
  6  7  2  0
  7  8  1  0
  8  9  2  0
  9  4  1  0
  4 10  1  0
  5 11  1  0
  7 12  1  0
 12  2  1  0
  2 13  1  0
 13 14  2  0
 14 15  1  0
 15 16  2  0
 16 17  1  0
 17 18  2  0
 18 13  1  0
 17 19  1  0
 16 20  1  0
 20 21  1  0
 21 22  1  0
 22 23  1  0
 22 24  2  0
M  END