
          02060813472D 1   1.00000     0.00000     0

 32 34  0     1  0            999 V2000
   -3.3167  -14.3833    0.0000 C   0  0  0  0  0  0           0  0  0
   -3.3167  -15.2083    0.0000 O   0  0  0  0  0  0           0  0  0
   -2.6046  -15.6167    0.0000 C   0  0  0  0  0  0           0  0  0
   -1.8926  -15.2083    0.0000 C   0  0  0  0  0  0           0  0  0
   -1.8926  -14.3833    0.0000 N   0  0  3  0  0  0           0  0  0
   -2.6046  -13.9667    0.0000 C   0  0  0  0  0  0           0  0  0
   -1.1770  -13.9729    0.0000 C   0  0  0  0  0  0           0  0  0
   -0.4637  -14.3875    0.0000 C   0  0  0  0  0  0           0  0  0
   -1.1745  -13.1479    0.0000 O   0  0  0  0  0  0           0  0  0
    0.2520  -13.9771    0.0000 C   0  0  2  0  0  0           0  0  0
    0.9659  -14.3969    0.0000 C   0  0  0  0  0  0           0  0  0
    1.6795  -13.9900    0.0000 N   0  0  0  0  0  0           0  0  0
    0.2565  -13.1521    0.0000 C   0  0  0  0  0  0           0  0  0
    0.9730  -12.7479    0.0000 C   0  0  3  0  0  0           0  0  0
    1.6864  -13.1684    0.0000 C   0  0  0  0  0  0           0  0  0
    2.4034  -12.7631    0.0000 C   0  0  0  0  0  0           0  0  0
    2.4131  -11.9357    0.0000 C   0  0  0  0  0  0           0  0  0
    1.6997  -11.5151    0.0000 C   0  0  0  0  0  0           0  0  0
    0.9765  -11.9220    0.0000 C   0  0  0  0  0  0           0  0  0
    0.9604  -15.2219    0.0000 O   0  0  0  0  0  0           0  0  0
    2.3917  -14.4063    0.0000 C   0  0  2  0  0  0           0  0  0
    3.1084  -13.9976    0.0000 C   0  0  0  0  0  0           0  0  0
    2.3873  -15.2313    0.0000 C   0  0  0  0  0  0           0  0  0
    3.8240  -13.5872    0.0000 N   0  0  0  0  0  0           0  0  0
    3.0996  -15.6476    0.0000 O   0  0  0  0  0  0           0  0  0
    3.0952  -16.4726    0.0000 C   0  0  0  0  0  0           0  0  0
    3.8074  -16.8889    0.0000 C   0  0  0  0  0  0           0  0  0
    3.8012  -17.7136    0.0000 C   0  0  0  0  0  0           0  0  0
    4.5126  -18.1298    0.0000 C   0  0  0  0  0  0           0  0  0
    5.2302  -17.7210    0.0000 C   0  0  0  0  0  0           0  0  0
    5.2320  -16.8918    0.0000 C   0  0  0  0  0  0           0  0  0
    4.5200  -16.4793    0.0000 C   0  0  0  0  0  0           0  0  0
  7  8  1  0     0  0
  1  6  1  0     0  0
  7  9  2  0     0  0
 14 19  1  0     0  0
 15 16  1  0     0  0
 16 17  1  0     0  0
 17 18  1  0     0  0
 18 19  1  0     0  0
  2  3  1  0     0  0
 11 20  2  0     0  0
  8 10  1  0     0  0
 12 21  1  0     0  0
 10 11  1  0     0  0
 21 22  1  0     0  0
  3  4  1  0     0  0
 21 23  1  6     0  0
  4  5  1  0     0  0
 22 24  3  0     0  0
 11 12  1  0     0  0
 23 25  1  0     0  0
 14 13  1  0     0  0
 25 26  1  0     0  0
  5  6  1  0     0  0
 26 27  1  0     0  0
 10 13  1  1     0  0
 27 28  2  0     0  0
 14 15  1  0     0  0
 28 29  1  0     0  0
 29 30  2  0     0  0
  5  7  1  0     0  0
 30 31  1  0     0  0
  1  2  1  0     0  0
 31 32  2  0     0  0
 32 27  1  0     0  0
M  END