
  SciTegic12231509382D

 14 16  0  0  0  0            999 V2000
   -4.4196    1.4143    0.0000 N   0  0
   -5.1341    1.0018    0.0000 C   0  0
   -5.1341    0.1768    0.0000 C   0  0
   -4.4196   -0.2357    0.0000 C   0  0
   -3.7051    0.1768    0.0000 C   0  0
   -3.7051    1.0018    0.0000 C   0  0
   -2.9907   -0.2357    0.0000 C   0  0
   -2.5782    0.4788    0.0000 C   0  0
   -1.7813    0.6923    0.0000 C   0  0
   -1.0668    0.2798    0.0000 C   0  0
   -1.4793   -0.4347    0.0000 C   0  0
   -2.1938   -0.0222    0.0000 C   0  0
   -2.1804    1.4143    0.0000 N   0  0
   -5.8486    1.4143    0.0000 Cl  0  0
  1  2  1  0
  1  6  2  0
  2  3  2  0
  3  4  1  0
  4  5  2  0
  5  6  1  0
  5  7  1  0
  7  8  1  0
  8  9  1  0
  9 10  1  0
 10 11  1  0
 11 12  1  0
 12  7  1  0
 12 13  1  0
  9 13  1  0
  2 14  1  0
M  END