
          11280715362D 1   1.00000     0.00000     0

 37 40  0     1  0            999 V2000
    8.5292   -3.6375    0.0000 C   0  0  1  0  0  0           0  0  0
    8.5750   -2.8125    0.0000 C   0  0  2  0  0  0           0  0  0
    9.1750   -4.1542    0.0000 N   0  0  3  0  0  0           0  0  0
    7.7375   -3.8500    0.0000 C   0  0  0  0  0  0           0  0  0
   11.4875   -1.1250    0.0000 C   0  0  0  0  0  0           0  0  0
    7.8125   -2.5167    0.0000 C   0  0  2  0  0  0           0  0  0
   12.7292   -1.8292    0.0000 N   0  0  0  0  0  0           0  0  0
   10.6667   -1.1292    0.0000 C   0  0  0  0  0  0           0  0  0
   12.6917   -3.3167    0.0000 C   0  0  0  0  0  0           0  0  0
   11.8875   -0.4042    0.0000 C   0  0  0  0  0  0           0  0  0
    7.6000   -1.7167    0.0000 O   0  0  0  0  0  0           0  0  0
    7.2875   -3.1542    0.0000 C   0  0  0  0  0  0           0  0  0
   13.2792   -3.0125    0.0000 O   0  0  0  0  0  0           0  0  0
   12.7125   -0.4000    0.0000 C   0  0  0  0  0  0           0  0  0
   10.2417   -0.4167    0.0000 C   0  0  0  0  0  0           0  0  0
   10.2542   -1.8500    0.0000 C   0  0  0  0  0  0           0  0  0
   10.4792   -2.6042    0.0000 C   0  0  0  0  0  0           0  0  0
   11.1625   -2.7417    0.0000 C   0  0  0  0  0  0           0  0  0
    9.2667   -2.3667    0.0000 O   0  0  0  0  0  0           0  0  0
    8.1875   -1.1292    0.0000 C   0  0  0  0  0  0           0  0  0
    9.0125   -1.1417    0.0000 C   0  0  0  0  0  0           0  0  0
   11.9042   -1.8375    0.0000 C   0  0  0  0  0  0           0  0  0
   12.6625   -3.9875    0.0000 O   0  0  0  0  0  0           0  0  0
    9.4292   -1.8542    0.0000 C   0  0  0  0  0  0           0  0  0
    9.4167   -0.4250    0.0000 C   0  0  0  0  0  0           0  0  0
   13.1375   -1.1125    0.0000 C   0  0  0  0  0  0           0  0  0
    8.9875   -4.9625    0.0000 C   0  0  0  0  0  0           0  0  0
    9.9167   -3.8042    0.0000 C   0  0  0  0  0  0           0  0  0
   13.9375    0.3333    0.0000 O   0  0  0  0  0  0           0  0  0
   13.1167    0.3208    0.0000 C   0  0  0  0  0  0           0  0  0
    9.9417   -2.8667    0.0000 C   0  0  0  0  0  0           0  0  0
   12.1292   -2.9625    0.0000 C   0  0  0  0  0  0           0  0  0
   11.5375   -3.2667    0.0000 C   0  0  0  0  0  0           0  0  0
    9.4917   -5.6125    0.0000 C   0  0  0  0  0  0           0  0  0
   10.6625   -4.1667    0.0000 C   0  0  0  0  0  0           0  0  0
   10.3250   -5.6167    0.0000 C   0  0  0  0  0  0           0  0  0
   10.8417   -4.9750    0.0000 C   0  0  0  0  0  0           0  0  0
  2  1  1  0     0  0
  1  3  1  1     0  0
  4  1  1  0     0  0
  5  8  1  0     0  0
  6  2  1  0     0  0
  7 22  1  0     0  0
  8 15  1  0     0  0
  9 32  1  0     0  0
 10  5  1  0     0  0
  6 11  1  1     0  0
 12  4  1  0     0  0
 13  9  2  0     0  0
 14 10  2  0     0  0
 15 25  2  0     0  0
 16 24  1  0     0  0
 17 31  1  0     0  0
 18 17  2  0     0  0
  2 19  1  6     0  0
 20 11  1  0     0  0
 21 20  1  0     0  0
 22  5  2  0     0  0
 23  9  1  0     0  0
 24 21  2  0     0  0
 25 21  1  0     0  0
 26  7  2  0     0  0
 27  3  1  0     0  0
 28  3  1  0     0  0
 29 30  1  0     0  0
 30 14  1  0     0  0
 31 19  1  0     0  0
 32 33  1  0     0  0
 33 18  1  0     0  0
 34 27  1  0     0  0
 35 28  1  0     0  0
 36 34  1  0     0  0
 37 35  1  0     0  0
 12  6  1  0     0  0
 36 37  1  0     0  0
 16  8  2  0     0  0
 26 14  1  0     0  0
M  END