
          02060813472D 1   1.00000     0.00000     0

 34 38  0     1  0            999 V2000
    8.6736  -11.9750    0.0000 C   0  0  0  0  0  0           0  0  0
    8.6724  -12.8023    0.0000 C   0  0  0  0  0  0           0  0  0
    9.3872  -13.2152    0.0000 C   0  0  0  0  0  0           0  0  0
    9.3854  -11.5622    0.0000 C   0  0  0  0  0  0           0  0  0
   10.1008  -11.9713    0.0000 C   0  0  0  0  0  0           0  0  0
   10.1016  -12.7982    0.0000 C   0  0  0  0  0  0           0  0  0
   10.8169  -13.2091    0.0000 N   0  0  0  0  0  0           0  0  0
   11.5319  -12.7944    0.0000 C   0  0  0  0  0  0           0  0  0
   11.5271  -11.9644    0.0000 N   0  0  0  0  0  0           0  0  0
   10.8112  -11.5572    0.0000 C   0  0  0  0  0  0           0  0  0
   12.2456  -13.2042    0.0000 N   0  0  3  0  0  0           0  0  0
   13.6741  -14.0280    0.0000 N   0  0  3  0  0  0           0  0  0
   13.6729  -13.2021    0.0000 C   0  0  0  0  0  0           0  0  0
   12.9564  -12.7879    0.0000 C   0  0  0  0  0  0           0  0  0
   12.9588  -14.4398    0.0000 C   0  0  2  0  0  0           0  0  0
   12.2444  -14.0274    0.0000 C   0  0  1  0  0  0           0  0  0
   11.5340  -14.4377    0.0000 C   0  0  0  0  0  0           0  0  0
   11.5318  -15.2620    0.0000 C   0  0  0  0  0  0           0  0  0
   12.2463  -15.6743    0.0000 C   0  0  0  0  0  0           0  0  0
   12.9629  -15.2624    0.0000 C   0  0  0  0  0  0           0  0  0
   13.6708  -14.8500    0.0000 H   0  0  0  0  0  0           0  0  0
   11.5250  -13.6125    0.0000 H   0  0  0  0  0  0           0  0  0
   14.3886  -14.4404    0.0000 C   0  0  0  0  0  0           0  0  0
   14.3887  -15.2654    0.0000 O   0  0  0  0  0  0           0  0  0
   15.1034  -14.0274    0.0000 C   0  0  0  0  0  0           0  0  0
   15.8910  -14.2612    0.0000 C   0  0  0  0  0  0           0  0  0
   16.3575  -13.5808    0.0000 C   0  0  0  0  0  0           0  0  0
   15.8545  -12.9268    0.0000 C   0  0  0  0  0  0           0  0  0
   15.0772  -13.2032    0.0000 S   0  0  0  0  0  0           0  0  0
    7.9590  -11.5626    0.0000 O   0  0  0  0  0  0           0  0  0
    7.9576  -13.2143    0.0000 O   0  0  0  0  0  0           0  0  0
    7.9588  -10.7376    0.0000 C   0  0  0  0  0  0           0  0  0
    7.9570  -14.0393    0.0000 C   0  0  0  0  0  0           0  0  0
   10.8069  -10.7322    0.0000 N   0  0  0  0  0  0           0  0  0
  1  2  2  0     0  0
  7  8  2  0     0  0
  5  4  2  0     0  0
  8  9  1  0     0  0
  4  1  1  0     0  0
 15 20  1  0     0  0
 16 17  1  0     0  0
 17 18  1  0     0  0
 18 19  1  0     0  0
 19 20  1  0     0  0
  9 10  2  0     0  0
 15 21  1  6     0  0
 10  5  1  0     0  0
 16 22  1  6     0  0
 11 16  1  0     0  0
 12 23  1  0     0  0
 23 24  2  0     0  0
  2  3  1  0     0  0
 23 25  1  0     0  0
 25 26  2  0     0  0
  5  6  1  0     0  0
  3  6  2  0     0  0
 11 14  1  0     0  0
 15 12  1  0     0  0
 26 27  1  0     0  0
 27 28  2  0     0  0
 28 29  1  0     0  0
 29 25  1  0     0  0
 12 13  1  0     0  0
  1 30  1  0     0  0
 13 14  1  0     0  0
  2 31  1  0     0  0
  8 11  1  0     0  0
 30 32  1  0     0  0
 15 16  1  0     0  0
 31 33  1  0     0  0
  6  7  1  0     0  0
 10 34  1  0     0  0
M  END