
  SciTegic01311317052D

 25 27  0  0  0  0            999 V2000
    9.4651    0.2784    0.0000 C   0  0
    8.9804   -0.3912    0.0000 O   0  0
    9.4651   -1.0566    0.0000 C   0  0
   10.2497   -0.8037    0.0000 C   0  0
   10.2497    0.0213    0.0000 O   0  0
   11.8394    1.6612    0.0000 C   0  0
   11.9283    0.8389    0.0000 N   0  0
   11.1739    0.5013    0.0000 C   0  0
   10.6208    1.1177    0.0000 N   0  0
   11.0333    1.8294    0.0000 N   0  0
    9.8027    1.0287    0.0000 C   0  0
    8.7492    0.6909    0.0000 C   0  0
    8.7492    1.5159    0.0000 C   0  0
    8.0334    1.9284    0.0000 C   0  0
    7.3217    1.5159    0.0000 C   0  0
    7.3217    0.6909    0.0000 C   0  0
    8.0334    0.2784    0.0000 C   0  0
    9.4651    1.9284    0.0000 Cl  0  0
    6.6058    1.9284    0.0000 Cl  0  0
   10.9152   -1.2884    0.0000 C   0  0
   10.8304   -2.1107    0.0000 O   0  0
   11.5000   -2.5954    0.0000 S   0  0
   11.0152   -3.2609    0.0000 O   0  0
   11.9847   -1.9258    0.0000 O   0  0
   12.1654   -3.0802    0.0000 C   0  0
  1  2  1  0
  2  3  1  0
  3  4  1  0
  4  5  1  0
  5  1  1  0
  6  7  1  0
  7  8  2  0
  8  9  1  0
  9 10  1  0
 10  6  2  0
  9 11  1  0
  1 11  1  0
  1 12  1  0
 12 13  2  0
 13 14  1  0
 14 15  2  0
 15 16  1  0
 16 17  2  0
 17 12  1  0
 13 18  1  0
 15 19  1  0
  4 20  1  0
 20 21  1  0
 21 22  1  0
 22 23  2  0
 22 24  2  0
 22 25  1  0
M  END