
  CDK    9/16/09,9:51

 28 31  0  0  0  0  0  0  0  0999 V2000
   -2.1159    0.3585    0.0000 C   0  0  0  0  0  0  0  0  0  0  0  0
   -2.5094   -0.3718    0.0000 N   0  0  0  0  0  0  0  0  0  0  0  0
   -2.0761   -1.0738    0.0000 C   0  0  0  0  0  0  0  0  0  0  0  0
   -1.2473   -1.0517    0.0000 C   0  0  0  0  0  0  0  0  0  0  0  0
   -0.8538   -0.3214    0.0000 N   0  0  0  0  0  0  0  0  0  0  0  0
   -1.2891    0.3869    0.0000 C   0  0  0  0  0  0  0  0  0  0  0  0
   -0.0293   -0.2980    0.0000 C   0  0  0  0  0  0  0  0  0  0  0  0
    0.4035   -1.0005    0.0000 C   0  0  0  0  0  0  0  0  0  0  0  0
    0.0864   -1.7619    0.0000 C   0  0  0  0  0  0  0  0  0  0  0  0
    0.7149   -2.2963    0.0000 S   0  0  0  0  0  0  0  0  0  0  0  0
    1.4175   -1.8637    0.0000 C   0  0  0  0  0  0  0  0  0  0  0  0
    1.2230   -1.0620    0.0000 C   0  0  0  0  0  0  0  0  0  0  0  0
    1.7569   -0.4330    0.0000 C   0  0  0  0  0  0  0  0  0  0  0  0
    2.5686   -0.5808    0.0000 O   0  0  0  0  0  0  0  0  0  0  0  0
    1.4791    0.3439    0.0000 C   0  0  0  0  0  0  0  0  0  0  0  0
    2.0123    0.9696    0.0000 C   0  0  0  0  0  0  0  0  0  0  0  0
    1.7352    1.7459    0.0000 C   0  0  0  0  0  0  0  0  0  0  0  0
    0.9227    1.8944    0.0000 C   0  0  0  0  0  0  0  0  0  0  0  0
    0.3881    1.2604    0.0000 C   0  0  0  0  0  0  0  0  0  0  0  0
    0.6680    0.4867    0.0000 C   0  0  0  0  0  0  0  0  0  0  0  0
    0.6440    2.6709    0.0000 Cl  0  0  0  0  0  0  0  0  0  0  0  0
    2.1805   -2.1776    0.0000 N   0  0  0  0  0  0  0  0  0  0  0  0
   -3.3341   -0.3961    0.0000 C   0  0  0  0  0  0  0  0  0  0  0  0
   -3.7626    0.3081    0.0000 C   0  0  0  0  0  0  0  0  0  0  0  0
   -4.5866    0.2841    0.0000 C   0  0  0  0  0  0  0  0  0  0  0  0
   -3.7184   -1.1196    0.0000 N   0  0  0  0  0  0  0  0  0  0  0  0
   -4.5408   -1.1470    0.0000 C   0  0  0  0  0  0  0  0  0  0  0  0
   -4.9791   -0.4472    0.0000 C   0  0  0  0  0  0  0  0  0  0  0  0
 13 14  2  0  0  0  0 
  5  7  1  0  0  0  0 
 13 15  1  0  0  0  0 
  1  2  1  0  0  0  0 
 15 16  2  0  0  0  0 
  7  8  1  0  0  0  0 
 16 17  1  0  0  0  0 
  8  9  2  0  0  0  0 
 17 18  2  0  0  0  0 
  1  6  1  0  0  0  0 
 18 19  1  0  0  0  0 
  2  3  1  0  0  0  0 
 19 20  2  0  0  0  0 
 20 15  1  0  0  0  0 
  3  4  1  0  0  0  0 
 18 21  1  0  0  0  0 
  4  5  1  0  0  0  0 
 11 22  1  0  0  0  0 
  9 10  1  0  0  0  0 
  2 23  1  0  0  0  0 
 10 11  1  0  0  0  0 
 23 24  2  0  0  0  0 
 11 12  2  0  0  0  0 
 24 25  1  0  0  0  0 
 25 28  2  0  0  0  0 
 12  8  1  0  0  0  0 
 27 26  2  0  0  0  0 
 26 23  1  0  0  0  0 
 27 28  1  0  0  0  0 
  5  6  1  0  0  0  0 
 12 13  1  0  0  0  0 
M  END