
  SciTegic05171617282D

 32 36  0  0  0  0            999 V2000
    1.1290   -6.1548    0.0000 C   0  0
    1.8565   -5.2005    0.0000 C   0  0
    1.2781   -3.8165    0.0000 C   0  0
    2.1852   -2.6281    0.0000 C   0  0
    3.6753   -2.8147    0.0000 C   0  0
    4.2537   -4.1987    0.0000 C   0  0
    3.3443   -5.3916    0.0000 N   0  0
    1.7138   -1.2033    0.0000 C   0  0
    2.5889    0.0182    0.0000 N   0  0
    1.7138    1.2033    0.0000 N   0  0
    0.2917    0.7475    0.0000 C   0  0
   -1.0028    1.5132    0.0000 C   0  0
   -2.3155    0.7475    0.0000 C   0  0
   -2.3155   -0.7475    0.0000 C   0  0
   -1.0028   -1.5132    0.0000 C   0  0
    0.2917   -0.7475    0.0000 C   0  0
   -3.6187   -1.4919    0.0000 C   0  0
   -4.6549   -0.8867    0.0000 O   0  0
   -3.6267   -2.9927    0.0000 N   0  0
   -4.9300   -3.7369    0.0000 C   0  0
   -4.9402   -5.2369    0.0000 C   0  0
   -6.2443   -5.9781    0.0000 C   0  0
   -7.5383   -5.2194    0.0000 C   0  0
   -7.5281   -3.7194    0.0000 N   0  0
   -8.8212   -2.9576    0.0000 C   0  0
   -8.8089   -1.4568    0.0000 C   0  0
  -10.1002   -0.6934    0.0000 N   0  0
  -10.0849    0.8065    0.0000 C   0  0
   -8.7782    1.5432    0.0000 C   0  0
   -7.4869    0.7799    0.0000 C   0  0
   -7.5023   -0.7200    0.0000 N   0  0
   -6.2240   -2.9782    0.0000 C   0  0
  1  2  1  0
  2  3  2  0
  3  4  1  0
  4  5  2  0
  5  6  1  0
  6  7  2  0
  2  7  1  0
  4  8  1  0
  8  9  2  0
  9 10  1  0
 10 11  1  0
 11 12  2  0
 12 13  1  0
 13 14  2  0
 14 15  1  0
 15 16  2  0
  8 16  1  0
 11 16  1  0
 14 17  1  0
 17 18  2  0
 17 19  1  0
 19 20  1  0
 20 21  1  0
 21 22  1  0
 22 23  1  0
 23 24  1  0
 24 25  1  0
 25 26  1  0
 26 27  2  0
 27 28  1  0
 28 29  2  0
 29 30  1  0
 30 31  2  0
 26 31  1  0
 24 32  1  0
 20 32  1  0
M  END