
  SciTegic12231509382D

 33 36  0  0  0  0            999 V2000
    1.9524    8.4662    0.0000 C   0  0
    1.6490    1.9290    0.0000 N   0  0
    1.2933    7.1179    0.0000 C   0  0
    2.5823    0.7000    0.0000 C   0  0
    2.3088    3.2785    0.0000 C   0  0
    1.1151    9.7117    0.0000 C   0  0
    0.8711   -1.3689    0.0000 O   0  0
    0.1244    1.9290    0.0000 C   0  0
    2.2245   -0.7311    0.0000 C   0  0
   -0.7934    0.7623    0.0000 C   0  0
    2.1306    5.8723    0.0000 N   0  0
    1.4715    4.5240    0.0000 N   0  0
   -0.4667   -0.7156    0.0000 C   0  0
    4.0135    1.1200    0.0000 C   0  0
    1.7742   11.0601    0.0000 C   0  0
    0.0961    7.0356    0.0000 O   0  0
    2.6224    7.4706    0.0000 F   0  0
    3.1496    8.5484    0.0000 F   0  0
    0.9391   12.3062    0.0000 N   0  0
    3.5060    3.3607    0.0000 O   0  0
    3.3446   -1.7734    0.0000 C   0  0
    5.1180    0.0933    0.0000 C   0  0
   -0.0821    9.6295    0.0000 O   0  0
    4.7913   -1.3067    0.0000 C   0  0
    6.2657    0.4437    0.0000 Cl  0  0
   -2.2245    1.1978    0.0000 C   0  0
   -1.5712   -1.7423    0.0000 C   0  0
    1.6007   13.6524    0.0000 C   0  0
    3.2709   11.1604    0.0000 C   0  0
   -3.3290    0.1556    0.0000 C   0  0
    3.0973   13.7526    0.0000 C   0  0
   -3.0179   -1.2445    0.0000 C   0  0
    3.9324   12.5066    0.0000 C   0  0
  1  3  1  0
  2  4  1  0
  2  5  1  0
  1  6  1  0
  2  8  1  0
  4  9  2  0
  7  9  1  0
  8 10  1  0
  3 11  1  0
  5 12  1  0
 11 12  1  0
  7 13  1  0
 10 13  2  0
  4 14  1  0
  6 15  1  0
  3 16  2  0
  1 17  1  0
  1 18  1  0
 15 19  1  0
  5 20  2  0
  9 21  1  0
 14 22  2  0
  6 23  1  0
 21 24  2  0
 22 24  1  0
 22 25  1  0
 10 26  1  0
 13 27  1  0
 19 28  2  0
 15 29  2  0
 26 30  2  0
 28 31  1  0
 27 32  2  0
 30 32  1  0
 29 33  1  0
 31 33  2  0
M  END