
          11280715192D 1   1.00000     0.00000     0

 24 26  0     0  0            999 V2000
    1.1750    1.6208    0.0000 S   0  0  3  0  0  0           0  0  0
    1.1750   -0.8542    0.0000 C   0  0  0  0  0  0           0  0  0
    1.8917    2.0375    0.0000 C   0  0  0  0  0  0           0  0  0
    0.4625    1.2083    0.0000 N   0  0  0  0  0  0           0  0  0
    1.8917    2.8708    0.0000 C   0  0  3  0  0  0           0  0  0
    1.1750   -0.0292    0.0000 C   0  0  0  0  0  0           0  0  0
    1.8875   -2.0917    0.0000 C   0  0  0  0  0  0           0  0  0
    1.2417   -2.6042    0.0000 N   0  0  0  0  0  0           0  0  0
    1.8875   -1.2667    0.0000 C   0  0  3  0  0  0           0  0  0
    0.4625    0.3833    0.0000 C   0  0  0  0  0  0           0  0  0
    2.3500   -3.3417    0.0000 N   0  0  0  0  0  0           0  0  0
    1.5375   -3.3792    0.0000 C   0  0  0  0  0  0           0  0  0
    0.7542    2.3458    0.0000 O   0  0  0  0  0  0           0  0  0
    1.5917    0.9000    0.0000 O   0  0  0  0  0  0           0  0  0
    2.5667   -2.5500    0.0000 C   0  0  0  0  0  0           0  0  0
    1.8917    3.6958    0.0000 F   0  0  0  0  0  0           0  0  0
    2.7167    2.8708    0.0000 F   0  0  0  0  0  0           0  0  0
    1.0667    2.8708    0.0000 F   0  0  0  0  0  0           0  0  0
    0.4625   -1.2667    0.0000 C   0  0  0  0  0  0           0  0  0
    1.8875    0.3833    0.0000 C   0  0  0  0  0  0           0  0  0
    2.6042   -0.8542    0.0000 C   0  0  0  0  0  0           0  0  0
   -0.2583   -0.0292    0.0000 C   0  0  0  0  0  0           0  0  0
   -0.2583   -0.8542    0.0000 C   0  0  0  0  0  0           0  0  0
    2.6042   -0.0292    0.0000 C   0  0  0  0  0  0           0  0  0
  2  6  1  0     0  0
  3  1  1  0     0  0
  4  1  1  0     0  0
  5  3  1  0     0  0
  6 10  2  0     0  0
  7  9  1  0     0  0
  8  7  1  0     0  0
  9  2  1  0     0  0
 10  4  1  0     0  0
 11 15  1  0     0  0
 12  8  2  0     0  0
 13  1  2  0     0  0
 14  1  2  0     0  0
 15  7  2  0     0  0
 16  5  1  0     0  0
 17  5  1  0     0  0
 18  5  1  0     0  0
 19 23  1  0     0  0
 20  6  1  0     0  0
 21 24  1  0     0  0
 22 10  1  0     0  0
 23 22  2  0     0  0
 24 20  1  0     0  0
 19  2  2  0     0  0
  9 21  1  0     0  0
 12 11  1  0     0  0
M  END