
  SciTegic04091415222D

 29 33  0  0  0  0            999 V2000
    1.4875  -23.2983    0.0000 C   0  0
    2.9162  -23.2946    0.0000 C   0  0
    2.2001  -22.8850    0.0000 C   0  0
    2.9191  -24.1259    0.0000 C   0  0
    2.9152  -25.7783    0.0000 C   0  0
    3.6340  -25.3617    0.0000 C   0  0
    3.6320  -24.5373    0.0000 C   0  0
    2.2012  -24.5375    0.0000 C   0  0
    1.4864  -24.1264    0.0000 C   0  0
    0.7752  -24.5397    0.0000 C   0  0
    0.7774  -25.3639    0.0000 O   0  0
    1.4968  -25.7731    0.0000 C   0  0
    2.2051  -25.3574    0.0000 C   0  0
    3.6269  -22.8803    0.0000 C   0  0
    4.3438  -23.2922    0.0000 N   0  0
    5.0570  -22.8774    0.0000 C   0  0
    5.0543  -22.0506    0.0000 N   0  0
    4.3325  -21.6405    0.0000 C   0  0
    3.6224  -22.0578    0.0000 N   0  0
    2.1977  -22.0591    0.0000 Cl  0  0
    4.3265  -20.8148    0.0000 N   0  0
    5.7734  -23.2879    0.0000 S   0  0
    6.4873  -22.8726    0.0000 C   0  0
    7.1607  -23.3501    0.0000 C   0  0  2  0  0  0
    7.1724  -24.1749    0.0000 C   0  0
    7.9608  -24.4207    0.0000 N   0  0
    8.4382  -23.7467    0.0000 C   0  0
    7.9448  -23.0846    0.0000 O   0  0
    9.2640  -23.7368    0.0000 O   0  0
  1  9  2  0
  4  2  1  0
  2  3  2  0
  3  1  1  0
  4  8  1  0
 13  5  1  0
  5  6  2  0
  6  7  1  0
  7  4  2  0
  8  9  1  0
  9 10  1  0
 10 11  1  0
 11 12  1  0
 12 13  1  0
 13  8  2  0
 14 15  2  0
 15 16  1  0
 16 17  2  0
 17 18  1  0
 18 19  2  0
 19 14  1  0
  2 14  1  0
  3 20  1  0
 18 21  1  0
 16 22  1  0
 22 23  1  0
 24 23  1  1
 24 25  1  0
 25 26  1  0
 26 27  1  0
 27 28  1  0
 24 28  1  0
 27 29  2  0
M  END