
          11280715212D 1   1.00000     0.00000     0

 30 32  0     1  0            999 V2000
   -1.2708    0.2000    0.0000 S   0  0  3  0  0  0           0  0  0
   -0.4458    0.2083    0.0000 N   0  0  3  0  0  0           0  0  0
    0.8000   -0.4917    0.0000 C   0  0  2  0  0  0           0  0  0
   -0.0250   -0.4917    0.0000 C   0  0  0  0  0  0           0  0  0
   -0.0333    0.9250    0.0000 C   0  0  0  0  0  0           0  0  0
    1.3792   -1.0750    0.0000 C   0  0  0  0  0  0           0  0  0
   -1.7375    0.8833    0.0000 C   0  0  0  0  0  0           0  0  0
    0.7917    0.9333    0.0000 C   0  0  1  0  0  0           0  0  0
   -1.9208   -0.2625    0.0000 O   0  0  0  0  0  0           0  0  0
   -0.7958   -0.5417    0.0000 O   0  0  0  0  0  0           0  0  0
    4.9250    2.0625    0.0000 C   0  0  0  0  0  0           0  0  0
    1.1750   -1.8667    0.0000 C   0  0  0  0  0  0           0  0  0
    4.6667    2.9583    0.0000 O   0  0  0  0  0  0           0  0  0
   -2.5583    0.8208    0.0000 C   0  0  0  0  0  0           0  0  0
   -1.3750    1.6250    0.0000 C   0  0  0  0  0  0           0  0  0
    2.0875    0.8833    0.0000 C   0  0  0  0  0  0           0  0  0
    3.0250    0.8833    0.0000 C   0  0  0  0  0  0           0  0  0
   -2.6625    2.2458    0.0000 C   0  0  0  0  0  0           0  0  0
    5.8250    1.8375    0.0000 O   0  0  0  0  0  0           0  0  0
   -3.0208    1.4958    0.0000 C   0  0  0  0  0  0           0  0  0
   -1.8458    2.3083    0.0000 C   0  0  0  0  0  0           0  0  0
   -3.1333    2.9250    0.0000 Cl  0  0  0  0  0  0           0  0  0
    1.4917    1.3333    0.0000 C   0  0  0  0  0  0           0  0  0
    0.3792   -2.0875    0.0000 O   0  0  0  0  0  0           0  0  0
    2.1750   -0.8542    0.0000 C   0  0  0  0  0  0           0  0  0
    4.2792    1.3958    0.0000 C   0  0  0  0  0  0           0  0  0
    3.4667    1.3875    0.0000 C   0  0  0  0  0  0           0  0  0
    1.7625   -2.4542    0.0000 C   0  0  0  0  0  0           0  0  0
    2.7667   -1.4292    0.0000 C   0  0  0  0  0  0           0  0  0
    2.5542   -2.2292    0.0000 C   0  0  0  0  0  0           0  0  0
  2  1  1  0     0  0
  3  4  1  0     0  0
  4  2  1  0     0  0
  5  2  1  0     0  0
  3  6  1  1     0  0
  7  1  1  0     0  0
  8  5  1  0     0  0
  9  1  2  0     0  0
 10  1  2  0     0  0
 11 26  1  0     0  0
 12  6  2  0     0  0
 13 11  2  0     0  0
 14  7  1  0     0  0
 15  7  2  0     0  0
 16 23  1  0     0  0
 17 16  2  0     0  0
 18 21  2  0     0  0
 19 11  1  0     0  0
 20 14  2  0     0  0
 21 15  1  0     0  0
 22 18  1  0     0  0
  8 23  1  1     0  0
 24 12  1  0     0  0
 25  6  1  0     0  0
 26 27  1  0     0  0
 27 17  1  0     0  0
 28 12  1  0     0  0
 29 25  2  0     0  0
 30 29  1  0     0  0
 18 20  1  0     0  0
  3  8  1  0     0  0
 28 30  2  0     0  0
M  END