
          05080814042D 1   1.00000     0.00000     0

 34 38  0     1  0            999 V2000
   -4.0857    2.6637    0.0000 C   0  0  0  0  0  0           0  0  0
   -4.7965    2.2488    0.0000 C   0  0  0  0  0  0           0  0  0
   -4.7895    1.4225    0.0000 C   0  0  0  0  0  0           0  0  0
   -4.0756    1.0190    0.0000 C   0  0  0  0  0  0           0  0  0
   -3.3724    2.2565    0.0000 C   0  0  0  0  0  0           0  0  0
   -3.3664    1.4288    0.0000 C   0  0  0  0  0  0           0  0  0
   -2.6505    1.0224    0.0000 C   0  0  0  0  0  0           0  0  0
   -2.6626    2.6778    0.0000 C   0  0  0  0  0  0           0  0  0
   -1.9422    2.2669    0.0000 C   0  0  2  0  0  0           0  0  0
   -1.9376    1.4373    0.0000 C   0  0  2  0  0  0           0  0  0
   -1.2209    1.0287    0.0000 N   0  0  3  0  0  0           0  0  0
   -0.5040    1.4452    0.0000 C   0  0  0  0  0  0           0  0  0
   -0.5086    2.2748    0.0000 C   0  0  1  0  0  0           0  0  0
   -1.2300    2.6879    0.0000 C   0  0  0  0  0  0           0  0  0
   -1.9500    3.0958    0.0000 H   0  0  0  0  0  0           0  0  0
   -1.9458    0.6125    0.0000 H   0  0  0  0  0  0           0  0  0
    0.2040    2.6905    0.0000 C   0  0  0  0  0  0           0  0  0
    0.9203    2.2812    0.0000 N   0  0  3  0  0  0           0  0  0
    0.2003    3.5155    0.0000 O   0  0  0  0  0  0           0  0  0
    0.9180    1.4530    0.0000 C   0  0  0  0  0  0           0  0  0
    1.6302    1.0438    0.0000 C   0  0  0  0  0  0           0  0  0
    2.3453    1.4560    0.0000 N   0  0  3  0  0  0           0  0  0
    2.3436    2.2819    0.0000 C   0  0  0  0  0  0           0  0  0
    1.6268    2.6957    0.0000 C   0  0  0  0  0  0           0  0  0
   -4.0897    3.4887    0.0000 O   0  0  0  0  0  0           0  0  0
   -4.8061    3.8977    0.0000 C   0  0  0  0  0  0           0  0  0
   -1.2175    0.2037    0.0000 C   0  0  0  0  0  0           0  0  0
    3.0600    1.0439    0.0000 C   0  0  0  0  0  0           0  0  0
    3.0561    0.2198    0.0000 C   0  0  0  0  0  0           0  0  0
    3.7700   -0.1922    0.0000 C   0  0  0  0  0  0           0  0  0
    4.4852    0.2209    0.0000 C   0  0  0  0  0  0           0  0  0
    4.4820    1.0501    0.0000 C   0  0  0  0  0  0           0  0  0
    3.7675    1.4583    0.0000 C   0  0  0  0  0  0           0  0  0
    3.7630    2.2833    0.0000 F   0  0  0  0  0  0           0  0  0
 10 16  1  1     0  0
  6  7  1  0     0  0
 13 17  1  1     0  0
  7 10  1  0     0  0
 17 18  1  0     0  0
  9  8  1  0     0  0
 17 19  2  0     0  0
 18 20  1  0     0  0
  9 10  1  0     0  0
  3  4  2  0     0  0
  4  6  1  0     0  0
  5  6  2  0     0  0
  1  2  2  0     0  0
 18 24  1  0     0  0
 20 21  1  0     0  0
 21 22  1  0     0  0
 22 23  1  0     0  0
 23 24  1  0     0  0
  5  1  1  0     0  0
  1 25  1  0     0  0
  2  3  1  0     0  0
 25 26  1  0     0  0
  9 14  1  0     0  0
 11 27  1  0     0  0
 10 11  1  0     0  0
 22 28  1  0     0  0
 11 12  1  0     0  0
 28 29  2  0     0  0
 12 13  1  0     0  0
 29 30  1  0     0  0
 13 14  1  0     0  0
 30 31  2  0     0  0
 31 32  1  0     0  0
  9 15  1  6     0  0
 32 33  2  0     0  0
 33 28  1  0     0  0
  5  8  1  0     0  0
 33 34  1  0     0  0
M  END