
  SciTegic06271217572D

 15 16  0  0  0  0            999 V2000
    6.3731   -8.7118    0.0000 C   0  0
    6.3719   -9.5391    0.0000 C   0  0
    7.0867   -9.9520    0.0000 C   0  0
    7.0849   -8.2991    0.0000 C   0  0
    7.8002   -8.7081    0.0000 C   0  0
    7.8010   -9.5350    0.0000 C   0  0
    8.5163   -9.9459    0.0000 N   0  0
    9.2312   -9.5312    0.0000 C   0  0
    9.2264   -8.7012    0.0000 C   0  0
    8.5106   -8.2941    0.0000 C   0  0
    9.9473   -9.9409    0.0000 N   0  0
    5.6586   -8.2995    0.0000 C   0  0
    5.6584   -7.4745    0.0000 F   0  0
    4.9442   -8.7121    0.0000 F   0  0
    4.9413   -7.8869    0.0000 F   0  0
  1  2  2  0
  7  8  2  0
  5  4  2  0
  8  9  1  0
  4  1  1  0
  9 10  2  0
 10  5  1  0
  8 11  1  0
  2  3  1  0
  1 12  1  0
  5  6  1  0
 12 13  1  0
  3  6  2  0
 12 14  1  0
  6  7  1  0
 12 15  1  0
M  END