
          11280715252D 1   1.00000     0.00000     0

 10 10  0     0  0            999 V2000
    4.9792   -1.7542    0.0000 C   0  0  0  0  0  0           0  0  0
    4.9792   -1.1542    0.0000 C   0  0  3  0  0  0           0  0  0
    4.4542   -0.8542    0.0000 N   0  0  0  0  0  0           0  0  0
    5.4917   -0.2542    0.0000 N   0  0  0  0  0  0           0  0  0
    5.5000   -0.8542    0.0000 C   0  0  0  0  0  0           0  0  0
    5.5042   -2.0542    0.0000 C   0  0  0  0  0  0           0  0  0
    4.4667   -2.0625    0.0000 C   0  0  0  0  0  0           0  0  0
    4.4667   -2.6625    0.0000 C   0  0  0  0  0  0           0  0  0
    5.5042   -2.6625    0.0000 C   0  0  0  0  0  0           0  0  0
    4.9792   -2.9625    0.0000 C   0  0  0  0  0  0           0  0  0
  2  1  1  0     0  0
  3  2  1  0     0  0
  4  5  1  0     0  0
  5  2  1  0     0  0
  6  1  2  0     0  0
  7  1  1  0     0  0
  8  7  2  0     0  0
  9  6  1  0     0  0
 10  8  1  0     0  0
 10  9  2  0     0  0
M  END