
          11280715102D 1   1.00000     0.00000     0

 29 32  0     0  0            999 V2000
    2.3917   -2.8250    0.0000 C   0  0  0  0  0  0           0  0  0
    2.3917   -2.0000    0.0000 N   0  0  3  0  0  0           0  0  0
    4.5292   -0.7542    0.0000 N   0  0  3  0  0  0           0  0  0
    3.1042   -1.5792    0.0000 C   0  0  3  0  0  0           0  0  0
    1.6792   -1.5875    0.0000 C   0  0  0  0  0  0           0  0  0
    3.1042   -3.2292    0.0000 O   0  0  0  0  0  0           0  0  0
    3.8167   -1.9917    0.0000 C   0  0  0  0  0  0           0  0  0
    3.1042   -0.7542    0.0000 C   0  0  0  0  0  0           0  0  0
    1.6792   -3.2375    0.0000 C   0  0  0  0  0  0           0  0  0
    3.8167   -0.3417    0.0000 C   0  0  0  0  0  0           0  0  0
    4.5292   -1.5792    0.0000 C   0  0  0  0  0  0           0  0  0
    5.2417   -0.3500    0.0000 C   0  0  0  0  0  0           0  0  0
    1.6792   -0.7542    0.0000 C   0  0  0  0  0  0           0  0  0
    0.9667   -1.9917    0.0000 C   0  0  0  0  0  0           0  0  0
    0.2542   -0.7542    0.0000 C   0  0  0  0  0  0           0  0  0
    0.2542   -1.5875    0.0000 C   0  0  0  0  0  0           0  0  0
    0.9667   -0.3417    0.0000 C   0  0  0  0  0  0           0  0  0
   -0.4583   -0.3500    0.0000 Cl  0  0  0  0  0  0           0  0  0
    5.9625   -0.7625    0.0000 C   0  0  0  0  0  0           0  0  0
    1.6875   -4.0542    0.0000 C   0  0  0  0  0  0           0  0  0
    0.9667   -2.8167    0.0000 C   0  0  0  0  0  0           0  0  0
    6.6667   -0.3542    0.0000 C   0  0  0  0  0  0           0  0  0
    5.9542   -1.5917    0.0000 C   0  0  0  0  0  0           0  0  0
    0.2542   -3.2292    0.0000 C   0  0  0  0  0  0           0  0  0
    0.9750   -4.4667    0.0000 C   0  0  0  0  0  0           0  0  0
    6.6667   -2.0042    0.0000 C   0  0  0  0  0  0           0  0  0
    7.3875   -0.7625    0.0000 C   0  0  0  0  0  0           0  0  0
    0.2542   -4.0542    0.0000 C   0  0  0  0  0  0           0  0  0
    7.3875   -1.5917    0.0000 C   0  0  0  0  0  0           0  0  0
  2  1  1  0     0  0
  3 10  1  0     0  0
  4  2  1  0     0  0
  5  2  1  0     0  0
  6  1  2  0     0  0
  7  4  1  0     0  0
  8  4  1  0     0  0
  9  1  1  0     0  0
 10  8  1  0     0  0
 11  7  1  0     0  0
 12  3  1  0     0  0
 13  5  2  0     0  0
 14  5  1  0     0  0
 15 16  1  0     0  0
 16 14  2  0     0  0
 17 13  1  0     0  0
 18 15  1  0     0  0
 19 12  1  0     0  0
 20  9  1  0     0  0
 21  9  2  0     0  0
 22 19  1  0     0  0
 23 19  2  0     0  0
 24 21  1  0     0  0
 25 20  2  0     0  0
 26 23  1  0     0  0
 27 22  2  0     0  0
 28 24  2  0     0  0
 29 26  2  0     0  0
 28 25  1  0     0  0
 15 17  2  0     0  0
  3 11  1  0     0  0
 29 27  1  0     0  0
M  END