
  SciTegic04151115542D

 21 22  0  0  0  0            999 V2000
   12.3444   -6.9458    0.0000 C   0  0
   12.3432   -7.7732    0.0000 C   0  0
   13.0581   -8.1860    0.0000 C   0  0
   13.7745   -7.7727    0.0000 C   0  0
   13.7716   -6.9422    0.0000 C   0  0
   13.0563   -6.5330    0.0000 C   0  0
   13.0579   -9.0110    0.0000 F   0  0
   11.6285   -8.1851    0.0000 Cl  0  0
   14.4846   -6.5270    0.0000 N   0  0
   15.2006   -6.9368    0.0000 C   0  0
   15.9135   -6.5216    0.0000 C   0  0
   15.2037   -7.7618    0.0000 O   0  0
   16.6295   -6.9314    0.0000 N   0  0
   15.9104   -5.6966    0.0000 O   0  0
   17.3424   -6.5162    0.0000 C   0  0
   17.3393   -5.6912    0.0000 C   0  0
   18.0522   -5.2760    0.0000 C   0  0
   18.7682   -5.6858    0.0000 N   0  0
   18.7714   -6.5108    0.0000 C   0  0
   18.0584   -6.9260    0.0000 C   0  0
   19.4812   -5.2706    0.0000 C   0  0
  2  3  1  0
 10 11  1  0
  5  6  2  0
 10 12  2  0
  6  1  1  0
 11 13  1  0
  1  2  2  0
 11 14  2  0
  3  7  1  0
 13 15  1  0
 15 20  1  0
  3  4  2  0
 15 16  1  0
  2  8  1  0
 16 17  1  0
 17 18  1  0
  5  9  1  0
 18 19  1  0
  4  5  1  0
 19 20  1  0
  9 10  1  0
 18 21  1  0
M  END