
  CDK    9/16/09,10:8

 36 38  0  0  0  0  0  0  0  0999 V2000
   12.7750  -13.3917    0.0000 C   0  0  0  0  0  0  0  0  0  0  0  0
   12.7750  -14.2167    0.0000 C   0  0  0  0  0  0  0  0  0  0  0  0
   13.4870  -14.6250    0.0000 C   0  0  0  0  0  0  0  0  0  0  0  0
   13.4870  -12.9750    0.0000 C   0  0  0  0  0  0  0  0  0  0  0  0
   14.1990  -13.3917    0.0000 C   0  0  0  0  0  0  0  0  0  0  0  0
   14.1955  -14.2167    0.0000 C   0  0  0  0  0  0  0  0  0  0  0  0
   14.9043  -14.6299    0.0000 C   0  0  0  0  0  0  0  0  0  0  0  0
   15.6211  -14.2227    0.0000 C   0  0  0  0  0  0  0  0  0  0  0  0
   14.8997  -15.4549    0.0000 O   0  0  0  0  0  0  0  0  0  0  0  0
   14.9113  -12.9799    0.0000 C   0  0  0  0  0  0  0  0  0  0  0  0
   15.6270  -13.3986    0.0000 C   0  0  0  0  0  0  0  0  0  0  0  0
   16.3408  -10.4914    0.0000 C   0  0  0  0  0  0  0  0  0  0  0  0
   15.6260  -10.9104    0.0000 C   0  0  0  0  0  0  0  0  0  0  0  0
   15.6348  -11.7432    0.0000 C   0  0  0  0  0  0  0  0  0  0  0  0
   14.9121  -12.1530    0.0000 C   0  0  0  0  0  0  0  0  0  0  0  0
   14.9042  -13.8042    0.0000 H   0  0  0  0  0  0  0  0  0  0  0  0
   14.9082  -10.5038    0.0000 C   0  0  0  0  0  0  0  0  0  0  0  0
   14.9015   -9.6788    0.0000 C   0  0  0  0  0  0  0  0  0  0  0  0
   14.0931   -8.4551    0.0000 O   0  0  0  0  0  0  0  0  0  0  0  0
   13.2847   -8.2951    0.0000 C   0  0  0  0  0  0  0  0  0  0  0  0
   12.8780   -9.0106    0.0000 C   0  0  0  0  0  0  0  0  0  0  0  0
   13.4351   -9.6146    0.0000 C   0  0  0  0  0  0  0  0  0  0  0  0
   12.9431   -7.5377    0.0000 O   0  0  0  0  0  0  0  0  0  0  0  0
   14.1917  -12.5667    0.0000 C   0  0  0  0  0  0  0  0  0  0  0  0
   13.2725  -10.4234    0.0000 C   0  0  0  0  0  0  0  0  0  0  0  0
   14.1875  -15.0375    0.0000 H   0  0  0  0  0  0  0  0  0  0  0  0
   13.6958  -15.4208    0.0000 C   0  0  0  0  0  0  0  0  0  0  0  0
   12.7667  -15.0333    0.0000 C   0  0  0  0  0  0  0  0  0  0  0  0
   16.0333  -12.6792    0.0000 C   0  0  0  0  0  0  0  0  0  0  0  0
   16.3375  -13.8083    0.0000 O   0  0  0  0  0  0  0  0  0  0  0  0
   12.0528  -14.6162    0.0000 O   0  0  0  0  0  0  0  0  0  0  0  0
   12.7601  -15.8639    0.0000 O   0  0  0  0  0  0  0  0  0  0  0  0
   12.0572  -13.7912    0.0000 C   0  0  0  0  0  0  0  0  0  0  0  0
   15.6126   -9.2605    0.0000 O   0  0  0  0  0  0  0  0  0  0  0  0
   14.1837   -9.2721    0.0000 C   0  0  0  0  0  0  0  0  0  0  0  0
   14.8982   -8.8596    0.0000 H   0  0  0  0  0  0  0  0  0  0  0  0
 13 17  2  0  0  0  0 
  7  8  1  0  0  0  0 
 17 18  1  0  0  0  0 
  8 11  1  0  0  0  0 
 35 18  1  0  0  0  0 
 35 19  1  0  0  0  0 
  3  6  1  0  0  0  0 
  7  9  1  6  0  0  0 
 10 11  1  0  0  0  0 
  5  4  1  0  0  0  0 
 19 20  1  0  0  0  0 
 20 21  1  0  0  0  0 
 21 22  2  0  0  0  0 
 22 35  1  0  0  0  0 
  5  6  1  0  0  0  0 
 20 23  2  0  0  0  0 
  5 24  1  1  0  0  0 
  1  2  1  0  0  0  0 
 22 25  1  0  0  0  0 
  1  4  1  0  0  0  0 
  6 26  1  6  0  0  0 
  2  3  1  0  0  0  0 
  3 27  1  1  0  0  0 
 10 15  1  0  0  0  0 
  3 28  1  0  0  0  0 
 12 13  1  0  0  0  0 
 11 29  1  0  0  0  0 
 13 14  1  0  0  0  0 
 11 30  1  6  0  0  0 
 14 15  1  0  0  0  0 
  5 10  1  0  0  0  0 
 28 31  1  0  0  0  0 
 28 32  2  0  0  0  0 
 10 16  1  6  0  0  0 
 31 33  1  0  0  0  0 
  6  7  1  0  0  0  0 
 18 34  1  1  0  0  0 
 35 36  1  1  0  0  0 
M  END