
  SciTegic03151118422D

 32 35  0  0  0  0            999 V2000
    1.1691    5.1045    0.0000 C   0  0
    0.5000    4.3614    0.0000 C   0  0
    8.9320    0.5000    0.0000 C   0  0
    9.9320    0.5000    0.0000 C   0  0
    7.7000    5.0388    0.0000 C   0  0
    8.5660    5.5388    0.0000 C   0  0
    2.1473    4.8966    0.0000 C   0  0
    0.8090    3.4103    0.0000 C   0  0
    8.6230    1.4511    0.0000 C   0  0
   10.2410    1.4511    0.0000 C   0  0
    6.8339    5.5388    0.0000 C   0  0
    9.4320    5.0388    0.0000 C   0  0
    5.1019    5.5388    0.0000 C   0  0
    5.9679    4.0388    0.0000 C   0  0
    4.2359    5.0388    0.0000 C   0  0
    5.1019    3.5388    0.0000 C   0  0
   10.2980    2.5388    0.0000 C   0  0
    8.5660    2.5388    0.0000 C   0  0
    2.4563    3.9456    0.0000 C   0  0
    1.7872    3.2024    0.0000 C   0  0
   10.2980    3.5388    0.0000 C   0  0
    8.5660    3.5388    0.0000 C   0  0
    3.3698    3.5388    0.0000 C   0  0
    9.4320    2.0388    0.0000 C   0  0
    3.2653    2.5443    0.0000 N   0  0
    5.9679    5.0388    0.0000 N   0  0
    4.2359    4.0388    0.0000 N   0  0
    9.4320    4.0388    0.0000 N   0  0
   11.1641    4.0388    0.0000 O   0  0
    7.7000    4.0388    0.0000 O   0  0
    2.2872    2.3364    0.0000 S   0  0
    0.0000    0.0000    0.0000 Cl  0  0
  1  2  2  0
  1  7  1  0
  2  8  1  0
  3  4  1  0
  3  9  1  0
  4 10  1  0
  5  6  1  0
  5 11  1  0
  6 12  1  0
  7 19  2  0
  8 20  2  0
  9 24  1  0
 10 24  1  0
 11 26  1  0
 12 28  1  0
 13 15  1  0
 13 26  1  0
 14 16  1  0
 14 26  1  0
 15 27  1  0
 16 27  1  0
 17 21  1  0
 17 24  1  0
 18 22  1  0
 18 24  1  0
 19 20  1  0
 19 23  1  0
 20 31  1  0
 21 28  1  0
 21 29  2  0
 22 28  1  0
 22 30  2  0
 23 25  2  0
 23 27  1  0
 25 31  1  0
M  END