
  SciTegic02271515072D

 24 23  0  0  0  0            999 V2000
    3.1482  -19.7100    0.0000 C   0  0
    3.5543  -20.4218    0.0000 C   0  0
    4.3720  -20.4250    0.0000 C   0  0
    4.7845  -19.7172    0.0000 N   0  3
    4.3734  -19.0046    0.0000 C   0  0
    3.5571  -19.0049    0.0000 C   0  0
    2.3311  -19.7071    0.0000 C   0  0
    1.9250  -18.9979    0.0000 N   0  0
    8.0447  -19.7505    0.0000 N   0  3
    8.4392  -20.4656    0.0000 C   0  0
    9.2555  -20.4801    0.0000 C   0  0
    9.6771  -19.7791    0.0000 C   0  0
    9.2765  -19.0620    0.0000 C   0  0
    8.4615  -19.0510    0.0000 C   0  0
   10.4942  -19.7922    0.0000 C   0  0
   10.8914  -20.5063    0.0000 N   0  0
   11.7085  -20.5194    0.0000 O   0  0
    6.8164  -20.4430    0.0000 C   0  0
    6.0001  -20.4356    0.0000 C   0  0
    5.5988  -19.7238    0.0000 C   0  0
    7.2317  -19.7392    0.0000 C   0  0
    1.9200  -20.4134    0.0000 O   0  0
    3.9910  -21.5070    0.0000 Br  0  5
    8.2916  -21.6019    0.0000 Br  0  5
  1  2  2  0
  2  3  1  0
  3  4  2  0
  4  5  1  0
  5  6  2  0
  6  1  1  0
  1  7  1  0
  7  8  1  0
  9 10  2  0
 10 11  1  0
 11 12  2  0
 12 13  1  0
 13 14  2  0
 14  9  1  0
 12 15  1  0
 15 16  2  0
 16 17  1  0
 18 19  2  0
 19 20  1  0
 20  4  1  0
 18 21  1  0
 21  9  1  0
  7 22  2  0
M  CHG  4   4   1   9   1  23  -1  24  -1
M  END