
  SciTegic05071317032D

 34 32  0  0  0  0            999 V2000
   24.9610  -18.5333    0.0000 C   0  0
   24.9599  -19.3606    0.0000 C   0  0
   25.6747  -19.7735    0.0000 C   0  0
   26.3912  -19.3601    0.0000 C   0  0
   26.3882  -18.5297    0.0000 C   0  0
   25.6729  -18.1205    0.0000 C   0  0
   27.1012  -18.1144    0.0000 O   0  0
   27.8171  -18.5242    0.0000 C   0  0
   28.5301  -18.1091    0.0000 C   0  0
   29.2462  -18.5189    0.0000 C   0  0
   29.9590  -18.1037    0.0000 C   0  0
   30.6751  -18.5135    0.0000 C   0  0
   31.3879  -18.0983    0.0000 C   0  0
   32.1040  -18.5080    0.0000 C   0  0
   32.8169  -18.0929    0.0000 C   0  0
   33.5329  -18.5027    0.0000 C   0  0
   34.2458  -18.0875    0.0000 N   0  0
   34.9617  -18.4996    0.0000 C   0  0
   35.6724  -18.0879    0.0000 C   0  0
   35.6736  -17.2626    0.0000 N   0  0
   34.9577  -16.8505    0.0000 C   0  0
   34.2406  -17.2639    0.0000 C   0  0
   36.3881  -16.8501    0.0000 C   0  0
   37.1025  -17.2626    0.0000 C   0  0
   37.8170  -16.8501    0.0000 C   0  0
   38.5314  -17.2626    0.0000 C   0  0
   39.2459  -16.8501    0.0000 N   0  0
   39.2459  -16.0251    0.0000 C   0  0
   39.9604  -17.2626    0.0000 C   0  0
   39.9604  -18.0876    0.0000 C   0  0
   40.6748  -18.5001    0.0000 C   0  0
   34.5604  -20.4078    0.0000 Cl  0  0
   36.7125  -19.9179    0.0000 Cl  0  0
   36.5357  -21.0670    0.0000 Cl  0  0
  1  2  2  0
  2  3  1  0
  3  4  2  0
  4  5  1  0
  5  6  2  0
  6  1  1  0
  5  7  1  0
  7  8  1  0
  8  9  1  0
  9 10  1  0
 10 11  1  0
 11 12  1  0
 12 13  1  0
 13 14  1  0
 14 15  1  0
 15 16  1  0
 16 17  1  0
 17 18  1  0
 17 22  1  0
 18 19  1  0
 19 20  1  0
 20 21  1  0
 21 22  1  0
 20 23  1  0
 23 24  1  0
 24 25  1  0
 25 26  1  0
 26 27  1  0
 27 28  1  0
 27 29  1  0
 29 30  1  0
 30 31  1  0
M  END