
          05270816392D 1   1.00000     0.00000     0

 37 42  0     1  0            999 V2000
   -4.9195  -16.8436    0.0000 C   0  0  0  0  0  0           0  0  0
   -4.9207  -17.6666    0.0000 C   0  0  0  0  0  0           0  0  0
   -3.4962  -16.8395    0.0000 C   0  0  0  0  0  0           0  0  0
   -4.2052  -16.4308    0.0000 C   0  0  0  0  0  0           0  0  0
   -3.4930  -17.6661    0.0000 C   0  0  0  0  0  0           0  0  0
   -4.2044  -18.0805    0.0000 C   0  0  0  0  0  0           0  0  0
   -4.2057  -18.9027    0.0000 C   0  0  0  0  0  0           0  0  0
   -3.4928  -19.3166    0.0000 C   0  0  0  0  0  0           0  0  0
   -5.5366  -18.2186    0.0000 N   0  0  0  0  0  0           0  0  0
   -4.9902  -19.1572    0.0000 C   0  0  0  0  0  0           0  0  0
   -2.7784  -18.0782    0.0000 C   0  0  2  0  0  0           0  0  0
   -2.7775  -18.9061    0.0000 C   0  0  2  0  0  0           0  0  0
   -2.0641  -19.3169    0.0000 N   0  0  3  0  0  0           0  0  0
   -1.3469  -18.9045    0.0000 C   0  0  0  0  0  0           0  0  0
   -1.3478  -18.0768    0.0000 C   0  0  1  0  0  0           0  0  0
   -2.0658  -17.6613    0.0000 C   0  0  0  0  0  0           0  0  0
   -2.7866  -19.7265    0.0000 H   0  0  0  0  0  0           0  0  0
   -2.7866  -17.2515    0.0000 H   0  0  0  0  0  0           0  0  0
   -0.6334  -17.6642    0.0000 C   0  0  0  0  0  0           0  0  0
   -0.6334  -16.8392    0.0000 O   0  0  0  0  0  0           0  0  0
    0.0811  -18.0767    0.0000 N   0  0  3  0  0  0           0  0  0
    0.0760  -18.9070    0.0000 C   0  0  0  0  0  0           0  0  0
    0.7864  -19.3193    0.0000 C   0  0  0  0  0  0           0  0  0
    1.5032  -18.9104    0.0000 N   0  0  3  0  0  0           0  0  0
    1.5051  -18.0845    0.0000 C   0  0  0  0  0  0           0  0  0
    0.7902  -17.6675    0.0000 C   0  0  0  0  0  0           0  0  0
    2.2161  -19.3256    0.0000 C   0  0  0  0  0  0           0  0  0
    2.2081  -20.1494    0.0000 C   0  0  0  0  0  0           0  0  0
    2.9201  -20.5645    0.0000 C   0  0  0  0  0  0           0  0  0
    3.6371  -20.1547    0.0000 C   0  0  0  0  0  0           0  0  0
    3.6376  -19.3254    0.0000 C   0  0  0  0  0  0           0  0  0
    2.9250  -18.9140    0.0000 N   0  0  3  0  0  0           0  0  0
   -2.0644  -20.1419    0.0000 C   0  0  0  0  0  0           0  0  0
    2.9239  -18.0890    0.0000 C   0  0  0  0  0  0           0  0  0
    4.3521  -18.9130    0.0000 O   0  0  0  0  0  0           0  0  0
   -5.2846  -19.9279    0.0000 Cl  0  0  0  0  0  0           0  0  0
    3.6378  -17.6756    0.0000 C   0  0  0  0  0  0           0  0  0
 12 17  1  1     0  0
  7  8  1  0     0  0
 11 18  1  6     0  0
  8 12  1  0     0  0
 15 19  1  1     0  0
  3  4  2  0     0  0
 19 20  2  0     0  0
  2  9  1  0     0  0
 19 21  1  0     0  0
 21 22  1  0     0  0
  4  1  1  0     0  0
  7 10  2  0     0  0
  9 10  1  0     0  0
 11 12  1  0     0  0
  5  6  2  0     0  0
 21 26  1  0     0  0
 22 23  1  0     0  0
 23 24  1  0     0  0
 24 25  1  0     0  0
 25 26  1  0     0  0
  2  6  1  0     0  0
 24 27  1  0     0  0
 27 28  2  0     0  0
  5  3  1  0     0  0
 28 29  1  0     0  0
  1  2  2  0     0  0
 29 30  2  0     0  0
  5 11  1  0     0  0
 30 31  1  0     0  0
 11 16  1  0     0  0
 31 32  1  0     0  0
 32 27  1  0     0  0
 12 13  1  0     0  0
 13 33  1  0     0  0
 13 14  1  0     0  0
 32 34  1  0     0  0
 14 15  1  0     0  0
 31 35  2  0     0  0
 15 16  1  0     0  0
 10 36  1  0     0  0
  6  7  1  0     0  0
 34 37  1  0     0  0
M  END