
  SciTegic02011310442D

 39 44  0  0  0  0            999 V2000
   17.7592   -5.4547    0.0000 N   0  0
   18.4689   -5.0453    0.0000 C   0  0
   18.4660   -4.2226    0.0000 N   0  0
   17.7574   -3.8174    0.0000 C   0  0
   17.0511   -5.0458    0.0000 N   0  0
   17.0524   -4.2247    0.0000 C   0  0
   16.2719   -3.9698    0.0000 C   0  0
   15.7882   -4.6334    0.0000 C   0  0
   16.2699   -5.2983    0.0000 C   0  0
   19.1772   -5.4528    0.0000 S   0  0
   19.8843   -5.0431    0.0000 C   0  0
   17.7556   -3.0002    0.0000 N   0  0
   18.4624   -2.5900    0.0000 C   0  0
   20.5893   -5.4510    0.0000 C   0  0
   21.2959   -5.0420    0.0000 C   0  0
   21.2950   -4.2239    0.0000 C   0  0
   20.5817   -3.8166    0.0000 C   0  0
   19.8780   -4.2280    0.0000 C   0  0
   19.2075   -2.9220    0.0000 C   0  0
   19.7530   -2.3135    0.0000 C   0  0
   19.3428   -1.6067    0.0000 N   0  0
   18.5439   -1.7785    0.0000 N   0  0
   20.5659   -2.3972    0.0000 C   0  0
   22.0016   -3.8133    0.0000 N   0  0
   22.7104   -4.2198    0.0000 C   0  0
   23.4170   -3.8092    0.0000 C   0  0
   24.1259   -4.2157    0.0000 N   0  0
   22.7128   -5.0370    0.0000 O   0  0
   24.2108   -5.0260    0.0000 C   0  0
   25.0107   -5.1936    0.0000 C   0  0  1  0  0  0
   25.4172   -4.4846    0.0000 C   0  0
   24.8686   -3.8790    0.0000 C   0  0
   25.3452   -5.9392    0.0000 C   0  0
   24.8668   -6.6017    0.0000 O   0  0
   26.1582   -6.0222    0.0000 N   0  0
   26.4927   -6.7678    0.0000 C   0  0
   26.2033   -7.5281    0.0000 C   0  0
   26.9671   -7.8188    0.0000 C   0  0
   27.2577   -7.0550    0.0000 C   0  0
  5  1  1  0
  1  2  2  0
  2  3  1  0
  3  4  2  0
  4  6  1  0
  5  6  1  0
  6  7  2  0
  7  8  1  0
  8  9  2  0
  9  5  1  0
  2 10  1  0
 10 11  1  0
  4 12  1  0
 12 13  1  0
 11 14  2  0
 14 15  1  0
 15 16  2  0
 16 17  1  0
 17 18  2  0
 18 11  1  0
 13 19  1  0
 19 20  2  0
 20 21  1  0
 21 22  1  0
 22 13  2  0
 20 23  1  0
 16 24  1  0
 24 25  1  0
 25 26  1  0
 26 27  1  0
 25 28  2  0
 27 29  1  0
 29 30  1  0
 30 31  1  0
 31 32  1  0
 32 27  1  0
 30 33  1  1
 33 34  2  0
 33 35  1  0
 35 36  1  0
 36 37  1  0
 37 38  1  0
 38 39  1  0
 39 36  1  0
M  END