
          11280714462D 1   1.00000     0.00000     0

 24 25  0     0  0            999 V2000
    2.6667   -2.1042    0.0000 C   0  0  0  0  0  0           0  0  0
    3.1917   -2.4042    0.0000 C   0  0  0  0  0  0           0  0  0
    2.6667   -1.4917    0.0000 C   0  0  0  0  0  0           0  0  0
    3.2000   -3.0042    0.0000 N   0  0  3  0  0  0           0  0  0
    2.8917   -3.9417    0.0000 N   0  0  0  0  0  0           0  0  0
    2.1417   -1.1917    0.0000 C   0  0  0  0  0  0           0  0  0
    3.1917   -1.1875    0.0000 O   0  0  0  0  0  0           0  0  0
    2.7125   -3.3542    0.0000 C   0  0  0  0  0  0           0  0  0
    2.1417   -2.4042    0.0000 C   0  0  0  0  0  0           0  0  0
    3.6792   -3.3667    0.0000 C   0  0  0  0  0  0           0  0  0
    1.6250   -1.5000    0.0000 C   0  0  0  0  0  0           0  0  0
    3.4917   -3.9417    0.0000 C   0  0  0  0  0  0           0  0  0
    1.6250   -2.1042    0.0000 C   0  0  0  0  0  0           0  0  0
    3.7167   -2.1000    0.0000 C   0  0  0  0  0  0           0  0  0
    5.3292   -1.7417    0.0000 N   0  0  0  0  0  0           0  0  0
    3.7167   -1.4875    0.0000 C   0  0  0  0  0  0           0  0  0
    4.3000   -1.3292    0.0000 C   0  0  3  0  0  0           0  0  0
    4.7292   -1.7417    0.0000 C   0  0  0  0  0  0           0  0  0
    1.2000   -2.5250    0.0000 Cl  0  0  0  0  0  0           0  0  0
    4.4417   -0.7417    0.0000 O   0  0  0  0  0  0           0  0  0
    2.1417   -0.5917    0.0000 C   0  0  0  0  0  0           0  0  0
    5.6875   -2.2292    0.0000 C   0  0  3  0  0  0           0  0  0
    5.4417   -2.7792    0.0000 C   0  0  0  0  0  0           0  0  0
    6.2875   -2.1667    0.0000 C   0  0  0  0  0  0           0  0  0
  2  1  1  0     0  0
  3  1  1  0     0  0
  4  2  1  0     0  0
  5  8  2  0     0  0
  6  3  2  0     0  0
  7  3  1  0     0  0
  8  4  1  0     0  0
  9  1  2  0     0  0
 10  4  1  0     0  0
 11 13  2  0     0  0
 12 10  2  0     0  0
 13  9  1  0     0  0
 14  2  2  0     0  0
 15 18  1  0     0  0
 16  7  1  0     0  0
 17 16  1  0     0  0
 18 17  1  0     0  0
 19 13  1  0     0  0
 20 17  1  0     0  0
 21  6  1  0     0  0
 22 15  1  0     0  0
 23 22  1  0     0  0
 24 22  1  0     0  0
 11  6  1  0     0  0
 12  5  1  0     0  0
M  END