
  SciTegic06051315212D

 50 51  0  0  0  0            999 V2000
    2.4507  -16.1057    0.0000 N   0  0
    3.1607  -15.6940    0.0000 C   0  0  2  0  0  0
    3.8708  -16.9250    0.0000 O   0  0
    3.8708  -16.1057    0.0000 C   0  0
    3.1607  -14.8748    0.0000 C   0  0
    3.8708  -14.4672    0.0000 C   0  0
    2.4507  -14.4672    0.0000 C   0  0
    4.5808  -15.6940    0.0000 N   0  0
    5.2909  -16.1057    0.0000 C   0  0  2  0  0  0
    6.0009  -14.8748    0.0000 O   0  0
    6.0009  -15.6940    0.0000 C   0  0
    5.2909  -16.9250    0.0000 C   0  0
    6.0009  -17.3325    0.0000 C   0  0
    4.5808  -17.3325    0.0000 C   0  0
    6.7110  -16.1057    0.0000 N   0  0
    7.4169  -15.6940    0.0000 C   0  0  2  0  0  0
    8.1269  -16.1057    0.0000 C   0  0  1  0  0  0
    7.4169  -14.8748    0.0000 C   0  0  1  0  0  0
    8.1269  -14.4672    0.0000 C   0  0
    6.7110  -14.4672    0.0000 C   0  0
    6.7110  -13.6479    0.0000 C   0  0
    6.7120  -16.9229    0.0000 C   0  0
    8.8354  -15.6984    0.0000 C   0  0
    9.5423  -16.1083    0.0000 C   0  0
   10.2508  -15.7010    0.0000 N   0  0
    9.5408  -16.9255    0.0000 O   0  0
   10.9578  -16.1109    0.0000 C   0  0
   11.7395  -15.8766    0.0000 C   0  0  1  0  0  0
   12.3858  -16.3733    0.0000 O   0  0
   13.0569  -15.9084    0.0000 C   0  0  1  0  0  0
   12.8226  -15.1253    0.0000 C   0  0  2  0  0  0
   12.0056  -15.1070    0.0000 C   0  0  2  0  0  0
   13.3176  -14.4751    0.0000 O   0  0
   11.5390  -14.4361    0.0000 O   0  0
   10.7247  -14.5048    0.0000 C   0  0
   14.1282  -14.5788    0.0000 C   0  0
   13.7592  -16.3263    0.0000 C   0  0
   13.7484  -17.1435    0.0000 O   0  0
   14.4722  -15.9271    0.0000 N   0  0
   15.1745  -16.3451    0.0000 C   0  0
   15.1637  -17.1622    0.0000 C   0  0
   15.8659  -17.5801    0.0000 C   0  0
   15.8523  -18.3947    0.0000 C   0  0
   16.5537  -18.8125    0.0000 C   0  0
   17.2678  -18.4133    0.0000 C   0  0
   17.2760  -17.5919    0.0000 C   0  0
   16.5740  -17.1778    0.0000 C   0  0
    1.7422  -15.6984    0.0000 C   0  0
    8.1254  -16.9229    0.0000 O   0  0
    8.8324  -17.3328    0.0000 C   0  0
  4  8  1  0
 11 15  1  0
  1  2  1  0
  2  4  1  0
  4  3  2  0
  2  5  1  1
  5  6  1  0
  5  7  1  0
  8  9  1  0
  9 11  1  0
 11 10  2  0
  9 12  1  6
 12 13  1  0
 12 14  1  0
 16 15  1  1
 16 17  1  0
 16 18  1  0
 18 19  1  6
 18 20  1  0
 20 21  1  0
 15 22  1  0
 17 23  1  0
 23 24  1  0
 24 25  1  0
 24 26  2  0
 25 27  1  0
 28 27  1  6
 28 29  1  0
 29 30  1  0
 30 31  1  0
 31 32  1  0
 32 28  1  0
 31 33  1  6
 32 34  1  1
 34 35  1  0
 33 36  1  0
 30 37  1  1
 37 38  2  0
 37 39  1  0
 39 40  1  0
 40 41  1  0
 41 42  1  0
 42 43  2  0
 43 44  1  0
 44 45  2  0
 45 46  1  0
 46 47  2  0
 47 42  1  0
  1 48  1  0
 17 49  1  1
 49 50  1  0
M  END