
  SciTegic01181116592D

 21 23  0  0  0  0            999 V2000
   10.6174    0.9869    0.0000 C   0  0
   10.6162    0.1601    0.0000 C   0  0
   11.3305   -0.2526    0.0000 C   0  0
   11.3287    1.3995    0.0000 C   0  0
   12.0437    0.9906    0.0000 C   0  0
   12.0445    0.1642    0.0000 C   0  0
   12.7594   -0.2465    0.0000 N   0  0
   13.4740    0.1680    0.0000 C   0  0
   13.4692    0.9975    0.0000 C   0  0
   12.7537    1.4045    0.0000 N   0  0
   14.1808    1.4141    0.0000 C   0  0
   14.8972    1.0062    0.0000 N   0  0
   14.1758    2.2386    0.0000 O   0  0
   15.6088    1.4228    0.0000 C   0  0
   16.3267    1.0094    0.0000 C   0  0
   17.0378    1.4254    0.0000 C   0  0
   17.0332    2.2507    0.0000 C   0  0
   16.3116    2.6584    0.0000 C   0  0
   15.6035    2.2402    0.0000 C   0  0
   17.7442    2.6682    0.0000 O   0  0
   18.4612    2.2613    0.0000 C   0  0
 10  5  1  0
  9 11  1  0
  2  3  1  0
 11 12  1  0
  5  6  1  0
 11 13  2  0
  3  6  2  0
 12 14  1  0
  6  7  1  0
 14 15  2  0
  1  2  2  0
 15 16  1  0
  7  8  2  0
 16 17  2  0
  5  4  2  0
 17 18  1  0
  8  9  1  0
 18 19  2  0
 19 14  1  0
  4  1  1  0
 17 20  1  0
  9 10  2  0
 20 21  1  0
M  END