
  SciTegic06051315212D

 22 22  0  0  0  0            999 V2000
   13.5313   -2.5457    0.0000 C   0  0
   13.5302   -3.3730    0.0000 C   0  0
   14.2449   -3.7858    0.0000 C   0  0
   14.9614   -3.3726    0.0000 C   0  0
   14.9585   -2.5420    0.0000 C   0  0
   14.2430   -2.1329    0.0000 C   0  0
   14.2401   -1.3042    0.0000 C   0  0
   14.9534   -0.8895    0.0000 O   0  0
   13.5245   -0.8938    0.0000 O   0  0
   15.6713   -2.1269    0.0000 O   0  0
   14.2447   -4.6108    0.0000 O   0  0
   13.5302   -5.0232    0.0000 C   0  0
   15.6763   -3.7838    0.0000 C   0  0
   16.3902   -3.3703    0.0000 C   0  0
   17.1052   -3.7816    0.0000 C   0  0
   17.8191   -3.3681    0.0000 C   0  0
   17.1065   -4.6066    0.0000 C   0  0
   12.8167   -2.1334    0.0000 C   0  0
   12.1024   -2.5460    0.0000 C   0  0
   11.3878   -2.1337    0.0000 C   0  0
    9.9652   -2.1379    0.0000 C   0  0
   10.6794   -2.5464    0.0000 C   0  0
  1  2  2  0
  2  3  1  0
  3  4  2  0
  4  5  1  0
  5  6  2  0
  6  1  1  0
  7  8  1  0
  7  9  2  0
  6  7  1  0
  5 10  1  0
  3 11  1  0
 11 12  1  0
  4 13  1  0
 13 14  1  0
 14 15  2  0
 15 16  1  0
 15 17  1  0
  1 18  1  0
 18 19  1  0
 19 20  1  0
 21 22  1  0
 22 20  1  0
M  END