
          11280715032D 1   1.00000     0.00000     0

 24 26  0     1  0            999 V2000
    3.8292   -3.5667    0.0000 C   0  0  0  0  0  0           0  0  0
    4.1625   -4.3042    0.0000 C   0  0  0  0  0  0           0  0  0
    3.0250   -3.6500    0.0000 C   0  0  0  0  0  0           0  0  0
    3.5542   -4.8542    0.0000 C   0  0  0  0  0  0           0  0  0
    2.8500   -4.4417    0.0000 C   0  0  0  0  0  0           0  0  0
    4.2542   -2.8625    0.0000 N   0  0  0  0  0  0           0  0  0
    7.5292   -1.4667    0.0000 N   0  0  0  0  0  0           0  0  0
    7.9417   -0.7667    0.0000 C   0  0  3  0  0  0           0  0  0
    5.0667   -2.8625    0.0000 O   0  0  0  0  0  0           0  0  0
    6.3042   -2.1667    0.0000 C   0  0  1  0  0  0           0  0  0
    6.7167   -1.4667    0.0000 C   0  0  0  0  0  0           0  0  0
    5.4792   -2.1542    0.0000 C   0  0  0  0  0  0           0  0  0
    2.4250   -3.1000    0.0000 C   0  0  0  0  0  0           0  0  0
    4.9292   -4.5750    0.0000 C   0  0  0  0  0  0           0  0  0
    3.7125   -5.6542    0.0000 C   0  0  0  0  0  0           0  0  0
    2.0667   -4.6875    0.0000 C   0  0  0  0  0  0           0  0  0
    6.7042   -2.8792    0.0000 O   0  0  0  0  0  0           0  0  0
    8.7625   -0.7792    0.0000 C   0  0  0  0  0  0           0  0  0
    7.5417   -0.0625    0.0000 C   0  0  0  0  0  0           0  0  0
    8.4917    0.0833    0.0000 C   0  0  0  0  0  0           0  0  0
    4.4875   -5.9167    0.0000 C   0  0  0  0  0  0           0  0  0
    1.6417   -3.3417    0.0000 C   0  0  0  0  0  0           0  0  0
    5.1042   -5.3750    0.0000 C   0  0  0  0  0  0           0  0  0
    1.4625   -4.1292    0.0000 C   0  0  0  0  0  0           0  0  0
  2  1  1  0     0  0
  3  1  1  0     0  0
  4  2  2  0     0  0
  5  3  2  0     0  0
  6  1  2  0     0  0
  7 11  1  0     0  0
  8  7  1  0     0  0
  9  6  1  0     0  0
 10 12  1  0     0  0
 11 10  1  0     0  0
 12  9  1  0     0  0
 13  3  1  0     0  0
 14  2  1  0     0  0
 15  4  1  0     0  0
 16  5  1  0     0  0
 10 17  1  6     0  0
 18  8  1  0     0  0
 19  8  1  0     0  0
 20  8  1  0     0  0
 21 23  1  0     0  0
 22 13  2  0     0  0
 23 14  2  0     0  0
 24 22  1  0     0  0
  5  4  1  0     0  0
 24 16  2  0     0  0
 21 15  2  0     0  0
M  END