
  SciTegic09291413392D

 14 15  0  0  0  0            999 V2000
   15.1620   -2.4928    0.0000 C   0  0
   15.1609   -3.3123    0.0000 C   0  0
   15.8689   -3.7213    0.0000 C   0  0
   16.5786   -3.3119    0.0000 C   0  0
   16.5758   -2.4892    0.0000 C   0  0
   15.8671   -2.0839    0.0000 C   0  0
   17.2819   -2.0779    0.0000 N   0  0
   14.4582   -2.0802    0.0000 C   0  0
   14.4670   -1.2633    0.0000 C   0  0
   13.7640   -0.8508    0.0000 C   0  0
   13.0538   -1.2540    0.0000 C   0  0
   13.0509   -2.0741    0.0000 N   0  0
   13.7545   -2.4829    0.0000 C   0  0
   13.7518   -3.3001    0.0000 N   0  0
  1  2  2  0
  2  3  1  0
  3  4  2  0
  4  5  1  0
  5  6  2  0
  6  1  1  0
  5  7  1  0
  1  8  1  0
  8  9  2  0
  9 10  1  0
 10 11  2  0
 11 12  1  0
 12 13  2  0
 13  8  1  0
 13 14  1  0
M  END