
  SciTegic01161211252D

 50 55  0  0  0  0            999 V2000
   15.2559   -5.8259    0.0000 C   0  0
   15.6639   -5.1109    0.0000 C   0  0
   15.2489   -4.3978    0.0000 C   0  0
   15.6569   -3.6828    0.0000 C   0  0
   16.4819   -3.6771    0.0000 C   0  0
   16.8968   -4.3902    0.0000 C   0  0
   16.4889   -5.1053    0.0000 C   0  0
   16.9038   -5.8183    0.0000 O   0  0
   16.4959   -6.5334    0.0000 C   0  0
   16.9108   -7.2464    0.0000 C   0  0
   16.5030   -7.9614    0.0000 C   0  0
   15.6779   -7.9670    0.0000 C   0  0
   15.2629   -7.2541    0.0000 C   0  0
   15.6709   -6.5390    0.0000 C   0  0
    8.1146   -3.8724    0.0000 C   0  0  2  0  0  0
    8.3743   -4.6383    0.0000 C   0  0
    9.2003   -4.6204    0.0000 C   0  0  1  0  0  0
    9.4378   -3.8333    0.0000 O   0  0
    8.7514   -3.3514    0.0000 N   0  0
    9.9386   -4.9864    0.0000 C   0  0
    9.1305   -5.4452    0.0000 H   0  0
    7.3901   -4.2719    0.0000 C   0  0
    7.3913   -5.1045    0.0000 C   0  0
    6.6672   -5.5002    0.0000 C   0  0
    8.1018   -5.5091    0.0000 C   0  0
    7.6775   -3.1547    0.0000 C   0  0
    6.8561   -3.0727    0.0000 C   0  0
    8.7445   -2.5373    0.0000 C   0  0
    9.4510   -2.1115    0.0000 C   0  0
   10.1715   -2.5101    0.0000 C   0  0
   10.8779   -2.0844    0.0000 C   0  0
   10.8640   -1.2600    0.0000 C   0  0
   10.1396   -0.8598    0.0000 C   0  0
    9.4331   -1.2857    0.0000 C   0  0
   11.3638   -4.8876    0.0000 C   0  0
   11.3968   -5.7104    0.0000 S   0  0
   12.7651   -4.8342    0.0000 C   0  0
   12.7724   -5.6576    0.0000 C   0  0
   13.4863   -6.0626    0.0000 C   0  0
   14.1962   -5.6469    0.0000 C   0  0
   14.1916   -4.8202    0.0000 C   0  0
   13.4744   -4.4125    0.0000 C   0  0
   13.4941   -6.8919    0.0000 C   0  0
   14.1288   -7.4162    0.0000 O   0  0
   10.6226   -4.5252    0.0000 N   0  0
    6.5162   -2.3216    0.0000 O   0  0
   12.0479   -4.4265    0.0000 N   0  0
   12.7505   -7.2419    0.0000 O   0  0
   16.8896   -2.9620    0.0000 O   0  0
   16.9179   -8.6745    0.0000 O   0  0
  6  7  1  0
  2  7  2  0
  7  8  1  0
  8  9  1  0
  9 10  2  0
 10 11  1  0
 11 12  1  0
 12 13  2  0
 13 14  1  0
  9 14  1  0
  1 14  2  0
 15 16  1  0
 16 17  1  0
 17 18  1  0
 18 19  1  0
 19 15  1  0
 17 20  1  0
 17 21  1  6
 15 22  1  1
 22 23  1  0
 23 24  1  0
 23 25  1  0
 15 26  1  0
 26 27  1  0
 19 28  1  0
 28 29  1  0
 29 30  2  0
 30 31  1  0
 31 32  2  0
 32 33  1  0
 33 34  2  0
 34 29  1  0
 35 36  2  0
 37 38  2  0
 38 39  1  0
 39 40  2  0
 40 41  1  0
 41 42  2  0
 42 37  1  0
 40  1  1  0
 39 43  1  0
 43 44  2  0
  1  2  1  0
  2  3  1  0
  3  4  2  0
  4  5  1  0
  5  6  2  0
 35 47  1  0
 47 37  1  0
 43 48  1  0
 27 46  1  0
  5 49  1  0
 20 45  1  0
 45 35  1  0
 11 50  2  0
M  END