
  SciTegic02011314062D

 18 18  0  0  0  0            999 V2000
    4.3542   -7.9500    0.0000 C   0  0
    3.6417   -7.5375    0.0000 C   0  0
    2.9292   -7.9417    0.0000 C   0  0
    2.2167   -7.5375    0.0000 C   0  0
    3.6417   -6.7125    0.0000 C   0  0
    2.2167   -6.7125    0.0000 C   0  0
    2.9292   -6.2917    0.0000 C   0  0
    4.3578   -8.7750    0.0000 C   0  0
    3.6451   -9.1906    0.0000 C   0  0
    5.0740   -9.1844    0.0000 C   0  0
    5.0740  -10.0094    0.0000 C   0  0
    5.7885  -10.4219    0.0000 C   0  0
    5.7885  -11.2469    0.0000 C   0  0
    6.5030  -11.6594    0.0000 C   0  0
    5.0740  -11.6594    0.0000 C   0  0
    6.5030  -12.4844    0.0000 C   0  0
    7.2174  -12.8969    0.0000 O   0  0
    5.7885  -12.8969    0.0000 O   0  0
  2  1  2  0
  3  2  1  0
  4  3  2  0
  5  2  1  0
  6  7  1  0
  7  5  1  0
  4  6  1  0
  1  8  1  0
  8  9  1  0
  8 10  2  0
 10 11  1  0
 11 12  2  0
 12 13  1  0
 13 14  2  0
 13 15  1  0
 14 16  1  0
 16 17  1  0
 16 18  2  0
M  END