
  SciTegic12191611182D

 35 39  0  0  0  0            999 V2000
   -5.9652   -5.8404    0.0000 O   0  0
   -4.9244   -5.2430    0.0000 S   0  0
   -4.9277   -6.4430    0.0000 O   0  0
    0.6276    5.0026    0.0000 C   0  0
    1.8114    5.1995    0.0000 C   0  0
    2.2852    6.3020    0.0000 C   0  0
    4.9396    3.2684    0.0000 C   0  0
    4.2218    4.2301    0.0000 C   0  0
    4.6433    5.3536    0.0000 C   0  0
   -2.3155    0.7475    0.0000 C   0  0
   -2.3155   -0.7475    0.0000 C   0  0
   -1.0028   -1.5132    0.0000 C   0  0
   -1.0028    1.5132    0.0000 C   0  0
    0.2917    0.7475    0.0000 C   0  0
    0.2917   -0.7475    0.0000 C   0  0
    1.7138   -1.2033    0.0000 C   0  0
    2.5889    0.0182    0.0000 C   0  0
    1.7138    1.2033    0.0000 N   0  0
    2.1749    2.6315    0.0000 C   0  0
    1.2517    3.8078    0.0000 C   0  0
    3.2965    5.4106    0.0000 N   0  0
    3.6621    2.8384    0.0000 C   0  0
   -3.6168   -1.4950    0.0000 C   0  0
   -3.6203   -2.9951    0.0000 N   0  0
   -4.9210   -3.7422    0.0000 C   0  0
   -6.2184   -2.9893    0.0000 N   0  0
   -6.2150   -1.4893    0.0000 C   0  0
   -4.9143   -0.7422    0.0000 C   0  0
   -7.5115   -0.7333    0.0000 N   0  0
   -7.5060    0.7675    0.0000 C   0  0
   -8.2490    1.9795    0.0000 C   0  0
   -6.7490    1.9708    0.0000 C   0  0
   -3.6268   -5.9972    0.0000 C   0  0
   -3.6302   -7.4980    0.0000 C   0  0
   -2.5927   -8.1010    0.0000 C   0  0
  2  1  2  0
  3  2  2  0
  5  4  1  0
  6  5  1  0
  8  7  1  0
  9  8  1  0
 10 11  2  0
 11 12  1  0
 12 15  2  0
 14 13  2  0
 13 10  1  0
 14 15  1  0
 15 16  1  0
 16 17  2  0
 17 18  1  0
 18 14  1  0
 18 19  1  0
 19 20  1  0
 19 22  1  0
 20  5  1  0
  5 21  1  0
 21  8  1  0
  8 22  1  0
 23 24  2  0
 24 25  1  0
 25 26  2  0
 26 27  1  0
 27 28  2  0
 28 23  1  0
 11 23  1  0
 27 29  1  0
 29 30  1  0
 31 30  1  0
 32 31  1  0
 30 32  1  0
 25  2  1  0
  2 33  1  0
 33 34  1  0
 34 35  1  0
M  END