
          11280715322D 1   1.00000     0.00000     0

 13 13  0     0  0            999 V2000
    7.6375   -3.8292    0.0000 S   0  0  3  0  0  0           0  0  0
    6.9167   -4.2417    0.0000 C   0  0  0  0  0  0           0  0  0
    8.3417   -3.4167    0.0000 O   0  0  0  0  0  0           0  0  0
    7.2250   -3.1167    0.0000 O   0  0  0  0  0  0           0  0  0
    8.0542   -4.5500    0.0000 N   0  0  0  0  0  0           0  0  0
    6.9167   -5.0792    0.0000 C   0  0  0  0  0  0           0  0  0
    6.2042   -3.8292    0.0000 C   0  0  0  0  0  0           0  0  0
    6.2042   -5.4917    0.0000 C   0  0  0  0  0  0           0  0  0
    5.4917   -4.2542    0.0000 C   0  0  0  0  0  0           0  0  0
    5.4917   -5.0792    0.0000 C   0  0  0  0  0  0           0  0  0
    4.7792   -5.4917    0.0000 C   0  0  0  0  0  0           0  0  0
    4.0667   -5.0792    0.0000 C   0  0  0  0  0  0           0  0  0
    3.3542   -5.4917    0.0000 C   0  0  0  0  0  0           0  0  0
  2  1  1  0     0  0
  3  1  2  0     0  0
  4  1  2  0     0  0
  5  1  1  0     0  0
  6  2  1  0     0  0
  7  2  2  0     0  0
  8  6  2  0     0  0
  9  7  1  0     0  0
 10  9  2  0     0  0
 11 10  1  0     0  0
 12 11  1  0     0  0
 13 12  1  0     0  0
 10  8  1  0     0  0
M  END