
  SciTegic07291412072D

 55 61  0  0  0  0            999 V2000
   -2.1854   -6.7295    0.0000 N   0  0
    3.7020   -4.0070    0.0000 N   0  0
   -1.4039   -6.9939    0.0000 C   0  0
   -1.7275   -5.3759    0.0000 C   0  0
    2.4761   -4.5352    0.0000 C   0  0
    3.2810   -4.7165    0.0000 C   0  0
   -0.9460   -5.6403    0.0000 N   0  0
   -0.7842   -6.4493    0.0000 C   0  0  1  0  0  0
   -2.3472   -5.9206    0.0000 C   0  0  2  0  0  0
    3.1574   -3.3873    0.0000 C   0  0
    4.5235   -3.9307    0.0000 C   0  0
    4.8206   -5.3283    0.0000 C   0  0
    2.3998   -3.7138    0.0000 C   0  0
    2.7997   -6.1532    0.0000 C   0  0
    4.2009   -5.8730    0.0000 C   0  0  1  0  0  0
    3.4194   -5.6086    0.0000 N   0  0
   -0.0027   -6.7137    0.0000 C   0  0
    5.6021   -5.5927    0.0000 N   0  0
    0.6170   -6.1691    0.0000 C   0  0
    2.0182   -5.8888    0.0000 C   0  0  1  0  0  0
    1.8564   -5.0798    0.0000 C   0  0
    1.3985   -6.4334    0.0000 N   0  0
   -2.9339   -6.3826    0.0000 C   0  0
   -1.8893   -4.5670    0.0000 O   0  0
   -1.2421   -7.8029    0.0000 O   0  0
   -3.0766   -5.6342    0.0000 C   0  0
    6.2218   -5.0481    0.0000 C   0  0
    4.3627   -6.6819    0.0000 C   0  0
    5.0004   -4.6039    0.0000 O   0  0
    4.6588   -4.5194    0.0000 O   0  0
    2.4551   -6.9028    0.0000 O   0  0
    0.4552   -5.3601    0.0000 O   0  0
   -2.7942   -5.3440    0.0000 C   0  0
   -3.7732   -6.7415    0.0000 C   0  0
   -3.8804   -5.9861    0.0000 C   0  0
   -3.0389   -4.7381    0.0000 C   0  0
    4.8681   -3.1811    0.0000 O   0  0
    7.0033   -5.3125    0.0000 C   0  0
    3.7430   -7.2265    0.0000 C   0  0
    3.2535   -2.5679    0.0000 C   0  0
    1.7382   -3.2208    0.0000 C   0  0
    5.7639   -6.4017    0.0000 C   0  0
    5.6896   -3.1047    0.0000 C   0  0
    2.9615   -6.9622    0.0000 C   0  0
    3.9048   -8.0355    0.0000 C   0  0
    7.1651   -6.1215    0.0000 C   0  0
    7.6230   -4.7679    0.0000 C   0  0
    2.5920   -2.0750    0.0000 C   0  0
    1.8343   -2.4015    0.0000 C   0  0
    3.2851   -8.5801    0.0000 C   0  0
    8.4045   -5.0322    0.0000 C   0  0
    7.9466   -6.3858    0.0000 C   0  0
    2.3418   -7.5068    0.0000 C   0  0
    8.5663   -5.8412    0.0000 C   0  0
    2.5036   -8.3158    0.0000 C   0  0
  2  6  1  0
  3  1  1  0
  9  4  1  1
  5 21  1  0
  6  5  2  0
  7  4  1  0
  8  3  1  0
  9  1  1  0
 10 13  2  0
 11  2  1  0
 15 12  1  6
 13  5  1  0
 14 20  1  0
 15 16  1  0
 16 14  1  0
  8 17  1  1
 18 12  1  0
 19 17  1  0
 20 22  1  0
 20 21  1  6
 22 19  1  0
 23  1  1  0
 24  4  2  0
 25  3  2  0
 26  9  1  0
 27 18  1  0
 28 15  1  0
 29 11  2  0
 30 12  2  0
 31 14  2  0
 32 19  2  0
 33 23  1  0
 34 23  1  0
 35 34  1  0
 36 33  1  0
 37 11  1  0
 38 27  1  0
 39 28  1  0
 40 10  1  0
 41 13  1  0
 42 18  1  0
 43 37  1  0
 44 39  2  0
 45 39  1  0
 46 38  2  0
 47 38  1  0
 48 49  1  0
 49 41  2  0
 50 45  2  0
 51 47  2  0
 52 46  1  0
 53 44  1  0
 54 51  1  0
 55 50  1  0
  7  8  1  0
 35 26  1  0
 36 26  1  0
  2 10  1  0
 48 40  2  0
 55 53  2  0
 54 52  2  0
M  END