
          11280715512D 1   1.00000     0.00000     0

 37 40  0     0  0            999 V2000
   -4.3889   -0.3125    0.0000 C   0  0  0  0  0  0           0  0  0
   -4.3901   -1.1398    0.0000 C   0  0  0  0  0  0           0  0  0
   -3.6753   -1.5527    0.0000 C   0  0  0  0  0  0           0  0  0
   -3.6771    0.1003    0.0000 C   0  0  0  0  0  0           0  0  0
   -2.9569   -1.1369    0.0000 C   0  0  0  0  0  0           0  0  0
   -2.9617   -0.3088    0.0000 C   0  0  0  0  0  0           0  0  0
   -2.3146    0.2171    0.0000 N   0  0  3  0  0  0           0  0  0
   -2.3006   -1.6514    0.0000 C   0  0  0  0  0  0           0  0  0
   -1.5024    0.0428    0.0000 C   0  0  0  0  0  0           0  0  0
   -1.4900   -1.4584    0.0000 N   0  0  0  0  0  0           0  0  0
   -1.1376   -0.7036    0.0000 N   0  0  3  0  0  0           0  0  0
   -0.9941    0.6926    0.0000 O   0  0  0  0  0  0           0  0  0
   -2.4771   -2.4573    0.0000 C   0  0  3  0  0  0           0  0  0
   -0.3127   -0.6963    0.0000 C   0  0  0  0  0  0           0  0  0
    0.1062   -1.4070    0.0000 C   0  0  0  0  0  0           0  0  0
    0.9312   -1.3997    0.0000 N   0  0  0  0  0  0           0  0  0
   -0.2999   -2.1251    0.0000 O   0  0  0  0  0  0           0  0  0
   -2.5071    1.0193    0.0000 C   0  0  0  0  0  0           0  0  0
   -1.9086    1.5871    0.0000 C   0  0  0  0  0  0           0  0  0
   -2.1011    2.3894    0.0000 C   0  0  3  0  0  0           0  0  0
   -1.1176    1.3528    0.0000 O   0  0  0  0  0  0           0  0  0
   -2.3208    3.1917    0.0000 C   0  0  0  0  0  0           0  0  0
   -1.3021    2.5946    0.0000 C   0  0  0  0  0  0           0  0  0
   -2.8984    2.1773    0.0000 C   0  0  0  0  0  0           0  0  0
    1.3500   -2.1104    0.0000 C   0  0  0  0  0  0           0  0  0
    0.9420   -2.8263    0.0000 C   0  0  0  0  0  0           0  0  0
    1.3601   -3.5366    0.0000 C   0  0  0  0  0  0           0  0  0
    2.1860   -3.5296    0.0000 C   0  0  0  0  0  0           0  0  0
    2.5919   -2.8065    0.0000 C   0  0  0  0  0  0           0  0  0
    2.1714   -2.0992    0.0000 C   0  0  0  0  0  0           0  0  0
   -3.2608   -2.7070    0.0000 C   0  0  0  0  0  0           0  0  0
   -3.4384   -3.5090    0.0000 C   0  0  0  0  0  0           0  0  0
   -2.8313   -4.0681    0.0000 C   0  0  0  0  0  0           0  0  0
   -2.0437   -3.8196    0.0000 C   0  0  0  0  0  0           0  0  0
   -1.8631   -3.0119    0.0000 C   0  0  0  0  0  0           0  0  0
    3.4168   -2.7962    0.0000 C   0  0  0  0  0  0           0  0  0
    3.8204   -2.0767    0.0000 O   0  0  0  0  0  0           0  0  0
  7 18  1  0     0  0
  7  9  1  0     0  0
 18 19  1  0     0  0
  4  1  1  0     0  0
 19 20  1  0     0  0
  8 10  2  0     0  0
 19 21  2  0     0  0
 20 22  1  0     0  0
  9 11  1  0     0  0
 20 23  1  0     0  0
 10 11  1  0     0  0
 20 24  1  0     0  0
  2  3  1  0     0  0
 16 25  1  0     0  0
  9 12  2  0     0  0
 25 26  2  0     0  0
  5  6  1  0     0  0
 26 27  1  0     0  0
  8 13  1  0     0  0
 27 28  2  0     0  0
  3  5  2  0     0  0
 28 29  1  0     0  0
 11 14  1  0     0  0
 29 30  2  0     0  0
 30 25  1  0     0  0
 13 31  1  0     0  0
  6  7  1  0     0  0
 14 15  1  0     0  0
  1  2  2  0     0  0
 15 16  1  0     0  0
  5  8  1  0     0  0
 13 35  1  0     0  0
 31 32  1  0     0  0
 32 33  1  0     0  0
 33 34  1  0     0  0
 34 35  1  0     0  0
 15 17  2  0     0  0
 29 36  1  0     0  0
  6  4  2  0     0  0
 36 37  1  0     0  0
M  END