
  SciTegic02271515152D

 30 33  0  0  0  0            999 V2000
   15.9503  -14.4411    0.0000 C   0  0
   15.9492  -15.2607    0.0000 C   0  0
   16.6572  -15.6696    0.0000 C   0  0
   17.3669  -15.2602    0.0000 C   0  0
   17.3641  -14.4375    0.0000 C   0  0
   16.6554  -14.0323    0.0000 C   0  0
   18.0702  -14.0263    0.0000 C   0  0
   18.7795  -14.4322    0.0000 C   0  0
   18.7845  -15.2511    0.0000 N   0  0
   19.4897  -15.6570    0.0000 C   0  0
   20.1982  -15.2492    0.0000 C   0  0
   20.1971  -14.4310    0.0000 N   0  0
   19.4874  -14.0207    0.0000 C   0  0
   19.4865  -13.2035    0.0000 O   0  0
   19.4896  -16.4742    0.0000 O   0  0
   20.9059  -15.6578    0.0000 C   0  0
   15.2425  -14.0327    0.0000 C   0  0
   15.2423  -13.2155    0.0000 O   0  0
   14.5349  -14.4415    0.0000 C   0  0
   13.8272  -14.0313    0.0000 C   0  0
   13.1201  -14.4394    0.0000 C   0  0
   13.1198  -15.2575    0.0000 C   0  0
   13.8326  -15.6657    0.0000 C   0  0
   14.5368  -15.2553    0.0000 C   0  0
   21.6136  -15.2492    0.0000 C   0  0
   22.3184  -15.6586    0.0000 C   0  0
   23.0257  -15.2507    0.0000 C   0  0
   23.0261  -14.4326    0.0000 C   0  0
   22.3134  -14.0241    0.0000 C   0  0
   21.6091  -14.4344    0.0000 N   0  0
  1  2  2  0
  2  3  1  0
  3  4  2  0
  4  5  1  0
  5  6  2  0
  6  1  1  0
  5  7  1  0
  7  8  2  0
  8  9  1  0
  8 13  1  0
  9 10  1  0
 10 11  1  0
 11 12  1  0
 12 13  1  0
 13 14  2  0
 10 15  2  0
 11 16  2  0
  1 17  1  0
 17 18  2  0
 17 19  1  0
 19 20  2  0
 20 21  1  0
 21 22  2  0
 22 23  1  0
 23 24  2  0
 24 19  1  0
 16 25  1  0
 25 26  2  0
 26 27  1  0
 27 28  2  0
 28 29  1  0
 29 30  2  0
 30 25  1  0
M  END