
  SciTegic10311316322D

 37 41  0  0  0  0            999 V2000
   -0.7497  -15.9063    0.0000 C   0  0
   -0.7486  -16.7258    0.0000 C   0  0
   -0.0451  -17.1348    0.0000 C   0  0
   -0.0433  -15.4974    0.0000 C   0  0
    0.6694  -15.9027    0.0000 C   0  0
    0.6702  -16.7217    0.0000 C   0  0
    1.3787  -17.1288    0.0000 N   0  0
    2.0870  -16.7180    0.0000 C   0  0
    2.0822  -15.8958    0.0000 N   0  0
    1.3731  -15.4925    0.0000 C   0  0
    1.3688  -14.6753    0.0000 N   0  0
    2.0743  -14.2629    0.0000 C   0  0
    2.7796  -14.6712    0.0000 C   0  0
    3.4847  -14.2595    0.0000 C   0  0
    3.4808  -13.4415    0.0000 C   0  0
    2.7659  -13.0368    0.0000 C   0  0
    2.0638  -13.4508    0.0000 C   0  0
    4.1858  -13.0282    0.0000 N   0  0
    4.8962  -13.4321    0.0000 C   0  0
    5.6011  -13.0188    0.0000 N   0  0
    4.9016  -14.2492    0.0000 O   0  0
    6.3115  -13.4227    0.0000 C   0  0
    6.3987  -14.2340    0.0000 C   0  0
    7.1992  -14.3986    0.0000 C   0  0
    7.6031  -13.6882    0.0000 N   0  0
    7.0522  -13.0846    0.0000 N   0  0
    7.2152  -12.2870    0.0000 C   0  0
    7.9918  -12.0291    0.0000 C   0  0
    8.1555  -11.2293    0.0000 C   0  0
    7.5435  -10.6864    0.0000 C   0  0
    6.7651  -10.9490    0.0000 C   0  0
    6.6052  -11.7483    0.0000 C   0  0
    7.5365  -15.1430    0.0000 C   0  0
    7.0606  -15.8073    0.0000 C   0  0
    8.3498  -15.2230    0.0000 C   0  0
    7.9408  -15.8486    0.0000 C   0  0
    6.1516  -10.4093    0.0000 N   0  0
  1  2  2  0
  2  3  1  0
  3  6  2  0
  5  4  2  0
  4  1  1  0
  5  6  1  0
  6  7  1  0
  7  8  2  0
  8  9  1  0
  9 10  2  0
 10  5  1  0
 10 11  1  0
 11 12  1  0
 12 13  2  0
 13 14  1  0
 14 15  2  0
 15 16  1  0
 16 17  2  0
 17 12  1  0
 15 18  1  0
 18 19  1  0
 19 20  1  0
 19 21  2  0
 20 22  1  0
 22 23  2  0
 23 24  1  0
 24 25  2  0
 25 26  1  0
 26 22  1  0
 27 28  2  0
 28 29  1  0
 29 30  2  0
 30 31  1  0
 31 32  2  0
 32 27  1  0
 26 27  1  0
 24 33  1  0
 33 34  1  0
 33 35  1  0
 33 36  1  0
 31 37  1  0
M  END