
          11280715132D 1   1.00000     0.00000     0

 33 36  0     0  0            999 V2000
    7.1292   -3.1667    0.0000 N   0  3  0  0  0  0           0  0  0
    7.1292   -2.3375    0.0000 C   0  0  0  0  0  0           0  0  0
    7.8417   -1.9250    0.0000 C   0  0  0  0  0  0           0  0  0
    7.8292   -1.1000    0.0000 C   0  0  0  0  0  0           0  0  0
    7.8542   -3.4917    0.0000 C   0  0  0  0  0  0           0  0  0
    6.4167   -3.5792    0.0000 N   0  0  0  0  0  0           0  0  0
    2.8292   -2.3917    0.0000 N   0  0  3  0  0  0           0  0  0
    8.5542   -3.1667    0.0000 N   0  0  0  0  0  0           0  0  0
    2.1167   -1.9875    0.0000 C   0  0  0  0  0  0           0  0  0
    8.5542   -2.3375    0.0000 C   0  0  0  0  0  0           0  0  0
    7.6417   -4.2917    0.0000 C   0  0  0  0  0  0           0  0  0
    2.1167   -1.1542    0.0000 C   0  0  0  0  0  0           0  0  0
    6.8167   -4.2917    0.0000 C   0  0  0  0  0  0           0  0  0
    4.2667   -3.1875    0.0000 N   0  0  3  0  0  0           0  0  0
    1.4042   -0.7417    0.0000 C   0  0  0  0  0  0           0  0  0
    8.5542   -0.6875    0.0000 N   0  0  3  0  0  0           0  0  0
    1.4042   -2.4000    0.0000 C   0  0  0  0  0  0           0  0  0
    7.1167   -0.6917    0.0000 O   0  0  0  0  0  0           0  0  0
    6.4167   -1.9292    0.0000 N   0  0  0  0  0  0           0  0  0
    3.5417   -1.9667    0.0000 C   0  0  0  0  0  0           0  0  0
    2.8417   -3.2167    0.0000 C   0  0  0  0  0  0           0  0  0
    0.6917   -1.1625    0.0000 C   0  0  0  0  0  0           0  0  0
    3.5667   -3.6167    0.0000 C   0  0  0  0  0  0           0  0  0
    4.2542   -2.3667    0.0000 C   0  0  0  0  0  0           0  0  0
    0.6917   -1.9875    0.0000 C   0  0  0  0  0  0           0  0  0
    2.8292   -0.7417    0.0000 O   0  0  0  0  0  0           0  0  0
   -0.0208   -0.7500    0.0000 F   0  0  0  0  0  0           0  0  0
    4.9917   -3.5875    0.0000 C   0  0  0  0  0  0           0  0  0
    5.7042   -3.1667    0.0000 C   0  0  0  0  0  0           0  0  0
    5.7042   -2.3417    0.0000 C   0  0  0  0  0  0           0  0  0
    9.2667   -1.0917    0.0000 C   0  0  0  0  0  0           0  0  0
    8.5417    0.1375    0.0000 C   0  0  0  0  0  0           0  0  0
    3.5417   -1.1542    0.0000 C   0  0  0  0  0  0           0  0  0
  2  1  2  0     0  0
  3  2  1  0     0  0
  4  3  1  0     0  0
  5  1  1  0     0  0
  6  1  1  0     0  0
  7 20  1  0     0  0
  8  5  1  0     0  0
  9  7  1  0     0  0
 10  8  1  0     0  0
 11  5  2  0     0  0
 12  9  1  0     0  0
 13  6  2  0     0  0
 14 28  1  0     0  0
 15 12  2  0     0  0
 16  4  1  0     0  0
 17  9  2  0     0  0
 18  4  2  0     0  0
 19  2  1  0     0  0
 20 24  1  0     0  0
 21 23  1  0     0  0
 22 25  2  0     0  0
 23 14  1  0     0  0
 24 14  1  0     0  0
 25 17  1  0     0  0
 26 12  1  0     0  0
 27 22  1  0     0  0
 28 29  1  0     0  0
 29 30  1  0     0  0
 30 19  1  0     0  0
 31 16  1  0     0  0
 32 16  1  0     0  0
 33 26  1  0     0  0
 13 11  1  0     0  0
  3 10  2  0     0  0
  7 21  1  0     0  0
 15 22  1  0     0  0
M  CHG  1   1   1
M  END