
  SciTegic11201309402D

 80 85  0  0  1  0            999 V2000
    7.6439   -2.3557    0.0000 N   0  0
    6.9356   -2.7854    0.0000 C   0  0
    9.0246   -1.3967    0.0000 C   0  0
    2.6422   -2.8093    0.0000 C   0  0
    1.2097   -2.8093    0.0000 N   0  0
    0.4934   -2.4034    0.0000 C   0  0
    8.3363   -1.9219    0.0000 C   0  0  1  0  0  0
    4.7909   -2.4034    0.0000 C   0  0
   -1.6553   -2.8093    0.0000 C   0  0
    3.3584   -2.4034    0.0000 N   0  0
   -3.8159   -4.9062    0.0000 C   0  0
   -0.9390   -2.4034    0.0000 N   0  0
    1.9259   -2.4034    0.0000 C   0  0  1  0  0  0
    5.5071   -2.8093    0.0000 N   0  0
    8.8575   -0.5054    0.0000 N   0  0
    4.0746   -2.8093    0.0000 C   0  0  1  0  0  0
    4.0746   -3.6409    0.0000 C   0  0
   -0.2228   -2.8093    0.0000 C   0  0  1  0  0  0
    6.2114   -2.3875    0.0000 C   0  0  1  0  0  0
   -2.3636   -2.4034    0.0000 C   0  0  2  0  0  0
   13.1350   -0.8635    0.0000 C   0  0
   -3.0798   -3.6409    0.0000 C   0  0
   -3.0798   -2.8093    0.0000 N   0  0
    9.6692    0.6685    0.0000 C   0  0
    3.8598   -4.3969    0.0000 C   0  0
    9.6016   -0.1473    0.0000 C   0  0  2  0  0  0
   13.8831   -0.5054    0.0000 N   0  0
   -4.5083   -5.9130    0.0000 C   0  0
   -4.3452   -6.3547    0.0000 C   0  0
   -3.0997   -5.9846    0.0000 C   0  0
    6.9515   -3.6091    0.0000 O   0  0
    9.8005   -1.7230    0.0000 O   0  0
    2.6422   -3.6409    0.0000 O   0  0
   -3.8159   -4.0627    0.0000 C   0  0
    0.4934   -1.5757    0.0000 O   0  0
   -1.6553   -3.6409    0.0000 O   0  0
    4.7909   -1.5757    0.0000 O   0  0
   -4.3452   -5.5389    0.0000 C   0  0
   -4.5083   -5.1490    0.0000 C   0  0
   -3.0918   -5.1967    0.0000 C   0  0
   -2.3636   -1.5757    0.0000 C   0  0
   -0.2228   -3.6409    0.0000 C   0  0
    8.9928    1.1420    0.0000 O   0  0
   -2.3636   -4.0508    0.0000 O   0  0
    3.1037   -4.5959    0.0000 O   0  0
   -3.8159   -6.1637    0.0000 C   0  0
   -3.6249   -6.6412    0.0000 C   0  0
   -5.1171   -6.5695    0.0000 C   0  0
   12.4546   -0.3860    0.0000 N   0  0
   13.0634   -1.6872    0.0000 N   0  0
   10.4213    1.0226    0.0000 N   0  0
    7.8468   -3.1555    0.0000 C   0  0
    1.9259   -1.5757    0.0000 C   0  0
    4.4168   -4.9580    0.0000 N   0  0
   -1.6553   -1.1619    0.0000 C   0  0
   -0.2228   -0.3383    0.0000 C   0  0
    0.4934   -4.0508    0.0000 C   0  0
   -0.9390   -1.5757    0.0000 C   0  0
   -1.6553   -0.3383    0.0000 C   0  0
    4.8028   -0.0518    0.0000 N   0  0
   -0.2228   -1.1619    0.0000 C   0  0
   -0.9390    0.0796    0.0000 C   0  0
    8.9769   -2.4512    0.0000 C   0  0
    0.4934    0.0796    0.0000 O   0  0
    8.6705   -3.2151    0.0000 C   0  0
    6.1955   -1.5996    0.0000 C   0  0
   10.2820   -0.6248    0.0000 C   0  0
   11.7026   -0.7441    0.0000 C   0  0
    5.4912   -0.4338    0.0000 C   0  0
    2.6422   -1.1619    0.0000 C   0  0
    1.2097   -1.1619    0.0000 C   0  0
    0.4934    0.9032    0.0000 C   0  0
    0.4934   -4.8744    0.0000 C   0  0
    1.2097   -3.6409    0.0000 C   0  0
    5.5071   -1.2216    0.0000 C   0  0
   11.0221   -0.2746    0.0000 C   0  0
    1.2097    1.3210    0.0000 C   0  0
    1.2097   -5.2922    0.0000 C   0  0
    1.9259   -4.0508    0.0000 C   0  0
    1.9259   -4.8744    0.0000 C   0  0
  2  1  1  0
  7  3  1  1
  4 10  1  0
 13  5  1  1
  6  5  1  0
  7  1  1  0
  8 14  1  0
  9 12  1  0
 16 10  1  6
 11 34  1  0
 18 12  1  6
 13  4  1  0
 19 14  1  1
 15  3  1  0
 16  8  1  0
 16 17  1  0
 18  6  1  0
 19  2  1  0
 20  9  1  0
 21 49  2  0
 22 23  1  0
 20 23  1  6
 24 26  1  0
 25 17  1  0
 26 15  1  6
 27 21  1  0
 28 39  1  0
 29 38  1  0
 30 40  1  0
 31  2  2  0
 32  3  2  0
 33  4  2  0
 34 22  1  0
 35  6  2  0
 36  9  2  0
 37  8  2  0
 38 11  1  0
 39 11  1  0
 40 11  1  0
 20 41  1  0
 18 42  1  0
 43 24  2  0
 44 22  2  0
 45 25  2  0
 46 30  1  0
 47 30  1  0
 28 48  1  0
 49 68  1  0
 50 21  1  0
 51 24  1  0
 52  1  1  0
 13 53  1  0
 54 25  1  0
 55 41  1  0
 56 62  1  0
 57 42  1  0
 58 55  2  0
 59 55  1  0
 60 69  1  0
 61 58  1  0
 62 59  2  0
  7 63  1  0
 64 56  1  0
 65 52  1  0
 19 66  1  0
 26 67  1  0
 68 76  1  0
 69 75  1  0
 70 53  1  0
 71 53  1  0
 72 64  1  0
 73 57  2  0
 74 57  1  0
 75 66  1  0
 76 67  1  0
 77 72  1  0
 78 73  1  0
 79 74  2  0
 80 79  1  0
 65 63  1  0
 80 78  2  0
 56 61  2  0
 29 47  1  0
 28 46  1  0
 48 29  1  0
M  END