
  SciTegic03291108522D

 26 29  0  0  0  0            999 V2000
   -0.6052   -1.9752    0.0000 S   0  0
    0.8939    0.3423    0.0000 S   0  0
   -2.7712   -0.9103    0.0000 F   0  0
   -1.6060   -0.8493    0.0000 F   0  0
   -2.8322    0.2548    0.0000 F   0  0
    0.8939   -2.1327    0.0000 N   0  0
    1.6084   -0.8952    0.0000 N   0  0
    1.6946    1.5753    0.0000 N   0  0
    2.3620    0.4192    0.0000 N   0  0
    2.5016    1.7468    0.0000 N   0  0
    2.9141    1.0323    0.0000 N   0  0
    0.1794   -0.8952    0.0000 C   0  0
   -0.6052   -0.6403    0.0000 C   0  0
   -0.8601    0.1443    0.0000 C   0  0
    0.1794   -1.7202    0.0000 C   0  0
    0.8939   -0.4827    0.0000 C   0  0
   -1.6671    0.3159    0.0000 C   0  0
   -1.0901   -1.3077    0.0000 C   0  0
   -2.2191   -0.2972    0.0000 C   0  0
   -0.3081    0.7574    0.0000 C   0  0
    1.6084    0.7548    0.0000 C   0  0
   -1.9220    1.1005    0.0000 C   0  0
    1.6084   -1.7202    0.0000 C   0  0
   -0.5630    1.5420    0.0000 C   0  0
   -1.3700    1.7136    0.0000 C   0  0
    1.0815    2.1273    0.0000 C   0  0
  1 15  1  0
  1 18  1  0
  2 16  1  0
  2 21  1  0
  3 19  1  0
  4 19  1  0
  5 19  1  0
  6 15  2  0
  6 23  1  0
  7 16  1  0
  7 23  2  0
  8 10  1  0
  8 21  1  0
  8 26  1  0
  9 11  1  0
  9 21  2  0
 10 11  2  0
 12 13  1  0
 12 15  1  0
 12 16  2  0
 13 14  1  0
 13 18  2  0
 14 17  2  0
 14 20  1  0
 17 19  1  0
 17 22  1  0
 20 24  2  0
 22 25  2  0
 24 25  1  0
M  END