
          11280715522D 1   1.00000     0.00000     0

 48 51  0     1  0            999 V2000
   -5.5306   -6.5916    0.0000 C   0  0  0  0  0  0           0  0  0
   -5.5318   -7.4190    0.0000 C   0  0  0  0  0  0           0  0  0
   -4.8169   -7.8319    0.0000 C   0  0  0  0  0  0           0  0  0
   -4.8187   -6.1789    0.0000 C   0  0  0  0  0  0           0  0  0
   -4.1034   -6.5880    0.0000 C   0  0  0  0  0  0           0  0  0
   -4.1026   -7.4148    0.0000 C   0  0  0  0  0  0           0  0  0
   -3.3873   -7.8258    0.0000 N   0  0  0  0  0  0           0  0  0
   -2.6723   -7.4110    0.0000 C   0  0  0  0  0  0           0  0  0
   -2.6770   -6.5811    0.0000 C   0  0  0  0  0  0           0  0  0
   -3.3929   -6.1738    0.0000 C   0  0  0  0  0  0           0  0  0
   -4.8150   -8.6569    0.0000 O   0  0  0  0  0  0           0  0  0
   -4.0996   -9.0677    0.0000 C   0  0  0  0  0  0           0  0  0
   -4.0977   -9.8927    0.0000 C   0  0  0  0  0  0           0  0  0
   -4.8138  -10.3025    0.0000 C   0  0  0  0  0  0           0  0  0
   -4.8122  -11.1267    0.0000 C   0  0  0  0  0  0           0  0  0
   -4.0963  -11.5384    0.0000 C   0  0  0  0  0  0           0  0  0
   -3.3804  -11.1198    0.0000 C   0  0  0  0  0  0           0  0  0
   -3.3855  -10.2969    0.0000 C   0  0  0  0  0  0           0  0  0
   -5.5279   -9.8893    0.0000 Cl  0  0  0  0  0  0           0  0  0
   -2.6738   -9.8796    0.0000 Cl  0  0  0  0  0  0           0  0  0
   -1.9562   -7.8208    0.0000 C   0  0  0  0  0  0           0  0  0
   -2.6635  -11.5281    0.0000 S   0  0  3  0  0  0           0  0  0
   -1.9542  -11.9375    0.0000 N   0  0  0  0  0  0           0  0  0
   -2.2845  -10.8748    0.0000 O   0  0  0  0  0  0           0  0  0
   -3.0373  -12.1218    0.0000 O   0  0  0  0  0  0           0  0  0
   -1.0835  -11.4312    0.0000 C   0  0  3  0  0  0           0  0  0
   -0.5292  -11.1042    0.0000 C   0  0  0  0  0  0           0  0  0
   -0.7920  -12.0808    0.0000 C   0  0  0  0  0  0           0  0  0
   -1.3756  -10.7506    0.0000 C   0  0  0  0  0  0           0  0  0
   -0.5382  -10.2792    0.0000 O   0  0  0  0  0  0           0  0  0
    0.1898  -11.5088    0.0000 N   0  0  3  0  0  0           0  0  0
    0.1943  -12.3342    0.0000 C   0  0  0  0  0  0           0  0  0
    0.9092  -12.7388    0.0000 C   0  0  0  0  0  0           0  0  0
    1.6216  -12.3220    0.0000 N   0  0  3  0  0  0           0  0  0
    1.6145  -11.4961    0.0000 C   0  0  0  0  0  0           0  0  0
    0.8951  -11.0870    0.0000 C   0  0  0  0  0  0           0  0  0
    2.3390  -12.7294    0.0000 C   0  0  0  0  0  0           0  0  0
    3.0505  -12.3118    0.0000 O   0  0  0  0  0  0           0  0  0
    2.3449  -13.5544    0.0000 C   0  0  0  0  0  0           0  0  0
    3.0623  -13.9617    0.0000 C   0  0  2  0  0  0           0  0  0
    3.0682  -14.7867    0.0000 C   0  0  0  0  0  0           0  0  0
    3.7738  -13.5441    0.0000 N   0  0  0  0  0  0           0  0  0
    3.7856  -15.1941    0.0000 C   0  0  0  0  0  0           0  0  0
    4.4971  -14.7765    0.0000 C   0  0  0  0  0  0           0  0  0
    5.2145  -15.1838    0.0000 C   0  0  0  0  0  0           0  0  0
    5.9260  -14.7662    0.0000 N   0  0  3  0  0  0           0  0  0
    6.6434  -15.1736    0.0000 C   0  0  0  0  0  0           0  0  0
    5.9201  -13.9412    0.0000 C   0  0  0  0  0  0           0  0  0
 22 23  1  0     0  0
  3 11  1  0     0  0
 22 24  2  0     0  0
  2  3  1  0     0  0
 22 25  2  0     0  0
 11 12  1  0     0  0
 23 26  1  0     0  0
  5  6  1  0     0  0
 26 27  1  0     0  0
 12 13  1  0     0  0
 26 28  1  0     0  0
  3  6  2  0     0  0
 26 29  1  0     0  0
 13 14  2  0     0  0
 27 30  2  0     0  0
  6  7  1  0     0  0
 27 31  1  0     0  0
 31 32  1  0     0  0
 14 15  1  0     0  0
  1  2  2  0     0  0
 15 16  2  0     0  0
  7  8  2  0     0  0
 16 17  1  0     0  0
 31 36  1  0     0  0
 32 33  1  0     0  0
 33 34  1  0     0  0
 34 35  1  0     0  0
 35 36  1  0     0  0
  5  4  2  0     0  0
 34 37  1  0     0  0
 17 18  2  0     0  0
 37 38  2  0     0  0
 18 13  1  0     0  0
 37 39  1  0     0  0
  8  9  1  0     0  0
 39 40  1  0     0  0
 14 19  1  0     0  0
 40 41  1  0     0  0
  4  1  1  0     0  0
 40 42  1  1     0  0
 18 20  1  0     0  0
 41 43  1  0     0  0
  9 10  2  0     0  0
 43 44  1  0     0  0
  8 21  1  0     0  0
 44 45  1  0     0  0
 10  5  1  0     0  0
 45 46  1  0     0  0
 17 22  1  0     0  0
 46 47  1  0     0  0
 46 48  1  0     0  0
M  END