
          11280715412D 1   1.00000     0.00000     0

 22 23  0     0  0            999 V2000
    1.0917   -2.3542    0.0000 C   0  0  0  0  0  0           0  0  0
   -2.4833   -1.9542    0.0000 C   0  0  0  0  0  0           0  0  0
    4.6542   -1.9542    0.0000 C   0  0  0  0  0  0           0  0  0
    0.3750   -1.9417    0.0000 N   0  0  0  0  0  0           0  0  0
    1.8042   -1.9417    0.0000 N   0  0  0  0  0  0           0  0  0
   -1.7708   -2.3667    0.0000 C   0  0  0  0  0  0           0  0  0
    3.9417   -2.3667    0.0000 C   0  0  0  0  0  0           0  0  0
    4.6542   -1.1292    0.0000 N   0  0  0  0  0  0           0  0  0
   -2.4833   -1.1292    0.0000 N   0  0  0  0  0  0           0  0  0
    1.0917   -3.1792    0.0000 O   0  0  0  0  0  0           0  0  0
    3.2292   -1.9542    0.0000 C   0  0  0  0  0  0           0  0  0
   -1.0583   -1.9542    0.0000 C   0  0  0  0  0  0           0  0  0
   -0.3375   -2.3667    0.0000 C   0  0  0  0  0  0           0  0  0
    2.5167   -2.3667    0.0000 C   0  0  0  0  0  0           0  0  0
    5.3750   -2.3667    0.0000 N   0  0  0  0  0  0           0  0  0
   -3.1958   -2.3667    0.0000 N   0  0  0  0  0  0           0  0  0
   -1.7708   -3.1917    0.0000 C   0  0  0  0  0  0           0  0  0
    3.9417   -3.1917    0.0000 C   0  0  0  0  0  0           0  0  0
   -1.0583   -3.6042    0.0000 C   0  0  0  0  0  0           0  0  0
    3.2292   -3.6042    0.0000 C   0  0  0  0  0  0           0  0  0
   -0.3375   -3.1917    0.0000 C   0  0  0  0  0  0           0  0  0
    2.5167   -3.1917    0.0000 C   0  0  0  0  0  0           0  0  0
  2  6  1  0     0  0
  3  7  1  0     0  0
  4  1  1  0     0  0
  5  1  1  0     0  0
  6 12  1  0     0  0
  7 11  1  0     0  0
  8  3  2  0     0  0
  9  2  2  0     0  0
 10  1  2  0     0  0
 11 14  2  0     0  0
 12 13  2  0     0  0
 13  4  1  0     0  0
 14  5  1  0     0  0
 15  3  1  0     0  0
 16  2  1  0     0  0
 17 19  1  0     0  0
 18 20  1  0     0  0
 19 21  2  0     0  0
 20 22  2  0     0  0
 21 13  1  0     0  0
 22 14  1  0     0  0
 18  7  2  0     0  0
 17  6  2  0     0  0
M  END