
          11280715422D 1   1.00000     0.00000     0

 22 23  0     0  0            999 V2000
   -3.5833   -0.1542    0.0000 O   0  0  0  0  0  0           0  0  0
   -3.1583    0.6333    0.0000 C   0  0  3  0  0  0           0  0  0
   -3.6208    0.3958    0.0000 C   0  0  3  0  0  0           0  0  0
   -3.3958    0.8500    0.0000 C   0  0  3  0  0  0           0  0  0
   -2.8625    1.0333    0.0000 C   0  0  3  0  0  0           0  0  0
    0.9625    1.0083    0.0000 C   0  0  0  0  0  0           0  0  0
   -4.0958    0.7708    0.0000 C   0  0  0  0  0  0           0  0  0
   -3.8458    1.1583    0.0000 C   0  0  0  0  0  0           0  0  0
    0.9542    1.6083    0.0000 O   0  0  0  0  0  0           0  0  0
   -1.8250    1.0333    0.0000 C   0  0  0  0  0  0           0  0  0
   -1.1708    1.0333    0.0000 C   0  0  0  0  0  0           0  0  0
   -1.5583   -0.4625    0.0000 C   0  0  0  0  0  0           0  0  0
   -1.1333   -0.2167    0.0000 C   0  0  0  0  0  0           0  0  0
   -2.8083    0.2833    0.0000 C   0  0  0  0  0  0           0  0  0
    1.4792    0.7083    0.0000 O   0  0  0  0  0  0           0  0  0
   -2.3458    0.7333    0.0000 C   0  0  0  0  0  0           0  0  0
   -2.8083   -0.2042    0.0000 S   0  0  0  0  0  0           0  0  0
    0.4375    0.7083    0.0000 C   0  0  0  0  0  0           0  0  0
   -1.9708   -0.2125    0.0000 C   0  0  0  0  0  0           0  0  0
   -0.6000    0.7000    0.0000 C   0  0  0  0  0  0           0  0  0
   -2.3958   -0.4500    0.0000 C   0  0  0  0  0  0           0  0  0
   -0.0833    1.0000    0.0000 C   0  0  0  0  0  0           0  0  0
  2  3  1  0     0  0
  3  1  1  0     0  0
  4  1  1  0     0  0
  5  4  1  0     0  0
  6 18  1  0     0  0
  7  3  1  0     0  0
  8  4  1  0     0  0
  9  6  2  0     0  0
 10 16  1  0     0  0
 11 10  2  0     0  0
 12 19  1  0     0  0
 13 12  2  0     0  0
 14  2  1  0     0  0
 15  6  1  0     0  0
 16  5  1  0     0  0
 17 14  1  0     0  0
 18 22  1  0     0  0
 19 21  1  0     0  0
 20 11  1  0     0  0
 21 17  1  0     0  0
 22 20  1  0     0  0
  7  8  1  0     0  0
  5  2  1  0     0  0
M  END