
  SciTegic12171313032D

 25 27  0  0  0  0            999 V2000
    3.2219   -2.9138    0.0000 C   0  0
    3.2208   -3.7333    0.0000 C   0  0
    3.9288   -4.1423    0.0000 N   0  0
    4.6385   -3.7328    0.0000 C   0  0
    4.6357   -2.9102    0.0000 C   0  0
    3.9271   -2.5049    0.0000 N   0  0
    5.3469   -4.1403    0.0000 N   0  0
    5.3418   -2.4989    0.0000 N   0  0
    5.3388   -1.6817    0.0000 C   0  0  1  0  0  0
    6.0449   -1.2705    0.0000 C   0  0
    4.6295   -1.2758    0.0000 C   0  0
    6.7494   -1.6799    0.0000 C   0  0
    7.4551   -1.2694    0.0000 C   0  0
    7.4525   -0.4513    0.0000 C   0  0
    6.7383   -0.0456    0.0000 C   0  0
    6.0355   -0.4585    0.0000 C   0  0
    2.5162   -2.5055    0.0000 C   0  0
    2.5174   -1.6872    0.0000 C   0  0
    1.8104   -1.2789    0.0000 C   0  0
    1.1018   -1.6877    0.0000 C   0  0
    1.1046   -2.5091    0.0000 C   0  0
    1.8122   -2.9138    0.0000 C   0  0
    0.3965   -2.9182    0.0000 C   0  0
   -0.3146   -2.5123    0.0000 O   0  0
    0.3996   -3.7354    0.0000 O   0  0
  1  2  2  0
  2  3  1  0
  3  4  2  0
  4  5  1  0
  5  6  2  0
  6  1  1  0
  4  7  1  0
  5  8  1  0
  8  9  1  0
  9 10  1  0
  9 11  1  6
 10 12  2  0
 12 13  1  0
 13 14  2  0
 14 15  1  0
 15 16  2  0
 16 10  1  0
 17 18  2  0
 18 19  1  0
 19 20  2  0
 20 21  1  0
 21 22  2  0
 22 17  1  0
  1 17  1  0
 23 24  1  0
 23 25  2  0
 21 23  1  0
M  END