
          11280714492D 1   1.00000     0.00000     0

 33 36  0     1  0            999 V2000
    4.9792   -5.7042    0.0000 N   0  0  0  0  0  0           0  0  0
    5.5292   -6.3167    0.0000 C   0  0  0  0  0  0           0  0  0
    4.2167   -6.0417    0.0000 C   0  0  0  0  0  0           0  0  0
    4.3167   -6.8667    0.0000 O   0  0  0  0  0  0           0  0  0
    6.3542   -6.2292    0.0000 C   0  0  0  0  0  0           0  0  0
    5.1167   -7.0292    0.0000 C   0  0  0  0  0  0           0  0  0
    3.5042   -5.6417    0.0000 C   0  0  2  0  0  0           0  0  0
    3.5042   -4.8042    0.0000 C   0  0  1  0  0  0           0  0  0
    4.2167   -4.3917    0.0000 C   0  0  0  0  0  0           0  0  0
    6.8417   -6.9042    0.0000 N   0  0  0  0  0  0           0  0  0
    4.2167   -3.5667    0.0000 C   0  0  0  0  0  0           0  0  0
    7.0792   -3.5667    0.0000 C   0  0  0  0  0  0           0  0  0
    6.6917   -5.4792    0.0000 O   0  0  0  0  0  0           0  0  0
    4.9292   -3.1542    0.0000 C   0  0  0  0  0  0           0  0  0
    7.7917   -3.1542    0.0000 O   0  0  0  0  0  0           0  0  0
    5.6542   -3.5667    0.0000 C   0  0  0  0  0  0           0  0  0
    6.3667   -3.1542    0.0000 C   0  0  0  0  0  0           0  0  0
    7.6542   -6.8167    0.0000 C   0  0  0  0  0  0           0  0  0
    9.1042   -8.8167    0.0000 C   0  0  0  0  0  0           0  0  0
    8.1417   -7.4792    0.0000 C   0  0  0  0  0  0           0  0  0
    7.0792   -4.3917    0.0000 O   0  0  0  0  0  0           0  0  0
    9.5917   -9.4792    0.0000 Cl  0  0  0  0  0  0           0  0  0
    9.4417   -8.0542    0.0000 C   0  0  0  0  0  0           0  0  0
    8.2917   -8.8917    0.0000 C   0  0  0  0  0  0           0  0  0
    8.9542   -7.3917    0.0000 C   0  0  0  0  0  0           0  0  0
    7.8042   -8.2292    0.0000 C   0  0  0  0  0  0           0  0  0
    2.7167   -4.5542    0.0000 C   0  0  0  0  0  0           0  0  0
    2.7167   -5.8917    0.0000 C   0  0  0  0  0  0           0  0  0
    2.2292   -5.2167    0.0000 C   0  0  0  0  0  0           0  0  0
    3.5042   -3.1542    0.0000 C   0  0  0  0  0  0           0  0  0
    4.9292   -2.3292    0.0000 C   0  0  0  0  0  0           0  0  0
    3.5042   -2.3292    0.0000 C   0  0  0  0  0  0           0  0  0
    4.2167   -1.9167    0.0000 C   0  0  0  0  0  0           0  0  0
  2  1  1  0     0  0
  3  1  2  0     0  0
  4  3  1  0     0  0
  5  2  1  0     0  0
  6  2  2  0     0  0
  7  3  1  1     0  0
  8  7  1  0     0  0
  8  9  1  6     0  0
 10  5  1  0     0  0
 11  9  1  0     0  0
 12 17  1  0     0  0
 13  5  2  0     0  0
 14 11  2  0     0  0
 15 12  2  0     0  0
 16 14  1  0     0  0
 17 16  1  0     0  0
 18 10  1  0     0  0
 19 24  2  0     0  0
 20 18  1  0     0  0
 21 12  1  0     0  0
 22 19  1  0     0  0
 23 25  2  0     0  0
 24 26  1  0     0  0
 25 20  1  0     0  0
 26 20  2  0     0  0
 27  8  1  0     0  0
 28  7  1  0     0  0
 29 28  1  0     0  0
 30 11  1  0     0  0
 31 14  1  0     0  0
 32 30  2  0     0  0
 33 32  1  0     0  0
  6  4  1  0     0  0
 29 27  1  0     0  0
 19 23  1  0     0  0
 33 31  2  0     0  0
M  END