
          11280714582D 1   1.00000     0.00000     0

 36 38  0     1  0            999 V2000
    3.3917   -1.9125    0.0000 C   0  0  0  0  0  0           0  0  0
    4.7125   -1.7417    0.0000 C   0  0  0  0  0  0           0  0  0
    3.9917   -1.3500    0.0000 C   0  0  0  0  0  0           0  0  0
    3.7292   -2.6542    0.0000 N   0  0  3  0  0  0           0  0  0
    4.5542   -2.5542    0.0000 N   0  0  0  0  0  0           0  0  0
    2.6000   -1.6667    0.0000 C   0  0  0  0  0  0           0  0  0
    9.0125   -1.7292    0.0000 S   0  0  3  0  0  0           0  0  0
    1.9125   -2.1375    0.0000 N   0  0  3  0  0  0           0  0  0
    5.3292   -1.2042    0.0000 C   0  0  0  0  0  0           0  0  0
    7.5167   -1.1917    0.0000 C   0  0  2  0  0  0           0  0  0
    8.1875   -1.6625    0.0000 N   0  0  0  0  0  0           0  0  0
    8.1417   -0.6542    0.0000 C   0  0  0  0  0  0           0  0  0
    6.1167   -1.4667    0.0000 N   0  0  0  0  0  0           0  0  0
    9.3542   -2.4792    0.0000 O   0  0  0  0  0  0           0  0  0
    9.7500   -1.3792    0.0000 O   0  0  0  0  0  0           0  0  0
    2.4792   -0.8542    0.0000 O   0  0  0  0  0  0           0  0  0
    6.7417   -0.9292    0.0000 C   0  0  0  0  0  0           0  0  0
    1.2042   -1.7250    0.0000 C   0  0  0  0  0  0           0  0  0
   -1.6458   -0.9000    0.0000 N   0  0  0  0  0  0           0  0  0
    5.1792   -0.3875    0.0000 O   0  0  0  0  0  0           0  0  0
    7.9792    0.1500    0.0000 O   0  0  0  0  0  0           0  0  0
    3.2875   -3.3917    0.0000 C   0  0  0  0  0  0           0  0  0
    9.7792   -2.0042    0.0000 C   0  0  0  0  0  0           0  0  0
    2.4625   -3.5167    0.0000 C   0  0  0  0  0  0           0  0  0
    8.9250   -0.9167    0.0000 O   0  0  0  0  0  0           0  0  0
    1.8625   -2.9625    0.0000 C   0  0  0  0  0  0           0  0  0
    0.4875   -2.1375    0.0000 C   0  0  0  0  0  0           0  0  0
   -0.2250   -1.7250    0.0000 C   0  0  3  0  0  0           0  0  0
   -1.6458   -1.7250    0.0000 C   0  0  0  0  0  0           0  0  0
   -0.9458   -0.4875    0.0000 C   0  0  0  0  0  0           0  0  0
   -0.2250   -0.9000    0.0000 C   0  0  0  0  0  0           0  0  0
   -0.9458   -2.1375    0.0000 C   0  0  0  0  0  0           0  0  0
   10.5167   -1.6542    0.0000 C   0  0  0  0  0  0           0  0  0
   10.5917   -0.8292    0.0000 C   0  0  0  0  0  0           0  0  0
   11.3292   -0.4750    0.0000 C   0  0  0  0  0  0           0  0  0
    7.0417   -1.8667    0.0000 H   0  0  0  0  0  0           0  0  0
  2  3  1  0     0  0
  3  1  2  0     0  0
  4  1  1  0     0  0
  5  4  1  0     0  0
  6  1  1  0     0  0
  7 11  1  0     0  0
  8  6  1  0     0  0
  9  2  1  0     0  0
 10 17  1  0     0  0
 10 11  1  1     0  0
 12 10  1  0     0  0
 13  9  1  0     0  0
 14  7  2  0     0  0
 15  7  2  0     0  0
 16  6  2  0     0  0
 17 13  1  0     0  0
 18  8  1  0     0  0
 19 29  1  0     0  0
 20  9  2  0     0  0
 21 12  2  0     0  0
 22  4  1  0     0  0
 23  7  1  0     0  0
 24 22  1  0     0  0
 25 12  1  0     0  0
 26  8  1  0     0  0
 27 18  1  0     0  0
 28 27  1  0     0  0
 29 32  1  0     0  0
 30 31  1  0     0  0
 31 28  1  0     0  0
 32 28  1  0     0  0
 33 23  1  0     0  0
 34 33  1  0     0  0
 35 34  1  0     0  0
 10 36  1  6     0  0
  2  5  2  0     0  0
 24 26  1  0     0  0
 19 30  1  0     0  0
M  END