
          11280715172D 1   1.00000     0.00000     0

 29 31  0     0  0            999 V2000
    4.5000   -5.1792    0.0000 C   0  0  0  0  0  0           0  0  0
    3.0667   -5.1792    0.0000 C   0  0  0  0  0  0           0  0  0
    3.0667   -6.0042    0.0000 C   0  0  0  0  0  0           0  0  0
    3.7792   -6.4167    0.0000 C   0  0  0  0  0  0           0  0  0
    5.2167   -4.7667    0.0000 C   0  0  0  0  0  0           0  0  0
    4.5000   -6.0042    0.0000 C   0  0  0  0  0  0           0  0  0
    8.0750   -3.9417    0.0000 C   0  0  0  0  0  0           0  0  0
    3.7792   -4.7667    0.0000 C   0  0  0  0  0  0           0  0  0
    8.0750   -4.7667    0.0000 C   0  0  0  0  0  0           0  0  0
    8.7917   -3.5167    0.0000 C   0  0  0  0  0  0           0  0  0
    2.3542   -4.7667    0.0000 C   0  0  3  0  0  0           0  0  0
    5.9292   -5.1792    0.0000 N   0  0  0  0  0  0           0  0  0
    2.3542   -6.4167    0.0000 C   0  0  3  0  0  0           0  0  0
    7.3542   -5.1792    0.0000 C   0  0  0  0  0  0           0  0  0
    7.3542   -3.5292    0.0000 C   0  0  0  0  0  0           0  0  0
    6.6417   -4.7667    0.0000 C   0  0  0  0  0  0           0  0  0
    5.2250   -3.9417    0.0000 O   0  0  0  0  0  0           0  0  0
    8.7917   -2.6917    0.0000 O   0  0  0  0  0  0           0  0  0
    1.6417   -5.1792    0.0000 C   0  0  0  0  0  0           0  0  0
    1.6417   -6.0042    0.0000 C   0  0  0  0  0  0           0  0  0
    3.7792   -7.2417    0.0000 Br  0  0  0  0  0  0           0  0  0
    5.2167   -6.4250    0.0000 O   0  0  0  0  0  0           0  0  0
    8.7917   -5.1917    0.0000 F   0  0  0  0  0  0           0  0  0
    6.6417   -3.9417    0.0000 C   0  0  0  0  0  0           0  0  0
    9.5167   -3.9292    0.0000 O   0  0  0  0  0  0           0  0  0
    2.7750   -4.0417    0.0000 C   0  0  0  0  0  0           0  0  0
    1.7167   -4.2292    0.0000 C   0  0  0  0  0  0           0  0  0
    2.7750   -7.1375    0.0000 C   0  0  0  0  0  0           0  0  0
    1.5792   -6.7000    0.0000 C   0  0  0  0  0  0           0  0  0
  2  8  1  0     0  0
  3  2  2  0     0  0
  4  6  2  0     0  0
  5  1  1  0     0  0
  6  1  1  0     0  0
  7 15  1  0     0  0
  8  1  2  0     0  0
  9 14  1  0     0  0
 10  7  1  0     0  0
 11  2  1  0     0  0
 12  5  1  0     0  0
 13  3  1  0     0  0
 14 16  2  0     0  0
 15 24  2  0     0  0
 16 12  1  0     0  0
 17  5  2  0     0  0
 18 10  2  0     0  0
 19 11  1  0     0  0
 20 19  1  0     0  0
 21  4  1  0     0  0
 22  6  1  0     0  0
 23  9  1  0     0  0
 24 16  1  0     0  0
 25 10  1  0     0  0
 26 11  1  0     0  0
 27 11  1  0     0  0
 28 13  1  0     0  0
 29 13  1  0     0  0
  3  4  1  0     0  0
 13 20  1  0     0  0
  9  7  2  0     0  0
M  END