
  SciTegic09261415472D

  8  8  0  0  0  0            999 V2000
    8.8680   -3.7834    0.0000 N   0  0
    9.1205   -4.5705    0.0000 N   0  0
    8.4522   -5.0543    0.0000 C   0  0
    7.7840   -4.5705    0.0000 C   0  0
    8.0406   -3.7834    0.0000 C   0  0
    8.4522   -5.8776    0.0000 C   0  0
    7.7392   -6.2893    0.0000 O   0  0
    9.1652   -6.2893    0.0000 C   0  0
  1  2  1  0
  2  3  2  0
  3  4  1  0
  4  5  2  0
  1  5  1  0
  3  6  1  0
  6  7  2  0
  6  8  1  0
M  END