
  SciTegic06051313522D

 38 40  0  0  0  0            999 V2000
    8.8202   -7.8694    0.0000 C   0  0  1  0  0  0
    7.2150   -9.8984    0.0000 N   0  0
    5.8178   -9.8034    0.0000 C   0  0
    9.9152  -10.1038    0.0000 C   0  0
    5.3948   -8.5407    0.0000 O   0  0
   10.3097  -10.8242    0.0000 C   0  0
    8.6942   -9.3697    0.0000 C   0  0
    5.0643  -11.0138    0.0000 C   0  0
   11.1091  -12.2840    0.0000 O   0  0
    5.1216   -9.3707    0.0000 C   0  0
    7.6208   -8.6313    0.0000 C   0  0  1  0  0  0
    9.2161   -7.1375    0.0000 C   0  0
    8.2865  -10.1327    0.0000 C   0  0
    8.4458   -8.6313    0.0000 H   0  0
   11.5414  -11.5729    0.0000 C   0  0
    9.0976   -8.6459    0.0000 O   0  0
    7.9926   -7.8927    0.0000 C   0  0  1  0  0  0
    4.3976   -9.7535    0.0000 C   0  0
    6.1616   -7.3340    0.0000 O   0  5
    9.6188   -8.0818    0.0000 C   0  0
    5.7901  -10.6231    0.0000 C   0  0
    8.0050   -5.0266    0.0000 C   0  0
   12.3733  -11.5917    0.0000 O   0  0
    6.5473   -9.4188    0.0000 C   0  0  1  0  0  0
    9.0929  -10.0900    0.0000 N   0  0
    6.7978   -8.6384    0.0000 C   0  0  1  0  0  0
    6.1239   -8.1586    0.0000 N   0  3
    6.7658   -5.7502    0.0000 C   0  0
    4.3681  -10.5769    0.0000 C   0  0
    6.7577   -4.3156    0.0000 C   0  0
    7.8760   -9.4158    0.0000 C   0  0  2  0  0  0
    7.5898   -5.7428    0.0000 C   0  0
    8.0090   -6.4575    0.0000 C   0  0
   11.1416  -10.8429    0.0000 C   0  0
    7.5744   -7.1663    0.0000 O   0  0
    6.3491   -5.0390    0.0000 C   0  0
    7.5865   -4.3124    0.0000 C   0  0
   10.0438   -7.1185    0.0000 C   0  0
 31 13  1  0
 11 14  1  1
 24  3  1  1
 10 18  2  0
 17  1  1  0
 11 17  1  0
 35 33  1  0
 15  9  2  0
 32 22  2  0
 37 30  2  0
 34 15  1  0
  3 10  1  0
 17 35  1  1
 22 37  1  0
  1 20  1  6
 30 36  1  0
  2 31  1  0
 25  7  1  0
  8 21  1  0
 26 27  1  1
  6 34  1  0
 25  4  1  0
 27  5  2  0
 36 28  2  0
 27 19  1  0
 33 32  1  0
 18 29  1  0
  4  6  1  0
 28 32  1  0
 11 31  1  0
 11 26  1  0
 26 24  1  0
 12 38  1  0
  3 21  2  0
 15 23  1  0
 31  7  1  1
  1 12  1  0
 29  8  2  0
  2 24  1  0
  7 16  2  0
M  CHG  2  19  -1  27   1
M  END