
  SciTegic01161211252D

 39 42  0  0  0  0            999 V2000
   -3.4458  -20.1333    0.0000 C   0  0
   -3.4458  -20.9583    0.0000 C   0  0  1  0  0  0
   -2.7338  -21.3667    0.0000 C   0  0
   -2.7338  -19.7167    0.0000 C   0  0
   -2.0218  -20.1333    0.0000 C   0  0  1  0  0  0
   -2.0207  -20.9583    0.0000 C   0  0  1  0  0  0
   -1.3097  -21.3676    0.0000 C   0  0
   -0.5951  -20.9565    0.0000 C   0  0  1  0  0  0
   -1.3118  -19.7176    0.0000 C   0  0
   -0.5943  -20.1322    0.0000 C   0  0
   -0.5955  -18.4777    0.0000 C   0  0
   -1.3155  -18.8913    0.0000 C   0  0
    0.1220  -18.8923    0.0000 C   0  0  1  0  0  0
    0.1189  -19.7217    0.0000 C   0  0  1  0  0  0
    0.9068  -19.9811    0.0000 C   0  0
    1.3970  -19.3118    0.0000 C   0  0
    0.9119  -18.6390    0.0000 C   0  0  2  0  0  0
   -3.1542  -22.0792    0.0000 C   0  0
   -2.3292  -22.0792    0.0000 C   0  0
   -2.0292  -19.3083    0.0000 C   0  0
   -2.0305  -18.4796    0.0000 O   0  0
    0.1125  -20.5458    0.0000 C   0  0
    0.1167  -18.0667    0.0000 C   0  0
    1.1697  -17.8553    0.0000 C   0  0  1  0  0  0
    1.9774  -17.6868    0.0000 C   0  0
    0.6200  -17.2402    0.0000 C   0  0
    1.7333  -18.6375    0.0000 H   0  0
    2.5271  -18.3020    0.0000 C   0  0
    3.3347  -18.1335    0.0000 C   0  0
    2.2692  -19.0856    0.0000 O   0  0
    3.8844  -18.7486    0.0000 C   0  0
    4.6920  -18.5801    0.0000 C   0  0
    3.6265  -19.5323    0.0000 C   0  0
    5.2418  -19.1953    0.0000 O   0  0
    4.9499  -17.7965    0.0000 O   0  0
   -2.0250  -21.7792    0.0000 H   0  0
   -4.1597  -21.3719    0.0000 O   0  0
    0.1188  -21.3699    0.0000 O   0  0
    1.1588  -20.7666    0.0000 O   0  0
  3 18  1  0
  8 10  1  0
  3 19  1  0
  9 10  2  0
  5 20  1  1
  3  6  1  0
 12 21  2  0
  5  4  1  0
 14 22  1  6
  5  6  1  0
 13 23  1  1
 17 24  1  0
  9 12  1  0
 24 25  1  0
 10 14  1  0
 24 26  1  6
 13 11  1  0
 17 27  1  6
 11 12  1  0
 25 28  1  0
 13 14  1  0
 28 29  1  0
  1  2  1  0
 28 30  2  0
  1  4  1  0
 29 31  1  0
  2  3  1  0
 31 32  1  0
  5  9  1  0
 31 33  1  0
  6  7  1  0
 32 34  1  0
 14 15  1  0
 32 35  2  0
 15 16  1  0
  6 36  1  6
 16 17  1  0
  2 37  1  1
 17 13  1  0
  8 38  1  1
  7  8  1  0
 15 39  2  0
M  END