
  CDK    9/16/09,9:57

 20 23  0  0  0  0  0  0  0  0999 V2000
   14.4616  -21.9189    0.0000 S   0  0  0  0  0  0  0  0  0  0  0  0
   14.2314  -22.7027    0.0000 C   0  0  0  0  0  0  0  0  0  0  0  0
   13.4001  -22.7333    0.0000 C   0  0  0  0  0  0  0  0  0  0  0  0
   13.1266  -21.9535    0.0000 C   0  0  0  0  0  0  0  0  0  0  0  0
   13.7830  -21.4569    0.0000 C   0  0  0  0  0  0  0  0  0  0  0  0
   14.6652  -23.4041    0.0000 C   0  0  0  0  0  0  0  0  0  0  0  0
   15.4970  -23.3698    0.0000 N   0  0  0  0  0  0  0  0  0  0  0  0
   13.3394  -24.9501    0.0000 C   0  0  0  0  0  0  0  0  0  0  0  0
   13.2924  -25.7641    0.0000 C   0  0  0  0  0  0  0  0  0  0  0  0
   13.9899  -26.2182    0.0000 C   0  0  0  0  0  0  0  0  0  0  0  0
   14.0755  -24.5752    0.0000 C   0  0  0  0  0  0  0  0  0  0  0  0
   14.7653  -25.0213    0.0000 C   0  0  0  0  0  0  0  0  0  0  0  0
   14.7197  -25.8432    0.0000 C   0  0  0  0  0  0  0  0  0  0  0  0
   15.4927  -26.1370    0.0000 N   0  0  0  0  0  0  0  0  0  0  0  0
   15.5631  -24.8104    0.0000 C   0  0  0  0  0  0  0  0  0  0  0  0
   16.0066  -25.5039    0.0000 C   0  0  0  0  0  0  0  0  0  0  0  0
   16.8339  -25.4693    0.0000 C   0  0  0  0  0  0  0  0  0  0  0  0
   17.2230  -24.7418    0.0000 C   0  0  0  0  0  0  0  0  0  0  0  0
   16.7660  -24.0314    0.0000 N   0  0  0  0  0  0  0  0  0  0  0  0
   15.9404  -24.0736    0.0000 C   0  0  0  0  0  0  0  0  0  0  0  0
 10 13  2  0  0  0  0 
  1  5  1  0  0  0  0 
 12 11  2  0  0  0  0 
 11  8  1  0  0  0  0 
 12 13  1  0  0  0  0 
  2  6  1  0  0  0  0 
  1  2  1  0  0  0  0 
 13 14  1  0  0  0  0 
 14 16  1  0  0  0  0 
 15 12  1  0  0  0  0 
  6  7  1  0  0  0  0 
  2  3  2  0  0  0  0 
 15 16  2  0  0  0  0 
  3  4  1  0  0  0  0 
 16 17  1  0  0  0  0 
  8  9  2  0  0  0  0 
 17 18  2  0  0  0  0 
  4  5  2  0  0  0  0 
 18 19  1  0  0  0  0 
  9 10  1  0  0  0  0 
 19 20  2  0  0  0  0 
 20 15  1  0  0  0  0 
 20  7  1  0  0  0  0 
M  END