
  SciTegic11201309402D

 39 41  0  0  1  0            999 V2000
    0.1750   -7.9375    0.0000 C   0  0  2  0  0  0
    0.1750   -7.1125    0.0000 C   0  0
    0.8875   -6.7000    0.0000 C   0  0
    0.8875   -5.8750    0.0000 N   0  0
    0.8875   -8.3417    0.0000 O   0  0
    1.5917   -5.4542    0.0000 C   0  0  2  0  0  0
   -0.5458   -8.3417    0.0000 C   0  0  1  0  0  0
    0.8875   -9.1667    0.0000 C   0  0  1  0  0  0
    2.3125   -5.8667    0.0000 C   0  0
   -0.5458   -9.1667    0.0000 C   0  0
    0.1667   -9.5792    0.0000 C   0  0  2  0  0  0
   -0.5375   -6.7000    0.0000 O   0  0
    2.3125   -3.3917    0.0000 C   0  0
    1.6000   -7.1042    0.0000 O   0  0
    3.0250   -5.4542    0.0000 O   0  0
    0.1750   -2.9792    0.0000 C   0  0  2  0  0  0
    2.3125   -4.2167    0.0000 C   0  0
    0.8875   -3.3875    0.0000 C   0  0
    1.6000   -2.9792    0.0000 C   0  0  1  0  0  0
    0.8792   -7.5167    0.0000 O   0  0
    2.3042   -6.6917    0.0000 O   0  0
    0.1750   -2.1542    0.0000 C   0  0  1  0  0  0
    0.8875   -1.7375    0.0000 C   0  0
    3.0250   -4.6292    0.0000 C   0  0
    0.1750   -5.4542    0.0000 C   0  0
    1.6000   -2.1542    0.0000 C   0  0
    0.1667  -10.4042    0.0000 O   0  0
   -0.5375   -3.3917    0.0000 O   0  0
   -0.5375   -1.7417    0.0000 O   0  0
    1.6000   -9.5792    0.0000 C   0  0
    1.6000   -4.6292    0.0000 C   0  0
   -1.2583   -7.9292    0.0000 C   0  0
    1.6000  -10.4042    0.0000 O   0  0
    1.8917   -4.9292    0.0000 C   0  0
   -0.5375   -4.2167    0.0000 C   0  0
   -0.5500  -10.8167    0.0000 C   0  0
    2.3125  -10.8167    0.0000 C   0  0
    0.1750   -4.6292    0.0000 C   0  0
    0.8917   -4.2167    0.0000 C   0  0
  2  1  1  0
  3  2  1  0
  4  3  1  0
  5  1  1  0
  6  4  1  0
  7  1  1  0
  8  5  1  0
  6  9  1  1
 10  7  1  0
 11 10  1  0
 12  2  2  0
 13 17  2  0
 14  3  2  0
 15  9  1  0
 16 18  1  0
 17 24  1  0
 18 19  1  0
 19 13  1  1
  1 20  1  1
 21  9  2  0
 22 23  1  0
 23 26  1  0
 24 15  1  0
 25  4  1  0
 26 19  1  0
 11 27  1  1
 16 28  1  1
 22 29  1  6
  8 30  1  6
 31  6  1  0
  7 32  1  1
 33 30  1  0
 34 17  1  0
 35 28  1  0
 36 27  1  0
 37 33  1  0
 38 25  1  0
 39 38  1  0
 11  8  1  0
 39 31  1  0
 16 22  1  0
M  END