
          11280715512D 1   1.00000     0.00000     0

 25 26  0     0  0            999 V2000
   -0.9310  -17.5583    0.0000 C   0  0  0  0  0  0           0  0  0
   -0.9310  -18.3833    0.0000 N   0  0  3  0  0  0           0  0  0
   -1.6431  -18.7979    0.0000 C   0  0  0  0  0  0           0  0  0
   -2.3596  -18.3833    0.0000 C   0  0  0  0  0  0           0  0  0
   -2.3596  -17.5583    0.0000 C   0  0  0  0  0  0           0  0  0
   -1.6431  -17.1479    0.0000 N   0  0  3  0  0  0           0  0  0
   -0.2145  -17.1479    0.0000 O   0  0  0  0  0  0           0  0  0
   -1.6431  -19.6228    0.0000 O   0  0  0  0  0  0           0  0  0
   -0.2145  -18.7979    0.0000 C   0  0  0  0  0  0           0  0  0
    0.5018  -18.3833    0.0000 C   0  0  0  0  0  0           0  0  0
    0.5018  -17.5583    0.0000 C   0  0  0  0  0  0           0  0  0
    1.2182  -17.1479    0.0000 C   0  0  0  0  0  0           0  0  0
    1.9305  -17.5583    0.0000 C   0  0  0  0  0  0           0  0  0
    1.9305  -18.3833    0.0000 C   0  0  0  0  0  0           0  0  0
    1.2182  -18.7979    0.0000 C   0  0  0  0  0  0           0  0  0
    2.6427  -17.1479    0.0000 P   0  0  3  0  0  0           0  0  0
    2.2323  -16.4357    0.0000 O   0  0  0  0  0  0           0  0  0
    3.3549  -16.7334    0.0000 O   0  0  0  0  0  0           0  0  0
    3.0572  -17.8644    0.0000 O   0  0  0  0  0  0           0  0  0
   -1.6431  -16.3230    0.0000 C   0  0  0  0  0  0           0  0  0
   -2.3596  -15.9084    0.0000 C   0  0  3  0  0  0           0  0  0
   -3.0718  -16.3230    0.0000 C   0  0  0  0  0  0           0  0  0
   -3.0718  -17.1479    0.0000 O   0  0  0  0  0  0           0  0  0
   -3.7840  -15.9084    0.0000 O   0  0  0  0  0  0           0  0  0
   -2.3596  -15.0834    0.0000 N   0  0  0  0  0  0           0  0  0
  1  2  1  0     0  0
  2  3  1  0     0  0
  3  4  1  0     0  0
  4  5  2  0     0  0
  5  6  1  0     0  0
  1  6  1  0     0  0
  1  7  2  0     0  0
  3  8  2  0     0  0
  9 10  1  0     0  0
 10 11  1  0     0  0
 11 12  2  0     0  0
 12 13  1  0     0  0
 13 14  2  0     0  0
 14 15  1  0     0  0
 10 15  2  0     0  0
 16 17  2  0     0  0
 16 18  1  0     0  0
 16 19  1  0     0  0
 13 16  1  0     0  0
  2  9  1  0     0  0
 20 21  1  0     0  0
 22 23  2  0     0  0
 22 24  1  0     0  0
 21 22  1  0     0  0
 21 25  1  0     0  0
  6 20  1  0     0  0
M  END