
  SciTegic06051313522D

 24 26  0  0  0  0            999 V2000
    3.3224  -16.7565    0.0000 O   0  0
    2.9180  -17.4664    0.0000 S   0  0
    3.7350  -17.4618    0.0000 O   0  0
    2.9218  -19.9248    0.0000 C   0  0
    3.6315  -19.5154    0.0000 C   0  0
    3.6286  -18.6927    0.0000 C   0  0
    2.9200  -18.2874    0.0000 C   0  0
    4.3348  -18.2815    0.0000 N   0  0
    5.0440  -18.6874    0.0000 C   0  0
    2.2138  -19.5158    0.0000 C   0  0
    2.2150  -18.6948    0.0000 C   0  0
    1.4345  -18.4398    0.0000 N   0  0
    0.9508  -19.1034    0.0000 O   0  0
    1.4325  -19.7683    0.0000 N   0  0
    5.0438  -19.5022    0.0000 C   0  0
    5.7522  -19.9081    0.0000 C   0  0
    6.4593  -19.4968    0.0000 C   0  0
    6.4536  -18.6754    0.0000 C   0  0
    5.7446  -18.2732    0.0000 C   0  0
    7.1583  -18.2616    0.0000 F   0  0
    5.7549  -20.7253    0.0000 Cl  0  0
    2.2096  -17.0632    0.0000 N   0  0
    2.2078  -16.2460    0.0000 C   0  0
    1.5036  -17.4747    0.0000 C   0  0
  2  1  2  0
  3  2  2  0
 10  4  1  0
  4  5  2  0
  5  6  1  0
  6  7  2  0
  7 11  1  0
  6  8  1  0
  8  9  1  0
 10 11  1  0
 11 12  2  0
 12 13  1  0
 13 14  1  0
 14 10  2  0
  9 15  2  0
 15 16  1  0
 16 17  2  0
 17 18  1  0
 18 19  2  0
 19  9  1  0
 18 20  1  0
 16 21  1  0
  7  2  1  0
  2 22  1  0
 22 23  1  0
 22 24  1  0
M  END