
          11280714472D 1   1.00000     0.00000     0

 51 55  0     0  0            999 V2000
   10.8000   -3.9667    0.0000 N   0  0  3  0  0  0           0  0  0
   11.6250   -3.9667    0.0000 C   0  0  0  0  0  0           0  0  0
   10.5417   -4.7542    0.0000 N   0  0  0  0  0  0           0  0  0
    0.7417   -4.1417    0.0000 C   0  0  0  0  0  0           0  0  0
    0.1000   -5.4417    0.0000 C   0  0  0  0  0  0           0  0  0
    6.6167   -1.4625    0.0000 P   0  0  3  0  0  0           0  0  0
    0.8500   -5.8042    0.0000 O   0  0  0  0  0  0           0  0  0
    0.0417   -4.6042    0.0000 C   0  0  0  0  0  0           0  0  0
    1.5542   -5.3417    0.0000 C   0  0  0  0  0  0           0  0  0
    1.4917   -4.5042    0.0000 C   0  0  0  0  0  0           0  0  0
   11.8792   -4.7542    0.0000 C   0  0  0  0  0  0           0  0  0
    1.3875   -2.8417    0.0000 C   0  0  0  0  0  0           0  0  0
   11.2042   -5.2417    0.0000 C   0  0  0  0  0  0           0  0  0
    3.2625   -3.7292    0.0000 C   0  0  0  0  0  0           0  0  0
    2.1417   -3.2042    0.0000 N   0  0  0  0  0  0           0  0  0
    2.8667   -3.0792    0.0000 C   0  0  3  0  0  0           0  0  0
    7.5917   -3.3667    0.0000 C   0  0  0  0  0  0           0  0  0
    0.6917   -3.3042    0.0000 C   0  0  0  0  0  0           0  0  0
    9.9792   -3.8917    0.0000 C   0  0  0  0  0  0           0  0  0
   -0.5875   -5.9042    0.0000 C   0  0  0  0  0  0           0  0  0
   -0.6958   -4.2417    0.0000 C   0  0  0  0  0  0           0  0  0
    6.2792   -2.1542    0.0000 O   0  0  0  0  0  0           0  0  0
    8.3375   -3.7167    0.0000 C   0  0  0  0  0  0           0  0  0
   12.1125   -3.3042    0.0000 O   0  0  0  0  0  0           0  0  0
    6.7667   -0.7000    0.0000 O   0  0  0  0  0  0           0  0  0
    2.3042   -5.7042    0.0000 O   0  0  0  0  0  0           0  0  0
    3.2042   -2.3792    0.0000 C   0  0  0  0  0  0           0  0  0
    2.9292   -4.4292    0.0000 O   0  0  0  0  0  0           0  0  0
    1.3292   -2.0042    0.0000 O   0  0  0  0  0  0           0  0  0
    7.5250   -2.5292    0.0000 O   0  0  0  0  0  0           0  0  0
    9.4917   -4.5667    0.0000 C   0  0  0  0  0  0           0  0  0
    9.6417   -3.1417    0.0000 C   0  0  0  0  0  0           0  0  0
    8.6667   -4.4792    0.0000 C   0  0  0  0  0  0           0  0  0
    8.8250   -3.0542    0.0000 C   0  0  0  0  0  0           0  0  0
    7.3667   -1.6625    0.0000 O   0  0  0  0  0  0           0  0  0
    5.8750   -1.2625    0.0000 O   0  0  0  0  0  0           0  0  0
    4.0125   -4.0917    0.0000 N   0  0  0  0  0  0           0  0  0
    6.9042   -3.8542    0.0000 N   0  0  0  0  0  0           0  0  0
   -1.3375   -5.5292    0.0000 C   0  0  0  0  0  0           0  0  0
    5.5125   -2.2167    0.0000 C   0  0  0  0  0  0           0  0  0
    3.9750   -2.3250    0.0000 C   0  0  0  0  0  0           0  0  0
   -1.3958   -4.7042    0.0000 C   0  0  0  0  0  0           0  0  0
    4.3042   -1.6292    0.0000 C   0  0  0  0  0  0           0  0  0
    4.4042   -2.9667    0.0000 C   0  0  0  0  0  0           0  0  0
    5.1750   -2.9125    0.0000 C   0  0  0  0  0  0           0  0  0
    5.0750   -1.5667    0.0000 C   0  0  0  0  0  0           0  0  0
   -2.0333   -6.0042    0.0000 O   0  0  0  0  0  0           0  0  0
    5.4542   -3.9667    0.0000 C   0  0  0  0  0  0           0  0  0
   11.2042   -6.0667    0.0000 C   0  0  0  0  0  0           0  0  0
    4.7000   -3.6042    0.0000 C   0  0  0  0  0  0           0  0  0
    6.1417   -3.4917    0.0000 C   0  0  0  0  0  0           0  0  0
  2  1  1  0     0  0
  3  1  1  0     0  0
  4 18  1  0     0  0
  5  8  2  0     0  0
  6 22  1  0     0  0
  7  9  1  0     0  0
  8  4  1  0     0  0
  9 10  1  0     0  0
 10  4  2  0     0  0
 11  2  1  0     0  0
 12 15  1  0     0  0
 13  3  2  0     0  0
 14 37  1  0     0  0
 15 16  1  0     0  0
 16 14  1  0     0  0
 17 23  1  0     0  0
 18 12  1  0     0  0
 19  1  1  0     0  0
 20  5  1  0     0  0
 21  8  1  0     0  0
 22 40  1  0     0  0
 23 34  2  0     0  0
 24  2  2  0     0  0
 25  6  2  0     0  0
 26  9  2  0     0  0
 27 16  1  0     0  0
 28 14  2  0     0  0
 29 12  2  0     0  0
 30 17  2  0     0  0
 31 19  1  0     0  0
 32 19  2  0     0  0
 33 31  2  0     0  0
 34 32  1  0     0  0
 35  6  1  0     0  0
 36  6  1  0     0  0
 37 50  1  0     0  0
 38 17  1  0     0  0
 39 42  1  0     0  0
 40 45  2  0     0  0
 41 27  1  0     0  0
 42 21  2  0     0  0
 43 41  1  0     0  0
 44 41  2  0     0  0
 45 44  1  0     0  0
 46 43  2  0     0  0
 47 39  1  0     0  0
 48 51  1  0     0  0
 49 13  1  0     0  0
 50 48  1  0     0  0
 51 38  1  0     0  0
 13 11  1  0     0  0
 23 33  1  0     0  0
 40 46  1  0     0  0
  5  7  1  0     0  0
 39 20  2  0     0  0
M  END