
  SciTegic09261414462D

 21 24  0  0  0  0            999 V2000
   31.1865  -24.3299    0.0000 N   0  0
   31.3996  -25.1172    0.0000 C   0  0
   32.1911  -25.3304    0.0000 N   0  0
   32.4002  -26.1178    0.0000 C   0  0
   31.8218  -26.6961    0.0000 C   0  0
   31.0344  -26.4830    0.0000 C   0  0
   30.8213  -25.6956    0.0000 N   0  0
   28.9055  -28.3890    0.0000 N   0  0
   28.0994  -28.2613    0.0000 C   0  0
   27.9717  -27.4552    0.0000 C   0  0
   28.6994  -27.0830    0.0000 C   0  0
   29.2777  -27.6613    0.0000 C   0  0
   29.6500  -26.9337    0.0000 C   0  0
   30.4561  -27.0613    0.0000 N   0  0
   30.5837  -27.8674    0.0000 C   0  0
   29.8561  -28.2397    0.0000 C   0  0
   33.1917  -26.3309    0.0000 C   0  0
   33.8237  -25.8159    0.0000 C   0  0
   34.5113  -26.2591    0.0000 C   0  0
   34.2982  -27.0506    0.0000 C   0  0
   33.4827  -27.0948    0.0000 C   0  0
  2  3  1  0
  3  4  2  0
  4  5  1  0
  5  6  2  0
  6  7  1  0
  2  7  2  0
  1  2  1  0
  8  9  1  0
  9 10  1  0
 10 11  1  0
 11 12  1  0
 12 13  1  0
 13 14  1  0
 14 15  1  0
 15 16  1  0
  8 12  1  0
 12 16  1  0
  6 14  1  0
 17 18  1  0
 18 19  1  0
 19 20  1  0
 20 21  1  0
 17 21  1  0
  4 17  1  0
M  END