
          11280714442D 1   1.00000     0.00000     0

 18 18  0     0  0            999 V2000
    3.1125   -2.2917    0.0000 C   0  0  0  0  0  0           0  0  0
    2.4167   -2.7375    0.0000 C   0  0  0  0  0  0           0  0  0
    3.8417   -2.6750    0.0000 O   0  0  0  0  0  0           0  0  0
    3.0750   -1.4667    0.0000 O   0  0  0  0  0  0           0  0  0
    1.6792   -2.3542    0.0000 C   0  0  0  0  0  0           0  0  0
    6.7000   -2.5417    0.0000 N   0  0  0  0  0  0           0  0  0
    5.2667   -2.6042    0.0000 C   0  0  3  0  0  0           0  0  0
    4.5375   -2.2292    0.0000 C   0  0  0  0  0  0           0  0  0
    5.9667   -2.1625    0.0000 C   0  0  0  0  0  0           0  0  0
    5.3042   -3.4292    0.0000 O   0  0  0  0  0  0           0  0  0
    7.3917   -2.1000    0.0000 C   0  0  3  0  0  0           0  0  0
    2.4542   -3.5542    0.0000 C   0  0  0  0  0  0           0  0  0
    1.6417   -1.5292    0.0000 C   0  0  0  0  0  0           0  0  0
    0.9917   -2.8042    0.0000 C   0  0  0  0  0  0           0  0  0
    7.3542   -1.2750    0.0000 C   0  0  0  0  0  0           0  0  0
    8.1250   -2.4792    0.0000 C   0  0  0  0  0  0           0  0  0
    1.7667   -4.0042    0.0000 C   0  0  0  0  0  0           0  0  0
    1.0292   -3.6250    0.0000 C   0  0  0  0  0  0           0  0  0
  2  1  1  0     0  0
  3  1  1  0     0  0
  4  1  2  0     0  0
  5  2  2  0     0  0
  6  9  1  0     0  0
  7  8  1  0     0  0
  8  3  1  0     0  0
  9  7  1  0     0  0
 10  7  1  0     0  0
 11  6  1  0     0  0
 12  2  1  0     0  0
 13  5  1  0     0  0
 14  5  1  0     0  0
 15 11  1  0     0  0
 16 11  1  0     0  0
 17 12  2  0     0  0
 18 17  1  0     0  0
 18 14  2  0     0  0
M  END