
  SciTegic01161211222D

 33 35  0  0  0  0            999 V2000
    1.9167   -6.4250    0.0000 C   0  0
   -3.0750   -7.6792    0.0000 C   0  0
   -2.3625   -7.2667    0.0000 C   0  0  1  0  0  0
   -3.0750   -8.5125    0.0000 C   0  0
   -2.3583   -8.9250    0.0000 N   0  0
    2.6292   -6.0042    0.0000 C   0  0
    1.9167   -7.2542    0.0000 C   0  0
   -1.6458   -7.6750    0.0000 N   0  0
   -0.9333   -7.2625    0.0000 C   0  0
    1.1917   -6.0167    0.0000 C   0  0
    1.2042   -7.6667    0.0000 C   0  0
   -2.3708   -6.4417    0.0000 C   0  0
    2.6250   -5.1875    0.0000 O   0  0
   -0.9375   -6.4375    0.0000 O   0  0
    0.4917   -7.2542    0.0000 C   0  0
   -0.2208   -7.6667    0.0000 C   0  0
    0.4875   -6.4292    0.0000 C   0  0
    3.3417   -6.4167    0.0000 O   0  0
    2.6292   -7.6625    0.0000 O   0  0
   -3.7958   -7.2667    0.0000 C   0  0
   -1.6458   -8.5000    0.0000 C   0  0
   -2.3625   -9.7500    0.0000 C   0  0
   -3.7958   -8.9250    0.0000 C   0  0
   -3.0833   -6.0292    0.0000 C   0  0
    2.6375   -8.4875    0.0000 C   0  0
   -3.7958   -6.4417    0.0000 C   0  0
   -3.0875   -5.2042    0.0000 C   0  0
   -4.5083   -7.6875    0.0000 C   0  0
   -0.9333   -8.9250    0.0000 C   0  0
   -1.6500  -10.1542    0.0000 C   0  0
   -4.5083   -8.5125    0.0000 C   0  0
    3.3542   -8.9000    0.0000 C   0  0
   -0.9333   -9.7500    0.0000 C   0  0
  2  3  1  0
  3  8  1  0
  4  2  1  0
  5  4  1  0
  6  1  1  0
  7  1  2  0
  8  9  1  0
  9 16  1  0
 10  1  1  0
 11  7  1  0
  3 12  1  6
 13  6  2  0
 14  9  2  0
 15 17  1  0
 16 15  1  0
 17 10  2  0
 18  6  1  0
 19  7  1  0
 20  2  2  0
 21  5  1  0
 22  5  1  0
 23  4  2  0
 24 12  1  0
 25 19  1  0
 26 24  1  0
 27 24  1  0
 28 20  1  0
 29 21  1  0
 30 22  1  0
 31 28  2  0
 32 25  1  0
 33 30  1  0
 11 15  2  0
 23 31  1  0
 33 29  1  0
M  END