
          11280715172D 1   1.00000     0.00000     0

 29 31  0     1  0            999 V2000
    5.6792   -3.7250    0.0000 N   0  0  3  0  0  0           0  0  0
    4.7917   -3.2125    0.0000 C   0  0  0  0  0  0           0  0  0
    6.7292   -3.7250    0.0000 C   0  0  3  0  0  0           0  0  0
    3.8917   -3.7250    0.0000 C   0  0  2  0  0  0           0  0  0
    5.1667   -4.6375    0.0000 C   0  0  0  0  0  0           0  0  0
    2.0917   -3.7250    0.0000 C   0  0  0  0  0  0           0  0  0
    2.9917   -3.2125    0.0000 C   0  0  0  0  0  0           0  0  0
    7.2417   -4.6375    0.0000 C   0  0  0  0  0  0           0  0  0
    7.2417   -2.8250    0.0000 C   0  0  0  0  0  0           0  0  0
    1.1917   -3.2125    0.0000 C   0  0  0  0  0  0           0  0  0
    2.0917   -4.7625    0.0000 C   0  0  0  0  0  0           0  0  0
    5.6792   -5.5375    0.0000 C   0  0  0  0  0  0           0  0  0
    6.7292   -5.5375    0.0000 C   0  0  0  0  0  0           0  0  0
    4.7917   -2.1750    0.0000 O   0  0  0  0  0  0           0  0  0
    3.8917   -4.7625    0.0000 N   0  0  3  0  0  0           0  0  0
    1.1917   -5.2875    0.0000 C   0  0  0  0  0  0           0  0  0
    0.2917   -3.7250    0.0000 C   0  0  0  0  0  0           0  0  0
    0.2917   -4.7625    0.0000 C   0  0  0  0  0  0           0  0  0
    8.2792   -2.8250    0.0000 O   0  0  0  0  0  0           0  0  0
    6.7292   -1.9250    0.0000 O   0  0  0  0  0  0           0  0  0
   -0.6083   -5.2875    0.0000 O   0  0  0  0  0  0           0  0  0
    1.1917   -2.1625    0.0000 C   0  0  0  0  0  0           0  0  0
    2.9917   -5.2875    0.0000 C   0  0  0  0  0  0           0  0  0
    7.2417   -6.4375    0.0000 C   0  0  0  0  0  0           0  0  0
    5.1667   -6.4375    0.0000 C   0  0  0  0  0  0           0  0  0
    4.7917   -5.2875    0.0000 C   0  0  0  0  0  0           0  0  0
    3.6292   -5.7625    0.0000 C   0  0  0  0  0  0           0  0  0
    6.7292   -7.3375    0.0000 C   0  0  0  0  0  0           0  0  0
    5.6792   -7.3375    0.0000 C   0  0  0  0  0  0           0  0  0
  2  1  1  0     0  0
  3  1  1  0     0  0
  4  2  1  0     0  0
  5  1  1  0     0  0
  6  7  1  0     0  0
  4  7  1  1     0  0
  8  3  1  0     0  0
  9  3  1  0     0  0
 10  6  2  0     0  0
 11  6  1  0     0  0
 12  5  1  0     0  0
 13 12  2  0     0  0
 14  2  2  0     0  0
 15  4  1  0     0  0
 16 11  2  0     0  0
 17 10  1  0     0  0
 18 16  1  0     0  0
 19  9  2  0     0  0
 20  9  1  0     0  0
 21 18  1  0     0  0
 22 10  1  0     0  0
 23 11  1  0     0  0
 24 13  1  0     0  0
 25 12  1  0     0  0
 26 15  1  0     0  0
 27 15  1  0     0  0
 28 29  1  0     0  0
 29 25  2  0     0  0
  8 13  1  0     0  0
 28 24  2  0     0  0
 17 18  2  0     0  0
M  END