
  SciTegic05171617262D

 31 34  0  0  0  0            999 V2000
    3.8916   -4.9570    0.0000 C   0  0
    3.8933   -3.7570    0.0000 O   0  0
    2.5951   -3.0039    0.0000 C   0  0
    2.5973   -1.5031    0.0000 C   0  0
    3.6375   -0.9049    0.0000 O   0  0
    1.2990   -0.7500    0.0000 N   0  0
    1.2990    0.7500    0.0000 C   0  0
    0.0000    1.5000    0.0000 C   0  0
   -1.2990    0.7500    0.0000 N   0  0
   -1.2990   -0.7500    0.0000 C   0  0
    0.0000   -1.5000    0.0000 C   0  0
   -2.5987    1.5004    0.0000 C   0  0
   -2.6012    3.0004    0.0000 C   0  0
   -3.9015    3.7484    0.0000 C   0  0
   -5.1993    2.9963    0.0000 C   0  0
   -6.5018    3.7420    0.0000 N   0  0
   -7.7993    2.9876    0.0000 C   0  0
   -9.1021    3.7310    0.0000 N   0  0
  -10.3974    2.9744    0.0000 C   0  0
  -10.3898    1.4745    0.0000 C   0  0
  -11.6873    0.7202    0.0000 C   0  0
  -11.6833   -0.4798    0.0000 N   0  0
  -12.7287    1.3164    0.0000 O   0  0
   -9.0870    0.7310    0.0000 C   0  0
   -9.0763   -0.7698    0.0000 N   0  0
   -7.7717   -1.5117    0.0000 C   0  0
   -7.0902   -2.7593    0.0000 C   0  0
   -6.3514   -1.4538    0.0000 C   0  0
   -7.7918    1.4876    0.0000 N   0  0
   -5.1969    1.4963    0.0000 C   0  0
   -3.8967    0.7484    0.0000 C   0  0
  1  2  1  0
  2  3  1  0
  3  4  1  0
  4  5  2  0
  4  6  1  0
  6  7  1  0
  7  8  1  0
  8  9  1  0
  9 10  1  0
 10 11  1  0
  6 11  1  0
  9 12  1  0
 12 13  2  0
 13 14  1  0
 14 15  2  0
 15 16  1  0
 16 17  1  0
 17 18  2  0
 18 19  1  0
 19 20  2  0
 20 21  1  0
 21 22  1  0
 21 23  2  0
 20 24  1  0
 24 25  1  0
 25 26  1  0
 26 27  1  0
 27 28  1  0
 26 28  1  0
 24 29  2  0
 17 29  1  0
 15 30  1  0
 30 31  2  0
 12 31  1  0
M  END