
  SciTegic01311317052D

 18 19  0  0  0  0            999 V2000
   14.2583  -10.5792    0.0000 N   0  0
   14.2583  -11.4042    0.0000 C   0  0
   14.9704  -11.8125    0.0000 C   0  0
   15.6824  -11.4042    0.0000 O   0  0
   15.6824  -10.5792    0.0000 C   0  0
   14.9704  -10.1625    0.0000 C   0  0
   13.5427  -10.1688    0.0000 C   0  0
   13.5402   -9.3438    0.0000 O   0  0
   12.8294  -10.5834    0.0000 C   0  0
   12.1137  -10.1729    0.0000 S   0  0
   11.4005  -10.5875    0.0000 C   0  0
   10.6855  -10.1738    0.0000 C   0  0
    9.9727  -10.5877    0.0000 C   0  0
    9.9747  -11.4136    0.0000 C   0  0
   10.6954  -11.8238    0.0000 C   0  0
   11.4052  -11.4076    0.0000 C   0  0
   14.9704  -12.6375    0.0000 C   0  0
   16.3980  -10.1688    0.0000 C   0  0
  7  9  1  0
  2  3  1  0
  9 10  1  0
  3  4  1  0
 10 11  1  0
  4  5  1  0
 11 12  2  0
  5  6  1  0
 12 13  1  0
 13 14  2  0
  1  7  1  0
 14 15  1  0
  1  2  1  0
 15 16  2  0
 16 11  1  0
  7  8  2  0
  3 17  1  0
  1  6  1  0
  5 18  1  0
M  END