
          11280715512D 1   1.00000     0.00000     0

 38 41  0     0  0            999 V2000
   -5.3514   -0.2875    0.0000 C   0  0  0  0  0  0           0  0  0
   -5.3526   -1.1148    0.0000 C   0  0  0  0  0  0           0  0  0
   -4.6378   -1.5277    0.0000 C   0  0  0  0  0  0           0  0  0
   -4.6396    0.1253    0.0000 C   0  0  0  0  0  0           0  0  0
   -3.9194   -1.1119    0.0000 C   0  0  0  0  0  0           0  0  0
   -3.9242   -0.2838    0.0000 C   0  0  0  0  0  0           0  0  0
   -3.2771    0.2421    0.0000 N   0  0  3  0  0  0           0  0  0
   -3.2631   -1.6264    0.0000 C   0  0  0  0  0  0           0  0  0
   -2.4649    0.0678    0.0000 C   0  0  0  0  0  0           0  0  0
   -2.4525   -1.4334    0.0000 N   0  0  0  0  0  0           0  0  0
   -2.1001   -0.6786    0.0000 N   0  0  3  0  0  0           0  0  0
   -1.9566    0.7176    0.0000 O   0  0  0  0  0  0           0  0  0
   -3.4396   -2.4323    0.0000 C   0  0  3  0  0  0           0  0  0
   -1.2752   -0.6713    0.0000 C   0  0  0  0  0  0           0  0  0
   -0.8563   -1.3820    0.0000 C   0  0  0  0  0  0           0  0  0
   -0.0313   -1.3747    0.0000 N   0  0  0  0  0  0           0  0  0
   -1.2624   -2.1001    0.0000 O   0  0  0  0  0  0           0  0  0
   -3.4696    1.0443    0.0000 C   0  0  0  0  0  0           0  0  0
   -2.8711    1.6121    0.0000 C   0  0  0  0  0  0           0  0  0
   -3.0636    2.4144    0.0000 C   0  0  3  0  0  0           0  0  0
   -2.0801    1.3778    0.0000 O   0  0  0  0  0  0           0  0  0
   -3.2833    3.2167    0.0000 C   0  0  0  0  0  0           0  0  0
   -2.2646    2.6196    0.0000 C   0  0  0  0  0  0           0  0  0
   -3.8609    2.2023    0.0000 C   0  0  0  0  0  0           0  0  0
    0.3875   -2.0854    0.0000 C   0  0  0  0  0  0           0  0  0
   -0.0205   -2.8013    0.0000 C   0  0  0  0  0  0           0  0  0
    0.3976   -3.5116    0.0000 C   0  0  0  0  0  0           0  0  0
    1.2235   -3.5046    0.0000 C   0  0  0  0  0  0           0  0  0
    1.6294   -2.7815    0.0000 C   0  0  0  0  0  0           0  0  0
    1.2089   -2.0742    0.0000 C   0  0  0  0  0  0           0  0  0
    2.4543   -2.7712    0.0000 N   0  0  3  0  0  0           0  0  0
    2.8579   -2.0517    0.0000 C   0  0  0  0  0  0           0  0  0
   -4.2233   -2.6820    0.0000 C   0  0  0  0  0  0           0  0  0
   -4.4009   -3.4840    0.0000 C   0  0  0  0  0  0           0  0  0
   -3.7938   -4.0431    0.0000 C   0  0  0  0  0  0           0  0  0
   -3.0062   -3.7946    0.0000 C   0  0  0  0  0  0           0  0  0
   -2.8256   -2.9869    0.0000 C   0  0  0  0  0  0           0  0  0
    2.8757   -3.4805    0.0000 C   0  0  0  0  0  0           0  0  0
  7  9  1  0     0  0
 18 19  1  0     0  0
  4  1  1  0     0  0
 19 20  1  0     0  0
  8 10  2  0     0  0
 19 21  2  0     0  0
 20 22  1  0     0  0
  9 11  1  0     0  0
 20 23  1  0     0  0
 10 11  1  0     0  0
 20 24  1  0     0  0
  2  3  1  0     0  0
 16 25  1  0     0  0
  9 12  2  0     0  0
 25 26  2  0     0  0
  5  6  1  0     0  0
 26 27  1  0     0  0
  8 13  1  0     0  0
 27 28  2  0     0  0
  3  5  2  0     0  0
 28 29  1  0     0  0
 11 14  1  0     0  0
 29 30  2  0     0  0
 30 25  1  0     0  0
  6  7  1  0     0  0
 29 31  1  0     0  0
 14 15  1  0     0  0
 31 32  1  0     0  0
 13 33  1  0     0  0
  1  2  2  0     0  0
 15 16  1  0     0  0
  5  8  1  0     0  0
 15 17  2  0     0  0
  6  4  2  0     0  0
 13 37  1  0     0  0
 33 34  1  0     0  0
 34 35  1  0     0  0
 35 36  1  0     0  0
 36 37  1  0     0  0
  7 18  1  0     0  0
 31 38  1  0     0  0
M  END