
  SciTegic03291108592D

 14 16  0  0  0  0            999 V2000
   -0.8260   -1.0482    0.0000 S   0  0
    0.6543   -0.7639    0.0000 N   0  0
    0.9789    0.6277    0.0000 N   0  0
   -0.0640    1.6046    0.0000 N   0  0
    0.5000    2.2067    0.0000 N   0  0
   -0.3886    0.2130    0.0000 C   0  0
   -1.2134    0.2293    0.0000 C   0  0
   -0.1492   -0.5765    0.0000 C   0  0
   -1.4838   -0.5502    0.0000 C   0  0
    0.1754    0.8151    0.0000 C   0  0
   -1.8712    0.7272    0.0000 C   0  0
   -2.3086   -0.5339    0.0000 C   0  0
    1.2183   -0.1618    0.0000 C   0  0
   -2.5480    0.2556    0.0000 C   0  0
  1  8  1  0
  1  9  1  0
  2  8  1  0
  2 13  2  0
  3 10  2  0
  3 13  1  0
  4  5  1  0
  4 10  1  0
  6  7  1  0
  6  8  2  0
  6 10  1  0
  7  9  2  0
  7 11  1  0
  9 12  1  0
 11 14  1  0
 12 14  1  0
M  END