
  Mrv0541 04051115152D          

 17 18  0  0  0  0            999 V2000
    1.5121   -0.8863    0.0000 C   0  0  0  0  0  0  0  0  0  0  0  0
    1.5121   -1.7113    0.0000 C   0  0  0  0  0  0  0  0  0  0  0  0
    0.7977   -0.4738    0.0000 C   0  0  0  0  0  0  0  0  0  0  0  0
    0.0832   -0.8863    0.0000 C   0  0  0  0  0  0  0  0  0  0  0  0
    0.0832   -1.7113    0.0000 C   0  0  0  0  0  0  0  0  0  0  0  0
    0.7977   -2.1238    0.0000 C   0  0  0  0  0  0  0  0  0  0  0  0
   -0.6313    2.0012    0.0000 C   0  0  0  0  0  0  0  0  0  0  0  0
   -1.3458    1.5887    0.0000 C   0  0  0  0  0  0  0  0  0  0  0  0
   -1.3458    0.7637    0.0000 C   0  0  0  0  0  0  0  0  0  0  0  0
   -0.6313    0.3512    0.0000 C   0  0  0  0  0  0  0  0  0  0  0  0
    0.0832    1.5887    0.0000 C   0  0  0  0  0  0  0  0  0  0  0  0
    0.0832    0.7637    0.0000 C   0  0  0  0  0  0  0  0  0  0  0  0
   -0.6313   -0.4738    0.0000 O   0  0  0  0  0  0  0  0  0  0  0  0
    2.2266   -2.1238    0.0000 Cl  0  0  0  0  0  0  0  0  0  0  0  0
   -0.6313    2.8262    0.0000 Cl  0  0  0  0  0  0  0  0  0  0  0  0
   -2.0602    0.3512    0.0000 Cl  0  0  0  0  0  0  0  0  0  0  0  0
    0.7977    0.3512    0.0000 O   0  0  0  0  0  0  0  0  0  0  0  0
  1  2  2  0  0  0  0
  1  3  1  0  0  0  0
  2  6  1  0  0  0  0
  2 14  1  0  0  0  0
  4  3  2  0  0  0  0
  3 17  1  0  0  0  0
  5  4  1  0  0  0  0
  4 13  1  0  0  0  0
  6  5  2  0  0  0  0
  8  7  2  0  0  0  0
  7 11  1  0  0  0  0
  7 15  1  0  0  0  0
  8  9  1  0  0  0  0
 10  9  2  0  0  0  0
  9 16  1  0  0  0  0
 12 10  1  0  0  0  0
 10 13  1  0  0  0  0
 11 12  2  0  0  0  0
M  END