
          11280715492D 1   1.00000     0.00000     0

 28 32  0     0  0            999 V2000
    2.8113  -17.9388    0.0000 N   0  0  0  0  0  0           0  0  0
    2.8101  -18.7662    0.0000 C   0  0  0  0  0  0           0  0  0
    3.5250  -19.1791    0.0000 C   0  0  0  0  0  0           0  0  0
    4.2415  -18.7658    0.0000 C   0  0  0  0  0  0           0  0  0
    4.2386  -17.9351    0.0000 C   0  0  0  0  0  0           0  0  0
    3.5232  -17.5260    0.0000 C   0  0  0  0  0  0           0  0  0
    4.9567  -19.1771    0.0000 C   0  0  0  0  0  0           0  0  0
    5.8481  -20.1730    0.0000 N   0  0  0  0  0  0           0  0  0
    6.2599  -19.4614    0.0000 C   0  0  0  0  0  0           0  0  0
    5.6991  -18.8390    0.0000 N   0  0  0  0  0  0           0  0  0
    5.0410  -19.9947    0.0000 C   0  0  0  0  0  0           0  0  0
    4.4253  -20.5427    0.0000 C   0  0  0  0  0  0           0  0  0
    3.7038  -20.1403    0.0000 C   0  0  0  0  0  0           0  0  0
    2.9966  -20.5637    0.0000 C   0  0  0  0  0  0           0  0  0
    4.4401  -21.3643    0.0000 C   0  0  0  0  0  0           0  0  0
    7.0846  -19.4418    0.0000 C   0  0  0  0  0  0           0  0  0
    7.5099  -20.1465    0.0000 C   0  0  0  0  0  0           0  0  0
    8.3339  -20.1273    0.0000 C   0  0  0  0  0  0           0  0  0
    8.7302  -19.4026    0.0000 C   0  0  0  0  0  0           0  0  0
    8.2963  -18.6958    0.0000 C   0  0  0  0  0  0           0  0  0
    7.4737  -18.7186    0.0000 C   0  0  0  0  0  0           0  0  0
    3.7359  -21.7901    0.0000 C   0  0  0  0  0  0           0  0  0
    3.0065  -21.3884    0.0000 C   0  0  0  0  0  0           0  0  0
    2.3991  -21.9579    0.0000 C   0  0  0  0  0  0           0  0  0
    2.7531  -22.7117    0.0000 C   0  0  0  0  0  0           0  0  0
    3.5792  -22.6079    0.0000 C   0  0  0  0  0  0           0  0  0
    1.5888  -21.8027    0.0000 N   0  0  0  0  0  0           0  0  0
    1.3181  -21.0233    0.0000 O   0  0  0  0  0  0           0  0  0
 13 14  2  0     0  0
 14 23  1  0     0  0
  4  7  1  0     0  0
 22 15  1  0     0  0
 15 12  2  0     0  0
 11 12  1  0     0  0
  3  4  1  0     0  0
  9 16  1  0     0  0
 16 17  2  0     0  0
  4  5  2  0     0  0
 17 18  1  0     0  0
  2  3  2  0     0  0
 18 19  2  0     0  0
  8  9  1  0     0  0
 19 20  1  0     0  0
  9 10  2  0     0  0
 20 21  2  0     0  0
 21 16  1  0     0  0
 22 23  2  0     0  0
 10  7  1  0     0  0
  7 11  2  0     0  0
 11  8  1  0     0  0
  5  6  1  0     0  0
  6  1  2  0     0  0
 23 24  1  0     0  0
 24 25  1  0     0  0
 25 26  1  0     0  0
 26 22  1  0     0  0
 12 13  1  0     0  0
 24 27  2  0     0  0
  1  2  1  0     0  0
 27 28  1  0     0  0
M  END