
          11280714492D 1   1.00000     0.00000     0

  7  7  0     0  0            999 V2000
   -0.8333   -2.5667    0.0000 N   0  0  0  0  0  0           0  0  0
   -0.3125   -2.8667    0.0000 C   0  0  0  0  0  0           0  0  0
   -1.3458   -2.8667    0.0000 C   0  0  0  0  0  0           0  0  0
   -0.3125   -3.4667    0.0000 C   0  0  3  0  0  0           0  0  0
    0.2042   -3.7667    0.0000 C   0  0  0  0  0  0           0  0  0
   -0.8333   -3.7667    0.0000 C   0  0  0  0  0  0           0  0  0
   -1.3458   -3.4667    0.0000 C   0  0  0  0  0  0           0  0  0
  2  1  1  0     0  0
  3  1  1  0     0  0
  4  2  1  0     0  0
  5  4  1  0     0  0
  6  7  1  0     0  0
  7  3  1  0     0  0
  6  4  1  0     0  0
M  END