
  CDK    5/12/10,14:52

 23 25  0  0  0  0  0  0  0  0999 V2000
   -1.5580    0.2793    0.0000 C   0  0  0  0  0  0  0  0  0  0  0  0
   -1.5594   -0.5474    0.0000 C   0  0  0  0  0  0  0  0  0  0  0  0
   -0.8472   -0.9597    0.0000 C   0  0  0  0  0  0  0  0  0  0  0  0
   -0.1288   -0.5468    0.0000 C   0  0  0  0  0  0  0  0  0  0  0  0
   -0.1318    0.2832    0.0000 C   0  0  0  0  0  0  0  0  0  0  0  0
   -0.8492    0.6916    0.0000 C   0  0  0  0  0  0  0  0  0  0  0  0
   -0.8530    1.5156    0.0000 C   0  0  0  0  0  0  0  0  0  0  0  0
   -0.8606    2.3438    0.0000 C   0  0  0  0  0  0  0  0  0  0  0  0
   -0.8652    3.1678    0.0000 C   0  0  0  0  0  0  0  0  0  0  0  0
   -0.1539    3.5838    0.0000 C   0  0  0  0  0  0  0  0  0  0  0  0
    0.5620    3.1757    0.0000 N   0  0  0  0  0  0  0  0  0  0  0  0
    0.5611    2.3474    0.0000 C   0  0  0  0  0  0  0  0  0  0  0  0
    1.2729    1.9395    0.0000 C   0  0  0  0  0  0  0  0  0  0  0  0
    1.9866    2.3519    0.0000 C   0  0  0  0  0  0  0  0  0  0  0  0
    1.9841    3.1769    0.0000 C   0  0  0  0  0  0  0  0  0  0  0  0
    1.2677    3.5895    0.0000 C   0  0  0  0  0  0  0  0  0  0  0  0
    0.5853   -0.9582    0.0000 C   0  0  0  0  0  0  0  0  0  0  0  0
    0.5761   -1.7865    0.0000 N   0  0  0  0  0  0  0  0  0  0  0  0
   -0.1357   -2.1969    0.0000 C   0  0  0  0  0  0  0  0  0  0  0  0
   -0.1361   -3.0251    0.0000 C   0  0  0  0  0  0  0  0  0  0  0  0
    0.5737   -3.4363    0.0000 O   0  0  0  0  0  0  0  0  0  0  0  0
    1.2894   -3.0272    0.0000 C   0  0  0  0  0  0  0  0  0  0  0  0
    1.2906   -2.2022    0.0000 C   0  0  0  0  0  0  0  0  0  0  0  0
 11 12  1  0  0  0  0 
  5  6  2  0  0  0  0 
  6  1  1  0  0  0  0 
  1  2  2  0  0  0  0 
  6  7  1  0  0  0  0 
  3  4  2  0  0  0  0 
 11 16  1  0  0  0  0 
 12 13  1  0  0  0  0 
 13 14  1  0  0  0  0 
 14 15  1  0  0  0  0 
 15 16  1  0  0  0  0 
  7  8  3  0  0  0  0 
  4 17  1  0  0  0  0 
 17 18  1  0  0  0  0 
  8  9  1  0  0  0  0 
 19 20  1  0  0  0  0 
  4  5  1  0  0  0  0 
  9 10  1  0  0  0  0 
  2  3  1  0  0  0  0 
 10 11  1  0  0  0  0 
 19 18  1  0  0  0  0 
 20 21  1  0  0  0  0 
 21 22  1  0  0  0  0 
 22 23  1  0  0  0  0 
 23 18  1  0  0  0  0 
M  END