
  SciTegic11201309402D

 64 68  0  0  1  0            999 V2000
   -2.0116   -1.7391    0.0000 N   0  0
   -1.2930   -1.3254    0.0000 C   0  0  2  0  0  0
   -0.5792   -1.7391    0.0000 C   0  0
   -1.2930   -0.4982    0.0000 C   0  0
   -0.5792   -0.0846    0.0000 C   0  0
   -0.5792    0.7426    0.0000 C   0  0
    0.1394    1.1610    0.0000 N   0  0
    0.1394    1.9881    0.0000 C   0  0
    0.8580    2.3970    0.0000 N   0  0
   -0.5792    2.3970    0.0000 N   0  0
   -0.5792   -2.5662    0.0000 N   0  0
    0.1394   -1.3254    0.0000 O   0  0
    0.1394   -2.9799    0.0000 C   0  0  2  0  0  0
    0.1394   -3.8071    0.0000 C   0  0
    0.8580   -2.5662    0.0000 C   0  0
    1.5718   -2.9799    0.0000 C   0  0
    1.6647   -3.8000    0.0000 C   0  0
    2.4734   -3.9711    0.0000 N   0  0
    2.3303   -2.6427    0.0000 C   0  0
    2.8830   -3.2583    0.0000 C   0  0
    3.6885   -3.0857    0.0000 C   0  0
    3.9470   -2.3027    0.0000 C   0  0
    3.3939   -1.6923    0.0000 C   0  0
    2.5905   -1.8634    0.0000 C   0  0
   -0.5792   -4.2253    0.0000 N   0  0
    0.8580   -4.2253    0.0000 O   0  0
   -0.5792   -5.0526    0.0000 C   0  0  2  0  0  0
   -2.7303   -1.3254    0.0000 C   0  0
   -3.4488   -1.7391    0.0000 C   0  0  1  0  0  0
   -2.7303   -0.4982    0.0000 O   0  0
   -4.1580   -1.3254    0.0000 C   0  0
   -4.1580   -0.4982    0.0000 C   0  0
   -3.4456   -0.0878    0.0000 C   0  0
   -3.4453    0.7386    0.0000 C   0  0
   -4.8728   -0.0901    0.0000 C   0  0
   -3.4488   -2.5662    0.0000 N   0  0
   -4.1580   -2.9799    0.0000 C   0  0
   -4.1580   -3.8023    0.0000 C   0  0  1  0  0  0
   -4.8718   -2.5662    0.0000 O   0  0
   -4.8718   -4.2160    0.0000 N   0  0
   -3.4488   -4.2160    0.0000 C   0  0
   -3.4488   -5.0385    0.0000 C   0  0
   -4.1580   -5.4474    0.0000 C   0  0
   -4.1580   -6.2746    0.0000 C   0  0
   -1.2883   -5.4615    0.0000 C   0  0
   -1.2883   -6.2840    0.0000 N   0  0
   -2.0022   -5.0526    0.0000 O   0  0
    0.1347   -5.4615    0.0000 C   0  0
    0.1347   -6.2840    0.0000 C   0  0
    0.8485   -6.6976    0.0000 C   0  0
   -3.4488   -6.6835    0.0000 C   0  0
   -3.4488   -7.5061    0.0000 C   0  0
   -2.7349   -6.2746    0.0000 O   0  0
   -2.7349   -7.9196    0.0000 C   0  0
   -2.0211   -7.5061    0.0000 C   0  0
    0.8485   -7.5202    0.0000 C   0  0
    0.1347   -7.9337    0.0000 N   0  0
   -2.0211   -6.6835    0.0000 O   0  0
   -4.8771    0.7255    0.0000 C   0  0
   -4.1541    1.1553    0.0000 C   0  0
   -4.1646    1.9919    0.0000 C   0  0
   -4.8973    2.3995    0.0000 C   0  0
   -5.6209    1.9692    0.0000 C   0  0
   -5.6068    1.1342    0.0000 C   0  0
 15 16  1  0
 31 32  1  0
 16 17  2  0
 32 33  2  0
 33 34  1  0
 34 60  2  0
  8  9  2  0
 59 35  2  0
 35 32  1  0
 17 18  1  0
 29 36  1  0
 18 20  1  0
 36 37  1  0
 19 16  1  0
 37 38  1  0
  4  5  1  0
 37 39  2  0
  8 10  1  0
 38 40  1  6
 19 20  2  0
 38 41  1  0
  2  3  1  0
 41 42  1  0
 20 21  1  0
 42 43  1  0
  3 11  1  0
 43 44  1  0
 21 22  2  0
 27 45  1  1
  5  6  1  0
 45 46  1  0
 22 23  1  0
 45 47  2  0
  3 12  2  0
 27 48  1  0
 23 24  2  0
 48 49  1  0
 24 19  1  0
 49 50  1  0
  1  2  1  0
 44 51  1  0
 14 25  1  0
 51 52  1  0
 11 13  1  0
 51 53  2  0
 14 26  2  0
 52 54  1  0
  6  7  1  0
 54 55  1  0
 25 27  1  0
 50 56  1  0
 13 14  1  0
 56 57  1  0
  1 28  1  0
 55 58  2  0
 55 57  1  0
  2  4  1  1
 28 29  1  0
 59 60  1  0
 13 15  1  1
 60 61  1  0
 28 30  2  0
 61 62  2  0
  7  8  1  0
 62 63  1  0
 29 31  1  6
 63 64  2  0
 64 59  1  0
M  END