
  SciTegic01161211252D

 18 19  0  0  0  0            999 V2000
    5.9750   -4.6917    0.0000 C   0  0
    6.5667   -4.6917    0.0000 C   0  0
    6.1250   -4.1125    0.0000 C   0  0
    5.6750   -5.2042    0.0000 C   0  0
    6.5667   -7.7875    0.0000 N   0  0
    5.9750   -5.7167    0.0000 C   0  0
    6.5667   -5.7167    0.0000 O   0  0
    6.8667   -7.2667    0.0000 C   0  0
    6.5667   -6.7542    0.0000 C   0  0
    6.8667   -6.2375    0.0000 C   0  0
    6.8667   -8.3042    0.0000 C   0  0
    5.9750   -6.7542    0.0000 O   0  0
    5.0792   -5.2042    0.0000 C   0  0
    5.6750   -6.2292    0.0000 C   0  0
    7.4625   -8.3042    0.0000 C   0  0
    6.5667   -8.8167    0.0000 C   0  0
    4.7792   -5.7167    0.0000 C   0  0
    5.0792   -6.2292    0.0000 C   0  0
  2  1  1  0
  3  1  1  0
  4  1  1  0
  5  8  1  0
  6  4  2  0
  7  6  1  0
  8  9  1  0
  9 10  1  0
 10  7  1  0
 11  5  1  0
 12  9  1  0
 13  4  1  0
 14  6  1  0
 15 11  1  0
 16 11  1  0
 17 13  2  0
 18 17  1  0
  2  3  1  0
 14 18  2  0
M  END