
  SciTegic03291108552D

 23 26  0  0  0  0            999 V2000
   -2.6041    1.0444    0.0000 Cl  0  0
   -0.9902   -0.6335    0.0000 S   0  0
    0.5089    1.6840    0.0000 S   0  0
    0.5089   -0.7910    0.0000 N   0  0
    1.2234    0.4465    0.0000 N   0  0
    1.3096    2.9169    0.0000 N   0  0
    1.9771    1.7609    0.0000 N   0  0
    2.1166    3.0885    0.0000 N   0  0
    2.5291    2.3740    0.0000 N   0  0
   -0.2055    0.4465    0.0000 C   0  0
   -0.9902    0.7014    0.0000 C   0  0
   -0.2055   -0.3785    0.0000 C   0  0
    0.5089    0.8590    0.0000 C   0  0
   -1.2451    1.4860    0.0000 C   0  0
   -1.4751    0.0340    0.0000 C   0  0
    1.2234    2.0965    0.0000 C   0  0
   -2.0521    1.6575    0.0000 C   0  0
    1.2234   -0.3785    0.0000 C   0  0
   -0.6931    2.0991    0.0000 C   0  0
   -2.3070    2.4422    0.0000 C   0  0
   -0.9480    2.8837    0.0000 C   0  0
   -1.7550    3.0553    0.0000 C   0  0
    0.6965    3.4690    0.0000 C   0  0
  1 17  1  0
  2 12  1  0
  2 15  1  0
  3 13  1  0
  3 16  1  0
  4 12  1  0
  4 18  2  0
  5 13  2  0
  5 18  1  0
  6  8  1  0
  6 16  1  0
  6 23  1  0
  7  9  1  0
  7 16  2  0
  8  9  2  0
 10 11  1  0
 10 12  2  0
 10 13  1  0
 11 14  1  0
 11 15  2  0
 14 17  1  0
 14 19  2  0
 17 20  2  0
 19 21  1  0
 20 22  1  0
 21 22  2  0
M  END