
          08180812492D 1   1.00000     0.00000     0

 29 32  0     0  0            999 V2000
   -0.0306  -16.2958    0.0000 C   0  0  0  0  0  0           0  0  0
   -0.0318  -17.1232    0.0000 C   0  0  0  0  0  0           0  0  0
    0.6831  -17.5360    0.0000 C   0  0  0  0  0  0           0  0  0
    1.3995  -17.1227    0.0000 C   0  0  0  0  0  0           0  0  0
    1.3966  -16.2922    0.0000 C   0  0  0  0  0  0           0  0  0
    0.6813  -15.8830    0.0000 C   0  0  0  0  0  0           0  0  0
   -0.7464  -17.5348    0.0000 C   0  0  0  0  0  0           0  0  0
   -1.4889  -17.1752    0.0000 N   0  0  3  0  0  0           0  0  0
   -0.7472  -18.3601    0.0000 O   0  0  0  0  0  0           0  0  0
    2.1096  -15.8770    0.0000 O   0  0  0  0  0  0           0  0  0
    2.1064  -15.0520    0.0000 C   0  0  0  0  0  0           0  0  0
    2.8211  -14.6416    0.0000 C   0  0  0  0  0  0           0  0  0
    2.8184  -13.8174    0.0000 C   0  0  0  0  0  0           0  0  0
    2.1018  -13.4068    0.0000 C   0  0  0  0  0  0           0  0  0
    1.3865  -13.8264    0.0000 C   0  0  0  0  0  0           0  0  0
    1.3928  -14.6492    0.0000 C   0  0  0  0  0  0           0  0  0
    2.1146  -17.5341    0.0000 C   0  0  0  0  0  0           0  0  0
    2.8284  -17.1204    0.0000 N   0  0  0  0  0  0           0  0  0
    3.5436  -17.5318    0.0000 C   0  0  0  0  0  0           0  0  0
   -2.1328  -17.6879    0.0000 C   0  0  0  0  0  0           0  0  0
   -2.9390  -17.5038    0.0000 C   0  0  0  0  0  0           0  0  0
   -1.4881  -16.3511    0.0000 C   0  0  0  0  0  0           0  0  0
   -3.2991  -16.7630    0.0000 C   0  0  0  0  0  0           0  0  0
   -2.1343  -15.8360    0.0000 C   0  0  0  0  0  0           0  0  0
   -2.9391  -16.0220    0.0000 N   0  0  3  0  0  0           0  0  0
   -3.4532  -15.3768    0.0000 C   0  0  3  0  0  0           0  0  0
   -3.5784  -14.5578    0.0000 C   0  0  0  0  0  0           0  0  0
   -4.2236  -15.0719    0.0000 C   0  0  0  0  0  0           0  0  0
    3.5315  -13.4025    0.0000 F   0  0  0  0  0  0           0  0  0
  2  7  1  0     0  0
 14 15  1  0     0  0
  3  4  2  0     0  0
 15 16  2  0     0  0
 16 11  1  0     0  0
  7  8  1  0     0  0
  4 17  1  0     0  0
 17 18  1  0     0  0
  7  9  2  0     0  0
 18 19  1  0     0  0
  4  5  1  0     0  0
  8 20  1  0     0  0
  5 10  1  0     0  0
 20 21  1  0     0  0
  2  3  1  0     0  0
  8 22  1  0     0  0
 10 11  1  0     0  0
 21 23  1  0     0  0
  5  6  2  0     0  0
 22 24  1  0     0  0
 11 12  2  0     0  0
 23 25  1  0     0  0
 24 25  1  0     0  0
  6  1  1  0     0  0
 25 26  1  0     0  0
 27 26  1  0     0  0
 28 27  1  0     0  0
 26 28  1  0     0  0
 12 13  1  0     0  0
  1  2  2  0     0  0
 13 14  2  0     0  0
 13 29  1  0     0  0
M  END