
          11280715072D 1   1.00000     0.00000     0

 25 27  0     0  0            999 V2000
    2.8667   -2.8542    0.0000 N   0  0  0  0  0  0           0  0  0
    2.3500   -3.1542    0.0000 C   0  0  3  0  0  0           0  0  0
    3.3917   -3.1542    0.0000 C   0  0  0  0  0  0           0  0  0
    3.9042   -2.8542    0.0000 C   0  0  0  0  0  0           0  0  0
    3.3917   -3.7542    0.0000 O   0  0  0  0  0  0           0  0  0
    1.8292   -2.8542    0.0000 C   0  0  0  0  0  0           0  0  0
    2.3500   -3.7542    0.0000 C   0  0  3  0  0  0           0  0  0
    4.9500   -2.8500    0.0000 N   0  0  0  0  0  0           0  0  0
    4.4292   -3.1542    0.0000 C   0  0  0  0  0  0           0  0  0
    5.4667   -3.1500    0.0000 C   0  0  3  0  0  0           0  0  0
    1.8292   -2.2542    0.0000 C   0  0  0  0  0  0           0  0  0
    1.3125   -3.1542    0.0000 C   0  0  0  0  0  0           0  0  0
    1.8375   -4.0542    0.0000 C   0  0  0  0  0  0           0  0  0
    2.8667   -4.0542    0.0000 C   0  0  0  0  0  0           0  0  0
    5.4625   -3.7417    0.0000 C   0  0  0  0  0  0           0  0  0
    5.9792   -2.8500    0.0000 C   0  0  0  0  0  0           0  0  0
    0.7917   -2.8625    0.0000 C   0  0  0  0  0  0           0  0  0
    1.3125   -1.9542    0.0000 C   0  0  0  0  0  0           0  0  0
    2.8667   -4.6542    0.0000 C   0  0  0  0  0  0           0  0  0
    1.8375   -4.6542    0.0000 C   0  0  0  0  0  0           0  0  0
    6.5000   -3.1500    0.0000 C   0  0  0  0  0  0           0  0  0
    5.9792   -4.0417    0.0000 C   0  0  0  0  0  0           0  0  0
    6.4917   -3.7500    0.0000 C   0  0  0  0  0  0           0  0  0
    2.3500   -4.9542    0.0000 C   0  0  0  0  0  0           0  0  0
    0.7917   -2.2542    0.0000 C   0  0  0  0  0  0           0  0  0
  2  1  1  0     0  0
  3  1  1  0     0  0
  4  3  1  0     0  0
  5  3  2  0     0  0
  6  2  1  0     0  0
  7  2  1  0     0  0
  8  9  1  0     0  0
  9  4  1  0     0  0
 10  8  1  0     0  0
 11  6  2  0     0  0
 12  6  1  0     0  0
 13  7  1  0     0  0
 14  7  1  0     0  0
 15 10  1  0     0  0
 16 10  1  0     0  0
 17 12  2  0     0  0
 18 11  1  0     0  0
 19 14  1  0     0  0
 20 13  1  0     0  0
 21 16  1  0     0  0
 22 15  1  0     0  0
 23 21  1  0     0  0
 24 19  1  0     0  0
 25 17  1  0     0  0
 20 24  1  0     0  0
 18 25  2  0     0  0
 22 23  1  0     0  0
M  END