
  SciTegic03161210572D

 35 36  0  0  0  0            999 V2000
    1.5729  -17.9549    0.0000 F   0  0
    1.9890  -18.6706    0.0000 C   0  0
    2.4008  -17.9524    0.0000 F   0  0
    1.6810  -19.7940    0.0000 F   0  0
    1.2733  -19.0825    0.0000 C   0  0
    0.8609  -19.7914    0.0000 F   0  0
    0.1456  -17.9549    0.0000 F   0  0
    0.5617  -18.6706    0.0000 C   0  0
    0.9735  -17.9524    0.0000 F   0  0
    0.2539  -19.7940    0.0000 F   0  0
   -0.1540  -19.0825    0.0000 C   0  0
   -0.5662  -19.7914    0.0000 F   0  0
   -1.2816  -17.9549    0.0000 F   0  0
   -0.8655  -18.6706    0.0000 C   0  0
   -0.4537  -17.9524    0.0000 F   0  0
   -1.1734  -19.7940    0.0000 F   0  0
   -1.5812  -19.0825    0.0000 C   0  0
   -1.9935  -19.7914    0.0000 F   0  0
   -3.0042  -19.0867    0.0000 N   0  0
   -2.2908  -18.6748    0.0000 C   0  0
   -2.2908  -17.8509    0.0000 O   0  0
    2.7037  -19.0867    0.0000 C   0  0
    3.4173  -18.6748    0.0000 N   0  0
    2.7037  -19.9106    0.0000 O   0  0
    4.1308  -19.0867    0.0000 O   0  0
   -3.7178  -18.6748    0.0000 C   0  0
   -3.7128  -17.8498    0.0000 C   0  0
   -4.4255  -17.4379    0.0000 C   0  0
   -4.4241  -19.0862    0.0000 C   0  0
   -5.1374  -18.6781    0.0000 C   0  0
   -5.1426  -17.8509    0.0000 C   0  0
   -5.8606  -17.4436    0.0000 C   0  0
   -6.5736  -17.8626    0.0000 C   0  0
   -6.5643  -18.6928    0.0000 C   0  0
   -5.8458  -19.0964    0.0000 C   0  0
  8  7  1  0
 20 21  2  0
 17 14  1  0
 14 11  1  0
 11  8  1  0
  8  5  1  0
  5  2  1  0
 14 13  1  0
  2 22  1  0
 15 14  1  0
 22 23  1  0
  9  8  1  0
 22 24  2  0
  5  4  1  0
 23 25  1  0
  6  5  1  0
 19 26  1  0
 17 16  1  0
 26 27  2  0
 18 17  1  0
 27 28  1  0
 28 31  2  0
 30 29  2  0
 29 26  1  0
 11 10  1  0
 12 11  1  0
 30 31  1  0
  2  1  1  0
 31 32  1  0
  3  2  1  0
 32 33  2  0
 19 20  1  0
 33 34  1  0
 20 17  1  0
 34 35  2  0
 35 30  1  0
M  END