
  SciTegic02271514512D

 34 38  0  0  0  0            999 V2000
    4.2834    0.1170    0.0000 N   0  0
    2.4623   -1.0527    0.0000 C   0  0
    3.2570   -0.8613    0.0000 N   0  0
    3.4886   -0.0773    0.0000 C   0  0
    2.9255    0.5165    0.0000 C   0  0
    2.1308    0.3282    0.0000 C   0  0
    1.8991   -0.4601    0.0000 N   0  0
    3.1571    1.3009    0.0000 F   0  0
    1.4823   -2.9273    0.0000 C   0  0
    1.4603   -2.1101    0.0000 C   0  0
    0.7416   -1.7205    0.0000 C   0  0
    0.0449   -2.1482    0.0000 C   0  0
    0.0669   -2.9653    0.0000 C   0  0
    0.7856   -3.3549    0.0000 N   0  0
    2.2662   -3.1589    0.0000 N   0  0
    2.2307   -1.8367    0.0000 C   0  0
    2.7288   -2.4848    0.0000 C   0  0
   -0.6799   -1.7586    0.0000 F   0  0
    4.8463   -0.4783    0.0000 C   0  0  1  0  0  0
    4.6115   -1.2625    0.0000 C   0  0
    5.1705   -1.8537    0.0000 C   0  0
    5.9663   -1.6664    0.0000 C   0  0
    6.2000   -0.8823    0.0000 C   0  0  2  0  0  0
    5.6379   -0.2855    0.0000 C   0  0
    6.9951   -0.6937    0.0000 N   0  0
    7.5561   -1.2879    0.0000 C   0  0
    7.3219   -2.0709    0.0000 O   0  0
    8.3512   -1.0993    0.0000 N   0  0
    8.9121   -1.6936    0.0000 C   0  0
    8.6734   -2.4792    0.0000 C   0  0
    9.2305   -3.0723    0.0000 C   0  0
   10.0269   -2.8877    0.0000 O   0  0
   10.2632   -2.1044    0.0000 C   0  0
    9.7032   -1.5057    0.0000 C   0  0
  2  3  1  0
  3  4  2  0
  4  5  1  0
  5  6  2  0
  6  7  1  0
  2  7  2  0
  5  8  1  0
  9 10  1  0
 10 11  2  0
 11 12  1  0
 12 13  2  0
 13 14  1  0
  9 14  2  0
 16 17  2  0
 15 17  1  0
  9 15  1  0
 10 16  1  0
 12 18  1  0
  2 16  1  0
  1  4  1  0
 19  1  1  6
 19 20  1  0
 19 24  1  0
 20 21  1  0
 21 22  1  0
 22 23  1  0
 23 24  1  0
 23 25  1  6
 25 26  1  0
 26 27  2  0
 26 28  1  0
 28 29  1  0
 29 30  1  0
 29 34  1  0
 30 31  1  0
 31 32  1  0
 32 33  1  0
 33 34  1  0
M  END