
  SciTegic10311316212D

 26 28  0  0  0  0            999 V2000
    0.9891  -29.1382    0.0000 C   0  0
    0.9880  -29.9577    0.0000 C   0  0
    1.6960  -30.3667    0.0000 C   0  0
    2.4057  -29.9573    0.0000 C   0  0
    2.4028  -29.1346    0.0000 C   0  0
    1.6942  -28.7293    0.0000 C   0  0
    1.6860  -27.9112    0.0000 N   0  0
    2.3456  -27.4289    0.0000 C   0  0
    2.0908  -26.6525    0.0000 N   0  0
    1.2735  -26.6549    0.0000 N   0  0
    1.0235  -27.4329    0.0000 C   0  0
    3.1236  -27.6791    0.0000 S   0  0
    3.7292  -27.1305    0.0000 C   0  0
    4.5072  -27.3807    0.0000 C   0  0
    5.1128  -26.8320    0.0000 O   0  0
    4.6795  -28.1795    0.0000 O   0  0
    0.2466  -27.6918    0.0000 C   0  0
   -0.3641  -27.1451    0.0000 C   0  0
   -1.1401  -27.3994    0.0000 C   0  0
   -1.3105  -28.2000    0.0000 C   0  0
   -0.6944  -28.7458    0.0000 C   0  0
    0.0811  -28.4886    0.0000 C   0  0
    1.6958  -31.1839    0.0000 Cl  0  0
    3.1140  -30.3647    0.0000 Cl  0  0
   -2.0862  -28.4559    0.0000 O   0  0
   -2.2500  -29.2560    0.0000 C   0  0
  1  2  2  0
  2  3  1  0
  3  4  2  0
  4  5  1  0
  5  6  2  0
  6  1  1  0
  7  8  1  0
  8  9  2  0
  9 10  1  0
 10 11  2  0
 11  7  1  0
  6  7  1  0
  8 12  1  0
 12 13  1  0
 13 14  1  0
 14 15  1  0
 14 16  2  0
 17 18  2  0
 18 19  1  0
 19 20  2  0
 20 21  1  0
 21 22  2  0
 22 17  1  0
 11 17  1  0
  3 23  1  0
  4 24  1  0
 20 25  1  0
 25 26  1  0
M  END