
  Mrv0541 04051115152D          

 22 23  0  0  0  0            999 V2000
    0.4152    0.9278    0.0000 N   0  0  0  0  0  0  0  0  0  0  0  0
   -0.0697    1.5952    0.0000 C   0  0  0  0  0  0  0  0  0  0  0  0
    0.4152    2.2627    0.0000 N   0  0  0  0  0  0  0  0  0  0  0  0
    1.1998    2.0077    0.0000 C   0  0  0  0  0  0  0  0  0  0  0  0
    1.9143    2.4202    0.0000 C   0  0  0  0  0  0  0  0  0  0  0  0
    1.9143    3.2452    0.0000 O   0  0  0  0  0  0  0  0  0  0  0  0
    2.6288    2.0077    0.0000 N   0  0  0  0  0  0  0  0  0  0  0  0
    2.6288    1.1827    0.0000 C   0  0  0  0  0  0  0  0  0  0  0  0
    3.3432    0.7702    0.0000 N   0  0  0  0  0  0  0  0  0  0  0  0
    1.9143    0.7702    0.0000 N   0  0  0  0  0  0  0  0  0  0  0  0
    1.1998    1.1827    0.0000 C   0  0  0  0  0  0  0  0  0  0  0  0
    0.1603    0.1432    0.0000 C   0  0  0  0  0  0  0  0  0  0  0  0
   -0.6467   -0.0284    0.0000 C   0  0  0  0  0  0  0  0  0  0  0  0
   -0.9016   -0.8130    0.0000 C   0  0  0  0  0  0  0  0  0  0  0  0
   -1.7086   -0.9845    0.0000 C   0  0  0  0  0  0  0  0  0  0  0  0
   -1.9636   -1.7691    0.0000 C   0  0  0  0  0  0  0  0  0  0  0  0
   -2.7482   -1.5142    0.0000 F   0  0  0  0  0  0  0  0  0  0  0  0
   -1.1789   -2.0241    0.0000 F   0  0  0  0  0  0  0  0  0  0  0  0
   -2.2185   -2.5538    0.0000 P   0  0  0  0  0  0  0  0  0  0  0  0
   -2.4734   -3.3384    0.0000 O   0  0  0  0  0  0  0  0  0  0  0  0
   -3.0031   -2.2988    0.0000 O   0  0  0  0  0  0  0  0  0  0  0  0
   -1.4339   -2.8087    0.0000 O   0  0  0  0  0  0  0  0  0  0  0  0
  2  1  1  0  0  0  0
 11  1  1  0  0  0  0
 12  1  1  0  0  0  0
  2  3  2  0  0  0  0
  4  3  1  0  0  0  0
  4  5  1  0  0  0  0
 11  4  2  0  0  0  0
  5  6  2  0  0  0  0
  5  7  1  0  0  0  0
  8  7  1  0  0  0  0
  8  9  1  0  0  0  0
  8 10  2  0  0  0  0
 11 10  1  0  0  0  0
 12 13  1  0  0  0  0
 13 14  1  0  0  0  0
 14 15  1  0  0  0  0
 15 16  1  0  0  0  0
 16 17  1  0  0  0  0
 16 18  1  0  0  0  0
 16 19  1  0  0  0  0
 20 19  1  0  0  0  0
 21 19  2  0  0  0  0
 22 19  1  0  0  0  0
M  END