
          03140815512D 1   1.00000     0.00000     0

 20 21  0     0  0            999 V2000
   11.1750  -11.1833    0.0000 N   0  0  3  0  0  0           0  0  0
   11.1750  -12.0083    0.0000 C   0  0  0  0  0  0           0  0  0
   11.8870  -12.4167    0.0000 C   0  0  0  0  0  0           0  0  0
   12.5990  -12.0083    0.0000 O   0  0  0  0  0  0           0  0  0
   12.5990  -11.1833    0.0000 C   0  0  0  0  0  0           0  0  0
   11.8870  -10.7667    0.0000 C   0  0  0  0  0  0           0  0  0
   10.4593  -10.7729    0.0000 C   0  0  0  0  0  0           0  0  0
   10.4569   -9.9479    0.0000 O   0  0  0  0  0  0           0  0  0
    9.7461  -11.1875    0.0000 C   0  0  0  0  0  0           0  0  0
    9.0304  -10.7771    0.0000 O   0  0  0  0  0  0           0  0  0
    8.3171  -11.1917    0.0000 C   0  0  0  0  0  0           0  0  0
    7.6022  -10.7780    0.0000 C   0  0  0  0  0  0           0  0  0
    6.8894  -11.1919    0.0000 C   0  0  0  0  0  0           0  0  0
    6.8914  -12.0178    0.0000 C   0  0  0  0  0  0           0  0  0
    7.6121  -12.4280    0.0000 C   0  0  0  0  0  0           0  0  0
    8.3219  -12.0117    0.0000 C   0  0  0  0  0  0           0  0  0
    6.1787  -12.4333    0.0000 C   0  0  3  0  0  0           0  0  0
    5.4624  -12.0238    0.0000 C   0  0  0  0  0  0           0  0  0
    6.1822  -13.2583    0.0000 C   0  0  0  0  0  0           0  0  0
    7.6174  -13.2530    0.0000 C   0  0  0  0  0  0           0  0  0
  9 10  1  0     0  0
  3  4  1  0     0  0
 10 11  1  0     0  0
  4  5  1  0     0  0
 11 12  2  0     0  0
  5  6  1  0     0  0
 12 13  1  0     0  0
 13 14  2  0     0  0
  1  7  1  0     0  0
 14 15  1  0     0  0
  1  2  1  0     0  0
 15 16  2  0     0  0
 16 11  1  0     0  0
  7  8  2  0     0  0
 14 17  1  0     0  0
  1  6  1  0     0  0
 17 18  1  0     0  0
  7  9  1  0     0  0
 17 19  1  0     0  0
  2  3  1  0     0  0
 15 20  1  0     0  0
M  END