
  SciTegic01181116592D

 23 24  0  0  0  0            999 V2000
   14.5274   -8.1912    0.0000 C   0  0
   14.5267   -7.3662    0.0000 C   0  0
   13.8154   -6.9532    0.0000 C   0  0
   13.1049   -7.3654    0.0000 C   0  0
   13.1056   -8.1905    0.0000 C   0  0
   13.8168   -8.5992    0.0000 C   0  0
   15.2427   -8.6124    0.0000 S   0  0
   14.8215   -9.3319    0.0000 O   0  0
   15.6639   -7.8970    0.0000 O   0  0
   15.9623   -9.0377    0.0000 N   0  0
   12.3853   -6.9484    0.0000 C   0  0
   12.3920   -6.1209    0.0000 N   0  0
   10.2589   -5.7113    0.0000 C   0  0
   10.9744   -6.1201    0.0000 N   0  0
   11.6807   -5.7121    0.0000 C   0  0
   11.6800   -4.8871    0.0000 C   0  0
   10.9730   -4.4742    0.0000 C   0  0
   10.2582   -4.8863    0.0000 N   0  0
    9.5443   -6.1318    0.0000 S   0  0
    9.5461   -6.9544    0.0000 C   0  0
   12.3990   -4.4625    0.0000 C   0  0
   13.1178   -4.0420    0.0000 N   0  0
   10.9723   -3.6532    0.0000 Cl  0  0
  1  2  1  0
  2  3  2  0
  3  4  1  0
  4  5  2  0
  5  6  1  0
  1  6  2  0
  7  8  2  0
  7  9  2  0
  7 10  1  0
  1  7  1  0
 13 14  1  0
 14 15  2  0
 15 16  1  0
 16 17  2  0
 17 18  1  0
 13 18  2  0
 19 20  1  0
 13 19  1  0
 21 22  3  0
 16 21  1  0
 17 23  1  0
 12 15  1  0
 11 12  1  0
  4 11  1  0
M  END