
  SciTegic12011114592D

 41 45  0  0  0  0            999 V2000
   -4.0174  -10.5962    0.0000 N   0  0
   -3.3021  -10.1865    0.0000 C   0  0
   -3.2992   -9.3606    0.0000 N   0  0
   -4.0176   -8.9461    0.0000 C   0  0
   -4.0181   -8.1211    0.0000 N   0  0
   -3.3034   -7.7079    0.0000 C   0  0
   -2.5890  -10.6014    0.0000 S   0  0
   -1.8731  -10.1914    0.0000 C   0  0
   -1.1642  -10.6094    0.0000 C   0  0
   -0.4487  -10.2000    0.0000 C   0  0
   -0.4455   -9.3742    0.0000 C   0  0
   -1.1636   -8.9593    0.0000 C   0  0
   -1.8761   -9.3711    0.0000 C   0  0
    0.2699   -8.9631    0.0000 N   0  0
   -2.5177   -7.9562    0.0000 C   0  0
   -2.0385   -7.2844    0.0000 C   0  0
   -2.5293   -6.6212    0.0000 N   0  0
   -3.3117   -6.8830    0.0000 N   0  0
   -1.2135   -7.2772    0.0000 C   0  0
   -5.5043   -9.1069    0.0000 C   0  0
   -5.9853   -9.7682    0.0000 C   0  0
   -5.5051  -10.4299    0.0000 C   0  0
   -4.7273  -10.1778    0.0000 N   0  0
   -4.7267   -9.3601    0.0000 C   0  0
    0.9836   -9.3771    0.0000 C   0  0
    1.6989   -8.9660    0.0000 C   0  0
    2.4126   -9.3806    0.0000 N   0  0
    0.9819  -10.2021    0.0000 O   0  0
    2.4039  -10.2010    0.0000 C   0  0
    3.1858  -10.4644    0.0000 C   0  0  1  0  0  0
    3.6780   -9.8022    0.0000 C   0  0  2  0  0  0
    3.2002   -9.1296    0.0000 C   0  0
    4.5030   -9.8111    0.0000 O   0  0
    3.4322  -11.2519    0.0000 O   0  0
    4.2373  -11.4321    0.0000 C   0  0
    4.4837  -12.2196    0.0000 C   0  0
    4.2295  -10.6049    0.0000 C   0  0
    5.0587  -11.4300    0.0000 C   0  0
    5.2889  -12.3998    0.0000 F   0  0
    3.9251  -12.8267    0.0000 F   0  0
    4.6961  -13.0134    0.0000 F   0  0
 16 19  1  0
 23 24  1  0
  8  9  2  0
  4 24  1  0
 21 22  2  0
  9 10  1  0
  1  2  2  0
 10 11  2  0
 20 21  1  0
 22 23  1  0
 24 20  2  0
  4  5  1  0
 14 25  1  0
 11 12  1  0
 25 26  1  0
 23  1  1  0
 26 27  1  0
 12 13  2  0
 25 28  2  0
 27 29  1  0
 13  8  1  0
  5  6  1  0
 11 14  1  0
 17 18  1  0
 29 30  1  0
 30 31  1  0
 31 32  1  0
 32 27  1  0
  2  3  1  0
 31 33  1  6
 15 16  2  0
 30 34  1  1
  2  7  1  0
 34 35  1  0
 35 36  1  0
  7  8  1  0
 35 37  1  0
  6 15  1  0
 35 38  1  0
 16 17  1  0
 36 39  1  0
 18  6  2  0
 36 40  1  0
  3  4  2  0
 36 41  1  0
M  END