
  SciTegic11201309402D

 72 75  0  0  1  0            999 V2000
    2.2750   -6.2875    0.0000 N   0  0
    3.6917   -7.1042    0.0000 C   0  0
    4.0167  -10.1917    0.0000 N   0  0
    4.1417   -7.7917    0.0000 N   0  0
   -0.0458   -6.9042    0.0000 N   0  0
    1.4500   -6.2417    0.0000 C   0  0
    4.3125   -9.4167    0.0000 C   0  0
   -0.5625   -7.5542    0.0000 C   0  0
    3.4917  -10.8375    0.0000 C   0  0  1  0  0  0
    4.0500  -11.4500    0.0000 C   0  0
    3.0500   -6.5875    0.0000 C   0  0  2  0  0  0
    4.3542   -8.5917    0.0000 C   0  0  1  0  0  0
   -0.9000   -9.1500    0.0000 N   0  0
    0.6542   -6.4542    0.0000 C   0  0  1  0  0  0
   -0.6875   -9.9417    0.0000 C   0  0
   -0.8583   -8.3250    0.0000 C   0  0  2  0  0  0
    4.8542  -11.2750    0.0000 N   0  0
    5.1792   -8.5042    0.0000 C   0  0
    6.2250  -11.7042    0.0000 C   0  0
    5.5292  -15.5125    0.0000 C   0  0
   -0.2375  -10.6417    0.0000 C   0  0
    2.0042  -11.5000    0.0000 S   0  0
    1.2042  -11.5042    0.0000 S   0  0
    5.7625   -7.9167    0.0000 C   0  0
    6.7792  -12.3167    0.0000 N   0  0
    0.4042  -11.1542    0.0000 C   0  0
    5.4167  -11.8875    0.0000 C   0  0  1  0  0  0
    8.0792  -12.7917    0.0000 C   0  0
    4.7042  -15.6167    0.0000 N   0  0
    4.3042   -6.5500    0.0000 O   0  0
    1.3000   -5.6292    0.0000 O   0  0
   -1.2833   -7.1375    0.0000 O   0  0
    5.1167   -9.5917    0.0000 O   0  0
    2.8042  -11.2875    0.0000 C   0  0
   -1.6708   -8.1500    0.0000 C   0  0
    3.7917  -12.2375    0.0000 O   0  0
    0.3125   -5.7042    0.0000 C   0  0
   -1.4458  -10.2792    0.0000 O   0  0
    6.4667  -10.9167    0.0000 O   0  0
    5.5750   -7.2917    0.0000 O   0  0
    7.7667  -13.5542    0.0000 O   0  0
    5.8500  -14.7500    0.0000 N   0  0
    7.5875  -12.1375    0.0000 C   0  0
    6.0292  -16.1667    0.0000 N   0  0
    3.4625   -5.8667    0.0000 C   0  0
    6.5792   -8.0042    0.0000 N   0  0
   -2.3833   -8.5542    0.0000 C   0  0
    8.9042  -12.6917    0.0000 N   0  0
   -3.8208   -9.3667    0.0000 C   0  0
    0.8000   -5.0292    0.0000 C   0  0
   -2.3875   -9.3792    0.0000 C   0  0
   -3.0958   -8.1375    0.0000 C   0  0
   -3.8125   -8.5417    0.0000 C   0  0
   -3.1083   -9.7875    0.0000 C   0  0
   -4.5375   -9.7792    0.0000 O   0  0
   -0.3708  -11.0625    0.0000 C   0  0
    0.8750  -11.7792    0.0000 C   0  0
    5.1667  -12.6750    0.0000 C   0  0
    5.3500  -14.0917    0.0000 C   0  0
    3.0500   -5.1500    0.0000 C   0  0
    4.2917   -5.8667    0.0000 C   0  0
   -4.5458  -10.6042    0.0000 C   0  0
    1.6250   -5.1167    0.0000 C   0  0
    0.4625   -4.2792    0.0000 C   0  0
    5.6667  -13.3292    0.0000 C   0  0
   -3.8333  -11.0167    0.0000 C   0  0
    0.4542  -12.5000    0.0000 C   0  0
   -0.7833  -11.7792    0.0000 C   0  0
    2.1042   -4.4417    0.0000 C   0  0
    0.9500   -3.6042    0.0000 C   0  0
   -0.3708  -12.5000    0.0000 C   0  0
    1.7667   -3.6917    0.0000 C   0  0
  2 11  1  0
  3  7  1  0
  4  2  1  0
  5 14  1  0
  6  1  1  0
  7 12  1  0
  8  5  1  0
  9  3  1  0
  9 10  1  1
 11  1  1  0
 12  4  1  0
 13 16  1  0
 14  6  1  0
 15 13  1  0
 16  8  1  0
 17 10  1  0
 12 18  1  6
 19 27  1  0
 20 42  2  0
 21 15  1  0
 22 34  1  0
 23 22  1  0
 24 18  1  0
 25 19  1  0
 26 21  1  0
 27 17  1  1
 28 43  1  0
 29 20  1  0
 30  2  2  0
 31  6  2  0
 32  8  2  0
 33  7  2  0
  9 34  1  0
 16 35  1  6
 36 10  2  0
 14 37  1  6
 38 15  2  0
 39 19  2  0
 40 24  2  0
 41 28  2  0
 42 59  1  0
 43 25  1  0
 44 20  1  0
 11 45  1  1
 46 24  1  0
 47 35  1  0
 48 28  1  0
 49 53  2  0
 50 37  1  0
 51 47  1  0
 52 47  2  0
 53 52  1  0
 54 51  2  0
 55 49  1  0
 56 26  1  0
 57 26  1  0
 27 58  1  0
 59 65  1  0
 60 45  1  0
 61 45  1  0
 62 55  1  0
 63 50  1  0
 64 50  2  0
 65 58  1  0
 66 62  1  0
 67 57  1  0
 68 56  1  0
 69 63  2  0
 70 64  1  0
 71 67  1  0
 72 70  2  0
 69 72  1  0
 54 49  1  0
 26 23  1  0
 68 71  1  0
M  END