
  SciTegic12231509382D

 29 31  0  0  1  0            999 V2000
    3.0478   -3.1441    0.0000 C   0  0
    2.2320   -3.2671    0.0000 O   0  0
    1.7177   -2.6221    0.0000 C   0  0
    0.9019   -2.7450    0.0000 C   0  0
    0.3875   -2.1000    0.0000 C   0  0
    0.6889   -1.3321    0.0000 C   0  0
    1.5047   -1.2091    0.0000 C   0  0
    2.0191   -1.8541    0.0000 C   0  0
    0.1745   -0.6870    0.0000 C   0  0  2  0  0  0
   -0.6298   -0.8706    0.0000 C   0  0
   -1.2748   -0.3562    0.0000 C   0  0
   -1.9893   -0.7687    0.0000 C   0  0
   -2.7037   -0.3562    0.0000 C   0  0
   -2.7037    0.4688    0.0000 C   0  0
   -1.9893    0.8813    0.0000 C   0  0
   -1.2748    0.4688    0.0000 C   0  0
   -0.6298    0.9831    0.0000 N   0  0
   -0.8134    1.7875    0.0000 C   0  0
   -1.6017    2.0306    0.0000 C   0  0
   -1.7853    2.8349    0.0000 N   0  0
   -2.5737    3.0781    0.0000 C   0  0
   -1.1805    3.3961    0.0000 C   0  0
    0.1745    0.7996    0.0000 C   0  0
    0.6889    1.4446    0.0000 O   0  0
    0.5325    0.0563    0.0000 C   0  0  2  0  0  0
    1.3575    0.0563    0.0000 O   0  0
    1.7700    0.7707    0.0000 C   0  0
    1.3575    1.4852    0.0000 O   0  0
    2.5950    0.7707    0.0000 C   0  0
  1  2  1  0
  2  3  1  0
  3  4  2  0
  4  5  1  0
  5  6  2  0
  6  7  1  0
  7  8  2  0
  3  8  1  0
  9  6  1  6
  9 10  1  0
 10 11  1  0
 11 12  2  0
 12 13  1  0
 13 14  2  0
 14 15  1  0
 15 16  2  0
 11 16  1  0
 16 17  1  0
 17 18  1  0
 18 19  1  0
 19 20  1  0
 20 21  1  0
 20 22  1  0
 17 23  1  0
 23 24  2  0
 23 25  1  0
  9 25  1  0
 25 26  1  6
 26 27  1  0
 27 28  2  0
 27 29  1  0
M  END