
  SciTegic12231509382D

 13 13  0  0  0  0            999 V2000
   -0.5208   -1.5292    0.0000 N   0  0
    0.7167   -1.5292    0.0000 C   0  0
    0.0917   -1.1792    0.0000 C   0  0
    0.7167   -2.2417    0.0000 O   0  0
    0.0917   -0.4542    0.0000 C   0  0
    1.3167   -1.1875    0.0000 N   0  0
   -1.1333   -1.1792    0.0000 C   0  0
   -1.1333   -0.4542    0.0000 C   0  0
   -0.5208   -0.1042    0.0000 C   0  0
   -1.7583   -0.1042    0.0000 Cl  0  0
    3.1542   -1.5375    0.0000 N   0  0
    1.9292   -1.5375    0.0000 C   0  0
    2.5417   -1.1917    0.0000 C   0  0
  2  3  1  0
  3  1  1  0
  4  2  2  0
  5  3  2  0
  6  2  1  0
  7  1  2  0
  8  7  1  0
  9  8  2  0
 10  8  1  0
 11 13  1  0
 12  6  1  0
 13 12  1  0
  9  5  1  0
M  END