
  Mrv0541 04051115152D          

 46 51  0  0  0  0            999 V2000
    0.9964    1.5692    0.0000 C   0  0  0  0  0  0  0  0  0  0  0  0
    0.9964    2.3942    0.0000 C   0  0  0  0  0  0  0  0  0  0  0  0
    1.7109    2.8067    0.0000 C   0  0  0  0  0  0  0  0  0  0  0  0
    2.4253    2.3942    0.0000 C   0  0  0  0  0  0  0  0  0  0  0  0
    2.4253    1.5692    0.0000 C   0  0  0  0  0  0  0  0  0  0  0  0
    1.7109    1.1567    0.0000 C   0  0  0  0  0  0  0  0  0  0  0  0
    3.1398    2.8067    0.0000 N   0  0  0  0  0  0  0  0  0  0  0  0
    3.8543    2.3942    0.0000 C   0  0  0  0  0  0  0  0  0  0  0  0
    3.8543    1.5692    0.0000 C   0  0  0  0  0  0  0  0  0  0  0  0
    3.1398    1.1567    0.0000 C   0  0  0  0  0  0  0  0  0  0  0  0
    0.2819    1.1567    0.0000 O   0  0  0  0  0  0  0  0  0  0  0  0
    0.2819    0.3317    0.0000 C   0  0  0  0  0  0  0  0  0  0  0  0
    0.2819    2.8067    0.0000 O   0  0  0  0  0  0  0  0  0  0  0  0
    3.1398    0.3317    0.0000 O   0  0  0  0  0  0  0  0  0  0  0  0
    2.4253   -0.0808    0.0000 C   0  0  0  0  0  0  0  0  0  0  0  0
    1.7109    0.3317    0.0000 C   0  0  0  0  0  0  0  0  0  0  0  0
    0.9964   -0.0808    0.0000 C   0  0  0  0  0  0  0  0  0  0  0  0
    0.9964   -0.9058    0.0000 C   0  0  0  0  0  0  0  0  0  0  0  0
    1.7109   -1.3183    0.0000 C   0  0  0  0  0  0  0  0  0  0  0  0
    2.4253   -0.9058    0.0000 C   0  0  0  0  0  0  0  0  0  0  0  0
    3.1398   -1.3183    0.0000 F   0  0  0  0  0  0  0  0  0  0  0  0
    0.2819   -1.3183    0.0000 N   0  0  0  0  0  0  0  0  0  0  0  0
   -0.4325    2.3942    0.0000 C   0  0  0  0  0  0  0  0  0  0  0  0
   -1.1470    2.8067    0.0000 C   0  0  0  0  0  0  0  0  0  0  0  0
   -1.8615    2.3942    0.0000 C   0  0  0  0  0  0  0  0  0  0  0  0
   -2.5760    2.8067    0.0000 N   0  0  0  0  0  0  0  0  0  0  0  0
   -2.5760    3.6317    0.0000 C   0  0  0  0  0  0  0  0  0  0  0  0
   -3.2904    4.0442    0.0000 C   0  0  0  0  0  0  0  0  0  0  0  0
   -4.0049    3.6317    0.0000 O   0  0  0  0  0  0  0  0  0  0  0  0
   -4.0049    2.8067    0.0000 C   0  0  0  0  0  0  0  0  0  0  0  0
   -3.2904    2.3942    0.0000 C   0  0  0  0  0  0  0  0  0  0  0  0
    0.2819   -2.1433    0.0000 C   0  0  0  0  0  0  0  0  0  0  0  0
   -0.4325   -2.5558    0.0000 C   0  0  0  0  0  0  0  0  0  0  0  0
   -0.9628   -1.9238    0.0000 C   0  0  0  0  0  0  0  0  0  0  0  0
   -1.7753   -2.0670    0.0000 N   0  0  0  0  0  0  0  0  0  0  0  0
    0.9964   -2.5558    0.0000 O   0  0  0  0  0  0  0  0  0  0  0  0
   -0.6807   -1.1485    0.0000 O   0  0  0  0  0  0  0  0  0  0  0  0
   -2.0575   -2.8423    0.0000 C   0  0  0  0  0  0  0  0  0  0  0  0
   -2.8699   -2.9856    0.0000 C   0  0  0  0  0  0  0  0  0  0  0  0
   -3.1521   -3.7608    0.0000 C   0  0  0  0  0  0  0  0  0  0  0  0
   -2.6218   -4.3928    0.0000 C   0  0  0  0  0  0  0  0  0  0  0  0
   -1.8093   -4.2495    0.0000 C   0  0  0  0  0  0  0  0  0  0  0  0
   -1.5272   -3.4743    0.0000 C   0  0  0  0  0  0  0  0  0  0  0  0
   -2.9040   -5.1680    0.0000 F   0  0  0  0  0  0  0  0  0  0  0  0
   -0.1504   -3.3310    0.0000 C   0  0  0  0  0  0  0  0  0  0  0  0
   -0.9628   -3.1878    0.0000 C   0  0  0  0  0  0  0  0  0  0  0  0
  1  2  2  0  0  0  0
  1  6  1  0  0  0  0
  1 11  1  0  0  0  0
  2  3  1  0  0  0  0
  2 13  1  0  0  0  0
  3  4  2  0  0  0  0
  4  7  1  0  0  0  0
  4  5  1  0  0  0  0
 10  5  1  0  0  0  0
  5  6  2  0  0  0  0
  8  7  2  0  0  0  0
  8  9  1  0  0  0  0
 10  9  2  0  0  0  0
 10 14  1  0  0  0  0
 12 11  1  0  0  0  0
 23 13  1  0  0  0  0
 15 14  1  0  0  0  0
 15 16  2  0  0  0  0
 15 20  1  0  0  0  0
 16 17  1  0  0  0  0
 17 18  2  0  0  0  0
 18 22  1  0  0  0  0
 18 19  1  0  0  0  0
 19 20  2  0  0  0  0
 20 21  1  0  0  0  0
 32 22  1  0  0  0  0
 23 24  1  0  0  0  0
 24 25  1  0  0  0  0
 25 26  1  0  0  0  0
 27 26  1  0  0  0  0
 31 26  1  0  0  0  0
 27 28  1  0  0  0  0
 28 29  1  0  0  0  0
 30 29  1  0  0  0  0
 30 31  1  0  0  0  0
 32 33  1  0  0  0  0
 32 36  2  0  0  0  0
 33 34  1  0  0  0  0
 33 45  1  0  0  0  0
 33 46  1  0  0  0  0
 34 35  1  0  0  0  0
 34 37  2  0  0  0  0
 38 35  1  0  0  0  0
 38 43  2  0  0  0  0
 38 39  1  0  0  0  0
 39 40  2  0  0  0  0
 40 41  1  0  0  0  0
 41 44  1  0  0  0  0
 41 42  2  0  0  0  0
 42 43  1  0  0  0  0
 45 46  1  0  0  0  0
M  END