
  SciTegic12231509382D

 14 15  0  0  0  0            999 V2000
    3.0041    0.2505    0.0000 N   0  0
    3.0041    1.5854    0.0000 N   0  0
    3.0463   -1.9318    0.0000 N   0  0
    3.7887    0.5054    0.0000 C   0  0
    3.7887    1.3304    0.0000 C   0  0
    2.5192    0.9179    0.0000 C   0  0
    4.5032    0.0929    0.0000 C   0  0
    4.5032    1.7429    0.0000 C   0  0
    2.7492   -0.5341    0.0000 C   0  0
    5.2177    0.5054    0.0000 C   0  0
    5.2177    1.3304    0.0000 C   0  0
    3.3012   -1.1472    0.0000 C   0  0
    3.5983   -2.5449    0.0000 C   0  0
    2.2393   -2.1034    0.0000 C   0  0
  1  4  1  0
  1  6  1  0
  1  9  1  0
  2  5  1  0
  2  6  2  0
  3 12  1  0
  3 13  1  0
  3 14  1  0
  4  5  1  0
  4  7  2  0
  5  8  2  0
  7 10  1  0
  8 11  1  0
  9 12  1  0
 10 11  2  0
M  END