
  Mrv0541 04051115152D          

 38 42  0  0  0  0            999 V2000
    0.4481    2.7310    0.0000 N   0  0  0  0  0  0  0  0  0  0  0  0
   -1.6953    1.4935    0.0000 N   0  0  0  0  0  0  0  0  0  0  0  0
   -0.2663    3.1435    0.0000 C   0  0  0  0  0  0  0  0  0  0  0  0
   -2.4097    1.9060    0.0000 C   0  0  1  0  0  0  0  0  0  0  0  0
   -2.4097    2.7310    0.0000 C   0  0  0  0  0  0  0  0  0  0  0  0
    1.1626    0.6685    0.0000 C   0  0  0  0  0  0  0  0  0  0  0  0
   -1.6953    0.6685    0.0000 C   0  0  0  0  0  0  0  0  0  0  0  0
   -3.8387    1.9060    0.0000 C   0  0  0  0  0  0  0  0  0  0  0  0
   -1.2828   -0.6010    0.0000 C   0  0  0  0  0  0  0  0  0  0  0  0
   -2.3627    0.1836    0.0000 C   0  0  0  0  0  0  0  0  0  0  0  0
    1.8771   -0.5690    0.0000 C   0  0  0  0  0  0  0  0  0  0  0  0
    0.4481    0.2560    0.0000 C   0  0  0  0  0  0  0  0  0  0  0  0
    1.1626   -1.8065    0.0000 C   0  0  0  0  0  0  0  0  0  0  0  0
    1.8771   -3.0440    0.0000 C   0  0  0  0  0  0  0  0  0  0  0  0
    1.1626   -4.2815    0.0000 C   0  0  0  0  0  0  0  0  0  0  0  0
    2.5916   -4.2815    0.0000 C   0  0  0  0  0  0  0  0  0  0  0  0
    0.4481   -2.2190    0.0000 O   0  0  0  0  0  0  0  0  0  0  0  0
    1.8771   -2.2190    0.0000 N   0  0  0  0  0  0  0  0  0  0  0  0
    2.5916   -3.4565    0.0000 C   0  0  0  0  0  0  0  0  0  0  0  0
    1.8771   -4.6940    0.0000 N   0  0  0  0  0  0  0  0  0  0  0  0
    1.8771   -5.5190    0.0000 C   0  0  0  0  0  0  0  0  0  0  0  0
    1.1626   -3.4565    0.0000 C   0  0  0  0  0  0  0  0  0  0  0  0
    1.1626   -0.9815    0.0000 C   0  0  0  0  0  0  0  0  0  0  0  0
    1.8771    0.2560    0.0000 C   0  0  0  0  0  0  0  0  0  0  0  0
    2.5916    0.6685    0.0000 O   0  0  0  0  0  0  0  0  0  0  0  0
    3.3060    0.2560    0.0000 C   0  0  0  0  0  0  0  0  0  0  0  0
    0.4481   -0.5690    0.0000 C   0  0  0  0  0  0  0  0  0  0  0  0
    1.1626    1.4935    0.0000 N   0  0  0  0  0  0  0  0  0  0  0  0
    0.4481    1.9060    0.0000 C   0  0  0  0  0  0  0  0  0  0  0  0
   -0.2663    1.4935    0.0000 N   0  0  0  0  0  0  0  0  0  0  0  0
   -0.9808    1.9060    0.0000 C   0  0  0  0  0  0  0  0  0  0  0  0
   -2.1078   -0.6010    0.0000 C   0  0  0  0  0  0  0  0  0  0  0  0
   -1.0278    0.1836    0.0000 C   0  0  0  0  0  0  0  0  0  0  0  0
   -3.1242    1.4935    0.0000 C   0  0  0  0  0  0  0  0  0  0  0  0
   -3.1242    3.1435    0.0000 O   0  0  0  0  0  0  0  0  0  0  0  0
   -1.6953    3.1435    0.0000 N   0  0  0  0  0  0  0  0  0  0  0  0
   -1.6953    3.9685    0.0000 C   0  0  0  0  0  0  0  0  0  0  0  0
   -0.9808    2.7310    0.0000 C   0  0  0  0  0  0  0  0  0  0  0  0
  3  1  2  0  0  0  0
 29  1  1  0  0  0  0
  4  2  1  0  0  0  0
  7  2  1  0  0  0  0
 31  2  1  0  0  0  0
 38  3  1  0  0  0  0
  4  5  1  0  0  0  0
  4 34  1  6  0  0  0
  5 35  2  0  0  0  0
  5 36  1  0  0  0  0
 12  6  2  0  0  0  0
 24  6  1  0  0  0  0
  6 28  1  0  0  0  0
 10  7  1  0  0  0  0
 33  7  1  0  0  0  0
  8 34  1  0  0  0  0
  9 32  1  0  0  0  0
 33  9  1  0  0  0  0
 32 10  1  0  0  0  0
 11 23  1  0  0  0  0
 24 11  2  0  0  0  0
 27 12  1  0  0  0  0
 13 17  2  0  0  0  0
 13 18  1  0  0  0  0
 23 13  1  0  0  0  0
 14 18  1  0  0  0  0
 14 19  1  0  0  0  0
 14 22  1  0  0  0  0
 15 20  1  0  0  0  0
 22 15  1  0  0  0  0
 16 19  1  0  0  0  0
 16 20  1  0  0  0  0
 21 20  1  0  0  0  0
 23 27  2  0  0  0  0
 24 25  1  0  0  0  0
 26 25  1  0  0  0  0
 29 28  1  0  0  0  0
 29 30  2  0  0  0  0
 31 30  1  0  0  0  0
 31 38  2  0  0  0  0
 37 36  1  0  0  0  0
 38 36  1  0  0  0  0
M  END