
  Mrv0541 05211314572D          

 23 25  0  0  0  0            999 V2000
   -2.5687   -9.9496    0.0000 C   0  0  0  0  0  0  0  0  0  0  0  0
   -1.8542   -9.5371    0.0000 C   0  0  0  0  0  0  0  0  0  0  0  0
   -1.8542   -8.7121    0.0000 C   0  0  0  0  0  0  0  0  0  0  0  0
   -2.5687   -8.2996    0.0000 C   0  0  0  0  0  0  0  0  0  0  0  0
   -3.2831   -8.7121    0.0000 C   0  0  0  0  0  0  0  0  0  0  0  0
   -3.2831   -9.5371    0.0000 C   0  0  0  0  0  0  0  0  0  0  0  0
   -2.5687  -10.7746    0.0000 C   0  0  0  0  0  0  0  0  0  0  0  0
   -3.2831  -11.1871    0.0000 C   0  0  0  0  0  0  0  0  0  0  0  0
   -3.9976  -10.7746    0.0000 C   0  0  0  0  0  0  0  0  0  0  0  0
   -4.7121  -11.1871    0.0000 O   0  0  0  0  0  0  0  0  0  0  0  0
   -3.9976   -9.9496    0.0000 O   0  0  0  0  0  0  0  0  0  0  0  0
   -1.8542  -11.1871    0.0000 C   0  0  0  0  0  0  0  0  0  0  0  0
   -1.1397  -10.7746    0.0000 C   0  0  0  0  0  0  0  0  0  0  0  0
   -0.4253  -11.1871    0.0000 C   0  0  0  0  0  0  0  0  0  0  0  0
    0.2892  -10.7746    0.0000 C   0  0  0  0  0  0  0  0  0  0  0  0
    0.2892  -12.4246    0.0000 C   0  0  0  0  0  0  0  0  0  0  0  0
   -0.4253  -12.0121    0.0000 C   0  0  0  0  0  0  0  0  0  0  0  0
    1.0037  -12.0121    0.0000 C   0  0  0  0  0  0  0  0  0  0  0  0
    1.0037  -11.1871    0.0000 C   0  0  0  0  0  0  0  0  0  0  0  0
    1.7182  -10.7746    0.0000 C   0  0  0  0  0  0  0  0  0  0  0  0
    2.4326  -11.1871    0.0000 C   0  0  0  0  0  0  0  0  0  0  0  0
    2.4326  -12.0121    0.0000 C   0  0  0  0  0  0  0  0  0  0  0  0
    1.7182  -12.4246    0.0000 C   0  0  0  0  0  0  0  0  0  0  0  0
  5  6  2  0  0  0  0
  7 12  1  0  0  0  0
  6  1  1  0  0  0  0
 12 13  1  0  0  0  0
  1  2  2  0  0  0  0
 13 14  1  0  0  0  0
  1  7  1  0  0  0  0
 14 15  2  0  0  0  0
 15 19  1  0  0  0  0
  3  4  2  0  0  0  0
 18 16  1  0  0  0  0
  7  8  2  0  0  0  0
 16 17  2  0  0  0  0
 17 14  1  0  0  0  0
  8  9  1  0  0  0  0
 18 19  1  0  0  0  0
  4  5  1  0  0  0  0
 19 20  2  0  0  0  0
  9 10  2  0  0  0  0
 20 21  1  0  0  0  0
  2  3  1  0  0  0  0
 21 22  2  0  0  0  0
  9 11  1  0  0  0  0
 22 23  1  0  0  0  0
 23 18  2  0  0  0  0
M  END