
  SciTegic01181116592D

 18 20  0  0  0  0            999 V2000
   12.1024   -9.5666    0.0000 C   0  0
   12.8359   -9.2284    0.0000 N   0  0
   12.2510   -8.8202    0.0000 C   0  0
   13.6586   -9.5773    0.0000 C   0  0
   12.6989   -8.2074    0.0000 C   0  0
   12.9755   -8.4950    0.0000 C   0  0
   13.7624   -8.8377    0.0000 C   0  0  1  0  0  0
   12.9378   -7.6135    0.0000 C   0  0
   14.4830   -8.4344    0.0000 O   0  0
   15.1925   -8.8566    0.0000 C   0  0
   15.9131   -8.4534    0.0000 N   0  0
   15.1815   -9.6824    0.0000 O   0  0
   16.6226   -8.8757    0.0000 C   0  0
   16.6095   -9.7013    0.0000 C   0  0
   17.3182  -10.1236    0.0000 C   0  0
   18.0398   -9.7202    0.0000 C   0  0
   18.0481   -8.8903    0.0000 C   0  0
   17.3387   -8.4717    0.0000 C   0  0
  7  9  1  1
  1  2  1  0
  9 10  1  0
  1  3  1  0
 10 11  1  0
  2  4  1  0
 10 12  2  0
  2  5  1  0
 11 13  1  0
  3  6  1  0
 13 14  2  0
  4  7  1  0
 14 15  1  0
  5  8  1  0
 15 16  2  0
  6  7  1  0
 16 17  1  0
  6  8  1  0
 17 18  2  0
 18 13  1  0
M  END