
  Mrv0541 04051115152D          

 12 12  0  0  0  0            999 V2000
    0.4866    0.0401    0.0000 C   0  0  0  0  0  0  0  0  0  0  0  0
    0.4866   -0.7849    0.0000 C   0  0  1  0  0  0  0  0  0  0  0  0
    1.2010   -1.1974    0.0000 O   0  0  0  0  0  0  0  0  0  0  0  0
   -0.2279   -1.1974    0.0000 C   0  0  2  0  0  0  0  0  0  0  0  0
   -0.2279   -2.0224    0.0000 O   0  0  0  0  0  0  0  0  0  0  0  0
   -0.9424   -0.7849    0.0000 C   0  0  0  0  0  0  0  0  0  0  0  0
   -0.9424    0.0401    0.0000 C   0  0  0  0  0  0  0  0  0  0  0  0
    0.1594    1.1810    0.0000 C   0  0  0  0  0  0  0  0  0  0  0  0
   -0.2778    1.8807    0.0000 O   0  0  0  0  0  0  0  0  0  0  0  0
   -0.6152    1.1810    0.0000 O   0  0  0  0  0  0  0  0  0  0  0  0
    0.9839    1.2098    0.0000 O   0  0  0  0  0  0  0  0  0  0  0  0
   -0.2279    0.4526    0.0000 C   0  0  1  0  0  0  0  0  0  0  0  0
  1  2  1  0  0  0  0
 12  1  1  0  0  0  0
  2  3  1  1  0  0  0
  2  4  1  0  0  0  0
  4  5  1  6  0  0  0
  4  6  1  0  0  0  0
  6  7  2  0  0  0  0
 12  7  1  0  0  0  0
  8  9  1  0  0  0  0
  8 11  2  0  0  0  0
 12  8  1  1  0  0  0
 12 10  1  6  0  0  0
M  END