
          11280714452D 1   1.00000     0.00000     0

 32 35  0     0  0            999 V2000
    8.9917   -1.6417    0.0000 C   0  0  0  0  0  0           0  0  0
    8.2750   -2.0542    0.0000 C   0  0  0  0  0  0           0  0  0
    7.5625   -1.6417    0.0000 C   0  0  0  0  0  0           0  0  0
    9.7042   -2.0542    0.0000 C   0  0  0  0  0  0           0  0  0
    0.4292   -0.8292    0.0000 N   0  0  0  0  0  0           0  0  0
    6.8417   -2.0542    0.0000 C   0  0  0  0  0  0           0  0  0
    6.1292   -1.6417    0.0000 C   0  0  0  0  0  0           0  0  0
   -0.2833   -0.4167    0.0000 C   0  0  0  0  0  0           0  0  0
    5.4167   -2.0542    0.0000 C   0  0  0  0  0  0           0  0  0
   10.4167   -1.6417    0.0000 O   0  0  0  0  0  0           0  0  0
    1.1375   -0.4125    0.0000 C   0  0  0  0  0  0           0  0  0
    6.8417   -2.8792    0.0000 O   0  0  0  0  0  0           0  0  0
   -0.2875    0.4083    0.0000 C   0  0  0  0  0  0           0  0  0
    8.2750   -2.8792    0.0000 O   0  0  0  0  0  0           0  0  0
    0.4292    0.8208    0.0000 C   0  0  0  0  0  0           0  0  0
    4.7042   -1.6417    0.0000 C   0  0  0  0  0  0           0  0  0
    2.5667   -0.4042    0.0000 O   0  0  0  0  0  0           0  0  0
    9.7042   -2.8792    0.0000 O   0  0  0  0  0  0           0  0  0
    3.2792   -0.8167    0.0000 C   0  0  0  0  0  0           0  0  0
    8.9917   -0.8167    0.0000 C   0  0  0  0  0  0           0  0  0
    1.8542   -0.8250    0.0000 C   0  0  0  0  0  0           0  0  0
    1.1417    0.4125    0.0000 C   0  0  0  0  0  0           0  0  0
    7.5625   -0.8167    0.0000 C   0  0  0  0  0  0           0  0  0
    4.7042   -0.8167    0.0000 C   0  0  0  0  0  0           0  0  0
    3.9917   -2.0542    0.0000 C   0  0  0  0  0  0           0  0  0
    3.2792   -1.6417    0.0000 C   0  0  0  0  0  0           0  0  0
    3.9917   -0.4042    0.0000 C   0  0  0  0  0  0           0  0  0
    8.2750   -0.4042    0.0000 C   0  0  0  0  0  0           0  0  0
   -0.9958   -0.8375    0.0000 C   0  0  0  0  0  0           0  0  0
   -1.0083    0.8208    0.0000 C   0  0  0  0  0  0           0  0  0
   -1.7125   -0.4292    0.0000 C   0  0  0  0  0  0           0  0  0
   -1.7208    0.3958    0.0000 C   0  0  0  0  0  0           0  0  0
  2  1  2  0     0  0
  3  2  1  0     0  0
  4  1  1  0     0  0
  5 11  1  0     0  0
  6  3  1  0     0  0
  7  6  1  0     0  0
  8  5  2  0     0  0
  9  7  2  0     0  0
 10  4  2  0     0  0
 11 21  1  0     0  0
 12  6  2  0     0  0
 13 15  2  0     0  0
 14  2  1  0     0  0
 15 22  1  0     0  0
 16  9  1  0     0  0
 17 19  1  0     0  0
 18  4  1  0     0  0
 19 26  1  0     0  0
 20  1  1  0     0  0
 21 17  1  0     0  0
 22 11  2  0     0  0
 23 28  1  0     0  0
 24 16  2  0     0  0
 25 16  1  0     0  0
 26 25  2  0     0  0
 27 24  1  0     0  0
 28 20  2  0     0  0
 29  8  1  0     0  0
 30 13  1  0     0  0
 31 29  2  0     0  0
 32 30  2  0     0  0
 23  3  2  0     0  0
 19 27  2  0     0  0
 13  8  1  0     0  0
 32 31  1  0     0  0
M  END