
          01230816052D 1   1.00000     0.00000     0

 58 60  0     1  0            999 V2000
   -4.8954   -7.6141    0.0000 C   0  0  0  0  0  0           0  0  0
   -4.8971   -8.4385    0.0000 C   0  0  0  0  0  0           0  0  0
   -4.1849   -8.8516    0.0000 C   0  0  0  0  0  0           0  0  0
   -4.1835   -7.2012    0.0000 C   0  0  0  0  0  0           0  0  0
   -3.4704   -7.6086    0.0000 C   0  0  0  0  0  0           0  0  0
   -3.4692   -8.4364    0.0000 C   0  0  0  0  0  0           0  0  0
   -2.7563   -8.8465    0.0000 C   0  0  0  0  0  0           0  0  0
   -2.0396   -8.4306    0.0000 C   0  0  0  0  0  0           0  0  0
   -2.0426   -7.6022    0.0000 C   0  0  0  0  0  0           0  0  0
   -2.7606   -7.1936    0.0000 C   0  0  0  0  0  0           0  0  0
   -1.3306   -7.1832    0.0000 O   0  0  0  0  0  0           0  0  0
   -0.6151   -7.5932    0.0000 C   0  0  0  0  0  0           0  0  0
    0.0969   -7.1742    0.0000 C   0  0  0  0  0  0           0  0  0
    0.0935   -6.3492    0.0000 O   0  0  0  0  0  0           0  0  0
    1.5264   -7.1676    0.0000 C   0  0  2  0  0  0           0  0  0
    2.2460   -7.5735    0.0000 C   0  0  0  0  0  0           0  0  0
    2.2494   -8.3985    0.0000 O   0  0  0  0  0  0           0  0  0
    3.6756   -7.5667    0.0000 C   0  0  1  0  0  0           0  0  0
    1.5229   -6.3426    0.0000 C   0  0  0  0  0  0           0  0  0
    2.2350   -5.9236    0.0000 C   0  0  0  0  0  0           0  0  0
    2.2315   -5.0986    0.0000 C   0  0  0  0  0  0           0  0  0
    2.9436   -4.6837    0.0000 C   0  0  0  0  0  0           0  0  0
    3.6791   -8.3917    0.0000 C   0  0  3  0  0  0           0  0  0
    4.3987   -8.8018    0.0000 C   0  0  0  0  0  0           0  0  0
    2.9712   -8.8108    0.0000 C   0  0  0  0  0  0           0  0  0
    4.3877   -7.1518    0.0000 C   0  0  0  0  0  0           0  0  0
    4.3801   -6.3268    0.0000 O   0  0  0  0  0  0           0  0  0
    5.8199   -7.1439    0.0000 C   0  0  0  0  0  0           0  0  0
    6.5395   -7.5498    0.0000 C   0  0  0  0  0  0           0  0  0
    6.5430   -8.3748    0.0000 O   0  0  0  0  0  0           0  0  0
    7.9695   -7.5420    0.0000 C   0  0  2  0  0  0           0  0  0
    8.6156   -7.0304    0.0000 C   0  0  0  0  0  0           0  0  0
    7.9728   -8.3674    0.0000 C   0  0  1  0  0  0           0  0  0
    7.2649   -8.7864    0.0000 C   0  0  0  0  0  0           0  0  0
    9.3813   -7.3310    0.0000 N   0  0  3  0  0  0           0  0  0
    8.4954   -6.2142    0.0000 O   0  0  0  0  0  0           0  0  0
    9.5093   -8.0684    0.0000 C   0  0  1  0  0  0           0  0  0
   10.4168   -8.1785    0.0000 C   0  0  0  0  0  0           0  0  0
   10.7174   -7.4126    0.0000 C   0  0  0  0  0  0           0  0  0
   10.0826   -6.8899    0.0000 C   0  0  0  0  0  0           0  0  0
    0.8136   -7.5830    0.0000 N   0  0  0  0  0  0           0  0  0
    2.9588   -7.1582    0.0000 N   0  0  0  0  0  0           0  0  0
    2.9376   -3.8577    0.0000 N   0  0  0  0  0  0           0  0  0
    5.1060   -7.5575    0.0000 N   0  0  0  0  0  0           0  0  0
    7.2523   -7.1345    0.0000 N   0  0  0  0  0  0           0  0  0
    8.6941   -8.7764    0.0000 O   0  0  0  0  0  0           0  0  0
    9.0724   -8.7682    0.0000 C   0  0  0  0  0  0           0  0  0
    9.4600   -9.4965    0.0000 O   0  0  0  0  0  0           0  0  0
   10.2845   -9.5250    0.0000 C   0  0  0  0  0  0           0  0  0
   10.6721  -10.2533    0.0000 N   0  0  0  0  0  0           0  0  0
   10.7214   -8.8252    0.0000 O   0  0  0  0  0  0           0  0  0
   11.4966  -10.2818    0.0000 C   0  0  0  0  0  0           0  0  0
   11.8841  -11.0101    0.0000 C   0  0  0  0  0  0           0  0  0
   12.7087  -11.0386    0.0000 O   0  0  0  0  0  0           0  0  0
   11.4472  -11.7099    0.0000 O   0  0  0  0  0  0           0  0  0
   13.0962  -11.7669    0.0000 C   0  0  0  0  0  0           0  0  0
   13.9207  -11.7954    0.0000 C   0  0  0  0  0  0           0  0  0
    9.9167   -8.7792    0.0000 H   0  0  0  0  0  0           0  0  0
 15 19  1  1     0  0
 19 20  1  0     0  0
 20 21  1  0     0  0
 21 22  1  0     0  0
 18 23  1  6     0  0
 23 24  1  0     0  0
 23 25  1  0     0  0
 18 26  1  0     0  0
 26 27  2  0     0  0
 28 29  1  0     0  0
 29 30  2  0     0  0
 31 32  1  0     0  0
 31 33  1  0     0  0
 33 34  1  0     0  0
 32 35  1  0     0  0
 32 36  2  0     0  0
 35 37  1  0     0  0
 37 38  1  0     0  0
 38 39  1  0     0  0
 39 40  1  0     0  0
 40 35  1  0     0  0
  1  2  2  0     0  0
  2  3  1  0     0  0
  3  6  2  0     0  0
  5  4  2  0     0  0
  4  1  1  0     0  0
  5  6  1  0     0  0
 26 44  1  0     0  0
 44 28  1  0     0  0
 16 42  1  0     0  0
 42 18  1  0     0  0
 29 45  1  0     0  0
 31 45  1  6     0  0
 13 41  1  0     0  0
 41 15  1  0     0  0
 33 46  1  6     0  0
 22 43  1  0     0  0
 37 47  1  0     0  0
  6  7  1  0     0  0
 47 48  1  0     0  0
  7  8  2  0     0  0
 48 49  1  0     0  0
  8  9  1  0     0  0
 49 50  1  0     0  0
  9 10  2  0     0  0
 49 51  2  0     0  0
 10  5  1  0     0  0
 50 52  1  0     0  0
  9 11  1  0     0  0
 52 53  1  0     0  0
 11 12  1  0     0  0
 53 54  1  0     0  0
 12 13  1  0     0  0
 53 55  2  0     0  0
 13 14  2  0     0  0
 54 56  1  0     0  0
 15 16  1  0     0  0
 56 57  1  0     0  0
 16 17  2  0     0  0
 37 58  1  6     0  0
M  END