
  SciTegic06051313522D

 36 40  0  0  0  0            999 V2000
   26.5235  -20.7371    0.0000 C   0  0
   27.2370  -21.1496    0.0000 C   0  0
   27.2370  -21.9747    0.0000 C   0  0
   27.9505  -22.3872    0.0000 C   0  0
   28.6641  -21.9747    0.0000 C   0  0
   28.6641  -21.1496    0.0000 C   0  0
   27.9505  -20.7371    0.0000 C   0  0
   26.5235  -19.9120    0.0000 O   0  0
   25.8058  -21.1496    0.0000 N   0  0
   26.5235  -22.3872    0.0000 N   0  0
   27.2370  -24.4499    0.0000 C   0  0
   27.2370  -23.6248    0.0000 C   0  0
   26.5235  -23.2123    0.0000 C   0  0
   25.8058  -23.6248    0.0000 C   0  0
   25.8058  -24.4499    0.0000 C   0  0
   26.5235  -24.8625    0.0000 N   0  0
   28.0232  -24.7064    0.0000 N   0  0
   28.0232  -23.3685    0.0000 C   0  0
   28.5064  -24.0374    0.0000 C   0  0
   25.0924  -23.2123    0.0000 C   0  0
   29.7440  -23.3238    0.0000 C   0  0
   29.3315  -24.0374    0.0000 C   0  0
   29.7440  -24.7509    0.0000 C   0  0
   30.5691  -24.7509    0.0000 C   0  0
   30.9817  -24.0374    0.0000 C   0  0
   30.5691  -23.3238    0.0000 N   0  0
   31.8068  -24.0374    0.0000 N   0  0
   32.2193  -24.7509    0.0000 C   0  0
   33.0443  -24.7509    0.0000 C   0  0
   33.4569  -24.0374    0.0000 O   0  0
   33.0443  -23.3238    0.0000 C   0  0
   32.2193  -23.3238    0.0000 C   0  0
   25.8058  -21.9747    0.0000 C   0  0
   25.0929  -22.3872    0.0000 F   0  0
   24.3775  -23.6244    0.0000 F   0  0
   24.3736  -22.7984    0.0000 F   0  0
  1  2  1  0
  2  3  1  0
  3  4  2  0
  4  5  1  0
  5  6  2  0
  6  7  1  0
  2  7  2  0
  1  8  2  0
  1  9  1  0
 11 12  1  0
 12 13  2  0
 13 14  1  0
 14 15  2  0
 15 16  1  0
 11 16  2  0
 18 19  2  0
 17 19  1  0
 11 17  1  0
 12 18  1  0
 10 13  1  0
 14 20  1  0
 21 22  1  0
 22 23  2  0
 23 24  1  0
 24 25  2  0
 25 26  1  0
 21 26  2  0
 27 28  1  0
 28 29  1  0
 29 30  1  0
 30 31  1  0
 31 32  1  0
 27 32  1  0
 25 27  1  0
 19 22  1  0
  3 10  1  0
  9 33  1  0
 20 34  1  0
 20 35  1  0
 20 36  1  0
M  END