
  SciTegic04201611242D

 22 24  0  0  0  0            999 V2000
   -2.5978   -1.5030    0.0000 C   0  0
   -2.9074   -0.1014    0.0000 C   0  0
   -4.3556   -0.4920    0.0000 C   0  0
   -3.9650   -1.9402    0.0000 C   0  0
    1.2990   -0.7500    0.0000 C   0  0
    1.2990    0.7500    0.0000 C   0  0
    0.0000    1.5000    0.0000 C   0  0
   -1.2990    0.7500    0.0000 C   0  0
   -1.2990   -0.7500    0.0000 C   0  0
    0.0000   -1.5000    0.0000 C   0  0
   -2.5955   -3.0038    0.0000 C   0  0
   -3.8937   -3.7570    0.0000 N   0  0
   -1.5552   -3.6019    0.0000 O   0  0
   -3.8914   -5.2578    0.0000 C   0  0
   -2.5897   -6.0033    0.0000 C   0  0
   -2.5844   -7.5033    0.0000 C   0  0
   -3.8807   -8.2579    0.0000 C   0  0
   -5.1824   -7.5125    0.0000 C   0  0
   -5.1877   -6.0125    0.0000 C   0  0
   -6.2291   -5.4162    0.0000 O   0  0
   -1.5430   -8.0996    0.0000 Cl  0  0
   -3.8765   -9.4579    0.0000 O   0  0
  1  2  1  0
  2  3  1  0
  3  4  1  0
  4  1  1  0
  5  6  2  0
  6  7  1  0
  7  8  2  0
  8  9  1  0
  9 10  2  0
 10  5  1  0
  9  1  1  0
  1 11  1  0
 11 12  1  0
 11 13  2  0
 12 14  1  0
 14 15  2  0
 15 16  1  0
 16 17  2  0
 17 18  1  0
 18 19  2  0
 19 14  1  0
 19 20  1  0
 16 21  1  0
 17 22  1  0
M  END