
  SciTegic11081110012D

 24 26  0  0  0  0            999 V2000
   10.2348  -19.9673    0.0000 N   0  0
   10.2348  -19.1423    0.0000 C   0  0
    9.5203  -18.7298    0.0000 C   0  0
    8.8059  -19.1423    0.0000 N   0  0
    8.8059  -19.9673    0.0000 C   0  0
    9.5203  -20.3798    0.0000 C   0  0
    8.0914  -18.7298    0.0000 C   0  0
    8.0914  -17.9048    0.0000 C   0  0
    7.3769  -19.1423    0.0000 C   0  0
   10.9493  -20.3798    0.0000 C   0  0
   10.9493  -21.2048    0.0000 O   0  0
   11.6638  -19.9673    0.0000 C   0  0
   12.3782  -20.3798    0.0000 C   0  0
   13.0927  -19.9673    0.0000 C   0  0
   13.0927  -19.1423    0.0000 C   0  0
   12.3782  -18.7298    0.0000 C   0  0
   11.6638  -19.1423    0.0000 C   0  0
   13.8072  -18.7298    0.0000 C   0  0
   14.5216  -19.1423    0.0000 N   0  0
   14.5216  -19.9673    0.0000 C   0  0
   15.2361  -20.3798    0.0000 C   0  0
   15.9506  -19.9673    0.0000 C   0  0
   15.9506  -19.1423    0.0000 C   0  0
   15.2361  -18.7298    0.0000 C   0  0
 10 12  1  0
  2  3  1  0
  3  4  1  0
  4  5  1  0
  5  6  1  0
  4  7  1  0
  7  8  1  0
  7  9  1  0
  1 10  1  0
  1  2  1  0
 10 11  2  0
  1  6  1  0
 13 14  2  0
 14 15  1  0
 15 16  2  0
 16 17  1  0
 17 12  2  0
 12 13  1  0
 15 18  1  0
 18 19  1  0
 19 20  1  0
 19 24  1  0
 20 21  1  0
 21 22  1  0
 22 23  1  0
 23 24  1  0
M  END