
  SciTegic04151115542D

 22 23  0  0  0  0            999 V2000
   -4.5348    1.9542    0.0000 C   0  0
   -4.5359    1.1268    0.0000 C   0  0
   -3.8211    0.7140    0.0000 C   0  0
   -3.1047    1.1273    0.0000 C   0  0
   -3.1075    1.9578    0.0000 C   0  0
   -3.8229    2.3670    0.0000 C   0  0
   -5.2507    0.7149    0.0000 Cl  0  0
   -2.3946    2.3730    0.0000 N   0  0
   -1.6786    1.9632    0.0000 C   0  0
   -0.9657    2.3784    0.0000 C   0  0
   -1.6755    1.1382    0.0000 O   0  0
   -0.2497    1.9686    0.0000 N   0  0
   -0.9688    3.2034    0.0000 O   0  0
    0.4633    2.3838    0.0000 C   0  0
    1.1756    1.9732    0.0000 C   0  0
    1.4285    1.1914    0.0000 C   0  0
    2.2504    1.1883    0.0000 C   0  0
    2.5074    1.9691    0.0000 C   0  0
    1.8442    2.4546    0.0000 N   0  0
    1.8475    3.2796    0.0000 C   0  0
    1.1346    3.6949    0.0000 C   0  0
   -3.8213   -0.1110    0.0000 F   0  0
  9 11  2  0
  5  6  2  0
 10 12  1  0
  6  1  1  0
 10 13  2  0
  1  2  2  0
 12 14  1  0
 14 15  1  0
  2  7  1  0
 15 16  1  0
  3  4  2  0
  5  8  1  0
  8  9  1  0
 16 17  1  0
 17 18  1  0
 18 19  1  0
 19 15  1  0
  4  5  1  0
 19 20  1  0
  9 10  1  0
 20 21  1  0
  2  3  1  0
  3 22  1  0
M  END