
  SciTegic01061414252D

 35 38  0  0  0  0            999 V2000
    7.5236   -9.0600    0.0000 O   0  0
    7.2616   -9.8456    0.0000 N   0  0
    6.4354   -9.8383    0.0000 C   0  0
    6.1880   -9.0513    0.0000 C   0  0
    6.8578   -8.5701    0.0000 C   0  0
    5.9419  -10.5019    0.0000 C   0  0
    5.1263  -10.4091    0.0000 O   0  0
    6.2754  -11.2555    0.0000 N   0  0
    4.8043  -13.2471    0.0000 N   0  0
    4.4728  -12.4899    0.0000 C   0  0
    4.9642  -11.8298    0.0000 C   0  0
    5.7856  -11.9213    0.0000 C   0  0
    6.1134  -12.6763    0.0000 C   0  0
    5.6234  -13.3421    0.0000 C   0  0
    4.6422  -14.6679    0.0000 C   0  0
    4.3143  -13.9128    0.0000 C   0  0
    3.4952  -13.8178    0.0000 C   0  0
    6.8630   -7.7476    0.0000 C   0  0
    6.1520   -7.3294    0.0000 C   0  0
    6.1593   -6.5033    0.0000 C   0  0
    6.8777   -6.0954    0.0000 C   0  0
    7.5887   -6.5136    0.0000 C   0  0
    7.5814   -7.3397    0.0000 C   0  0
    8.2925   -7.7578    0.0000 O   0  0
    9.0108   -7.3499    0.0000 C   0  0
    9.0160   -6.5274    0.0000 C   0  0
    9.7344   -6.1195    0.0000 C   0  0
   10.4455   -6.5377    0.0000 C   0  0
   10.4381   -7.3637    0.0000 C   0  0
    9.7218   -7.7681    0.0000 C   0  0
   11.1638   -6.1298    0.0000 N   0  3
   11.8749   -6.5479    0.0000 O   0  0
   11.1712   -5.3037    0.0000 O   0  5
    6.8828   -5.2729    0.0000 O   0  0
    5.4357   -7.7338    0.0000 O   0  0
  1  2  1  0
  2  3  2  0
  3  4  1  0
  4  5  2  0
  1  5  1  0
  6  7  2  0
  6  8  1  0
  3  6  1  0
  9 10  1  0
 10 11  1  0
 11 12  1  0
 12 13  1  0
 13 14  1  0
  9 14  1  0
 15 16  1  0
 16 17  1  0
  9 16  1  0
  8 12  1  0
 18 19  1  0
 19 20  2  0
 20 21  1  0
 21 22  2  0
 22 23  1  0
 18 23  2  0
 25 26  1  0
 26 27  2  0
 27 28  1  0
 28 29  2  0
 29 30  1  0
 25 30  2  0
 24 25  1  0
 31 32  2  0
 31 33  1  0
 28 31  1  0
 23 24  1  0
 21 34  1  0
 19 35  1  0
  5 18  1  0
M  CHG  2  31   1  33  -1
M  END