
          11280714582D 1   1.00000     0.00000     0

 48 51  0     1  0            999 V2000
    1.9875   -0.7375    0.0000 P   0  0  3  0  0  0           0  0  0
    4.5792   -3.4375    0.0000 C   0  0  0  0  0  0           0  0  0
    5.1042   -3.1375    0.0000 N   0  0  0  0  0  0           0  0  0
    3.5417   -4.0375    0.0000 C   0  0  0  0  0  0           0  0  0
    6.1417   -3.1375    0.0000 C   0  0  0  0  0  0           0  0  0
    4.0625   -3.1375    0.0000 C   0  0  1  0  0  0           0  0  0
    3.5417   -3.4375    0.0000 N   0  0  0  0  0  0           0  0  0
    2.5042   -4.0375    0.0000 C   0  0  0  0  0  0           0  0  0
    5.6167   -3.4375    0.0000 C   0  0  2  0  0  0           0  0  0
    6.6625   -3.4375    0.0000 N   0  0  0  0  0  0           0  0  0
    3.0250   -4.3375    0.0000 C   0  0  0  0  0  0           0  0  0
    1.9917   -4.3375    0.0000 C   0  0  0  0  0  0           0  0  0
    1.9875   -1.3375    0.0000 O   0  0  0  0  0  0           0  0  0
    5.1042   -4.9375    0.0000 C   0  0  0  0  0  0           0  0  0
    1.4292   -0.1875    0.0000 O   0  0  0  0  0  0           0  0  0
    4.5792   -4.0375    0.0000 O   0  0  0  0  0  0           0  0  0
    4.0625   -2.5375    0.0000 C   0  0  0  0  0  0           0  0  0
    6.1417   -2.5375    0.0000 O   0  0  0  0  0  0           0  0  0
    4.0625   -4.3375    0.0000 O   0  0  0  0  0  0           0  0  0
    4.5792   -5.2375    0.0000 O   0  0  0  0  0  0           0  0  0
    5.6167   -4.0375    0.0000 C   0  0  0  0  0  0           0  0  0
    2.6500   -0.4042    0.0000 O   0  0  0  0  0  0           0  0  0
    1.3042   -1.0917    0.0000 O   0  0  0  0  0  0           0  0  0
    1.4667   -4.0375    0.0000 C   0  0  0  0  0  0           0  0  0
    5.1042   -4.3375    0.0000 C   0  0  0  0  0  0           0  0  0
    2.5042   -1.6292    0.0000 C   0  0  0  0  0  0           0  0  0
    3.5417   -2.2375    0.0000 C   0  0  0  0  0  0           0  0  0
    7.1792   -3.1375    0.0000 C   0  0  0  0  0  0           0  0  0
    7.7000   -3.4375    0.0000 C   0  0  0  0  0  0           0  0  0
    8.7375   -4.0375    0.0000 C   0  0  0  0  0  0           0  0  0
    5.6167   -5.2375    0.0000 O   0  0  0  0  0  0           0  0  0
    3.0292   -2.5292    0.0000 C   0  0  0  0  0  0           0  0  0
    3.5417   -1.6292    0.0000 C   0  0  0  0  0  0           0  0  0
    3.0250   -1.3292    0.0000 C   0  0  0  0  0  0           0  0  0
    2.5042   -2.2375    0.0000 C   0  0  0  0  0  0           0  0  0
    8.2167   -3.1375    0.0000 C   0  0  0  0  0  0           0  0  0
    7.7000   -4.0375    0.0000 C   0  0  0  0  0  0           0  0  0
    8.2167   -4.3375    0.0000 C   0  0  0  0  0  0           0  0  0
    8.7375   -3.4292    0.0000 C   0  0  0  0  0  0           0  0  0
    2.5042   -3.4292    0.0000 C   0  0  0  0  0  0           0  0  0
    9.2542   -4.3375    0.0000 O   0  0  0  0  0  0           0  0  0
    1.9875   -3.1292    0.0000 C   0  0  0  0  0  0           0  0  0
    2.0000   -4.9375    0.0000 C   0  0  0  0  0  0           0  0  0
    1.4667   -3.4292    0.0000 C   0  0  0  0  0  0           0  0  0
    0.9542   -4.3375    0.0000 C   0  0  0  0  0  0           0  0  0
    9.2542   -4.9375    0.0000 C   0  0  0  0  0  0           0  0  0
    1.4792   -5.2375    0.0000 C   0  0  0  0  0  0           0  0  0
    0.9542   -4.9417    0.0000 C   0  0  0  0  0  0           0  0  0
  2  6  1  0     0  0
  3  2  1  0     0  0
  4  7  1  0     0  0
  5  9  1  0     0  0
  6 17  1  1     0  0
  7  6  1  0     0  0
  8 11  1  0     0  0
  9  3  1  0     0  0
 10  5  1  0     0  0
 11  4  1  0     0  0
 12  8  2  0     0  0
 13  1  1  0     0  0
 14 25  1  0     0  0
 15  1  2  0     0  0
 16  2  2  0     0  0
 17 27  1  0     0  0
 18  5  2  0     0  0
 19  4  2  0     0  0
 20 14  2  0     0  0
  9 21  1  6     0  0
 22  1  1  0     0  0
 23  1  1  0     0  0
 24 12  1  0     0  0
 25 21  1  0     0  0
 26 13  1  0     0  0
 27 32  1  0     0  0
 28 10  1  0     0  0
 29 28  1  0     0  0
 30 38  2  0     0  0
 31 14  1  0     0  0
 32 35  2  0     0  0
 33 34  1  0     0  0
 34 26  2  0     0  0
 35 26  1  0     0  0
 36 29  1  0     0  0
 37 29  2  0     0  0
 38 37  1  0     0  0
 39 36  2  0     0  0
 40  8  1  0     0  0
 41 30  1  0     0  0
 42 40  2  0     0  0
 43 12  1  0     0  0
 44 42  1  0     0  0
 45 24  1  0     0  0
 46 41  1  0     0  0
 47 43  2  0     0  0
 48 47  1  0     0  0
 27 33  2  0     0  0
 24 44  2  0     0  0
 45 48  2  0     0  0
 39 30  1  0     0  0
M  END