
  SciTegic06051315212D

 31 35  0  0  0  0            999 V2000
    6.1391   -9.2612    0.0000 C   0  0
    8.6316   -8.4833    0.0000 C   0  0
    6.1389  -10.0786    0.0000 N   0  0
    6.1374   -7.6235    0.0000 C   0  0
    6.8478   -8.8516    0.0000 C   0  0
    5.9889   -5.1334    0.0000 C   0  0
    6.7427   -6.3311    0.0000 C   0  0
    7.4649   -6.7082    0.0000 C   0  0
    8.7372   -7.0731    0.0000 C   0  0
    8.2772   -7.7508    0.0000 C   0  0
    6.0521   -6.7666    0.0000 C   0  0
    8.2329   -6.4294    0.0000 N   0  0
    7.4927   -7.5261    0.0000 N   0  0
    6.7119   -5.5131    0.0000 C   0  0
    9.5473   -7.1310    0.0000 C   0  0
    5.2953   -5.5690    0.0000 C   0  0
    9.9042   -7.8607    0.0000 C   0  0
    5.3302   -6.3899    0.0000 C   0  0
    6.8450   -8.0288    0.0000 C   0  0
    5.4321   -8.8521    0.0000 N   0  0
    5.4332   -8.0325    0.0000 C   0  0
    9.4458   -8.5434    0.0000 C   0  0
    5.9573   -4.3168    0.0000 Cl  0  0
    5.4311  -10.4870    0.0000 C   0  0
    4.7293  -10.0745    0.0000 C   0  0
    4.0236  -10.4795    0.0000 C   0  0
    4.0192  -11.2970    0.0000 C   0  0
    4.7266  -11.7080    0.0000 C   0  0
    5.4385  -11.3014    0.0000 C   0  0
   10.7195   -7.9164    0.0000 O   0  0
    4.5718   -5.1890    0.0000 Cl  0  0
  9 10  2  0
  2 22  2  0
  8  7  1  0
 12  8  2  0
  4 21  1  0
  1  3  1  0
  8 13  1  0
 17 15  2  0
 22 17  1  0
  1  5  2  0
 21 20  2  0
  5 19  1  0
 18 11  2  0
 20  1  1  0
  7 14  2  0
 11  7  1  0
 15  9  1  0
  9 12  1  0
 16 18  1  0
 19  4  2  0
 16  6  2  0
 10  2  1  0
 13 10  1  0
 19 13  1  0
 14  6  1  0
  6 23  1  0
  3 24  1  0
 24 25  1  0
 24 29  1  0
 25 26  1  0
 26 27  1  0
 27 28  1  0
 28 29  1  0
 17 30  1  0
 16 31  1  0
M  END