
          11280714522D 1   1.00000     0.00000     0

 54 58  0     1  0            999 V2000
   11.3375   -3.0250    0.0000 N   0  0  0  0  0  0           0  0  0
   12.1125   -2.8500    0.0000 C   0  0  2  0  0  0           0  0  0
   12.1375   -1.4000    0.0000 N   0  0  3  0  0  0           0  0  0
   12.4750   -2.1292    0.0000 C   0  0  0  0  0  0           0  0  0
   10.7042   -2.5125    0.0000 C   0  0  0  0  0  0           0  0  0
    1.7292  -10.9292    0.0000 C   0  0  0  0  0  0           0  0  0
   10.7250   -1.7125    0.0000 C   0  0  0  0  0  0           0  0  0
   12.6042   -3.4750    0.0000 N   0  0  0  0  0  0           0  0  0
    0.9792  -11.1792    0.0000 N   0  0  0  0  0  0           0  0  0
   11.3542   -1.2167    0.0000 C   0  0  0  0  0  0           0  0  0
    2.3750  -11.4042    0.0000 N   0  0  0  0  0  0           0  0  0
   12.3042   -4.2125    0.0000 C   0  0  0  0  0  0           0  0  0
    0.3875  -10.6542    0.0000 C   0  0  0  0  0  0           0  0  0
    1.9792  -10.1792    0.0000 S   0  0  0  0  0  0           0  0  0
    3.0167  -10.9292    0.0000 C   0  0  0  0  0  0           0  0  0
    2.7750  -10.1667    0.0000 C   0  0  0  0  0  0           0  0  0
   12.8000   -4.8375    0.0000 N   0  0  0  0  0  0           0  0  0
   10.1417   -5.8917    0.0000 C   0  0  0  0  0  0           0  0  0
   13.2667   -2.1375    0.0000 O   0  0  0  0  0  0           0  0  0
    6.1167   -8.5375    0.0000 C   0  0  0  0  0  0           0  0  0
   10.0000   -2.8500    0.0000 C   0  0  0  0  0  0           0  0  0
   11.5250   -4.3167    0.0000 O   0  0  0  0  0  0           0  0  0
   12.5000   -5.5667    0.0000 C   0  0  0  0  0  0           0  0  0
   10.4500   -5.1625    0.0000 O   0  0  0  0  0  0           0  0  0
    5.4250   -8.1542    0.0000 O   0  0  0  0  0  0           0  0  0
   11.4167   -6.4125    0.0000 C   0  0  0  0  0  0           0  0  0
    0.5542   -9.8792    0.0000 N   0  0  0  0  0  0           0  0  0
   -0.3625  -10.9042    0.0000 N   0  0  0  0  0  0           0  0  0
   10.6375   -6.5167    0.0000 C   0  0  0  0  0  0           0  0  0
    9.3625   -6.0000    0.0000 N   0  0  0  0  0  0           0  0  0
    6.1417   -9.3250    0.0000 N   0  0  0  0  0  0           0  0  0
   11.7167   -5.6750    0.0000 C   0  0  0  0  0  0           0  0  0
   12.6292   -0.7917    0.0000 C   0  0  0  0  0  0           0  0  0
    9.9917   -1.4125    0.0000 C   0  0  0  0  0  0           0  0  0
    4.1750  -10.1667    0.0000 S   0  0  0  0  0  0           0  0  0
    3.8167  -10.8792    0.0000 C   0  0  0  0  0  0           0  0  0
   11.2375   -0.4375    0.0000 C   0  0  0  0  0  0           0  0  0
   12.6875   -6.9250    0.0000 C   0  0  0  0  0  0           0  0  0
    6.9042   -8.4292    0.0000 C   0  0  0  0  0  0           0  0  0
   12.9875   -6.1875    0.0000 C   0  0  0  0  0  0           0  0  0
   11.9042   -7.0375    0.0000 C   0  0  0  0  0  0           0  0  0
    9.3500   -2.3875    0.0000 C   0  0  0  0  0  0           0  0  0
    9.9292   -3.6375    0.0000 C   0  0  0  0  0  0           0  0  0
    5.3250   -9.3792    0.0000 C   0  0  0  0  0  0           0  0  0
    9.0667   -6.7375    0.0000 C   0  0  0  0  0  0           0  0  0
    4.9625  -10.1167    0.0000 C   0  0  0  0  0  0           0  0  0
    7.2000   -7.6917    0.0000 C   0  0  0  0  0  0           0  0  0
    8.2875   -6.8417    0.0000 C   0  0  0  0  0  0           0  0  0
    9.8875   -0.6125    0.0000 C   0  0  0  0  0  0           0  0  0
    7.9875   -7.5875    0.0000 C   0  0  0  0  0  0           0  0  0
   10.5042   -0.1375    0.0000 C   0  0  0  0  0  0           0  0  0
    9.2250   -3.9667    0.0000 C   0  0  0  0  0  0           0  0  0
    8.6375   -2.7250    0.0000 C   0  0  0  0  0  0           0  0  0
    8.5625   -3.5250    0.0000 C   0  0  0  0  0  0           0  0  0
  2  1  1  0     0  0
  3  4  1  0     0  0
  4  2  1  0     0  0
  5  1  2  0     0  0
  6 11  2  0     0  0
  7  5  1  0     0  0
  2  8  1  6     0  0
  9  6  1  0     0  0
 10  7  1  0     0  0
 11 15  1  0     0  0
 12  8  1  0     0  0
 13  9  2  0     0  0
 14 16  1  0     0  0
 15 36  1  0     0  0
 16 15  2  0     0  0
 17 12  1  0     0  0
 18 29  1  0     0  0
 19  4  2  0     0  0
 20 39  1  0     0  0
 21  5  1  0     0  0
 22 12  2  0     0  0
 23 17  1  0     0  0
 24 18  2  0     0  0
 25 20  2  0     0  0
 26 32  1  0     0  0
 27 13  1  0     0  0
 28 13  1  0     0  0
 29 26  1  0     0  0
 30 18  1  0     0  0
 31 20  1  0     0  0
 32 23  2  0     0  0
 33  3  1  0     0  0
 34  7  2  0     0  0
 35 46  1  0     0  0
 36 35  1  0     0  0
 37 10  2  0     0  0
 38 40  2  0     0  0
 39 47  1  0     0  0
 40 23  1  0     0  0
 41 38  1  0     0  0
 42 21  2  0     0  0
 43 21  1  0     0  0
 44 31  1  0     0  0
 45 30  1  0     0  0
 46 44  1  0     0  0
 47 50  1  0     0  0
 48 45  1  0     0  0
 49 34  1  0     0  0
 50 48  1  0     0  0
 51 49  2  0     0  0
 52 43  2  0     0  0
 53 42  1  0     0  0
 54 52  1  0     0  0
 10  3  1  0     0  0
 53 54  2  0     0  0
 37 51  1  0     0  0
 26 41  2  0     0  0
 14  6  1  0     0  0
M  END