
          11290714372D 1   1.00000     0.00000     0

 25 26  0     1  0            999 V2000
   16.1405   -9.9809    0.0000 C   0  0  0  0  0  0           0  0  0
   16.1393  -10.8081    0.0000 C   0  0  0  0  0  0           0  0  0
   16.8540  -11.2208    0.0000 C   0  0  0  0  0  0           0  0  0
   17.5702  -10.8076    0.0000 C   0  0  0  0  0  0           0  0  0
   17.5673   -9.9773    0.0000 C   0  0  0  0  0  0           0  0  0
   16.8522   -9.5682    0.0000 C   0  0  0  0  0  0           0  0  0
   16.8492   -8.7397    0.0000 C   0  0  0  0  0  0           0  0  0
   17.5623   -8.3251    0.0000 O   0  0  0  0  0  0           0  0  0
   16.1337   -8.3294    0.0000 O   0  0  0  0  0  0           0  0  0
   15.4261   -9.5687    0.0000 C   0  0  0  0  0  0           0  0  0
   14.7119   -9.9812    0.0000 N   0  0  3  0  0  0           0  0  0
   13.9973   -9.5681    0.0000 C   0  0  0  0  0  0           0  0  0
   13.2852   -9.9772    0.0000 C   0  0  0  0  0  0           0  0  0
   13.2812  -10.8023    0.0000 C   0  0  0  0  0  0           0  0  0
   13.9954  -11.2168    0.0000 N   0  0  3  0  0  0           0  0  0
   14.7137  -10.8060    0.0000 C   0  0  0  0  0  0           0  0  0
   13.9984   -8.7433    0.0000 O   0  0  0  0  0  0           0  0  0
   15.4276  -11.2191    0.0000 O   0  0  0  0  0  0           0  0  0
   13.9928  -12.0415    0.0000 C   0  0  0  0  0  0           0  0  0
   13.2772  -12.4517    0.0000 C   0  0  2  0  0  0           0  0  0
   12.5642  -12.0370    0.0000 N   0  0  0  0  0  0           0  0  0
   13.2756  -13.2776    0.0000 C   0  0  0  0  0  0           0  0  0
   12.5601  -13.6877    0.0000 O   0  0  0  0  0  0           0  0  0
   13.9886  -13.6922    0.0000 O   0  0  0  0  0  0           0  0  0
   12.5724   -9.5623    0.0000 Br  0  0  0  0  0  0           0  0  0
  6  1  1  0     0  0
  1  2  2  0     0  0
  3  4  2  0     0  0
 11 16  1  0     0  0
 12 13  1  0     0  0
 13 14  2  0     0  0
 14 15  1  0     0  0
 15 16  1  0     0  0
  7  8  1  0     0  0
 12 17  2  0     0  0
  7  9  2  0     0  0
 16 18  2  0     0  0
  6  7  1  0     0  0
 15 19  1  0     0  0
  4  5  1  0     0  0
 19 20  1  0     0  0
  1 10  1  0     0  0
 20 21  1  1     0  0
  2  3  1  0     0  0
 10 11  1  0     0  0
 11 12  1  0     0  0
 22 23  1  0     0  0
 22 24  2  0     0  0
 20 22  1  0     0  0
  5  6  2  0     0  0
 13 25  1  0     0  0
M  END