
  SciTegic10311316242D

 20 22  0  0  0  0            999 V2000
    6.9909   -8.7929    0.0000 C   0  0
    6.9898   -9.6203    0.0000 C   0  0
    7.7046  -10.0331    0.0000 C   0  0
    7.7028   -8.3801    0.0000 N   0  0
    8.4182   -8.7893    0.0000 C   0  0
    8.4189   -9.6161    0.0000 C   0  0
    9.1342  -10.0271    0.0000 N   0  0
    9.8493   -9.6123    0.0000 C   0  0
    9.8445   -8.7823    0.0000 N   0  0
    9.1286   -8.3751    0.0000 C   0  0
   10.5653  -10.0220    0.0000 N   0  0
    6.2750  -10.0322    0.0000 C   0  0
    5.5608   -9.6191    0.0000 C   0  0
    9.1242   -7.5501    0.0000 N   0  0
    9.7847   -7.0608    0.0000 C   0  0
    9.5256   -6.2775    0.0000 C   0  0  1  0  0  0
    8.7005   -6.2819    0.0000 C   0  0
    8.4499   -7.0679    0.0000 C   0  0
   10.0069   -5.6075    0.0000 N   0  0
   10.8279   -5.6894    0.0000 C   0  0
  1  2  2  0
  2  3  1  0
  3  6  2  0
  5  4  2  0
  4  1  1  0
  5  6  1  0
  6  7  1  0
  7  8  2  0
  8  9  1  0
  9 10  2  0
 10  5  1  0
  8 11  1  0
  2 12  1  0
 12 13  1  0
 10 14  1  0
 14 15  1  0
 15 16  1  0
 16 17  1  0
 17 18  1  0
 18 14  1  0
 16 19  1  1
 19 20  1  0
M  END