
  SciTegic12231509382D

 33 34  0  0  0  0            999 V2000
    2.7771   -1.0106    0.0000 C   0  0  1  0  0  0
    1.2990   -0.7500    0.0000 C   0  0
    3.2899   -2.4210    0.0000 C   0  0
    3.7000   -3.5488    0.0000 N   0  0
    1.2990    0.7500    0.0000 C   0  0
    0.0000    1.5000    0.0000 C   0  0
   13.5131    3.6960    0.0000 C   0  0
   -1.2990    0.7500    0.0000 C   0  0
   12.9981    5.1048    0.0000 C   0  0
    0.0000   -1.5000    0.0000 C   0  0
   12.5505    2.5456    0.0000 C   0  0
   -1.2990   -0.7500    0.0000 C   0  0
   11.5205    5.3632    0.0000 C   0  0
    1.7905   -2.1800    0.0000 C   0  0
   11.0729    2.8039    0.0000 C   0  0
    7.6640    0.7663    0.0000 N   0  0
   10.5579    4.2128    0.0000 C   0  0
    0.0031    3.0008    0.0000 O   0  0
    8.6294    1.9154    0.0000 C   0  0
   14.9909    3.4344    0.0000 O   0  0
   10.1075    1.6548    0.0000 C   0  0
    3.7425    0.1385    0.0000 C   0  0
   13.9588    6.2579    0.0000 O   0  0
   -2.6003    1.4977    0.0000 O   0  0
    5.2205   -0.1221    0.0000 C   0  0
    6.1860    1.0270    0.0000 C   0  0
    8.0741   -0.3614    0.0000 C   0  0
    0.6092   -1.9693    0.0000 C   0  0
    2.1983   -3.3086    0.0000 C   0  0
    1.0432    3.5994    0.0000 C   0  0
   15.4013    2.3068    0.0000 C   0  0
   13.5452    7.3843    0.0000 C   0  0
   -3.6387    0.8962    0.0000 C   0  0
  1  2  1  0
  1  3  1  1
  3  4  3  0
  2  5  1  0
  5  6  2  0
  6  8  1  0
  7  9  1  0
  2 10  2  0
  7 11  2  0
  8 12  2  0
 10 12  1  0
  9 13  2  0
  1 14  1  6
 11 15  1  0
 13 17  1  0
 15 17  2  0
  6 18  1  0
 16 19  1  0
  7 20  1  0
 15 21  1  0
 19 21  1  0
  1 22  1  0
  9 23  1  0
  8 24  1  0
 22 25  1  0
 16 26  1  0
 25 26  1  0
 16 27  1  0
 14 28  1  0
 14 29  1  0
 18 30  1  0
 20 31  1  0
 23 32  1  0
 24 33  1  0
M  END