
  SciTegic06181315362D

 35 38  0  0  0  0            999 V2000
    3.2192   -5.7946    0.0000 N   0  0
    2.5919   -5.5718    0.0000 C   0  0
    1.6798   -5.8978    0.0000 C   0  0
    1.2753   -5.1838    0.0000 C   0  0
    1.9481   -5.4067    0.0000 C   0  0
    2.8148   -5.0765    0.0000 C   0  0
    3.0926   -4.3080    0.0000 C   0  0
    3.8971   -4.1644    0.0000 O   0  0
    2.5660   -3.6831    0.0000 O   0  0
    4.1750   -3.3959    0.0000 C   0  0
    4.9794   -3.2523    0.0000 C   0  0
    5.2573   -2.4838    0.0000 O   0  0
    6.0618   -2.3401    0.0000 C   0  0
    6.5905   -2.9700    0.0000 C   0  0
    7.3943   -2.8269    0.0000 C   0  0
    7.6728   -2.0577    0.0000 C   0  0
    7.1415   -1.4313    0.0000 C   0  0
    6.3396   -1.5776    0.0000 C   0  0
    7.9206   -3.4520    0.0000 O   0  0
    8.4771   -1.9131    0.0000 O   0  0
    9.0046   -2.5372    0.0000 C   0  0
    8.7251   -3.3088    0.0000 C   0  0
    3.8445   -6.3208    0.0000 S   0  0
    3.7014   -7.1254    0.0000 C   0  0
    4.4203   -5.7368    0.0000 O   0  0
    4.6308   -6.5293    0.0000 O   0  0
    2.9331   -7.4016    0.0000 C   0  0
    2.7898   -8.2054    0.0000 C   0  0
    4.3264   -7.6472    0.0000 C   0  0
    4.1868   -8.4502    0.0000 C   0  0
    3.4147   -8.7367    0.0000 C   0  0
    3.4485   -9.5596    0.0000 N   0  0
    4.2416   -9.7817    0.0000 C   0  0
    4.6978   -9.0960    0.0000 S   0  0
    4.5260  -10.5478    0.0000 O   0  0
  1  2  1  0
  2  3  1  0
  3  4  1  0
  4  5  1  0
  5  6  1  0
  6  1  1  0
  6  7  1  0
  7  8  1  0
  7  9  2  0
  8 10  1  0
 10 11  1  0
 11 12  1  0
 12 13  1  0
 13 14  2  0
 14 15  1  0
 15 16  2  0
 16 17  1  0
 17 18  2  0
 18 13  1  0
 15 19  1  0
 16 20  1  0
 20 21  1  0
 19 22  1  0
  1 23  1  0
 23 24  1  0
 23 25  2  0
 23 26  2  0
 24 27  2  0
 27 28  1  0
 28 31  2  0
 30 29  2  0
 29 24  1  0
 30 31  1  0
 31 32  1  0
 32 33  1  0
 33 34  1  0
 34 30  1  0
 33 35  2  0
M  END