
          11280715012D 1   1.00000     0.00000     0

 28 30  0     1  0            999 V2000
    4.8625   -4.3917    0.0000 C   0  0  0  0  0  0           0  0  0
    4.3792   -5.0542    0.0000 N   0  0  3  0  0  0           0  0  0
    5.6417   -4.6500    0.0000 C   0  0  0  0  0  0           0  0  0
    7.7917   -4.2250    0.0000 C   0  0  0  0  0  0           0  0  0
    5.6417   -5.4667    0.0000 C   0  0  0  0  0  0           0  0  0
    6.3542   -4.2292    0.0000 C   0  0  0  0  0  0           0  0  0
    4.8625   -5.7250    0.0000 C   0  0  0  0  0  0           0  0  0
    7.0750   -4.6417    0.0000 C   0  0  0  0  0  0           0  0  0
    8.5042   -4.6417    0.0000 N   0  0  0  0  0  0           0  0  0
    9.9292   -4.6417    0.0000 C   0  0  0  0  0  0           0  0  0
   10.6417   -4.2375    0.0000 C   0  0  0  0  0  0           0  0  0
    4.6042   -3.6042    0.0000 O   0  0  0  0  0  0           0  0  0
    3.5542   -5.0542    0.0000 C   0  0  0  0  0  0           0  0  0
    7.7917   -3.4000    0.0000 O   0  0  0  0  0  0           0  0  0
    0.6667   -5.8417    0.0000 N   0  0  0  0  0  0           0  0  0
    6.3625   -5.8875    0.0000 C   0  0  0  0  0  0           0  0  0
    7.0792   -5.4667    0.0000 C   0  0  0  0  0  0           0  0  0
    9.2167   -4.2292    0.0000 C   0  0  1  0  0  0           0  0  0
   10.6417   -3.4125    0.0000 O   0  0  0  0  0  0           0  0  0
   11.3625   -4.6500    0.0000 O   0  0  0  0  0  0           0  0  0
    3.1417   -5.7667    0.0000 C   0  0  0  0  0  0           0  0  0
    9.9167   -2.9792    0.0000 O   0  0  0  0  0  0           0  0  0
    2.3167   -5.7667    0.0000 C   0  0  3  0  0  0           0  0  0
    1.1125   -6.5417    0.0000 C   0  0  0  0  0  0           0  0  0
    1.0500   -5.1125    0.0000 C   0  0  0  0  0  0           0  0  0
    9.2125   -3.4042    0.0000 C   0  0  0  0  0  0           0  0  0
    1.9417   -6.5042    0.0000 C   0  0  0  0  0  0           0  0  0
    1.8667   -5.0750    0.0000 C   0  0  0  0  0  0           0  0  0
  2  1  1  0     0  0
  3  1  1  0     0  0
  4  8  1  0     0  0
  5  3  2  0     0  0
  6  3  1  0     0  0
  7  2  1  0     0  0
  8  6  2  0     0  0
  9  4  1  0     0  0
 10 18  1  0     0  0
 11 10  1  0     0  0
 12  1  2  0     0  0
 13  2  1  0     0  0
 14  4  2  0     0  0
 15 25  1  0     0  0
 16  5  1  0     0  0
 17  8  1  0     0  0
 18  9  1  0     0  0
 19 11  2  0     0  0
 20 11  1  0     0  0
 21 13  1  0     0  0
 22 26  1  0     0  0
 23 21  1  0     0  0
 24 27  1  0     0  0
 25 28  1  0     0  0
 18 26  1  6     0  0
 27 23  1  0     0  0
 28 23  1  0     0  0
  7  5  1  0     0  0
 16 17  2  0     0  0
 24 15  1  0     0  0
M  END