
          11280715262D 1   1.00000     0.00000     0

 54 56  0     0  0            999 V2000
    1.8667   -4.0625    0.0000 C   0  0  0  0  0  0           0  0  0
    1.8667   -4.8875    0.0000 C   0  0  0  0  0  0           0  0  0
    3.2917   -4.0542    0.0000 C   0  0  0  0  0  0           0  0  0
    4.0042   -3.6417    0.0000 S   0  0  3  0  0  0           0  0  0
    4.0042   -8.6000    0.0000 S   0  0  3  0  0  0           0  0  0
    9.7125   -8.6042    0.0000 S   0  0  3  0  0  0           0  0  0
    1.1542   -3.6417    0.0000 C   0  0  0  0  0  0           0  0  0
    1.1542   -5.3042    0.0000 C   0  0  0  0  0  0           0  0  0
    2.5792   -3.6500    0.0000 C   0  0  0  0  0  0           0  0  0
    4.0042   -7.7750    0.0000 C   0  0  0  0  0  0           0  0  0
    7.5750   -7.3625    0.0000 C   0  0  0  0  0  0           0  0  0
    6.1500   -7.3625    0.0000 C   0  0  0  0  0  0           0  0  0
    6.8625   -7.7750    0.0000 N   0  0  0  0  0  0           0  0  0
    6.1417   -6.5417    0.0000 N   0  0  0  0  0  0           0  0  0
    7.5750   -6.5375    0.0000 N   0  0  0  0  0  0           0  0  0
    2.5792   -5.3000    0.0000 C   0  0  0  0  0  0           0  0  0
    9.7167   -7.7792    0.0000 C   0  0  0  0  0  0           0  0  0
    3.2917   -4.8875    0.0000 C   0  0  0  0  0  0           0  0  0
    0.4417   -4.0625    0.0000 C   0  0  0  0  0  0           0  0  0
    0.4375   -4.8875    0.0000 C   0  0  0  0  0  0           0  0  0
    6.8542   -6.1250    0.0000 C   0  0  0  0  0  0           0  0  0
    4.7167   -7.3625    0.0000 C   0  0  0  0  0  0           0  0  0
    5.4292   -7.7750    0.0000 N   0  0  0  0  0  0           0  0  0
    8.2875   -7.7792    0.0000 N   0  0  0  0  0  0           0  0  0
    9.0042   -7.3667    0.0000 C   0  0  0  0  0  0           0  0  0
    2.5792   -6.1250    0.0000 N   0  0  0  0  0  0           0  0  0
    3.2917   -7.3625    0.0000 C   0  0  0  0  0  0           0  0  0
    4.7167   -3.2292    0.0000 O   0  5  0  0  0  0           0  0  0
    4.0000   -9.4250    0.0000 O   0  5  0  0  0  0           0  0  0
    9.7042   -9.4292    0.0000 O   0  5  0  0  0  0           0  0  0
    4.7250   -4.0542    0.0000 O   0  0  0  0  0  0           0  0  0
    4.0042   -2.8167    0.0000 O   0  0  0  0  0  0           0  0  0
    4.7167   -9.0125    0.0000 O   0  0  0  0  0  0           0  0  0
    3.2875   -9.0125    0.0000 O   0  0  0  0  0  0           0  0  0
   10.4292   -9.0167    0.0000 O   0  0  0  0  0  0           0  0  0
    9.0000   -9.0167    0.0000 O   0  0  0  0  0  0           0  0  0
    1.1542   -2.8167    0.0000 O   0  0  0  0  0  0           0  0  0
    1.1500   -6.1292    0.0000 O   0  0  0  0  0  0           0  0  0
    3.2917   -6.5375    0.0000 C   0  0  0  0  0  0           0  0  0
    2.5792   -2.8250    0.0000 N   0  0  0  0  0  0           0  0  0
    4.7167   -6.5292    0.0000 C   0  0  0  0  0  0           0  0  0
    6.8500   -5.3000    0.0000 Cl  0  0  0  0  0  0           0  0  0
    4.0042   -6.1250    0.0000 C   0  0  0  0  0  0           0  0  0
   10.4292   -7.3667    0.0000 C   0  0  0  0  0  0           0  0  0
   -0.2750   -5.3042    0.0000 C   0  0  0  0  0  0           0  0  0
   -0.2750   -3.6500    0.0000 C   0  0  0  0  0  0           0  0  0
    9.4625  -10.3125    0.0000 Na  0  3  0  0  0  0           0  0  0
    3.7625  -10.4042    0.0000 Na  0  3  0  0  0  0           0  0  0
    5.5750   -2.7792    0.0000 Na  0  3  0  0  0  0           0  0  0
    9.0000   -6.5417    0.0000 C   0  0  0  0  0  0           0  0  0
   10.4292   -6.5417    0.0000 C   0  0  0  0  0  0           0  0  0
   -0.9875   -4.8917    0.0000 C   0  0  0  0  0  0           0  0  0
   -0.9875   -4.0667    0.0000 C   0  0  0  0  0  0           0  0  0
    9.7125   -6.1292    0.0000 C   0  0  0  0  0  0           0  0  0
  2  1  2  0     0  0
  3  9  2  0     0  0
  4  3  1  0     0  0
  5 10  1  0     0  0
  6 17  1  0     0  0
  7  1  1  0     0  0
  8  2  1  0     0  0
  9  1  1  0     0  0
 10 27  1  0     0  0
 11 13  1  0     0  0
 12 23  1  0     0  0
 13 12  2  0     0  0
 14 12  1  0     0  0
 15 21  1  0     0  0
 16  2  1  0     0  0
 17 25  2  0     0  0
 18  3  1  0     0  0
 19  7  1  0     0  0
 20 19  1  0     0  0
 21 14  2  0     0  0
 22 41  1  0     0  0
 23 22  1  0     0  0
 24 11  1  0     0  0
 25 24  1  0     0  0
 26 16  1  0     0  0
 27 39  2  0     0  0
 28  4  1  0     0  0
 29  5  1  0     0  0
 30  6  1  0     0  0
 31  4  2  0     0  0
 32  4  2  0     0  0
 33  5  2  0     0  0
 34  5  2  0     0  0
 35  6  2  0     0  0
 36  6  2  0     0  0
 37  7  2  0     0  0
 38  8  2  0     0  0
 39 26  1  0     0  0
 40  9  1  0     0  0
 41 43  2  0     0  0
 42 21  1  0     0  0
 43 39  1  0     0  0
 44 17  1  0     0  0
 45 20  2  0     0  0
 46 19  2  0     0  0
 50 25  1  0     0  0
 51 54  1  0     0  0
 52 53  2  0     0  0
 53 46  1  0     0  0
 54 50  2  0     0  0
 16 18  2  0     0  0
  8 20  1  0     0  0
 52 45  1  0     0  0
 10 22  2  0     0  0
 11 15  2  0     0  0
 44 51  2  0     0  0
M  CHG  6  28  -1  29  -1  30  -1  47   1  48   1  49   1
M  END