
          11290713132D 1   1.00000     0.00000     0

 21 22  0     0  0            999 V2000
   -2.1250  -24.7875    0.0000 N   0  0  0  0  0  0           0  0  0
   -2.1250  -25.6125    0.0000 C   0  0  0  0  0  0           0  0  0
   -1.4130  -26.0208    0.0000 N   0  0  0  0  0  0           0  0  0
   -0.7010  -25.6125    0.0000 C   0  0  0  0  0  0           0  0  0
   -0.7010  -24.7875    0.0000 C   0  0  0  0  0  0           0  0  0
   -1.4130  -24.3708    0.0000 C   0  0  0  0  0  0           0  0  0
   -2.8389  -26.0260    0.0000 S   0  0  0  0  0  0           0  0  0
   -1.4130  -23.5458    0.0000 O   0  0  0  0  0  0           0  0  0
    0.0129  -26.0260    0.0000 O   0  0  0  0  0  0           0  0  0
    0.0147  -24.3771    0.0000 C   0  0  0  0  0  0           0  0  0
    0.7280  -24.7917    0.0000 C   0  0  0  0  0  0           0  0  0
    0.7240  -25.6177    0.0000 C   0  0  0  0  0  0           0  0  0
    1.4364  -26.0322    0.0000 C   0  0  0  0  0  0           0  0  0
    2.1530  -25.6218    0.0000 C   0  0  0  0  0  0           0  0  0
    2.1528  -24.7925    0.0000 C   0  0  0  0  0  0           0  0  0
    1.4398  -24.3817    0.0000 C   0  0  0  0  0  0           0  0  0
    2.8669  -26.0354    0.0000 O   0  0  0  0  0  0           0  0  0
    3.5820  -25.6241    0.0000 C   0  0  0  0  0  0           0  0  0
    4.2958  -26.0377    0.0000 C   0  0  0  0  0  0           0  0  0
    5.0109  -25.6264    0.0000 N   0  0  0  0  0  0           0  0  0
    4.2945  -26.8627    0.0000 O   0  0  0  0  0  0           0  0  0
  3  4  1  0     0  0
 10 11  1  0     0  0
  4  5  1  0     0  0
 11 12  2  0     0  0
  5  6  1  0     0  0
 12 13  1  0     0  0
 13 14  2  0     0  0
  2  7  2  0     0  0
 14 15  1  0     0  0
  1  2  1  0     0  0
 15 16  2  0     0  0
 16 11  1  0     0  0
  6  8  2  0     0  0
 14 17  1  0     0  0
  1  6  1  0     0  0
 17 18  1  0     0  0
  4  9  2  0     0  0
 18 19  1  0     0  0
  2  3  1  0     0  0
 19 20  1  0     0  0
  5 10  2  0     0  0
 19 21  2  0     0  0
M  END