
  SciTegic12171312552D

 65 72  0  0  0  0            999 V2000
   16.2550  -12.8665    0.0000 F   0  0
   17.0550  -12.6540    0.0000 B   0  5
   16.4710  -12.0674    0.0000 F   0  0
   12.5129   -8.3303    0.0000 C   0  0
   13.2271   -8.7559    0.0000 C   0  0
   13.9418   -8.3315    0.0000 O   0  0
   12.5136   -7.5053    0.0000 O   0  0
   14.6560   -8.7570    0.0000 C   0  0
   14.6516   -9.5802    0.0000 C   0  0
   15.3648   -9.9932    0.0000 C   0  0
   16.0848   -9.5813    0.0000 C   0  0
   16.0829   -8.7521    0.0000 C   0  0
   15.3648   -8.3303    0.0000 C   0  0
   16.7953   -9.9934    0.0000 C   0  0
   16.7957  -10.8184    0.0000 C   0  0
   17.5187  -11.2305    0.0000 C   0  0
   18.8176  -11.5058    0.0000 C   0  0
   18.2652  -10.8932    0.0000 C   0  0
   18.4054  -12.2206    0.0000 C   0  0
   17.6028  -12.0484    0.0000 N   0  3
   18.6607  -12.9984    0.0000 C   0  0
   18.1079  -13.6076    0.0000 C   0  0
   17.3050  -13.4379    0.0000 N   0  0
   16.8997  -14.1490    0.0000 C   0  0
   17.4453  -14.7583    0.0000 C   0  0
   18.1945  -14.4236    0.0000 C   0  0
   16.0793  -14.2361    0.0000 C   0  0
   15.5226  -13.6287    0.0000 S   0  0
   14.7693  -13.9650    0.0000 C   0  0
   14.8564  -14.7855    0.0000 C   0  0
   15.6636  -14.9560    0.0000 C   0  0
    2.5157   -9.9757    0.0000 C   0  0
    2.5157  -10.8014    0.0000 C   0  0
    3.2265  -11.2158    0.0000 N   0  0
    3.9396  -10.8014    0.0000 C   0  0
    3.9396   -9.9757    0.0000 N   0  0
    3.2265   -9.5655    0.0000 C   0  0
    1.7258   -9.7213    0.0000 N   0  0
    1.2445  -10.3912    0.0000 C   0  0
    1.7258  -11.0558    0.0000 N   0  0
    3.2265   -8.7356    0.0000 N   0  0
    3.9396   -8.3253    0.0000 C   0  0
    1.4714  -11.8394    0.0000 C   0  0  2  0  0  0
    0.6857  -12.0991    0.0000 O   0  0
    0.6857  -12.9196    0.0000 C   0  0  1  0  0  0
    1.4714  -13.1771    0.0000 C   0  0  2  0  0  0
    1.9569  -12.5093    0.0000 C   0  0  1  0  0  0
    2.7826  -12.5093    0.0000 O   0  0
    1.7258  -13.9629    0.0000 O   0  0
    0.0179  -13.4040    0.0000 C   0  0
   -0.7398  -13.0711    0.0000 N   0  0
    0.1073  -14.2288    0.0000 O   0  0
   -1.4094  -13.5619    0.0000 C   0  0
   -2.1614  -13.2249    0.0000 C   0  0
    4.6534   -8.7389    0.0000 C   0  0
    5.3684   -8.3276    0.0000 C   0  0
    6.0823   -8.7412    0.0000 C   0  0
    6.7973   -8.3298    0.0000 C   0  0
    7.5112   -8.7434    0.0000 C   0  0
    8.2263   -8.3320    0.0000 C   0  0
    8.9400   -8.7456    0.0000 C   0  0
    9.6552   -8.3300    0.0000 C   0  0
   10.3689   -8.7478    0.0000 C   0  0
   11.0841   -8.3322    0.0000 C   0  0
   11.7979   -8.7499    0.0000 N   0  0
  2  1  1  0
  3  2  1  0
  4  5  1  0
  5  6  1  0
  4  7  2  0
  6  8  1  0
  8  9  2  0
  9 10  1  0
 10 11  2  0
 11 12  1  0
 12 13  2  0
 13  8  1  0
 11 14  1  0
 14 15  2  0
 15 16  1  0
 16 20  2  0
 19 17  1  0
 17 18  2  0
 18 16  1  0
 19 20  1  0
 19 21  2  0
 20  2  1  0
  2 23  1  0
 22 21  1  0
 22 23  1  0
 23 24  1  0
 24 25  2  0
 25 26  1  0
 26 22  2  0
 24 27  1  0
 27 28  1  0
 28 29  1  0
 29 30  2  0
 30 31  1  0
 31 27  2  0
 32 33  2  0
 33 34  1  0
 34 35  2  0
 35 36  1  0
 36 37  2  0
 37 32  1  0
 32 38  1  0
 38 39  2  0
 39 40  1  0
 40 33  1  0
 37 41  1  0
 41 42  1  0
 43 40  1  1
 43 44  1  0
 44 45  1  0
 45 46  1  0
 46 47  1  0
 47 43  1  0
 47 48  1  6
 46 49  1  6
 45 50  1  1
 50 51  1  0
 50 52  2  0
 51 53  1  0
 53 54  1  0
 42 55  1  0
 55 56  1  0
 56 57  1  0
 57 58  1  0
 58 59  1  0
 59 60  1  0
 60 61  1  0
 61 62  1  0
 62 63  1  0
 63 64  1  0
 64 65  1  0
 65  4  1  0
M  CHG  2   2  -1  20   1
M  END