
  SciTegic11201309402D

 37 45  0  0  0  0            999 V2000
   17.3606  -25.9019    0.0000 N   0  0
   17.8179  -25.2120    0.0000 C   0  0
   13.0156  -26.0847    0.0000 C   0  0
   13.0144  -26.9127    0.0000 C   0  0
   13.7276  -27.3258    0.0000 C   0  0
   14.4472  -26.9122    0.0000 C   0  0
   13.7256  -25.6719    0.0000 C   0  0
   14.4454  -26.0773    0.0000 C   0  0
   14.4263  -24.4280    0.0000 C   0  0  2  0  0  0
   13.7129  -24.8481    0.0000 C   0  0
   15.1461  -24.8334    0.0000 C   0  0  1  0  0  0
   15.1493  -25.6584    0.0000 C   0  0  2  0  0  0
   15.8613  -26.0658    0.0000 C   0  0  1  0  0  0
   15.8549  -24.4159    0.0000 C   0  0
   15.4233  -26.9075    0.0000 O   0  0
   15.1401  -24.0078    0.0000 O   0  0
   16.5715  -24.8279    0.0000 C   0  0
   16.5738  -25.6533    0.0000 C   0  0
   17.3559  -24.5709    0.0000 C   0  0
   18.4990  -23.7292    0.0000 C   0  0
   17.6845  -23.8213    0.0000 C   0  0
   16.5841  -26.7568    0.0000 H   0  0
   14.4191  -23.6018    0.0000 N   0  0
   13.9984  -24.3104    0.0000 C   0  0
   14.4340  -25.2458    0.0000 C   0  0
   14.4116  -22.7766    0.0000 C   0  0
   13.6930  -22.3705    0.0000 C   0  0
   13.2744  -21.6553    0.0000 C   0  0
   12.8683  -22.3739    0.0000 C   0  0
   13.7262  -28.1511    0.0000 O   0  0
   18.9895  -24.3939    0.0000 C   0  0
   18.6574  -25.1431    0.0000 C   0  0
   19.1376  -25.8016    0.0000 C   0  0
   19.9520  -25.7169    0.0000 C   0  0
   20.2840  -24.9677    0.0000 C   0  0
   19.8016  -24.3031    0.0000 C   0  0
   13.5560  -23.9355    0.0000 H   0  0
 17 18  2  0
  4  5  1  0
  1  2  1  0
 18  1  1  0
 19 17  1  0
  7 10  1  0
 19  2  2  0
  2 32  1  0
  8 12  1  0
 31 20  1  0
 11  9  1  0
 20 21  2  0
 21 19  1  0
  9 10  1  0
 13 22  1  1
 11 12  1  0
  9 23  1  0
  5  6  2  0
 23 24  1  0
  6  8  1  0
 12 25  1  1
 25 24  1  0
  7  3  1  0
 23 26  1  0
  7  8  2  0
 26 27  1  0
 28 27  1  0
 29 28  1  0
 27 29  1  0
 11 14  1  0
 12 13  1  0
 13 18  1  0
  5 30  1  0
 31 32  2  0
 17 14  1  0
  3  4  2  0
  6 15  1  0
 13 15  1  0
 11 16  1  1
 31 36  1  0
 32 33  1  0
 33 34  1  0
 34 35  1  0
 35 36  1  0
  9 37  1  6
M  END