
  SciTegic12181313002D

 56 59  0  0  0  0            999 V2000
    0.2972   -0.5234    0.0000 C   0  0
   -0.1153   -1.2378    0.0000 C   0  0
   -0.9403   -1.2378    0.0000 C   0  0
   -1.3528   -0.5234    0.0000 C   0  0
   -0.9403    0.1911    0.0000 C   0  0
   -0.1153    0.1911    0.0000 C   0  0
    1.5274   -2.3264    0.0000 C   0  0
    1.6221   -1.5068    0.0000 C   0  0  2  0  0  0
    0.8650   -1.8347    0.0000 C   0  0
    0.7704   -2.6542    0.0000 O   0  0
    2.1899   -2.8181    0.0000 C   0  0
    2.9469   -2.4903    0.0000 C   0  0
    3.6094   -2.9820    0.0000 C   0  0
    3.5147   -3.8016    0.0000 C   0  0
    2.7577   -4.1294    0.0000 C   0  0
    2.0952   -3.6377    0.0000 C   0  0
    4.1772   -4.2933    0.0000 O   0  0
   -0.3652   -0.0316    0.0000 C   0  0
   -1.1223   -0.3595    0.0000 O   0  0
    0.4865    1.1157    0.0000 C   0  0  1  0  0  0
    1.1489    0.6240    0.0000 C   0  0
    0.5811    1.9353    0.0000 C   0  0
    1.0543   -0.1956    0.0000 O   0  0
   -0.0813    2.4270    0.0000 C   0  0
    0.0133    3.2466    0.0000 O   0  0
    2.5684    0.4601    0.0000 C   0  0  2  0  0  0
    2.9117    1.2103    0.0000 C   0  0
    3.0416   -1.6708    0.0000 C   0  0
    3.7040   -2.1625    0.0000 C   0  0
    3.1362   -0.8512    0.0000 O   0  0
    2.4336    1.8827    0.0000 C   0  0
    3.3255    0.7879    0.0000 C   0  0
    3.4201    1.6075    0.0000 O   0  0
    3.8933   -0.5234    0.0000 C   0  0  2  0  0  0
    4.5557   -1.0151    0.0000 C   0  0
    4.4611   -1.8347    0.0000 S   0  3
    4.6504   -0.1956    0.0000 C   0  0
    5.3128   -0.6873    0.0000 O   0  0
    5.1235   -2.3264    0.0000 O   0  5
    1.6123    1.8048    0.0000 C   0  0
    1.1342    2.4772    0.0000 C   0  0
    1.4775    3.2274    0.0000 C   0  0
    2.2988    3.3052    0.0000 C   0  0
    2.7769    2.6329    0.0000 C   0  0
    0.9994    3.8998    0.0000 O   0  0
    4.9343   -3.9655    0.0000 P   0  0
    5.6913   -3.6377    0.0000 O   0  0
    5.2621   -4.7226    0.0000 O   0  0
    4.6064   -3.2084    0.0000 O   0  0
    2.2845   -1.9986    0.0000 N   0  0
    0.2026   -1.3429    0.0000 N   0  0
   -0.2706    0.7879    0.0000 N   0  0
    1.9060    0.9518    0.0000 N   0  0
   -0.8384    2.0992    0.0000 N   0  0
    3.9879    0.2962    0.0000 N   0  0
    4.7450    0.6240    0.0000 N   0  0
 16 11  1  0
 14 17  1  0
  1 18  1  0
 18 19  2  0
 20 21  1  0
 20 22  1  6
 21 23  2  0
 22 24  1  0
 24 25  2  0
 26 27  1  1
 28 29  1  0
 28 30  2  0
 27 31  1  0
 26 32  1  0
 32 33  2  0
 34 35  1  0
 35 36  1  0
 34 37  1  6
 37 38  2  0
 36 29  1  0
  3  4  1  0
 36 39  1  6
  4  5  1  0
 31 40  2  0
  5  6  1  0
 40 41  1  0
 41 42  2  0
  1  2  1  0
 42 43  1  0
  1  6  1  0
 43 44  2  0
 44 31  1  0
  2  3  1  0
 42 45  1  0
  8  7  1  1
 17 46  1  0
  8  9  1  0
 46 47  1  0
 46 48  2  0
  9 10  2  0
 46 49  1  0
  7 11  1  0
 11 12  2  0
 12 13  1  0
 13 14  2  0
 14 15  1  0
 15 16  2  0
 21 53  1  0
 53 26  1  0
 51  1  1  0
  9 51  1  0
 24 54  1  0
 50 28  1  0
  8 50  1  0
 32 55  1  0
 55 34  1  0
 18 52  1  0
 52 20  1  0
 37 56  1  0
M  CHG  2  36   1  39  -1
M  END