
  SciTegic10311316212D

 31 33  0  0  0  0            999 V2000
    2.0493  -27.9661    0.0000 P   0  0
    1.2321  -27.9661    0.0000 O   0  0
    1.6407  -28.6738    0.0000 O   0  0
    2.7570  -28.3747    0.0000 C   0  0
    3.4647  -27.9661    0.0000 C   0  0
    2.0493  -27.1489    0.0000 O   0  0
    4.1724  -28.3747    0.0000 C   0  0
    4.8801  -27.9661    0.0000 N   0  0
    5.5878  -28.3747    0.0000 C   0  0
    4.8801  -27.1489    0.0000 O   0  0
    5.5878  -29.1919    0.0000 O   0  0
    2.7570  -29.1919    0.0000 C   0  0
    2.0470  -29.5986    0.0000 C   0  0
    2.0466  -30.4151    0.0000 C   0  0
    2.7549  -30.8245    0.0000 C   0  0
    3.4649  -30.4115    0.0000 C   0  0
    3.4618  -29.5964    0.0000 C   0  0
    4.1741  -30.8176    0.0000 Cl  0  0
    2.7560  -31.6417    0.0000 Cl  0  0
    6.2955  -27.9661    0.0000 C   0  0
    7.0020  -28.3789    0.0000 C   0  0
    7.7093  -27.9710    0.0000 C   0  0
    7.7097  -27.1529    0.0000 C   0  0
    6.9970  -26.7445    0.0000 C   0  0
    6.2927  -27.1548    0.0000 C   0  0
    6.9997  -29.1961    0.0000 C   0  0
    7.7063  -29.6067    0.0000 N   0  0
    7.7916  -30.4185    0.0000 C   0  0
    8.5905  -30.5907    0.0000 N   0  0
    9.0011  -29.8841    0.0000 C   0  0
    8.4559  -29.2754    0.0000 N   0  0
  2  1  1  0
  1  3  1  0
  4  5  1  0
  4  1  1  0
  1  6  2  0
  5  7  1  0
  7  8  1  0
  8  9  1  0
  8 10  1  0
  9 11  2  0
  4 12  1  0
 12 13  2  0
 13 14  1  0
 14 15  2  0
 15 16  1  0
 16 17  2  0
 17 12  1  0
 16 18  1  0
 15 19  1  0
  9 20  1  0
 20 21  2  0
 21 22  1  0
 22 23  2  0
 23 24  1  0
 24 25  2  0
 25 20  1  0
 21 26  1  0
 26 27  1  0
 27 28  1  0
 28 29  2  0
 29 30  1  0
 30 31  2  0
 31 27  1  0
M  END