
  SciTegic05171617282D

 27 29  0  0  0  0            999 V2000
   -4.1678    3.1469    0.0000 O   0  0
   -5.2057    3.7492    0.0000 C   0  0
   -5.2027    4.9492    0.0000 O   0  0
   -6.5068    3.0012    0.0000 C   0  0
   -6.5106    1.5004    0.0000 C   0  0
   -5.2109    0.7498    0.0000 N   0  0
   -3.9106    1.4992    0.0000 S   0  0
   -3.9101    2.6992    0.0000 O   0  0
   -4.9495    2.0999    0.0000 O   0  0
   -2.6111    0.7486    0.0000 C   0  0
   -2.6111   -0.7486    0.0000 C   0  0
   -1.2964   -1.4973    0.0000 C   0  0
    0.0000   -0.7486    0.0000 C   0  0
    1.2964   -1.4973    0.0000 N   0  0
    2.5929   -0.7486    0.0000 C   0  0
    3.6321   -1.3486    0.0000 O   0  0
    2.5929    0.7486    0.0000 C   0  0
    1.2964    1.4973    0.0000 C   0  0
    0.0000    0.7486    0.0000 C   0  0
   -1.2964    1.4973    0.0000 C   0  0
   -7.8109    0.7510    0.0000 C   0  0
   -9.1110    1.4993    0.0000 C   0  0
  -10.4091    0.7476    0.0000 C   0  0
  -10.4072   -0.7524    0.0000 C   0  0
   -9.1072   -1.5007    0.0000 C   0  0
   -9.1056   -2.7007    0.0000 Cl  0  0
   -7.8091   -0.7491    0.0000 C   0  0
  1  2  1  0
  2  3  2  0
  2  4  1  0
  4  5  1  0
  5  6  1  0
  6  7  1  0
  7  8  2  0
  7  9  2  0
  7 10  1  0
 10 11  2  0
 11 12  1  0
 12 13  2  0
 13 14  1  0
 14 15  1  0
 15 16  2  0
 15 17  1  0
 17 18  1  0
 18 19  1  0
 13 19  1  0
 19 20  2  0
 10 20  1  0
  5 21  1  0
 21 22  2  0
 22 23  1  0
 23 24  2  0
 24 25  1  0
 25 26  1  0
 25 27  2  0
 21 27  1  0
M  END