
  SciTegic01161211212D

 25 28  0  0  0  0            999 V2000
    5.3500   -6.7625    0.0000 C   0  0  2  0  0  0
    7.5000   -5.5375    0.0000 C   0  0  2  0  0  0
    6.0625   -6.3500    0.0000 C   0  0  2  0  0  0
    7.5000   -6.3583    0.0000 C   0  0  2  0  0  0
    6.7750   -6.7625    0.0000 C   0  0  2  0  0  0
    5.3500   -7.5875    0.0000 C   0  0  2  0  0  0
    6.7875   -5.1125    0.0000 C   0  0
    6.0750   -5.5208    0.0000 C   0  0
    4.6375   -6.3458    0.0000 C   0  0
    6.7750   -7.5958    0.0000 C   0  0
    8.2750   -6.6250    0.0000 C   0  0
    8.2875   -5.2875    0.0000 C   0  0  2  0  0  0
    4.6375   -8.0000    0.0000 C   0  0
    6.0625   -8.0000    0.0000 C   0  0
    3.9250   -7.5875    0.0000 C   0  0
    8.7625   -5.9625    0.0000 C   0  0
    3.2125   -8.0000    0.0000 O   0  0
    3.9250   -6.7625    0.0000 C   0  0
    5.3375   -5.9375    0.0000 C   0  0
    7.5000   -4.7125    0.0000 C   0  0
    8.5500   -4.5083    0.0000 O   0  0
    7.4875   -7.1833    0.0000 H   0  0
    6.7750   -5.9375    0.0000 H   0  0
    6.0625   -7.1625    0.0000 H   0  0
    5.3417   -8.4042    0.0000 H   0  0
  2  7  1  0
  3  1  1  0
  4  5  1  0
  5  3  1  0
  6  1  1  0
  7  8  1  0
  8  3  1  0
  9  1  1  0
 10  5  1  0
 11  4  1  0
 12  2  1  0
 13  6  1  0
 14  6  1  0
 15 18  1  0
 16 11  1  0
 17 15  2  0
 18  9  1  0
  1 19  1  1
  2 20  1  1
 12 21  1  1
  4 22  1  6
  5 23  1  1
  3 24  1  6
  6 25  1  6
 10 14  1  0
 15 13  1  0
  2  4  1  0
 12 16  1  0
M  END