
  Mrv0541 05211314572D          

 37 41  0  0  0  0            999 V2000
   -0.7518   -6.1336    0.0000 C   0  0  0  0  0  0  0  0  0  0  0  0
   -0.0373   -6.5461    0.0000 C   0  0  0  0  0  0  0  0  0  0  0  0
    0.6772   -6.1336    0.0000 C   0  0  0  0  0  0  0  0  0  0  0  0
    1.3916   -6.5461    0.0000 N   0  0  0  0  0  0  0  0  0  0  0  0
    0.6772   -5.3086    0.0000 O   0  0  0  0  0  0  0  0  0  0  0  0
    2.1061   -6.1336    0.0000 C   0  0  0  0  0  0  0  0  0  0  0  0
    2.8206   -6.5461    0.0000 C   0  0  0  0  0  0  0  0  0  0  0  0
    2.8206   -7.3711    0.0000 N   0  0  0  0  0  0  0  0  0  0  0  0
    2.1061   -7.7836    0.0000 C   0  0  0  0  0  0  0  0  0  0  0  0
    1.3916   -7.3711    0.0000 C   0  0  0  0  0  0  0  0  0  0  0  0
    3.5350   -7.7836    0.0000 C   0  0  0  0  0  0  0  0  0  0  0  0
    4.2495   -7.3711    0.0000 C   0  0  0  0  0  0  0  0  0  0  0  0
    4.9640   -7.7836    0.0000 C   0  0  0  0  0  0  0  0  0  0  0  0
    4.9640   -8.6086    0.0000 C   0  0  0  0  0  0  0  0  0  0  0  0
    4.2495   -9.0211    0.0000 C   0  0  0  0  0  0  0  0  0  0  0  0
    3.5350   -8.6086    0.0000 C   0  0  0  0  0  0  0  0  0  0  0  0
    5.6785   -9.0211    0.0000 N   0  3  0  0  0  0  0  0  0  0  0  0
    5.6785   -9.8461    0.0000 O   0  0  0  0  0  0  0  0  0  0  0  0
    6.3929   -8.6086    0.0000 O   0  5  0  0  0  0  0  0  0  0  0  0
   -1.4663   -6.5461    0.0000 N   0  0  0  0  0  0  0  0  0  0  0  0
   -1.4663   -7.3711    0.0000 C   0  0  0  0  0  0  0  0  0  0  0  0
   -2.1807   -6.1336    0.0000 C   0  0  0  0  0  0  0  0  0  0  0  0
   -2.8952   -6.5461    0.0000 C   0  0  0  0  0  0  0  0  0  0  0  0
   -3.6097   -6.1336    0.0000 C   0  0  0  0  0  0  0  0  0  0  0  0
   -4.9154   -5.8560    0.0000 C   0  0  0  0  0  0  0  0  0  0  0  0
   -4.3633   -6.4691    0.0000 C   0  0  0  0  0  0  0  0  0  0  0  0
   -4.6183   -7.2538    0.0000 C   0  0  0  0  0  0  0  0  0  0  0  0
   -5.4252   -7.4253    0.0000 C   0  0  0  0  0  0  0  0  0  0  0  0
   -5.9773   -6.8122    0.0000 C   0  0  0  0  0  0  0  0  0  0  0  0
   -5.7223   -6.0276    0.0000 C   0  0  0  0  0  0  0  0  0  0  0  0
   -3.6959   -5.3131    0.0000 C   0  0  0  0  0  0  0  0  0  0  0  0
   -4.5029   -5.1416    0.0000 C   0  0  0  0  0  0  0  0  0  0  0  0
   -4.7578   -4.3570    0.0000 C   0  0  0  0  0  0  0  0  0  0  0  0
   -4.2058   -3.7439    0.0000 C   0  0  0  0  0  0  0  0  0  0  0  0
   -3.3988   -3.9154    0.0000 C   0  0  0  0  0  0  0  0  0  0  0  0
   -3.1439   -4.7000    0.0000 C   0  0  0  0  0  0  0  0  0  0  0  0
   -2.1807   -7.7836    0.0000 C   0  0  0  0  0  0  0  0  0  0  0  0
 17 18  2  0  0  0  0
 17 19  1  0  0  0  0
 14 17  1  0  0  0  0
  8  9  1  0  0  0  0
  1 20  1  0  0  0  0
  9 10  1  0  0  0  0
 20 21  1  0  0  0  0
  4  6  1  0  0  0  0
 20 22  1  0  0  0  0
  8 11  1  0  0  0  0
 22 23  1  0  0  0  0
  2  3  1  0  0  0  0
 23 24  1  0  0  0  0
 24 26  1  0  0  0  0
 25 32  1  0  0  0  0
 31 24  1  0  0  0  0
 25 26  2  0  0  0  0
 11 12  2  0  0  0  0
  1  2  1  0  0  0  0
 12 13  1  0  0  0  0
  3  4  1  0  0  0  0
 13 14  2  0  0  0  0
 25 30  1  0  0  0  0
 26 27  1  0  0  0  0
 27 28  2  0  0  0  0
 28 29  1  0  0  0  0
 29 30  2  0  0  0  0
 31 32  2  0  0  0  0
 14 15  1  0  0  0  0
  3  5  2  0  0  0  0
 15 16  2  0  0  0  0
 16 11  1  0  0  0  0
  4 10  1  0  0  0  0
  6  7  1  0  0  0  0
 31 36  1  0  0  0  0
 32 33  1  0  0  0  0
 33 34  2  0  0  0  0
 34 35  1  0  0  0  0
 35 36  2  0  0  0  0
  7  8  1  0  0  0  0
 21 37  1  0  0  0  0
M  CHG  2  17   1  19  -1
M  END