
          11280715202D 1   1.00000     0.00000     0

 25 25  0     0  0            999 V2000
   -3.3583   -0.9625    0.0000 N   0  0  0  0  0  0           0  0  0
    7.4542   -0.5875    0.0000 C   0  0  0  0  0  0           0  0  0
    8.1667   -1.0000    0.0000 C   0  0  0  0  0  0           0  0  0
   -3.7708   -2.2375    0.0000 N   0  0  0  0  0  0           0  0  0
   -4.0208   -1.4500    0.0000 C   0  0  0  0  0  0           0  0  0
   -2.6875   -1.4500    0.0000 C   0  0  0  0  0  0           0  0  0
   -2.9458   -2.2375    0.0000 C   0  0  0  0  0  0           0  0  0
    2.4625   -1.2875    0.0000 C   0  0  0  0  0  0           0  0  0
    7.4542    0.2375    0.0000 O   0  0  0  0  0  0           0  0  0
    8.1667   -1.8250    0.0000 O   0  0  0  0  0  0           0  0  0
    2.2875   -2.0917    0.0000 C   0  0  0  0  0  0           0  0  0
    1.8417   -0.7292    0.0000 C   0  0  0  0  0  0           0  0  0
    3.2417   -1.0292    0.0000 C   0  0  3  0  0  0           0  0  0
    3.8542   -1.5875    0.0000 N   0  0  0  0  0  0           0  0  0
    6.7417   -1.0000    0.0000 O   0  0  0  0  0  0           0  0  0
    8.8792   -0.5875    0.0000 O   0  0  0  0  0  0           0  0  0
    0.8917   -1.7917    0.0000 C   0  0  0  0  0  0           0  0  0
    1.5042   -2.3500    0.0000 C   0  0  0  0  0  0           0  0  0
    1.0625   -0.9917    0.0000 C   0  0  0  0  0  0           0  0  0
    4.6417   -1.3292    0.0000 O   0  0  0  0  0  0           0  0  0
    0.1042   -2.0500    0.0000 O   0  0  0  0  0  0           0  0  0
   -1.9083   -1.1917    0.0000 C   0  0  0  0  0  0           0  0  0
    3.4167   -0.2167    0.0000 C   0  0  0  0  0  0           0  0  0
   -0.5083   -1.4917    0.0000 C   0  0  0  0  0  0           0  0  0
   -1.2958   -1.7500    0.0000 C   0  0  0  0  0  0           0  0  0
  3  2  1  0     0  0
  4  5  1  0     0  0
  5  1  2  0     0  0
  6  1  1  0     0  0
  7  6  2  0     0  0
  8 12  1  0     0  0
  9  2  2  0     0  0
 10  3  2  0     0  0
 11 18  1  0     0  0
 12 19  2  0     0  0
 13  8  1  0     0  0
 14 13  1  0     0  0
 15  2  1  0     0  0
 16  3  1  0     0  0
 17 21  1  0     0  0
 18 17  2  0     0  0
 19 17  1  0     0  0
 20 14  1  0     0  0
 21 24  1  0     0  0
 22  6  1  0     0  0
 23 13  1  0     0  0
 24 25  1  0     0  0
 25 22  1  0     0  0
  4  7  1  0     0  0
 11  8  2  0     0  0
M  END