
          11280715372D 1   1.00000     0.00000     0

 34 37  0     0  0            999 V2000
    5.0542   -8.1667    0.0000 C   0  0  0  0  0  0           0  0  0
    4.3417   -8.5792    0.0000 N   0  0  3  0  0  0           0  0  0
    5.0542   -7.3417    0.0000 C   0  0  0  0  0  0           0  0  0
    3.6292   -8.1750    0.0000 C   0  0  0  0  0  0           0  0  0
    3.6292   -7.3500    0.0000 N   0  0  3  0  0  0           0  0  0
    5.8417   -8.4250    0.0000 N   0  0  0  0  0  0           0  0  0
    4.3417   -6.9292    0.0000 C   0  0  0  0  0  0           0  0  0
    5.8417   -7.0875    0.0000 N   0  0  0  0  0  0           0  0  0
    6.3292   -7.7542    0.0000 C   0  0  0  0  0  0           0  0  0
    4.3417   -9.4042    0.0000 C   0  0  0  0  0  0           0  0  0
    7.1542   -7.7542    0.0000 C   0  0  0  0  0  0           0  0  0
    2.9167   -8.5875    0.0000 O   0  0  0  0  0  0           0  0  0
    2.9167  -11.0542    0.0000 C   0  0  0  0  0  0           0  0  0
    4.3417   -6.1042    0.0000 O   0  0  0  0  0  0           0  0  0
   10.8625   -8.4667    0.0000 C   0  0  0  0  0  0           0  0  0
    2.2042  -10.6417    0.0000 C   0  0  0  0  0  0           0  0  0
    3.6292   -9.8167    0.0000 C   0  0  0  0  0  0           0  0  0
    3.6292  -10.6375    0.0000 C   0  0  0  0  0  0           0  0  0
   11.2750   -7.7542    0.0000 O   0  0  0  0  0  0           0  0  0
    2.9167   -6.9375    0.0000 C   0  0  0  0  0  0           0  0  0
    7.5625   -8.4750    0.0000 C   0  0  0  0  0  0           0  0  0
    7.5625   -7.0417    0.0000 C   0  0  0  0  0  0           0  0  0
    2.2042   -9.8125    0.0000 C   0  0  0  0  0  0           0  0  0
    9.6250   -7.7542    0.0000 O   0  0  0  0  0  0           0  0  0
   10.0375   -8.4667    0.0000 C   0  0  0  0  0  0           0  0  0
    2.9250  -11.8792    0.0000 I   0  0  0  0  0  0           0  0  0
    8.8000   -7.7542    0.0000 C   0  0  0  0  0  0           0  0  0
    1.4875  -11.0542    0.0000 N   0  0  0  0  0  0           0  0  0
    2.9167   -9.4042    0.0000 C   0  0  0  0  0  0           0  0  0
   11.2792   -9.1792    0.0000 O   0  0  0  0  0  0           0  0  0
    8.3875   -8.4750    0.0000 C   0  0  0  0  0  0           0  0  0
    8.3792   -7.0417    0.0000 C   0  0  0  0  0  0           0  0  0
    2.9125   -6.1125    0.0000 C   0  0  0  0  0  0           0  0  0
    2.1917   -5.7042    0.0000 C   0  0  0  0  0  0           0  0  0
  2  1  1  0     0  0
  3  1  2  0     0  0
  4  2  1  0     0  0
  5  7  1  0     0  0
  6  1  1  0     0  0
  7  3  1  0     0  0
  8  3  1  0     0  0
  9  6  1  0     0  0
 10  2  1  0     0  0
 11  9  1  0     0  0
 12  4  2  0     0  0
 13 18  2  0     0  0
 14  7  2  0     0  0
 15 25  1  0     0  0
 16 23  2  0     0  0
 17 10  1  0     0  0
 18 17  1  0     0  0
 19 15  2  0     0  0
 20  5  1  0     0  0
 21 11  2  0     0  0
 22 11  1  0     0  0
 23 29  1  0     0  0
 24 27  1  0     0  0
 25 24  1  0     0  0
 26 13  1  0     0  0
 27 32  1  0     0  0
 28 16  1  0     0  0
 29 17  2  0     0  0
 30 15  1  0     0  0
 31 21  1  0     0  0
 32 22  2  0     0  0
 33 20  1  0     0  0
 34 33  1  0     0  0
  8  9  2  0     0  0
  4  5  1  0     0  0
 27 31  2  0     0  0
 16 13  1  0     0  0
M  END