
          11280715412D 1   1.00000     0.00000     0

 30 33  0     0  0            999 V2000
    0.2542    0.7583    0.0000 C   0  0  0  0  0  0           0  0  0
   -0.0333   -0.5542    0.0000 N   0  0  3  0  0  0           0  0  0
   -0.7458   -0.1417    0.0000 C   0  0  0  0  0  0           0  0  0
   -0.5708    0.6625    0.0000 N   0  0  0  0  0  0           0  0  0
    0.5792   -0.0042    0.0000 C   0  0  0  0  0  0           0  0  0
    0.6667    1.4625    0.0000 C   0  0  0  0  0  0           0  0  0
   -0.0333   -1.3792    0.0000 C   0  0  0  0  0  0           0  0  0
    1.4542    1.2583    0.0000 N   0  0  0  0  0  0           0  0  0
   -0.7458   -1.7792    0.0000 C   0  0  0  0  0  0           0  0  0
   -1.4708   -0.2167    0.0000 C   0  0  0  0  0  0           0  0  0
    2.0375    1.8458    0.0000 N   0  0  3  0  0  0           0  0  0
   -0.7583   -2.6042    0.0000 C   0  0  0  0  0  0           0  0  0
    0.6667   -1.7917    0.0000 C   0  0  0  0  0  0           0  0  0
    0.6292    2.2875    0.0000 O   0  0  0  0  0  0           0  0  0
   -1.8833   -0.9417    0.0000 C   0  0  0  0  0  0           0  0  0
   -1.8833    0.4875    0.0000 C   0  0  0  0  0  0           0  0  0
   -0.0458   -3.0167    0.0000 C   0  0  0  0  0  0           0  0  0
   -1.4625   -1.3542    0.0000 Cl  0  0  0  0  0  0           0  0  0
    1.3917   -0.1750    0.0000 C   0  0  0  0  0  0           0  0  0
    0.6667   -2.6125    0.0000 C   0  0  0  0  0  0           0  0  0
   -3.1208   -0.2167    0.0000 C   0  0  0  0  0  0           0  0  0
   -2.7083   -0.9375    0.0000 C   0  0  0  0  0  0           0  0  0
   -2.7083    0.4875    0.0000 C   0  0  0  0  0  0           0  0  0
   -0.0583   -3.8417    0.0000 Cl  0  0  0  0  0  0           0  0  0
   -3.9458   -0.2167    0.0000 Cl  0  0  0  0  0  0           0  0  0
    2.8375    1.6208    0.0000 C   0  0  0  0  0  0           0  0  0
    1.8167    2.6250    0.0000 C   0  0  0  0  0  0           0  0  0
    3.4167    2.2083    0.0000 C   0  0  0  0  0  0           0  0  0
    2.4042    3.2208    0.0000 C   0  0  0  0  0  0           0  0  0
    3.2042    2.9958    0.0000 C   0  0  0  0  0  0           0  0  0
  2  5  1  0     0  0
  3  4  2  0     0  0
  4  1  1  0     0  0
  5  1  2  0     0  0
  6  1  1  0     0  0
  7  2  1  0     0  0
  8  6  1  0     0  0
  9  7  2  0     0  0
 10  3  1  0     0  0
 11  8  1  0     0  0
 12  9  1  0     0  0
 13  7  1  0     0  0
 14  6  2  0     0  0
 15 10  1  0     0  0
 16 10  2  0     0  0
 17 20  1  0     0  0
 18  9  1  0     0  0
 19  5  1  0     0  0
 20 13  2  0     0  0
 21 23  2  0     0  0
 22 15  2  0     0  0
 23 16  1  0     0  0
 24 17  1  0     0  0
 25 21  1  0     0  0
 26 11  1  0     0  0
 27 11  1  0     0  0
 28 26  1  0     0  0
 29 27  1  0     0  0
 30 29  1  0     0  0
  3  2  1  0     0  0
 21 22  1  0     0  0
 30 28  1  0     0  0
 17 12  2  0     0  0
M  END