
  SciTegic04151115542D

 37 39  0  0  0  0            999 V2000
    9.1861  -11.4291    0.0000 C   0  0
    9.1849  -12.2565    0.0000 C   0  0
    9.8997  -12.6694    0.0000 C   0  0
   10.6162  -12.2560    0.0000 C   0  0
    9.8979  -11.0164    0.0000 C   0  0
   10.6096  -11.4273    0.0000 C   0  0
   11.3192  -11.0164    0.0000 N   0  0
   11.3183  -10.1949    0.0000 C   0  0
   10.6019   -9.7859    0.0000 C   0  0
    9.8952  -10.1990    0.0000 N   0  0
    8.4682  -12.6722    0.0000 N   0  3
    8.4675  -13.4972    0.0000 O   0  0
    7.7541  -12.2592    0.0000 O   0  5
   10.5976   -8.9609    0.0000 O   0  0
   12.0316   -9.7803    0.0000 C   0  0
   12.7472  -10.1906    0.0000 C   0  0
   13.4605   -9.7760    0.0000 O   0  0
   12.7497  -11.0156    0.0000 C   0  0
   12.0364  -11.4303    0.0000 O   0  0
   13.4654  -11.4260    0.0000 O   0  0
   13.4678  -12.2510    0.0000 C   0  0
   12.0291   -8.9553    0.0000 C   0  0
   12.7424   -8.5406    0.0000 C   0  0
   11.3134   -8.5449    0.0000 O   0  0
   13.4580   -8.9510    0.0000 O   0  0
   12.7399   -7.7157    0.0000 N   0  0
   13.4532   -7.3010    0.0000 C   0  0
   14.1680   -7.7130    0.0000 C   0  0
   14.8808   -7.2990    0.0000 C   0  0
   14.8788   -6.4732    0.0000 C   0  0
   14.1580   -6.0630    0.0000 C   0  0
   13.4482   -6.4793    0.0000 C   0  0
   15.5952   -6.0532    0.0000 N   0  3
   15.5917   -5.2282    0.0000 O   0  0
   16.3114   -6.4626    0.0000 O   0  5
   14.1699   -8.5350    0.0000 C   0  0
   14.1713   -9.3600    0.0000 N   0  0
 16 18  1  0
  8  9  2  0
 18 19  2  0
  5  1  1  0
 18 20  1  0
  9 10  1  0
 20 21  1  0
 10  5  2  0
 15 22  1  0
 22 23  1  0
  2  3  1  0
 22 24  2  0
  5  6  1  0
 23 25  2  0
 11 12  2  0
 23 26  1  0
 11 13  1  0
 26 27  1  0
  2 11  1  0
 27 28  2  0
  1  2  2  0
 28 29  1  0
  9 14  1  0
 29 30  2  0
  6  7  2  0
 30 31  1  0
  8 15  1  0
 31 32  2  0
 32 27  1  0
  3  4  2  0
 15 16  1  0
  7  8  1  0
 33 34  2  0
 33 35  1  0
 30 33  1  0
 16 17  2  0
  4  6  1  0
 36 37  3  0
 28 36  1  0
M  CHG  4  11   1  13  -1  33   1  35  -1
M  END