
          11280715092D 1   1.00000     0.00000     0

 22 23  0     0  0            999 V2000
    4.2042   -0.2167    0.0000 C   0  0  0  0  0  0           0  0  0
   -0.7083   -1.8125    0.0000 N   0  0  3  0  0  0           0  0  0
    4.0500    0.3625    0.0000 O   0  0  0  0  0  0           0  0  0
   -0.1083   -1.8167    0.0000 C   0  0  0  0  0  0           0  0  0
    3.7792   -0.6417    0.0000 N   0  0  0  0  0  0           0  0  0
    4.7875   -0.3667    0.0000 N   0  0  0  0  0  0           0  0  0
    0.1917   -1.2917    0.0000 C   0  0  0  0  0  0           0  0  0
    0.7750   -1.4500    0.0000 C   0  0  0  0  0  0           0  0  0
    1.1917   -1.0292    0.0000 C   0  0  0  0  0  0           0  0  0
    2.7792   -0.9125    0.0000 C   0  0  0  0  0  0           0  0  0
    1.7750   -1.1792    0.0000 O   0  0  0  0  0  0           0  0  0
   -1.0083   -1.2917    0.0000 C   0  0  0  0  0  0           0  0  0
   -1.0125   -2.3292    0.0000 C   0  0  0  0  0  0           0  0  0
    0.4542   -0.3000    0.0000 C   0  0  0  0  0  0           0  0  0
    3.2042   -0.4875    0.0000 C   0  0  0  0  0  0           0  0  0
    0.0417   -0.7167    0.0000 C   0  0  0  0  0  0           0  0  0
    2.1917   -0.7542    0.0000 C   0  0  0  0  0  0           0  0  0
    1.0417   -0.4500    0.0000 C   0  0  0  0  0  0           0  0  0
    5.2625   -0.0042    0.0000 C   0  0  0  0  0  0           0  0  0
   -1.6083   -1.2917    0.0000 C   0  0  0  0  0  0           0  0  0
   -1.6125   -2.3250    0.0000 C   0  0  0  0  0  0           0  0  0
   -1.9083   -1.8042    0.0000 C   0  0  0  0  0  0           0  0  0
  2  4  1  0     0  0
  3  1  2  0     0  0
  4  7  1  0     0  0
  5  1  1  0     0  0
  6  1  1  0     0  0
  7  8  2  0     0  0
  8  9  1  0     0  0
  9 11  1  0     0  0
 10 15  1  0     0  0
 11 17  1  0     0  0
 12  2  1  0     0  0
 13  2  1  0     0  0
 14 18  1  0     0  0
 15  5  1  0     0  0
 16 14  2  0     0  0
 17 10  1  0     0  0
 18  9  2  0     0  0
 19  6  1  0     0  0
 20 12  1  0     0  0
 21 13  1  0     0  0
 22 21  1  0     0  0
 16  7  1  0     0  0
 22 20  1  0     0  0
M  END