
          11290714382D 1   1.00000     0.00000     0

 54 57  0     1  0            999 V2000
    4.9681   -1.7334    0.0000 C   0  0  0  0  0  0           0  0  0
    5.6923   -2.1285    0.0000 C   0  0  0  0  0  0           0  0  0
    6.3918   -1.6989    0.0000 N   0  0  3  0  0  0           0  0  0
    6.3742   -0.8783    0.0000 C   0  0  0  0  0  0           0  0  0
    5.6500   -0.4833    0.0000 C   0  0  0  0  0  0           0  0  0
    4.9432   -0.9088    0.0000 C   0  0  3  0  0  0           0  0  0
    4.9169   -0.0870    0.0000 C   0  0  0  0  0  0           0  0  0
    4.2356   -1.3330    0.0000 N   0  0  0  0  0  0           0  0  0
    5.6177    0.3482    0.0000 O   0  0  0  0  0  0           0  0  0
    4.1895    0.3023    0.0000 N   0  0  0  0  0  0           0  0  0
    7.1160   -2.0940    0.0000 C   0  0  0  0  0  0           0  0  0
    4.1631    1.1269    0.0000 C   0  0  2  0  0  0           0  0  0
    3.4357    1.5163    0.0000 C   0  0  0  0  0  0           0  0  0
    4.8639    1.5621    0.0000 C   0  0  0  0  0  0           0  0  0
    4.8375    2.3867    0.0000 C   0  0  0  0  0  0           0  0  0
    5.5384    2.8219    0.0000 N   0  0  0  0  0  0           0  0  0
    4.1102    2.7761    0.0000 O   0  0  0  0  0  0           0  0  0
    3.4093    2.3409    0.0000 O   0  0  0  0  0  0           0  0  0
    2.7349    1.0811    0.0000 N   0  0  0  0  0  0           0  0  0
    2.0075    1.4704    0.0000 C   0  0  0  0  0  0           0  0  0
    1.3067    1.0352    0.0000 C   0  0  0  0  0  0           0  0  0
    0.5793    1.4246    0.0000 C   0  0  0  0  0  0           0  0  0
   -0.1215    0.9894    0.0000 C   0  0  0  0  0  0           0  0  0
   -0.8461    1.3814    0.0000 C   0  0  0  0  0  0           0  0  0
   -0.7881   -0.2676    0.0000 C   0  0  0  0  0  0           0  0  0
   -0.0907    0.1691    0.0000 C   0  0  0  0  0  0           0  0  0
   -1.5205    0.1214    0.0000 C   0  0  0  0  0  0           0  0  0
   -1.5440    0.9455    0.0000 C   0  0  0  0  0  0           0  0  0
   -2.2682    1.3354    0.0000 C   0  0  0  0  0  0           0  0  0
   -2.9695    0.9023    0.0000 C   0  0  0  0  0  0           0  0  0
   -2.9418    0.0752    0.0000 C   0  0  0  0  0  0           0  0  0
   -2.2171   -0.3109    0.0000 C   0  0  0  0  0  0           0  0  0
    3.5145   -0.9323    0.0000 C   0  0  0  0  0  0           0  0  0
    2.8069   -1.3565    0.0000 C   0  0  2  0  0  0           0  0  0
    3.5009   -0.1074    0.0000 O   0  0  0  0  0  0           0  0  0
    2.0857   -0.9558    0.0000 C   0  0  0  0  0  0           0  0  0
    1.3781   -1.3799    0.0000 C   0  0  0  0  0  0           0  0  0
    0.6576   -0.9775    0.0000 C   0  0  0  0  0  0           0  0  0
   -0.0496   -1.4010    0.0000 C   0  0  0  0  0  0           0  0  0
   -0.0364   -2.2268    0.0000 C   0  0  0  0  0  0           0  0  0
    0.6897   -2.6273    0.0000 C   0  0  0  0  0  0           0  0  0
    1.3939   -2.2015    0.0000 C   0  0  0  0  0  0           0  0  0
    2.8204   -2.1814    0.0000 C   0  0  0  0  0  0           0  0  0
    3.5416   -2.5821    0.0000 C   0  0  0  0  0  0           0  0  0
    3.5584   -3.4076    0.0000 O   0  0  0  0  0  0           0  0  0
    4.2525   -2.1586    0.0000 O   0  0  0  0  0  0           0  0  0
   -0.7435   -2.6519    0.0000 C   0  0  0  0  0  0           0  0  0
   -1.4652   -2.2522    0.0000 P   0  0  3  0  0  0           0  0  0
   -2.1833   -1.8375    0.0000 O   0  0  0  0  0  0           0  0  0
   -1.8713   -2.9703    0.0000 O   0  0  0  0  0  0           0  0  0
   -1.0552   -1.5362    0.0000 O   0  0  0  0  0  0           0  0  0
    7.1360   -2.9188    0.0000 O   0  0  0  0  0  0           0  0  0
    7.8203   -1.6643    0.0000 O   0  0  0  0  0  0           0  0  0
    8.5445   -2.0594    0.0000 C   0  0  0  0  0  0           0  0  0
 26 23  1  0     0  0
 12 13  1  0     0  0
 27 28  1  0     0  0
 12 14  1  6     0  0
 28 29  2  0     0  0
  6  7  1  0     0  0
 29 30  1  0     0  0
 14 15  1  0     0  0
 30 31  2  0     0  0
  1  2  1  0     0  0
 31 32  1  0     0  0
 32 27  2  0     0  0
 15 16  1  0     0  0
  8 33  1  0     0  0
  6  8  1  0     0  0
 33 34  1  0     0  0
 15 17  2  0     0  0
 33 35  2  0     0  0
  1  6  1  0     0  0
 34 36  1  0     0  0
 13 18  2  0     0  0
 36 37  1  0     0  0
  7  9  2  0     0  0
 37 38  2  0     0  0
 13 19  1  0     0  0
 38 39  1  0     0  0
  2  3  1  0     0  0
 39 40  2  0     0  0
 19 20  1  0     0  0
 40 41  1  0     0  0
  7 10  1  0     0  0
 41 42  2  0     0  0
 42 37  1  0     0  0
 20 21  1  0     0  0
 34 43  1  1     0  0
  3  4  1  0     0  0
 43 44  1  0     0  0
 21 22  1  0     0  0
  3 11  1  0     0  0
 44 45  1  0     0  0
 44 46  2  0     0  0
 22 23  1  0     0  0
 40 47  1  0     0  0
  4  5  1  0     0  0
 47 48  1  0     0  0
 23 24  2  0     0  0
 48 49  2  0     0  0
 24 28  1  0     0  0
 48 50  1  0     0  0
 10 12  1  0     0  0
 48 51  1  0     0  0
 27 25  1  0     0  0
 11 52  2  0     0  0
  5  6  1  0     0  0
 11 53  1  0     0  0
 25 26  2  0     0  0
 53 54  1  0     0  0
M  END