
          11280714442D 1   1.00000     0.00000     0

 24 25  0     0  0            999 V2000
    3.3750    0.4208    0.0000 N   0  0  0  0  0  0           0  0  0
    1.2917    0.4125    0.0000 O   0  0  0  0  0  0           0  0  0
    2.3375    0.4208    0.0000 C   0  0  3  0  0  0           0  0  0
    0.7750    0.7125    0.0000 C   0  0  0  0  0  0           0  0  0
    2.8542    0.7208    0.0000 C   0  0  0  0  0  0           0  0  0
    1.8167    0.7208    0.0000 C   0  0  0  0  0  0           0  0  0
   -0.2625    1.3125    0.0000 C   0  0  0  0  0  0           0  0  0
    0.7750    1.3208    0.0000 C   0  0  0  0  0  0           0  0  0
    0.2542    0.4125    0.0000 C   0  0  0  0  0  0           0  0  0
    0.2542    1.6208    0.0000 C   0  0  0  0  0  0           0  0  0
   -0.2625    0.7125    0.0000 C   0  0  0  0  0  0           0  0  0
    2.3375   -0.1792    0.0000 O   0  0  0  0  0  0           0  0  0
   -1.8208    1.6125    0.0000 O   0  0  0  0  0  0           0  0  0
   -1.3000    1.3125    0.0000 C   0  0  0  0  0  0           0  0  0
   -2.3458    1.3125    0.0000 C   0  0  3  0  0  0           0  0  0
    3.8917    0.7208    0.0000 C   0  0  3  0  0  0           0  0  0
   -0.7833    1.6125    0.0000 C   0  0  0  0  0  0           0  0  0
   -2.8625    1.6208    0.0000 C   0  0  0  0  0  0           0  0  0
   -2.3458    0.7125    0.0000 C   0  0  0  0  0  0           0  0  0
    4.4167    0.4208    0.0000 C   0  0  0  0  0  0           0  0  0
    3.8917    1.3208    0.0000 C   0  0  0  0  0  0           0  0  0
   -2.8625    0.4208    0.0000 C   0  0  0  0  0  0           0  0  0
   -3.3833    1.3208    0.0000 C   0  0  0  0  0  0           0  0  0
   -3.3833    0.7208    0.0000 C   0  0  0  0  0  0           0  0  0
  2  6  1  0     0  0
  3  5  1  0     0  0
  4  2  1  0     0  0
  5  1  1  0     0  0
  6  3  1  0     0  0
  7 11  2  0     0  0
  8  4  1  0     0  0
  9  4  2  0     0  0
 10  8  2  0     0  0
 11  9  1  0     0  0
 12  3  1  0     0  0
 13 14  1  0     0  0
 14 17  1  0     0  0
 15 13  1  0     0  0
 16  1  1  0     0  0
 17  7  1  0     0  0
 18 15  1  0     0  0
 19 15  1  0     0  0
 20 16  1  0     0  0
 21 16  1  0     0  0
 22 19  1  0     0  0
 23 18  1  0     0  0
 24 22  1  0     0  0
  7 10  1  0     0  0
 24 23  1  0     0  0
M  END