
          11280715142D 1   1.00000     0.00000     0

 23 24  0     0  0            999 V2000
   -0.1875    0.0833    0.0000 C   0  0  0  0  0  0           0  0  0
    0.5250    0.4958    0.0000 C   0  0  0  0  0  0           0  0  0
   -3.0458    0.0708    0.0000 C   0  0  0  0  0  0           0  0  0
   -0.9083    0.4875    0.0000 C   0  0  0  0  0  0           0  0  0
    4.8125   -1.1375    0.0000 C   0  0  0  0  0  0           0  0  0
    1.2417    0.0833    0.0000 C   0  0  0  0  0  0           0  0  0
   -3.0458   -0.7542    0.0000 C   0  0  0  0  0  0           0  0  0
   -2.3333    0.4833    0.0000 C   0  0  0  0  0  0           0  0  0
    4.8167   -1.9625    0.0000 O   0  0  0  0  0  0           0  0  0
    0.5167    1.3208    0.0000 O   0  0  0  0  0  0           0  0  0
   -1.6208    0.0708    0.0000 C   0  0  0  0  0  0           0  0  0
   -2.3333   -1.1667    0.0000 C   0  0  0  0  0  0           0  0  0
    1.2417   -0.7417    0.0000 C   0  0  0  0  0  0           0  0  0
    1.9417    0.5000    0.0000 C   0  0  0  0  0  0           0  0  0
    3.3875   -1.1417    0.0000 O   0  0  0  0  0  0           0  0  0
    4.1000   -0.7292    0.0000 C   0  0  0  0  0  0           0  0  0
   -3.7583    0.4833    0.0000 Cl  0  0  0  0  0  0           0  0  0
    2.6667   -0.7292    0.0000 C   0  0  0  0  0  0           0  0  0
   -3.7625   -1.1667    0.0000 Cl  0  0  0  0  0  0           0  0  0
    5.5250   -0.7167    0.0000 O   0  0  0  0  0  0           0  0  0
   -1.6208   -0.7542    0.0000 C   0  0  0  0  0  0           0  0  0
    1.9542   -1.1500    0.0000 C   0  0  0  0  0  0           0  0  0
    2.6625    0.0958    0.0000 C   0  0  0  0  0  0           0  0  0
  2  1  1  0     0  0
  3  8  1  0     0  0
  4  1  2  0     0  0
  5 16  1  0     0  0
  6  2  1  0     0  0
  7 12  1  0     0  0
  8 11  2  0     0  0
  9  5  2  0     0  0
 10  2  2  0     0  0
 11  4  1  0     0  0
 12 21  2  0     0  0
 13  6  2  0     0  0
 14  6  1  0     0  0
 15 18  1  0     0  0
 16 15  1  0     0  0
 17  3  1  0     0  0
 18 23  1  0     0  0
 19  7  1  0     0  0
 20  5  1  0     0  0
 21 11  1  0     0  0
 22 13  1  0     0  0
 23 14  2  0     0  0
 18 22  2  0     0  0
  7  3  2  0     0  0
M  END