
  Mrv0541 05211314572D          

 18 20  0  0  0  0            999 V2000
    6.1906    1.4425    0.0000 C   0  0  0  0  0  0  0  0  0  0  0  0
    6.1906    0.6175    0.0000 C   0  0  0  0  0  0  0  0  0  0  0  0
    5.4761    0.2050    0.0000 C   0  0  0  0  0  0  0  0  0  0  0  0
    5.4761    1.8550    0.0000 C   0  0  0  0  0  0  0  0  0  0  0  0
    4.7616    1.4425    0.0000 C   0  0  0  0  0  0  0  0  0  0  0  0
    4.7616    0.6175    0.0000 C   0  0  0  0  0  0  0  0  0  0  0  0
    3.9770    0.3626    0.0000 S   0  0  0  0  0  0  0  0  0  0  0  0
    3.4921    1.0300    0.0000 C   0  0  0  0  0  0  0  0  0  0  0  0
    3.9770    1.6974    0.0000 N   0  0  0  0  0  0  0  0  0  0  0  0
    2.6671    1.0300    0.0000 N   0  0  0  0  0  0  0  0  0  0  0  0
    2.2546    0.3155    0.0000 C   0  0  0  0  0  0  0  0  0  0  0  0
    1.4296    0.3155    0.0000 C   0  0  0  0  0  0  0  0  0  0  0  0
    1.0171    1.0300    0.0000 N   0  0  0  0  0  0  0  0  0  0  0  0
    1.4296    1.7445    0.0000 C   0  0  0  0  0  0  0  0  0  0  0  0
    2.2546    1.7445    0.0000 C   0  0  0  0  0  0  0  0  0  0  0  0
    0.1921    1.0300    0.0000 C   0  0  0  0  0  0  0  0  0  0  0  0
   -0.2204    0.3155    0.0000 C   0  0  0  0  0  0  0  0  0  0  0  0
   -0.2204    1.7445    0.0000 C   0  0  0  0  0  0  0  0  0  0  0  0
  8  9  2  0  0  0  0
  9  5  1  0  0  0  0
  4  1  1  0  0  0  0
  8 10  1  0  0  0  0
 10 11  1  0  0  0  0
  5  6  1  0  0  0  0
  2  3  1  0  0  0  0
  3  6  2  0  0  0  0
  1  2  2  0  0  0  0
 10 15  1  0  0  0  0
 11 12  1  0  0  0  0
 12 13  1  0  0  0  0
 13 14  1  0  0  0  0
 14 15  1  0  0  0  0
  5  4  2  0  0  0  0
 13 16  1  0  0  0  0
  6  7  1  0  0  0  0
 16 17  1  0  0  0  0
  7  8  1  0  0  0  0
 16 18  1  0  0  0  0
M  END