
  SciTegic06281210282D

 31 34  0  0  0  0            999 V2000
   20.3458  -11.1417    0.0000 O   0  0
   20.3500  -11.9667    0.0000 S   0  0
   21.0624  -11.5506    0.0000 O   0  0
   17.0778  -13.1810    0.0000 C   0  0
   17.0778  -14.0060    0.0000 C   0  0
   17.7922  -14.4185    0.0000 C   0  0
   18.5067  -14.0060    0.0000 C   0  0
   18.5067  -13.1810    0.0000 C   0  0
   17.7922  -12.7685    0.0000 C   0  0
   19.2903  -14.2621    0.0000 N   0  0
   19.7762  -13.5935    0.0000 N   0  0
   19.2913  -12.9261    0.0000 C   0  0
   17.7922  -11.9435    0.0000 O   0  0
   17.0778  -11.5310    0.0000 C   0  0
   19.2916  -15.0871    0.0000 C   0  0
   18.5777  -15.5006    0.0000 C   0  0
   17.8627  -15.0893    0.0000 C   0  0
   17.1488  -15.5028    0.0000 C   0  0
   17.1501  -16.3278    0.0000 C   0  0
   17.8651  -16.7392    0.0000 C   0  0
   18.5790  -16.3256    0.0000 C   0  0
   19.5463  -12.1415    0.0000 N   0  0
   20.9053  -12.5831    0.0000 C   0  0
   20.7338  -13.3888    0.0000 C   0  0
   21.4482  -13.8013    0.0000 C   0  0
   22.0614  -13.2492    0.0000 C   0  0
   21.7257  -12.4956    0.0000 S   0  0
   22.8684  -13.4207    0.0000 Cl  0  0
   17.8663  -17.5642    0.0000 C   0  0
   17.1525  -17.9778    0.0000 O   0  0
   18.5814  -17.9756    0.0000 N   0  0
 11 12  2  0
 12  8  1  0
  9 13  1  0
 13 14  1  0
 10 15  1  0
 15 16  1  0
 16 17  2  0
 17 18  1  0
 18 19  2  0
 19 20  1  0
 20 21  2  0
 21 16  1  0
 12 22  1  0
 22  2  1  0
  2  1  2  0
  2 23  1  0
 23 24  2  0
  3  2  2  0
  4  5  2  0
  5  6  1  0
  6  7  2  0
 24 25  1  0
 25 26  2  0
 26 27  1  0
 27 23  1  0
  7  8  1  0
 26 28  1  0
  8  9  2  0
 20 29  1  0
  9  4  1  0
 29 30  2  0
  7 10  1  0
 29 31  1  0
 10 11  1  0
M  END