
          11280714492D 1   1.00000     0.00000     0

 34 37  0     0  0            999 V2000
    1.4500   -0.7292    0.0000 N   0  0  0  0  0  0           0  0  0
    1.6417   -1.5292    0.0000 C   0  0  0  0  0  0           0  0  0
    0.6250   -0.6667    0.0000 C   0  0  0  0  0  0           0  0  0
    0.1917    0.0375    0.0000 C   0  0  3  0  0  0           0  0  0
    0.3125   -1.4250    0.0000 O   0  0  0  0  0  0           0  0  0
    0.9375   -1.9625    0.0000 C   0  0  0  0  0  0           0  0  0
    2.4042   -1.8417    0.0000 C   0  0  0  0  0  0           0  0  0
    0.5125    0.8083    0.0000 C   0  0  3  0  0  0           0  0  0
    1.1417    1.1333    0.0000 C   0  0  0  0  0  0           0  0  0
   -0.6333    0.1083    0.0000 O   0  0  0  0  0  0           0  0  0
    1.1667    1.8458    0.0000 C   0  0  0  0  0  0           0  0  0
   -0.1208    1.3375    0.0000 O   0  0  0  0  0  0           0  0  0
    3.6500    1.7458    0.0000 C   0  0  0  0  0  0           0  0  0
   -0.8208    0.9083    0.0000 C   0  0  0  0  0  0           0  0  0
    1.8042    2.1833    0.0000 C   0  0  0  0  0  0           0  0  0
    3.0542   -1.3417    0.0000 O   0  0  0  0  0  0           0  0  0
    4.2792    2.0833    0.0000 O   0  0  0  0  0  0           0  0  0
    2.5042   -2.6625    0.0000 N   0  0  0  0  0  0           0  0  0
    2.4125    1.7958    0.0000 C   0  0  0  0  0  0           0  0  0
    3.0417    2.1250    0.0000 C   0  0  0  0  0  0           0  0  0
    5.6667   -4.7417    0.0000 C   0  0  0  0  0  0           0  0  0
    3.6167    1.0333    0.0000 O   0  0  0  0  0  0           0  0  0
    4.1417   -4.1125    0.0000 C   0  0  0  0  0  0           0  0  0
    6.4292   -5.0542    0.0000 Cl  0  0  0  0  0  0           0  0  0
    5.0042   -5.2417    0.0000 C   0  0  0  0  0  0           0  0  0
    5.5542   -3.9167    0.0000 C   0  0  0  0  0  0           0  0  0
    4.2500   -4.9292    0.0000 C   0  0  0  0  0  0           0  0  0
    4.7917   -3.6042    0.0000 C   0  0  0  0  0  0           0  0  0
    3.2750   -2.9792    0.0000 C   0  0  0  0  0  0           0  0  0
    0.5667    2.2250    0.0000 C   0  0  0  0  0  0           0  0  0
    3.3792   -3.8000    0.0000 C   0  0  0  0  0  0           0  0  0
    1.8375    2.8958    0.0000 C   0  0  0  0  0  0           0  0  0
    0.5917    2.9375    0.0000 C   0  0  0  0  0  0           0  0  0
    1.2292    3.2750    0.0000 C   0  0  0  0  0  0           0  0  0
  2  1  1  0     0  0
  3  1  2  0     0  0
  4  3  1  0     0  0
  5  3  1  0     0  0
  6  2  2  0     0  0
  7  2  1  0     0  0
  8  4  1  0     0  0
  9  8  1  0     0  0
 10  4  1  0     0  0
 11  9  1  0     0  0
 12  8  1  0     0  0
 13 20  1  0     0  0
 14 10  1  0     0  0
 15 11  2  0     0  0
 16  7  2  0     0  0
 17 13  2  0     0  0
 18  7  1  0     0  0
 19 15  1  0     0  0
 20 19  1  0     0  0
 21 26  1  0     0  0
 22 13  1  0     0  0
 23 31  1  0     0  0
 24 21  1  0     0  0
 25 27  1  0     0  0
 26 28  2  0     0  0
 27 23  2  0     0  0
 28 23  1  0     0  0
 29 18  1  0     0  0
 30 11  1  0     0  0
 31 29  1  0     0  0
 32 15  1  0     0  0
 33 30  2  0     0  0
 34 33  1  0     0  0
  6  5  1  0     0  0
 14 12  1  0     0  0
 34 32  2  0     0  0
 21 25  2  0     0  0
M  END