
  CDK    9/16/09,9:51

 29 32  0  0  0  0  0  0  0  0999 V2000
   16.6720   -9.5145    0.0000 C   0  0  0  0  0  0  0  0  0  0  0  0
   16.2785  -10.2448    0.0000 N   0  0  0  0  0  0  0  0  0  0  0  0
   16.7119  -10.9469    0.0000 C   0  0  0  0  0  0  0  0  0  0  0  0
   17.5406  -10.9248    0.0000 C   0  0  0  0  0  0  0  0  0  0  0  0
   17.9341  -10.1944    0.0000 N   0  0  0  0  0  0  0  0  0  0  0  0
   17.4989   -9.4861    0.0000 C   0  0  0  0  0  0  0  0  0  0  0  0
   18.7588  -10.1710    0.0000 C   0  0  0  0  0  0  0  0  0  0  0  0
   19.1915  -10.8735    0.0000 C   0  0  0  0  0  0  0  0  0  0  0  0
   18.8744  -11.6350    0.0000 C   0  0  0  0  0  0  0  0  0  0  0  0
   19.5030  -12.1694    0.0000 S   0  0  0  0  0  0  0  0  0  0  0  0
   20.2055  -11.7367    0.0000 C   0  0  0  0  0  0  0  0  0  0  0  0
   20.0110  -10.9350    0.0000 C   0  0  0  0  0  0  0  0  0  0  0  0
   20.5450  -10.3060    0.0000 C   0  0  0  0  0  0  0  0  0  0  0  0
   21.3566  -10.4538    0.0000 O   0  0  0  0  0  0  0  0  0  0  0  0
   20.2672   -9.5291    0.0000 C   0  0  0  0  0  0  0  0  0  0  0  0
   20.8004   -8.9034    0.0000 C   0  0  0  0  0  0  0  0  0  0  0  0
   20.5232   -8.1271    0.0000 C   0  0  0  0  0  0  0  0  0  0  0  0
   19.7108   -7.9786    0.0000 C   0  0  0  0  0  0  0  0  0  0  0  0
   19.1761   -8.6126    0.0000 C   0  0  0  0  0  0  0  0  0  0  0  0
   19.4561   -9.3863    0.0000 C   0  0  0  0  0  0  0  0  0  0  0  0
   19.4319   -7.2021    0.0000 Cl  0  0  0  0  0  0  0  0  0  0  0  0
   20.9685  -12.0507    0.0000 N   0  0  0  0  0  0  0  0  0  0  0  0
   15.4539  -10.2691    0.0000 C   0  0  0  0  0  0  0  0  0  0  0  0
   15.0252   -9.5649    0.0000 C   0  0  0  0  0  0  0  0  0  0  0  0
   14.2013   -9.5889    0.0000 C   0  0  0  0  0  0  0  0  0  0  0  0
   13.8092  -10.3158    0.0000 C   0  0  0  0  0  0  0  0  0  0  0  0
   14.2470  -11.0200    0.0000 C   0  0  0  0  0  0  0  0  0  0  0  0
   15.0695  -10.9926    0.0000 C   0  0  0  0  0  0  0  0  0  0  0  0
   12.9845  -10.3411    0.0000 Cl  0  0  0  0  0  0  0  0  0  0  0  0
 13 14  2  0  0  0  0 
  5  7  1  0  0  0  0 
 13 15  1  0  0  0  0 
  1  2  1  0  0  0  0 
 15 16  2  0  0  0  0 
  7  8  1  0  0  0  0 
 16 17  1  0  0  0  0 
  8  9  2  0  0  0  0 
 17 18  2  0  0  0  0 
  1  6  1  0  0  0  0 
 18 19  1  0  0  0  0 
  2  3  1  0  0  0  0 
 19 20  2  0  0  0  0 
 20 15  1  0  0  0  0 
  3  4  1  0  0  0  0 
 18 21  1  0  0  0  0 
  4  5  1  0  0  0  0 
 11 22  1  0  0  0  0 
  9 10  1  0  0  0  0 
  2 23  1  0  0  0  0 
 10 11  1  0  0  0  0 
 23 24  2  0  0  0  0 
 11 12  2  0  0  0  0 
 24 25  1  0  0  0  0 
 12  8  1  0  0  0  0 
 25 26  2  0  0  0  0 
  5  6  1  0  0  0  0 
 26 27  1  0  0  0  0 
 12 13  1  0  0  0  0 
 27 28  2  0  0  0  0 
 28 23  1  0  0  0  0 
 26 29  1  0  0  0  0 
M  END