
          11280714522D 1   1.00000     0.00000     0

 37 40  0     0  0            999 V2000
    9.6875   -1.7917    0.0000 C   0  0  0  0  0  0           0  0  0
    8.9667   -1.3667    0.0000 C   0  0  0  0  0  0           0  0  0
    9.6875   -2.6250    0.0000 C   0  0  0  0  0  0           0  0  0
    8.2417   -2.6250    0.0000 C   0  0  0  0  0  0           0  0  0
    8.2500   -1.7917    0.0000 C   0  0  0  0  0  0           0  0  0
   10.4042   -1.3792    0.0000 N   0  3  0  0  0  0           0  0  0
    8.9625   -3.0375    0.0000 O   0  0  0  0  0  0           0  0  0
    7.5292   -3.0292    0.0000 C   0  0  0  0  0  0           0  0  0
    7.5292   -1.3792    0.0000 C   0  0  0  0  0  0           0  0  0
    3.2417   -3.0292    0.0000 N   0  0  3  0  0  0           0  0  0
    1.8167   -3.8417    0.0000 N   0  0  3  0  0  0           0  0  0
    6.8167   -2.6167    0.0000 C   0  0  0  0  0  0           0  0  0
   11.1167   -1.7917    0.0000 O   0  5  0  0  0  0           0  0  0
   10.3917   -3.0417    0.0000 O   0  0  0  0  0  0           0  0  0
   10.4042   -0.5542    0.0000 O   0  0  0  0  0  0           0  0  0
    6.1042   -3.0292    0.0000 O   0  0  0  0  0  0           0  0  0
    6.8167   -1.7917    0.0000 C   0  0  0  0  0  0           0  0  0
    8.9667   -0.5417    0.0000 O   0  0  0  0  0  0           0  0  0
    3.9625   -2.6167    0.0000 C   0  0  0  0  0  0           0  0  0
    1.1042   -4.2542    0.0000 C   0  0  0  0  0  0           0  0  0
    3.2542   -3.8542    0.0000 C   0  0  0  0  0  0           0  0  0
    4.6750   -3.0292    0.0000 C   0  0  3  0  0  0           0  0  0
    2.5375   -2.6125    0.0000 C   0  0  0  0  0  0           0  0  0
    2.5375   -4.2542    0.0000 C   0  0  0  0  0  0           0  0  0
    1.8250   -3.0167    0.0000 C   0  0  0  0  0  0           0  0  0
    5.3917   -2.6167    0.0000 C   0  0  0  0  0  0           0  0  0
    0.3917   -3.8417    0.0000 C   0  0  0  0  0  0           0  0  0
   -1.0333   -3.0042    0.0000 C   0  0  0  0  0  0           0  0  0
   -1.7458   -2.5917    0.0000 Cl  0  0  0  0  0  0           0  0  0
    7.5292   -3.8542    0.0000 C   0  0  0  0  0  0           0  0  0
   -1.0333   -3.8375    0.0000 C   0  0  0  0  0  0           0  0  0
   -0.3125   -2.6000    0.0000 C   0  0  0  0  0  0           0  0  0
   -0.3208   -4.2500    0.0000 C   0  0  0  0  0  0           0  0  0
    0.4000   -3.0167    0.0000 C   0  0  0  0  0  0           0  0  0
    4.6750   -3.8542    0.0000 O   0  0  0  0  0  0           0  0  0
    6.8167   -4.2667    0.0000 C   0  0  0  0  0  0           0  0  0
    6.8167   -5.0917    0.0000 C   0  0  0  0  0  0           0  0  0
  2  1  2  0     0  0
  3  1  1  0     0  0
  4  7  1  0     0  0
  5  2  1  0     0  0
  6  1  1  0     0  0
  7  3  1  0     0  0
  8  4  2  0     0  0
  9  5  2  0     0  0
 10 19  1  0     0  0
 11 25  1  0     0  0
 12  8  1  0     0  0
 13  6  1  0     0  0
 14  3  2  0     0  0
 15  6  2  0     0  0
 16 12  1  0     0  0
 17  9  1  0     0  0
 18  2  1  0     0  0
 19 22  1  0     0  0
 20 11  1  0     0  0
 21 10  1  0     0  0
 22 26  1  0     0  0
 23 10  1  0     0  0
 24 21  1  0     0  0
 25 23  1  0     0  0
 26 16  1  0     0  0
 27 20  1  0     0  0
 28 32  2  0     0  0
 29 28  1  0     0  0
 30  8  1  0     0  0
 31 33  2  0     0  0
 32 34  1  0     0  0
 33 27  1  0     0  0
 34 27  2  0     0  0
 35 22  1  0     0  0
 36 30  1  0     0  0
 37 36  1  0     0  0
  5  4  1  0     0  0
 17 12  2  0     0  0
 11 24  1  0     0  0
 28 31  1  0     0  0
M  CHG  2   6   1  13  -1
M  END