
  SciTegic07191012252D

 13 15  0  0  0  0            999 V2000
   -3.5680    1.4012    0.0000 C   0  0  1  0  0  0
   -3.7841    2.1994    0.0000 O   0  0
   -4.6100    2.2405    0.0000 C   0  0
   -4.9043    1.4676    0.0000 N   0  0
   -4.2603    0.9490    0.0000 C   0  0
   -1.9122    0.6739    0.0000 C   0  0
   -2.6433    1.0151    0.0000 N   0  0
   -2.0603    1.4219    0.0000 C   0  0
   -3.4635    0.6631    0.0000 C   0  0
   -2.5067    2.0287    0.0000 C   0  0
   -2.7825    1.7461    0.0000 C   0  0
   -2.7449    2.6206    0.0000 C   0  0
   -5.0602    2.9296    0.0000 O   0  0
  2  3  1  0
  3  4  1  0
  4  5  1  0
  5  1  1  0
  1  2  1  6
  6  7  1  0
  6  8  1  0
  7  9  1  0
  7 10  1  0
  8 11  1  0
  9  1  1  0
 10 12  1  0
 11  1  1  0
 11 12  1  0
  3 13  2  0
M  END