
  CDK    9/16/09,9:52

 25 26  0  0  0  0  0  0  0  0999 V2000
   17.2930   -6.0732    0.0000 C   0  0  0  0  0  0  0  0  0  0  0  0
   17.7036   -6.7838    0.0000 C   0  0  0  0  0  0  0  0  0  0  0  0
   18.5297   -6.7838    0.0000 C   0  0  0  0  0  0  0  0  0  0  0  0
   18.9411   -6.0690    0.0000 C   0  0  0  0  0  0  0  0  0  0  0  0
   18.9445   -7.4944    0.0000 C   0  0  0  0  0  0  0  0  0  0  0  0
   11.1079   -5.3628    0.0000 C   0  0  0  0  0  0  0  0  0  0  0  0
   11.5216   -6.0766    0.0000 C   0  0  0  0  0  0  0  0  0  0  0  0
   12.3494   -6.0794    0.0000 C   0  0  0  0  0  0  0  0  0  0  0  0
   12.7603   -5.3607    0.0000 C   0  0  0  0  0  0  0  0  0  0  0  0
   12.3500   -4.6504    0.0000 C   0  0  0  0  0  0  0  0  0  0  0  0
   11.5194   -4.6511    0.0000 C   0  0  0  0  0  0  0  0  0  0  0  0
   13.5831   -5.3621    0.0000 C   0  0  0  0  0  0  0  0  0  0  0  0
   13.9934   -6.0753    0.0000 C   0  0  0  0  0  0  0  0  0  0  0  0
   14.8203   -6.0725    0.0000 C   0  0  0  0  0  0  0  0  0  0  0  0
   15.2307   -6.7878    0.0000 C   0  0  0  0  0  0  0  0  0  0  0  0
   16.0610   -6.7895    0.0000 C   0  0  0  0  0  0  0  0  0  0  0  0
   16.4702   -6.0729    0.0000 C   0  0  0  0  0  0  0  0  0  0  0  0
   16.0598   -5.3615    0.0000 C   0  0  0  0  0  0  0  0  0  0  0  0
   15.2307   -5.3633    0.0000 C   0  0  0  0  0  0  0  0  0  0  0  0
   14.8090   -4.6436    0.0000 C   0  0  0  0  0  0  0  0  0  0  0  0
   15.2163   -3.9212    0.0000 O   0  0  0  0  0  0  0  0  0  0  0  0
   13.9801   -4.6580    0.0000 O   0  0  0  0  0  0  0  0  0  0  0  0
   16.4822   -4.6439    0.0000 O   0  0  0  0  0  0  0  0  0  0  0  0
   16.4792   -7.5070    0.0000 O   0  0  0  0  0  0  0  0  0  0  0  0
   17.3046   -7.5040    0.0000 C   0  0  0  0  0  0  0  0  0  0  0  0
 12 13  1  0  0  0  0 
  2  3  2  0  0  0  0 
 13 14  1  0  0  0  0 
  7  8  1  0  0  0  0 
 14 15  2  0  0  0  0 
  3  4  1  0  0  0  0 
 15 16  1  0  0  0  0 
  8  9  2  0  0  0  0 
 16 17  2  0  0  0  0 
  3  5  1  0  0  0  0 
 17 18  1  0  0  0  0 
  9 10  1  0  0  0  0 
 18 19  2  0  0  0  0 
 19 14  1  0  0  0  0 
 19 20  1  0  0  0  0 
 10 11  2  0  0  0  0 
 11  6  1  0  0  0  0 
 20 21  1  0  0  0  0 
 20 22  2  0  0  0  0 
  1  2  1  0  0  0  0 
 18 23  1  0  0  0  0 
 17  1  1  0  0  0  0 
  9 12  1  0  0  0  0 
 16 24  1  0  0  0  0 
  6  7  2  0  0  0  0 
 24 25  1  0  0  0  0 
M  END