
  Mrv0541 05211314572D          

 25 28  0  0  0  0            999 V2000
    2.0223   -1.8391    0.0000 C   0  0  0  0  0  0  0  0  0  0  0  0
    2.0223   -2.6641    0.0000 C   0  0  0  0  0  0  0  0  0  0  0  0
    1.3078   -3.0766    0.0000 C   0  0  0  0  0  0  0  0  0  0  0  0
    0.5933   -2.6641    0.0000 C   0  0  0  0  0  0  0  0  0  0  0  0
    0.5933   -1.8391    0.0000 C   0  0  0  0  0  0  0  0  0  0  0  0
    1.3078   -1.4266    0.0000 C   0  0  0  0  0  0  0  0  0  0  0  0
   -0.1211   -1.4266    0.0000 Cl  0  0  0  0  0  0  0  0  0  0  0  0
   -0.1211   -3.0766    0.0000 N   0  0  0  0  0  0  0  0  0  0  0  0
   -0.1211   -3.9016    0.0000 C   0  0  0  0  0  0  0  0  0  0  0  0
   -0.8356   -4.3141    0.0000 C   0  0  0  0  0  0  0  0  0  0  0  0
   -1.5501   -3.9016    0.0000 N   0  0  0  0  0  0  0  0  0  0  0  0
   -1.5501   -3.0766    0.0000 N   0  0  0  0  0  0  0  0  0  0  0  0
   -0.8356   -2.6641    0.0000 C   0  0  0  0  0  0  0  0  0  0  0  0
    0.5933   -4.3141    0.0000 O   0  0  0  0  0  0  0  0  0  0  0  0
   -2.2646   -2.6641    0.0000 C   0  0  0  0  0  0  0  0  0  0  0  0
   -2.9790   -3.0766    0.0000 C   0  0  0  0  0  0  0  0  0  0  0  0
   -3.6935   -2.6641    0.0000 C   0  0  0  0  0  0  0  0  0  0  0  0
   -3.6935   -1.8391    0.0000 C   0  0  0  0  0  0  0  0  0  0  0  0
   -2.9790   -1.4266    0.0000 C   0  0  0  0  0  0  0  0  0  0  0  0
   -2.2646   -1.8391    0.0000 C   0  0  0  0  0  0  0  0  0  0  0  0
   -0.8356   -5.1391    0.0000 N   0  0  0  0  0  0  0  0  0  0  0  0
   -0.1682   -5.6240    0.0000 C   0  0  0  0  0  0  0  0  0  0  0  0
   -0.4231   -6.4086    0.0000 C   0  0  0  0  0  0  0  0  0  0  0  0
   -1.2481   -6.4086    0.0000 C   0  0  0  0  0  0  0  0  0  0  0  0
   -1.5031   -5.6240    0.0000 C   0  0  0  0  0  0  0  0  0  0  0  0
 11 12  1  0  0  0  0
 12 13  1  0  0  0  0
  4  8  1  0  0  0  0
  1  2  2  0  0  0  0
  9 14  2  0  0  0  0
  5  7  1  0  0  0  0
  8  9  1  0  0  0  0
 15 16  2  0  0  0  0
  3  4  2  0  0  0  0
 16 17  1  0  0  0  0
 17 18  2  0  0  0  0
  4  5  1  0  0  0  0
 18 19  1  0  0  0  0
  2  3  1  0  0  0  0
 19 20  2  0  0  0  0
 20 15  1  0  0  0  0
 12 15  1  0  0  0  0
  5  6  2  0  0  0  0
 10 21  1  0  0  0  0
 21 22  1  0  0  0  0
  6  1  1  0  0  0  0
  8 13  1  0  0  0  0
  9 10  1  0  0  0  0
 10 11  2  0  0  0  0
 22 23  1  0  0  0  0
 23 24  1  0  0  0  0
 24 25  1  0  0  0  0
 25 21  1  0  0  0  0
M  END