
  SciTegic06051315212D

 27 29  0  0  0  0            999 V2000
   21.7615   -9.4472    0.0000 C   0  0
   21.7603  -10.2667    0.0000 C   0  0
   22.4684  -10.6757    0.0000 C   0  0
   23.1780  -10.2663    0.0000 C   0  0
   23.1752   -9.4436    0.0000 C   0  0
   22.4666   -9.0383    0.0000 C   0  0
   22.4648  -11.4902    0.0000 N   0  0
   21.7552  -11.8974    0.0000 C   0  0
   21.7530  -12.7110    0.0000 C   0  0
   22.4588  -13.1236    0.0000 N   0  0
   23.1684  -12.7164    0.0000 C   0  0
   23.1723  -11.8966    0.0000 C   0  0
   22.4555  -13.9408    0.0000 C   0  0
   23.8864  -10.6737    0.0000 N   0  0
   24.5934  -10.2640    0.0000 C   0  0
   25.3018  -10.6715    0.0000 C   0  0
   24.5922   -9.4468    0.0000 O   0  0
   25.2984  -11.4872    0.0000 C   0  0
   26.0060  -11.8946    0.0000 C   0  0
   26.7140  -11.4848    0.0000 C   0  0
   26.7101  -10.6634    0.0000 C   0  0
   26.0020  -10.2597    0.0000 C   0  0
   25.9965   -9.4425    0.0000 Cl  0  0
   22.4641   -8.2211    0.0000 C   0  0
   23.1706   -7.8104    0.0000 O   0  0
   21.7552   -7.8147    0.0000 O   0  0
   23.8795   -8.2169    0.0000 C   0  0
  1  2  2  0
  2  3  1  0
  3  4  2  0
  4  5  1  0
  5  6  2  0
  6  1  1  0
  7  8  1  0
  7 12  1  0
  8  9  1  0
  9 10  1  0
 10 11  1  0
 11 12  1  0
  3  7  1  0
 10 13  1  0
  4 14  1  0
 14 15  1  0
 15 16  1  0
 15 17  2  0
 16 18  2  0
 18 19  1  0
 19 20  2  0
 20 21  1  0
 21 22  2  0
 22 16  1  0
 22 23  1  0
  6 24  1  0
 24 25  1  0
 24 26  2  0
 25 27  1  0
M  END