
  Mrv0541 04051115152D          

 33 36  0  0  0  0            999 V2000
   -2.3023    0.9070    0.0000 O   0  0  0  0  0  0  0  0  0  0  0  0
   -1.5879    1.3195    0.0000 C   0  0  0  0  0  0  0  0  0  0  0  0
   -1.5879    2.1445    0.0000 C   0  0  0  0  0  0  0  0  0  0  0  0
   -2.3023    2.5570    0.0000 O   0  0  0  0  0  0  0  0  0  0  0  0
   -0.8734    2.5570    0.0000 C   0  0  0  0  0  0  0  0  0  0  0  0
   -0.8734    3.3820    0.0000 O   0  0  0  0  0  0  0  0  0  0  0  0
   -0.1589    2.1445    0.0000 C   0  0  0  0  0  0  0  0  0  0  0  0
   -0.1589    1.3195    0.0000 C   0  0  0  0  0  0  0  0  0  0  0  0
    0.5555    0.9070    0.0000 C   0  0  2  0  0  0  0  0  0  0  0  0
    1.9845    0.9070    0.0000 C   0  0  0  0  0  0  0  0  0  0  0  0
    2.6990    1.3195    0.0000 C   0  0  0  0  0  0  0  0  0  0  0  0
    3.4134    0.9070    0.0000 C   0  0  0  0  0  0  0  0  0  0  0  0
    3.4134    0.0820    0.0000 C   0  0  0  0  0  0  0  0  0  0  0  0
    2.6990   -0.3305    0.0000 C   0  0  0  0  0  0  0  0  0  0  0  0
    1.9845    0.0820    0.0000 C   0  0  0  0  0  0  0  0  0  0  0  0
    0.5555    0.0820    0.0000 C   0  0  1  0  0  0  0  0  0  0  0  0
   -0.1589   -1.1555    0.0000 C   0  0  0  0  0  0  0  0  0  0  0  0
   -0.8734   -1.5680    0.0000 C   0  0  0  0  0  0  0  0  0  0  0  0
   -0.8734   -2.3930    0.0000 C   0  0  0  0  0  0  0  0  0  0  0  0
   -1.5879   -1.1555    0.0000 C   0  0  0  0  0  0  0  0  0  0  0  0
    1.2700   -0.3305    0.0000 C   0  0  0  0  0  0  0  0  0  0  0  0
    1.2700    1.3195    0.0000 O   0  0  0  0  0  0  0  0  0  0  0  0
    4.1279    1.3195    0.0000 O   0  0  0  0  0  0  0  0  0  0  0  0
    2.6990   -1.1555    0.0000 O   0  0  0  0  0  0  0  0  0  0  0  0
   -0.8734    0.9070    0.0000 C   0  0  0  0  0  0  0  0  0  0  0  0
   -0.1589   -0.3305    0.0000 O   0  0  0  0  0  0  0  0  0  0  0  0
    0.5555   -1.5680    0.0000 O   0  0  0  0  0  0  0  0  0  0  0  0
   -2.3023   -1.5680    0.0000 C   0  0  0  0  0  0  0  0  0  0  0  0
   -3.0168   -1.1555    0.0000 O   0  0  0  0  0  0  0  0  0  0  0  0
   -2.3023   -2.3930    0.0000 C   0  0  0  0  0  0  0  0  0  0  0  0
   -3.0168   -2.8055    0.0000 O   0  0  0  0  0  0  0  0  0  0  0  0
   -1.5879   -2.8055    0.0000 C   0  0  0  0  0  0  0  0  0  0  0  0
   -1.5879   -3.6305    0.0000 O   0  0  0  0  0  0  0  0  0  0  0  0
  2  1  1  0  0  0  0
  2  3  2  0  0  0  0
  2 25  1  0  0  0  0
  3  4  1  0  0  0  0
  3  5  1  0  0  0  0
  5  6  1  0  0  0  0
  7  5  2  0  0  0  0
  7  8  1  0  0  0  0
  9  8  1  1  0  0  0
  8 25  2  0  0  0  0
  9 16  1  0  0  0  0
  9 22  1  0  0  0  0
 10 11  2  0  0  0  0
 10 15  1  0  0  0  0
 10 22  1  0  0  0  0
 11 12  1  0  0  0  0
 12 13  2  0  0  0  0
 12 23  1  0  0  0  0
 13 14  1  0  0  0  0
 14 15  2  0  0  0  0
 14 24  1  0  0  0  0
 21 15  1  0  0  0  0
 21 16  1  0  0  0  0
 16 26  1  1  0  0  0
 17 18  1  0  0  0  0
 17 26  1  0  0  0  0
 17 27  2  0  0  0  0
 18 19  2  0  0  0  0
 18 20  1  0  0  0  0
 19 32  1  0  0  0  0
 20 28  2  0  0  0  0
 28 29  1  0  0  0  0
 28 30  1  0  0  0  0
 30 31  1  0  0  0  0
 30 32  2  0  0  0  0
 32 33  1  0  0  0  0
M  END