
          02060813472D 1   1.00000     0.00000     0

 74 77  0     1  0            999 V2000
    2.7110  -22.9737    0.0000 C   0  0  0  0  0  0           0  0  0
    1.9940  -22.5628    0.0000 S   0  0  0  0  0  0           0  0  0
    1.2747  -22.9650    0.0000 S   0  0  0  0  0  0           0  0  0
    0.5659  -22.5480    0.0000 C   0  0  0  0  0  0           0  0  0
    0.5716  -21.7194    0.0000 C   0  0  0  0  0  0           0  0  0
   -0.1421  -21.2981    0.0000 C   0  0  0  0  0  0           0  0  0
   -0.1310  -20.4736    0.0000 N   0  0  0  0  0  0           0  0  0
   -0.8592  -21.7044    0.0000 O   0  0  0  0  0  0           0  0  0
   -0.8479  -20.0546    0.0000 C   0  0  2  0  0  0           0  0  0
   -0.8422  -19.2300    0.0000 C   0  0  0  0  0  0           0  0  0
   -1.5673  -20.4595    0.0000 C   0  0  0  0  0  0           0  0  0
   -2.2769  -20.0385    0.0000 C   0  0  0  0  0  0           0  0  0
   -2.2643  -19.2107    0.0000 C   0  0  0  0  0  0           0  0  0
   -2.9787  -18.7911    0.0000 C   0  0  0  0  0  0           0  0  0
   -3.6969  -19.1978    0.0000 C   0  0  0  0  0  0           0  0  0
   -3.7066  -20.0365    0.0000 C   0  0  0  0  0  0           0  0  0
   -2.9948  -20.4513    0.0000 C   0  0  0  0  0  0           0  0  0
   -4.4117  -18.7841    0.0000 O   0  0  0  0  0  0           0  0  0
   -0.1155  -18.8238    0.0000 N   0  0  0  0  0  0           0  0  0
   -1.5560  -18.8129    0.0000 O   0  0  0  0  0  0           0  0  0
    0.5940  -18.8012    0.0000 C   0  0  2  0  0  0           0  0  0
    1.3094  -18.8324    0.0000 C   0  0  0  0  0  0           0  0  0
    2.0230  -19.2527    0.0000 N   0  0  0  0  0  0           0  0  0
    1.3151  -18.0091    0.0000 O   0  0  0  0  0  0           0  0  0
    2.7434  -18.8465    0.0000 C   0  0  2  0  0  0           0  0  0
    3.4572  -19.2677    0.0000 C   0  0  0  0  0  0           0  0  0
    2.7491  -18.0179    0.0000 C   0  0  0  0  0  0           0  0  0
    3.4685  -17.6116    0.0000 C   0  0  0  0  0  0           0  0  0
    3.4742  -16.7871    0.0000 C   0  0  0  0  0  0           0  0  0
    4.1935  -16.3800    0.0000 N   0  0  0  0  0  0           0  0  0
    2.7645  -16.3700    0.0000 O   0  0  0  0  0  0           0  0  0
    4.1764  -18.8615    0.0000 O   0  0  0  0  0  0           0  0  0
    3.4515  -20.0922    0.0000 N   0  0  0  0  0  0           0  0  0
    4.1609  -20.5134    0.0000 C   0  0  2  0  0  0           0  0  0
    4.1553  -21.3379    0.0000 C   0  0  0  0  0  0           0  0  0
    4.8764  -20.1061    0.0000 C   0  0  0  0  0  0           0  0  0
    5.5911  -20.5274    0.0000 C   0  0  0  0  0  0           0  0  0
    6.3105  -20.1170    0.0000 N   0  0  0  0  0  0           0  0  0
    5.5854  -21.3561    0.0000 O   0  0  0  0  0  0           0  0  0
    3.4339  -21.7421    0.0000 N   0  0  0  0  0  0           0  0  0
    4.8588  -21.7528    0.0000 O   0  0  0  0  0  0           0  0  0
    3.4249  -22.5769    0.0000 C   0  0  2  0  0  0           0  0  0
    4.1386  -22.9878    0.0000 C   0  0  0  0  0  0           0  0  0
    4.8530  -22.5813    0.0000 O   0  0  0  0  0  0           0  0  0
    0.5884  -19.6905    0.0000 C   0  0  2  0  0  0           0  0  0
    0.5936  -17.9763    0.0000 H   0  0  0  0  0  0           0  0  0
    1.3913  -20.0262    0.0000 C   0  0  0  0  0  0           0  0  0
    1.4097  -20.9903    0.0000 C   0  0  0  0  0  0           0  0  0
   -0.0587  -20.0251    0.0000 C   0  0  0  0  0  0           0  0  0
    4.1302  -23.8126    0.0000 N   0  0  3  0  0  0           0  0  0
    3.4132  -24.2171    0.0000 C   0  0  0  0  0  0           0  0  0
    4.8368  -25.0557    0.0000 C   0  0  0  0  0  0           0  0  0
    4.8453  -24.2314    0.0000 C   0  0  1  0  0  0           0  0  0
    5.5625  -23.8218    0.0000 C   0  0  0  0  0  0           0  0  0
    6.2727  -24.2393    0.0000 N   0  0  0  0  0  0           0  0  0
    5.5704  -22.9969    0.0000 O   0  0  0  0  0  0           0  0  0
    6.9951  -23.8350    0.0000 C   0  0  2  0  0  0           0  0  0
    7.7053  -24.2504    0.0000 C   0  0  0  0  0  0           0  0  0
    6.9967  -23.0102    0.0000 C   0  0  0  0  0  0           0  0  0
    7.7126  -22.6006    0.0000 C   0  0  3  0  0  0           0  0  0
    7.7238  -21.7757    0.0000 C   0  0  0  0  0  0           0  0  0
    8.4250  -23.0180    0.0000 C   0  0  0  0  0  0           0  0  0
    7.6974  -25.0752    0.0000 O   0  0  0  0  0  0           0  0  0
    8.4171  -23.8429    0.0000 N   0  0  0  0  0  0           0  0  0
    9.1274  -24.2636    0.0000 C   0  0  0  0  0  0           0  0  0
    9.8488  -23.8540    0.0000 C   0  0  0  0  0  0           0  0  0
   10.5653  -24.2715    0.0000 N   0  0  0  0  0  0           0  0  0
    9.8567  -23.0291    0.0000 O   0  0  0  0  0  0           0  0  0
    4.1142  -25.4606    0.0000 C   0  0  0  0  0  0           0  0  0
    3.4067  -25.0368    0.0000 C   0  0  0  0  0  0           0  0  0
    2.6900  -25.4428    0.0000 C   0  0  0  0  0  0           0  0  0
    2.6781  -26.2658    0.0000 C   0  0  0  0  0  0           0  0  0
    3.3902  -26.6853    0.0000 C   0  0  0  0  0  0           0  0  0
    4.1044  -26.2780    0.0000 C   0  0  0  0  0  0           0  0  0
 42  1  1  0     0  0
  1  2  1  0     0  0
  2  3  1  0     0  0
  3  4  1  0     0  0
  4  5  1  0     0  0
  5  6  1  0     0  0
  6  7  1  0     0  0
  6  8  2  0     0  0
  7  9  1  0     0  0
  9 10  1  0     0  0
  9 11  1  1     0  0
 11 12  1  0     0  0
 12 13  2  0     0  0
 13 14  1  0     0  0
 14 15  2  0     0  0
 15 16  1  0     0  0
 16 17  2  0     0  0
 17 12  1  0     0  0
 15 18  1  0     0  0
 10 19  1  0     0  0
 10 20  2  0     0  0
 19 21  1  0     0  0
 21 22  1  0     0  0
 22 23  1  0     0  0
 22 24  2  0     0  0
 23 25  1  0     0  0
 25 26  1  0     0  0
 25 27  1  1     0  0
 27 28  1  0     0  0
 28 29  1  0     0  0
 29 30  1  0     0  0
 29 31  2  0     0  0
 26 32  2  0     0  0
 26 33  1  0     0  0
 33 34  1  0     0  0
 34 35  1  0     0  0
 34 36  1  1     0  0
 36 37  1  0     0  0
 37 38  1  0     0  0
 37 39  2  0     0  0
 35 40  1  0     0  0
 35 41  2  0     0  0
 40 42  1  0     0  0
 42 43  1  6     0  0
 43 44  2  0     0  0
 21 45  1  0     0  0
 21 46  1  1     0  0
 45 47  1  0     0  0
 47 48  1  0     0  0
 45 49  1  6     0  0
 43 50  1  0     0  0
 50 51  1  0     0  0
 50 53  1  0     0  0
 51 70  1  0     0  0
 69 52  1  0     0  0
 52 53  1  0     0  0
 53 54  1  6     0  0
 54 55  1  0     0  0
 54 56  2  0     0  0
 55 57  1  0     0  0
 57 58  1  0     0  0
 57 59  1  1     0  0
 59 60  1  0     0  0
 60 61  1  0     0  0
 60 62  1  0     0  0
 58 63  2  0     0  0
 58 64  1  0     0  0
 64 65  1  0     0  0
 65 66  1  0     0  0
 66 67  1  0     0  0
 66 68  2  0     0  0
 69 70  2  0     0  0
 70 71  1  0     0  0
 71 72  2  0     0  0
 72 73  1  0     0  0
 73 74  2  0     0  0
 74 69  1  0     0  0
M  END