
  SciTegic10191216022D

 28 31  0  0  0  0            999 V2000
   -2.7011   -1.1182    0.0000 C   0  0
   -2.7024   -1.9459    0.0000 C   0  0
   -1.9894   -2.3588    0.0000 C   0  0
   -1.9914   -0.7055    0.0000 C   0  0
   -1.2732   -1.1143    0.0000 C   0  0
   -1.2742   -1.9479    0.0000 C   0  0
   -0.5567   -2.3632    0.0000 C   0  0
    0.1663   -1.9495    0.0000 N   0  0
    0.1672   -1.1158    0.0000 C   0  0
   -0.5548   -0.6960    0.0000 C   0  0
   -0.5551    0.1290    0.0000 C   0  0
    0.1583    0.5386    0.0000 C   0  0
    0.1584    1.3628    0.0000 C   0  0
   -0.5567    1.7758    0.0000 C   0  0
   -1.2735    1.3587    0.0000 C   0  0
   -1.2700    0.5358    0.0000 C   0  0
    0.8798   -2.3638    0.0000 C   0  0
   -3.4174   -2.3574    0.0000 O   0  0
   -4.1313   -1.9438    0.0000 C   0  0
   -4.1301   -1.1188    0.0000 C   0  0
   -4.8440   -0.7053    0.0000 C   0  0
   -4.8428    0.1197    0.0000 N   0  0
   -4.1246    0.5287    0.0000 C   0  0
   -4.1214    1.3501    0.0000 C   0  0
   -4.8334    1.7675    0.0000 C   0  0
   -5.5504    1.3573    0.0000 C   0  0
   -5.5553    0.5296    0.0000 C   0  0
   -4.8292    2.5924    0.0000 F   0  0
  3  6  2  0
 13 14  2  0
  1  2  2  0
 14 15  1  0
  5  4  2  0
 15 16  2  0
 16 11  1  0
  4  1  1  0
  8 17  1  0
  5 10  1  0
  2 18  1  0
  6  7  1  0
 18 19  1  0
  7  8  1  0
 19 20  1  0
  8  9  1  0
 20 21  1  0
  9 10  1  0
 21 22  1  0
 22 23  1  0
  5  6  1  0
 10 11  1  0
 11 12  2  0
  2  3  1  0
 22 27  1  0
 23 24  1  0
 24 25  1  0
 25 26  1  0
 26 27  1  0
 12 13  1  0
 25 28  1  0
M  END