
  CDK    9/16/09,9:50

 41 44  0  0  0  0  0  0  0  0999 V2000
    4.0839  -10.5690    0.0000 C   0  0  0  0  0  0  0  0  0  0  0  0
    4.8006  -10.9777    0.0000 C   0  0  0  0  0  0  0  0  0  0  0  0
   -0.9392   -8.5367    0.0000 C   0  0  0  0  0  0  0  0  0  0  0  0
   -0.2245   -8.1201    0.0000 C   0  0  0  0  0  0  0  0  0  0  0  0
   -0.2289   -7.2946    0.0000 C   0  0  0  0  0  0  0  0  0  0  0  0
   -0.9474   -6.8848    0.0000 C   0  0  0  0  0  0  0  0  0  0  0  0
   -1.6629   -7.3065    0.0000 C   0  0  0  0  0  0  0  0  0  0  0  0
   -1.6549   -8.1306    0.0000 C   0  0  0  0  0  0  0  0  0  0  0  0
   -2.3812   -6.9007    0.0000 O   0  0  0  0  0  0  0  0  0  0  0  0
    0.4957   -8.5347    0.0000 C   0  0  0  0  0  0  0  0  0  0  0  0
   -0.9344   -9.3617    0.0000 C   0  0  0  0  0  0  0  0  0  0  0  0
    0.4833   -6.8783    0.0000 C   0  0  0  0  0  0  0  0  0  0  0  0
    0.5028   -9.3597    0.0000 C   0  0  0  0  0  0  0  0  0  0  0  0
   -0.2081   -9.7783    0.0000 N   0  0  0  0  0  0  0  0  0  0  0  0
    1.2208   -9.7660    0.0000 C   0  0  0  0  0  0  0  0  0  0  0  0
    1.9350   -9.3476    0.0000 O   0  0  0  0  0  0  0  0  0  0  0  0
    1.2270  -10.5910    0.0000 N   0  0  0  0  0  0  0  0  0  0  0  0
    0.5093  -11.0072    0.0000 C   0  0  0  0  0  0  0  0  0  0  0  0
    1.9424  -11.8230    0.0000 C   0  0  0  0  0  0  0  0  0  0  0  0
    1.9398  -10.9954    0.0000 C   0  0  0  0  0  0  0  0  0  0  0  0
    1.2292  -12.2396    0.0000 C   0  0  0  0  0  0  0  0  0  0  0  0
    0.5183  -11.8267    0.0000 C   0  0  0  0  0  0  0  0  0  0  0  0
   -0.1927  -12.2359    0.0000 C   0  0  0  0  0  0  0  0  0  0  0  0
   -0.1939  -13.0578    0.0000 C   0  0  0  0  0  0  0  0  0  0  0  0
    0.5217  -13.4689    0.0000 C   0  0  0  0  0  0  0  0  0  0  0  0
    1.2298  -13.0573    0.0000 C   0  0  0  0  0  0  0  0  0  0  0  0
    2.6550  -10.5767    0.0000 C   0  0  0  0  0  0  0  0  0  0  0  0
    3.3717  -10.9854    0.0000 N   0  0  0  0  0  0  0  0  0  0  0  0
    2.6505   -9.7517    0.0000 O   0  0  0  0  0  0  0  0  0  0  0  0
    4.8087  -11.8030    0.0000 N   0  0  0  0  0  0  0  0  0  0  0  0
    5.5165  -10.5617    0.0000 O   0  0  0  0  0  0  0  0  0  0  0  0
    5.5271  -12.2085    0.0000 C   0  0  0  0  0  0  0  0  0  0  0  0
    5.5303  -13.0344    0.0000 C   0  0  0  0  0  0  0  0  0  0  0  0
    6.2480  -13.4398    0.0000 C   0  0  0  0  0  0  0  0  0  0  0  0
    6.9593  -13.0203    0.0000 C   0  0  0  0  0  0  0  0  0  0  0  0
    6.9486  -12.1911    0.0000 C   0  0  0  0  0  0  0  0  0  0  0  0
    6.2304  -11.7894    0.0000 C   0  0  0  0  0  0  0  0  0  0  0  0
    4.0795   -9.7440    0.0000 C   0  0  0  0  0  0  0  0  0  0  0  0
    4.7917   -9.3277    0.0000 C   0  0  0  0  0  0  0  0  0  0  0  0
    5.5105   -9.7338    0.0000 O   0  0  0  0  0  0  0  0  0  0  0  0
    4.7894   -8.5001    0.0000 O   0  0  0  0  0  0  0  0  0  0  0  0
 19 20  1  0  0  0  0 
  5  6  2  0  0  0  0 
  3 11  1  0  0  0  0 
 21 22  2  0  0  0  0 
  3  4  2  0  0  0  0 
 22 23  1  0  0  0  0 
  5 12  1  0  0  0  0 
 23 24  2  0  0  0  0 
  6  7  1  0  0  0  0 
 24 25  1  0  0  0  0 
 13 10  1  1  0  0  0 
 25 26  2  0  0  0  0 
 26 21  1  0  0  0  0 
 13 14  1  0  0  0  0 
  7  8  2  0  0  0  0 
 27 28  1  0  0  0  0 
 27 29  2  0  0  0  0 
 20 27  1  6  0  0  0 
 28  1  1  0  0  0  0 
 13 15  1  0  0  0  0 
  8  3  1  0  0  0  0 
  2 30  1  0  0  0  0 
  2 31  2  0  0  0  0 
 15 16  2  0  0  0  0 
 30 32  1  0  0  0  0 
  4  5  1  0  0  0  0 
 32 33  2  0  0  0  0 
 15 17  1  0  0  0  0 
 33 34  1  0  0  0  0 
 17 18  1  0  0  0  0 
 34 35  2  0  0  0  0 
  7  9  1  0  0  0  0 
 35 36  1  0  0  0  0 
  1  2  1  0  0  0  0 
 36 37  2  0  0  0  0 
 37 32  1  0  0  0  0 
  4 10  1  0  0  0  0 
  1 38  1  1  0  0  0 
 17 20  1  0  0  0  0 
 38 39  1  0  0  0  0 
 18 22  1  0  0  0  0 
 21 19  1  0  0  0  0 
 39 40  1  0  0  0  0 
 39 41  2  0  0  0  0 
M  END