
  CDK    9/16/09,10:6

 40 41  0  0  0  0  0  0  0  0999 V2000
   -3.7523  -14.5299    0.0000 C   0  0  0  0  0  0  0  0  0  0  0  0
   -3.7523  -15.3585    0.0000 C   0  0  0  0  0  0  0  0  0  0  0  0
   -3.0359  -15.7729    0.0000 C   0  0  0  0  0  0  0  0  0  0  0  0
   -2.3196  -15.3585    0.0000 C   0  0  0  0  0  0  0  0  0  0  0  0
   -2.3196  -14.5299    0.0000 C   0  0  0  0  0  0  0  0  0  0  0  0
   -3.0359  -14.1155    0.0000 C   0  0  0  0  0  0  0  0  0  0  0  0
   -3.0371  -13.2915    0.0000 O   0  0  0  0  0  0  0  0  0  0  0  0
   -3.0371  -16.5970    0.0000 O   0  0  0  0  0  0  0  0  0  0  0  0
   -4.4652  -14.1220    0.0000 C   0  0  0  0  0  0  0  0  0  0  0  0
   -4.4671  -13.2979    0.0000 C   0  0  0  0  0  0  0  0  0  0  0  0
   -5.1845  -12.8853    0.0000 C   0  0  0  0  0  0  0  0  0  0  0  0
   -3.7563  -12.8819    0.0000 C   0  0  0  0  0  0  0  0  0  0  0  0
   -3.7583  -12.0578    0.0000 C   0  0  0  0  0  0  0  0  0  0  0  0
   -3.0429  -11.6463    0.0000 C   0  0  0  0  0  0  0  0  0  0  0  0
   -4.4711  -11.6499    0.0000 O   0  0  0  0  0  0  0  0  0  0  0  0
   -4.4731  -10.8259    0.0000 C   0  0  0  0  0  0  0  0  0  0  0  0
   -3.0449  -10.8224    0.0000 C   0  0  0  0  0  0  0  0  0  0  0  0
   -2.3302  -12.0544    0.0000 O   0  0  0  0  0  0  0  0  0  0  0  0
   -2.3342  -10.4063    0.0000 C   0  0  0  0  0  0  0  0  0  0  0  0
   -3.7624  -10.4098    0.0000 C   0  0  0  0  0  0  0  0  0  0  0  0
   -1.6168  -10.8188    0.0000 C   0  0  0  0  0  0  0  0  0  0  0  0
   -0.9060  -10.4027    0.0000 C   0  0  0  0  0  0  0  0  0  0  0  0
   -1.6148  -11.6429    0.0000 C   0  0  0  0  0  0  0  0  0  0  0  0
   -0.0838  -10.4004    0.0000 C   0  0  0  0  0  0  0  0  0  0  0  0
    0.6285  -10.8148    0.0000 C   0  0  0  0  0  0  0  0  0  0  0  0
    0.1283   -9.6050    0.0000 O   0  0  0  0  0  0  0  0  0  0  0  0
   -1.1205   -9.6079    0.0000 O   0  0  0  0  0  0  0  0  0  0  0  0
   -1.9164   -9.3978    0.0000 C   0  0  0  0  0  0  0  0  0  0  0  0
   -2.1354   -8.5981    0.0000 O   0  0  0  0  0  0  0  0  0  0  0  0
   -2.4981   -9.9825    0.0000 N   0  0  0  0  0  0  0  0  0  0  0  0
    0.9284   -9.3926    0.0000 C   0  0  0  0  0  0  0  0  0  0  0  0
    0.6264  -11.6388    0.0000 C   0  0  0  0  0  0  0  0  0  0  0  0
   -0.0911  -12.0467    0.0000 C   0  0  0  0  0  0  0  0  0  0  0  0
   -0.0931  -12.8707    0.0000 C   0  0  0  0  0  0  0  0  0  0  0  0
    0.6222  -13.2869    0.0000 C   0  0  0  0  0  0  0  0  0  0  0  0
   -1.6027  -14.1210    0.0000 N   0  0  0  0  0  0  0  0  0  0  0  0
   -1.6018  -13.2969    0.0000 C   0  0  0  0  0  0  0  0  0  0  0  0
   -2.3178  -12.8819    0.0000 O   0  0  0  0  0  0  0  0  0  0  0  0
   -4.4782  -15.7773    0.0000 N   0  0  0  0  0  0  0  0  0  0  0  0
   -1.4944  -12.0531    0.0000 C   0  0  0  0  0  0  0  0  0  0  0  0
 17 20  1  1  0  0  0 
  9 10  1  0  0  0  0 
 19 21  2  0  0  0  0 
  3  4  1  0  0  0  0 
 21 22  1  0  0  0  0 
 10 11  1  1  0  0  0 
 21 23  1  0  0  0  0 
  4  5  2  0  0  0  0 
 22 24  1  0  0  0  0 
 10 12  1  0  0  0  0 
 24 25  1  0  0  0  0 
  5  6  1  0  0  0  0 
 24 26  1  1  0  0  0 
 12 13  1  0  0  0  0 
 22 27  1  6  0  0  0 
 27 28  1  0  0  0  0 
 13 14  1  0  0  0  0 
 28 29  2  0  0  0  0 
  6  7  2  0  0  0  0 
 28 30  1  0  0  0  0 
 13 15  1  6  0  0  0 
 26 31  1  0  0  0  0 
  1  2  2  0  0  0  0 
 25 32  2  0  0  0  0 
 15 16  1  0  0  0  0 
 32 33  1  0  0  0  0 
  3  8  2  0  0  0  0 
 33 34  2  0  0  0  0 
 14 17  1  0  0  0  0 
 34 35  1  0  0  0  0 
  1  6  1  0  0  0  0 
  5 36  1  0  0  0  0 
 14 18  1  1  0  0  0 
 36 37  1  0  0  0  0 
  1  9  1  0  0  0  0 
 37 38  2  0  0  0  0 
 37 34  1  0  0  0  0 
 17 19  1  0  0  0  0 
  2 39  1  0  0  0  0 
  2  3  1  0  0  0  0 
 18 40  1  0  0  0  0 
M  END