
  Mrv0541 04051115152D          

 20 22  0  0  0  0            999 V2000
    0.4782    2.9677    0.0000 C   0  0  0  0  0  0  0  0  0  0  0  0
    1.1926    2.5552    0.0000 C   0  0  0  0  0  0  0  0  0  0  0  0
    1.1926    1.7302    0.0000 N   0  0  0  0  0  0  0  0  0  0  0  0
    0.4782    1.3177    0.0000 C   0  0  0  0  0  0  0  0  0  0  0  0
   -0.2363    1.7302    0.0000 C   0  0  0  0  0  0  0  0  0  0  0  0
   -0.2363    2.5552    0.0000 C   0  0  0  0  0  0  0  0  0  0  0  0
   -0.9508    1.3177    0.0000 C   0  0  0  0  0  0  0  0  0  0  0  0
    0.4782    3.7927    0.0000 Br  0  0  0  0  0  0  0  0  0  0  0  0
   -1.6653    1.7302    0.0000 O   0  0  0  0  0  0  0  0  0  0  0  0
   -0.9508    0.4927    0.0000 N   0  0  0  0  0  0  0  0  0  0  0  0
   -1.6653    0.0802    0.0000 C   0  0  0  0  0  0  0  0  0  0  0  0
   -1.6653   -0.7448    0.0000 C   0  0  0  0  0  0  0  0  0  0  0  0
   -0.2363    0.0802    0.0000 C   0  0  0  0  0  0  0  0  0  0  0  0
   -0.2363   -0.7448    0.0000 C   0  0  0  0  0  0  0  0  0  0  0  0
   -0.9508   -1.1573    0.0000 C   0  0  0  0  0  0  0  0  0  0  0  0
   -0.9508   -1.9823    0.0000 N   0  0  0  0  0  0  0  0  0  0  0  0
   -1.6182   -2.4672    0.0000 C   0  0  0  0  0  0  0  0  0  0  0  0
   -1.3633   -3.2518    0.0000 C   0  0  0  0  0  0  0  0  0  0  0  0
   -0.5383   -3.2518    0.0000 C   0  0  0  0  0  0  0  0  0  0  0  0
   -0.2833   -2.4672    0.0000 C   0  0  0  0  0  0  0  0  0  0  0  0
  1  2  2  0  0  0  0
  1  6  1  0  0  0  0
  8  1  1  0  0  0  0
  2  3  1  0  0  0  0
  4  3  2  0  0  0  0
  4  5  1  0  0  0  0
  5  7  1  0  0  0  0
  5  6  2  0  0  0  0
  7 10  1  0  0  0  0
  7  9  2  0  0  0  0
 11 10  1  0  0  0  0
 13 10  1  0  0  0  0
 11 12  1  0  0  0  0
 12 15  1  0  0  0  0
 13 14  1  0  0  0  0
 14 15  1  0  0  0  0
 15 16  1  0  0  0  0
 17 16  1  0  0  0  0
 20 16  1  0  0  0  0
 17 18  1  0  0  0  0
 18 19  1  0  0  0  0
 19 20  1  0  0  0  0
M  END