
  SciTegic07111213592D

 29 31  0  0  0  0            999 V2000
   12.1084   -5.4708    0.0000 C   0  0
   12.1084   -6.2958    0.0000 N   0  0
   13.5334   -6.2958    0.0000 C   0  0
   12.8209   -6.7083    0.0000 C   0  0
   12.8209   -5.0583    0.0000 N   0  0
   13.5334   -5.4708    0.0000 C   0  0
    9.2584   -3.8167    0.0000 C   0  0
   11.3959   -5.0583    0.0000 N   0  0
    9.9709   -4.2333    0.0000 N   0  0
   14.2459   -6.7083    0.0000 C   0  0
    8.5459   -4.2208    0.0000 C   0  0
   14.2459   -5.0583    0.0000 C   0  0
   14.9667   -6.2958    0.0000 C   0  0
   14.9667   -5.4708    0.0000 C   0  0
    8.4542   -5.0458    0.0000 O   0  0
   10.6834   -5.4708    0.0000 C   0  0
   11.3959   -4.2333    0.0000 C   0  0
   10.6917   -3.8208    0.0000 C   0  0
    9.9709   -5.0583    0.0000 C   0  0
    9.2584   -2.9875    0.0000 O   0  0
    7.7917   -3.8917    0.0000 C   0  0
    7.6459   -5.2208    0.0000 C   0  0
    7.2334   -4.5042    0.0000 C   0  0
   12.8292   -7.5333    0.0000 N   0  0
   15.6834   -6.7083    0.0000 O   0  0
   15.6792   -5.0542    0.0000 O   0  0
   15.6709   -4.2292    0.0000 C   0  0
   15.6834   -7.5333    0.0000 C   0  0
   12.6333   -2.7458    0.0000 Cl  0  0
  2  1  2  0
  3  6  1  0
  4  2  1  0
  5  1  1  0
  6  5  2  0
  7  9  1  0
  8  1  1  0
  9 18  1  0
 10  3  1  0
 11  7  1  0
 12  6  1  0
 13 10  2  0
 14 12  2  0
 15 11  1  0
 16  8  1  0
 17  8  1  0
 18 17  1  0
 19 16  1  0
 20  7  2  0
 21 11  2  0
 22 15  1  0
 23 21  1  0
 24  4  1  0
 25 13  1  0
 26 14  1  0
 27 26  1  0
 28 25  1  0
  4  3  2  0
 19  9  1  0
 13 14  1  0
 23 22  2  0
M  END