
          01230816052D 1   1.00000     0.00000     0

 56 58  0     1  0            999 V2000
   -2.6240  -10.8904    0.0000 C   0  0  0  0  0  0           0  0  0
   -1.9099  -11.3023    0.0000 C   0  0  0  0  0  0           0  0  0
   -1.1933  -10.8898    0.0000 C   0  0  0  0  0  0           0  0  0
   -1.1975  -10.0589    0.0000 C   0  0  0  0  0  0           0  0  0
   -2.6265  -10.0604    0.0000 C   0  0  0  0  0  0           0  0  0
   -1.9143   -9.6504    0.0000 C   0  0  0  0  0  0           0  0  0
   -1.9173   -8.8280    0.0000 N   0  0  0  0  0  0           0  0  0
   -2.6274   -8.4222    0.0000 C   0  0  0  0  0  0           0  0  0
   -3.3407   -8.8354    0.0000 C   0  0  0  0  0  0           0  0  0
   -3.3322   -9.6558    0.0000 C   0  0  0  0  0  0           0  0  0
   -0.4827   -9.6427    0.0000 O   0  0  0  0  0  0           0  0  0
    0.2297  -10.0488    0.0000 C   0  0  0  0  0  0           0  0  0
    0.9446   -9.6324    0.0000 C   0  0  0  0  0  0           0  0  0
    0.9428   -8.8099    0.0000 O   0  0  0  0  0  0           0  0  0
    2.3746   -9.6278    0.0000 C   0  0  2  0  0  0           0  0  0
    3.0872  -10.0380    0.0000 C   0  0  0  0  0  0           0  0  0
    3.0930  -10.8645    0.0000 O   0  0  0  0  0  0           0  0  0
    2.3689   -8.8053    0.0000 C   0  0  0  0  0  0           0  0  0
    3.0795   -8.3889    0.0000 C   0  0  0  0  0  0           0  0  0
    3.0778   -7.5622    0.0000 C   0  0  0  0  0  0           0  0  0
    3.7885   -7.1460    0.0000 C   0  0  0  0  0  0           0  0  0
    4.5139  -10.0338    0.0000 C   0  0  2  0  0  0           0  0  0
    5.2288   -9.6174    0.0000 C   0  0  0  0  0  0           0  0  0
    4.5157  -10.8604    0.0000 C   0  0  3  0  0  0           0  0  0
    3.8050  -11.2725    0.0000 C   0  0  0  0  0  0           0  0  0
    5.2364  -11.2665    0.0000 C   0  0  0  0  0  0           0  0  0
    5.2230   -8.7908    0.0000 O   0  0  0  0  0  0           0  0  0
    6.6583   -9.6086    0.0000 C   0  0  0  0  0  0           0  0  0
    7.3749  -10.0190    0.0000 C   0  0  0  0  0  0           0  0  0
    8.0856   -9.6025    0.0000 N   0  0  0  0  0  0           0  0  0
    7.3808  -10.8414    0.0000 O   0  0  0  0  0  0           0  0  0
    8.8069  -10.0082    0.0000 C   0  0  2  0  0  0           0  0  0
    9.4771   -9.5361    0.0000 C   0  0  0  0  0  0           0  0  0
    8.8082  -10.8353    0.0000 C   0  0  1  0  0  0           0  0  0
    8.0974  -11.2517    0.0000 C   0  0  0  0  0  0           0  0  0
   10.2298   -9.8815    0.0000 N   0  0  3  0  0  0           0  0  0
    9.4070   -8.7146    0.0000 O   0  0  0  0  0  0           0  0  0
   10.3880  -10.6868    0.0000 C   0  0  1  0  0  0           0  0  0
   11.2053  -10.7866    0.0000 C   0  0  0  0  0  0           0  0  0
   11.5547  -10.0380    0.0000 C   0  0  0  0  0  0           0  0  0
   10.9485   -9.4772    0.0000 C   0  0  0  0  0  0           0  0  0
    9.9408  -11.3809    0.0000 C   0  0  0  0  0  0           0  0  0
   10.3189  -12.1157    0.0000 O   0  0  0  0  0  0           0  0  0
   11.1398  -12.1564    0.0000 C   0  0  0  0  0  0           0  0  0
   11.5869  -11.4623    0.0000 O   0  0  0  0  0  0           0  0  0
   11.0704  -13.5836    0.0000 C   0  0  3  0  0  0           0  0  0
   10.5920  -14.2600    0.0000 C   0  0  0  0  0  0           0  0  0
   11.7537  -14.0448    0.0000 C   0  0  0  0  0  0           0  0  0
   10.3902  -13.1176    0.0000 C   0  0  0  0  0  0           0  0  0
   10.7992  -11.4047    0.0000 H   0  0  0  0  0  0           0  0  0
    1.6609  -10.0417    0.0000 N   0  0  0  0  0  0           0  0  0
    3.7994   -9.6215    0.0000 N   0  0  0  0  0  0           0  0  0
    3.7854   -6.3179    0.0000 N   0  0  0  0  0  0           0  0  0
    5.9461  -10.0250    0.0000 N   0  0  0  0  0  0           0  0  0
    9.5260  -11.2432    0.0000 O   0  0  0  0  0  0           0  0  0
   11.5172  -12.8900    0.0000 N   0  0  0  0  0  0           0  0  0
  6  7  1  0     0  0
 23 27  2  0     0  0
 13 14  2  0     0  0
 28 29  1  0     0  0
 29 30  1  0     0  0
  7  8  2  0     0  0
 29 31  2  0     0  0
 15 16  1  0     0  0
 32 30  1  6     0  0
  3  4  1  0     0  0
 32 33  1  0     0  0
 32 34  1  0     0  0
  8  9  1  0     0  0
 34 35  1  0     0  0
 16 17  2  0     0  0
  4  6  2  0     0  0
 33 36  1  0     0  0
 15 18  1  1     0  0
 33 37  2  0     0  0
 36 38  1  0     0  0
  9 10  2  0     0  0
 18 19  1  0     0  0
 10  5  1  0     0  0
 19 20  1  0     0  0
 38 39  1  0     0  0
 39 40  1  0     0  0
 40 41  1  0     0  0
 41 36  1  0     0  0
  1  2  1  0     0  0
 20 21  1  0     0  0
  4 11  1  0     0  0
  5  1  2  0     0  0
 11 12  1  0     0  0
 22 23  1  0     0  0
  5  6  1  0     0  0
 22 24  1  6     0  0
 12 13  1  0     0  0
 38 42  1  0     0  0
 42 43  1  0     0  0
 43 44  1  0     0  0
 44 45  2  0     0  0
 46 47  1  0     0  0
 46 48  1  0     0  0
 46 49  1  0     0  0
 38 50  1  6     0  0
 24 25  1  0     0  0
  2  3  2  0     0  0
 24 26  1  0     0  0
 21 53  1  0     0  0
 54 28  1  0     0  0
 23 54  1  0     0  0
 16 52  1  0     0  0
 52 22  1  0     0  0
 34 55  1  6     0  0
 51 15  1  0     0  0
 13 51  1  0     0  0
 44 56  1  0     0  0
 56 46  1  0     0  0
M  END