
  SciTegic12231509382D

 22 24  0  0  0  0            999 V2000
   -1.8187   -3.1875    0.0000 Br  0  0
    2.4682    0.1125    0.0000 O   0  0
    2.4682    1.7625    0.0000 O   0  0
   -0.3897    1.7625    0.0000 N   0  0
   -1.1042    0.5250    0.0000 N   0  0
   -0.3897   -0.7125    0.0000 N   0  0
    0.3248    0.5250    0.0000 C   0  0
    0.3248    1.3500    0.0000 C   0  0
   -0.3897    0.1125    0.0000 C   0  0
    1.7537    0.5250    0.0000 C   0  0
    1.7537    1.3500    0.0000 C   0  0
    1.0392    0.1125    0.0000 C   0  0
    1.0392    1.7625    0.0000 C   0  0
   -1.1042    1.3500    0.0000 C   0  0
   -1.1042   -1.1250    0.0000 C   0  0
   -1.1042   -1.9500    0.0000 C   0  0
   -1.8187   -0.7125    0.0000 C   0  0
   -1.8187   -2.3625    0.0000 C   0  0
   -2.5331   -1.1250    0.0000 C   0  0
   -2.5331   -1.9500    0.0000 C   0  0
    2.4682   -0.7125    0.0000 C   0  0
    2.4682    2.5875    0.0000 C   0  0
  1 18  1  0
  2 10  1  0
  2 21  1  0
  3 11  1  0
  3 22  1  0
  4  8  1  0
  4 14  2  0
  5  9  2  0
  5 14  1  0
  6  9  1  0
  6 15  1  0
  7  8  2  0
  7  9  1  0
  7 12  1  0
  8 13  1  0
 10 11  1  0
 10 12  2  0
 11 13  2  0
 15 16  2  0
 15 17  1  0
 16 18  1  0
 17 19  2  0
 18 20  2  0
 19 20  1  0
M  END