
  Mrv0541 04051115152D          

  9  9  0  0  0  0            999 V2000
   -0.5558    2.1511    0.0000 C   0  0  0  0  0  0  0  0  0  0  0  0
   -0.5558    1.3261    0.0000 C   0  0  0  0  0  0  0  0  0  0  0  0
    0.1587    0.9136    0.0000 C   0  0  0  0  0  0  0  0  0  0  0  0
    0.1587    0.0886    0.0000 C   0  0  0  0  0  0  0  0  0  0  0  0
    0.8732   -0.3239    0.0000 C   0  0  0  0  0  0  0  0  0  0  0  0
    0.8732   -1.1489    0.0000 C   0  0  0  0  0  0  0  0  0  0  0  0
    0.1587   -1.5614    0.0000 C   0  0  0  0  0  0  0  0  0  0  0  0
   -0.5558   -1.1489    0.0000 C   0  0  0  0  0  0  0  0  0  0  0  0
   -0.5558   -0.3239    0.0000 C   0  0  0  0  0  0  0  0  0  0  0  0
  1  2  1  0  0  0  0
  2  3  1  0  0  0  0
  3  4  1  0  0  0  0
  4  5  2  0  0  0  0
  4  9  1  0  0  0  0
  5  6  1  0  0  0  0
  6  7  2  0  0  0  0
  7  8  1  0  0  0  0
  8  9  2  0  0  0  0
M  END