
  SciTegic04091415222D

 53 56  0  0  0  0            999 V2000
   14.6902  -10.6718    0.0000 N   0  0
   11.5112  -12.8457    0.0000 C   0  0
   14.6873   -9.0314    0.0000 C   0  0
   16.1129  -10.6733    0.0000 C   0  0
    4.1639  -11.7930    0.0000 C   0  0  1  0  0  0
   12.9555  -12.6161    0.0000 C   0  0  2  0  0  0
   13.9792  -10.2585    0.0000 C   0  0
    8.6660  -13.9142    0.0000 O   0  0
   15.4029  -10.2592    0.0000 C   0  0
   13.2044  -10.5104    0.0000 N   0  0
    4.8006  -10.6212    0.0000 C   0  0
    9.3496  -12.6619    0.0000 N   0  5
   10.7613  -12.5095    0.0000 O   0  0
    8.6499  -13.0939    0.0000 C   0  0
    3.3651  -11.6203    0.0000 H   0  0
   12.7224   -9.8532    0.0000 C   0  0
   14.6855   -8.2105    0.0000 N   0  0
   13.2003   -9.1817    0.0000 N   0  0
    5.0839  -12.7668    0.0000 C   0  0  2  0  0  0
    5.7783  -12.1016    0.0000 H   0  0
    4.9488   -9.8139    0.0000 O   0  0
   10.5796  -13.6596    0.0000 O   0  0
   12.1729  -12.3573    0.0000 C   0  0  2  0  0  0
    6.5030  -12.7316    0.0000 C   0  0
   18.2375  -11.8994    0.0000 C   0  0
   18.2414  -11.0814    0.0000 C   0  0
   14.2586  -11.9517    0.0000 O   0  0
   17.5309  -11.4946    0.0000 C   0  0
   12.1695  -11.5404    0.0000 O   0  0
    7.9263  -12.6968    0.0000 C   0  0
   15.4006   -9.4343    0.0000 N   0  0
   13.9810   -9.4367    0.0000 C   0  0
    9.7635  -13.7476    0.0000 O   0  0
    7.2230  -13.1202    0.0000 C   0  0
    4.3380  -13.1169    0.0000 S   0  0
   12.9534  -11.2912    0.0000 C   0  0  2  0  0  0
    4.0589  -10.9820    0.0000 N   0  0
   16.8219  -11.0785    0.0000 C   0  0
   13.4377  -11.9529    0.0000 C   0  0  1  0  0  0
   10.0997  -12.9978    0.0000 S   0  0
    3.7722  -12.5184    0.0000 C   0  0
    4.9764  -11.9467    0.0000 C   0  0  1  0  0  0
    5.3714  -11.2144    0.0000 N   0  0
   13.2067  -13.3967    0.0000 O   0  0
    5.8039  -13.1554    0.0000 C   0  0
   17.5292  -12.3154    0.0000 C   0  0
    9.5098   -9.3911    0.0000 C   0  0
    7.3847   -8.9765    0.0000 C   0  0
    9.5056   -7.7535    0.0000 C   0  0
    8.8000   -8.9807    0.0000 N   0  3
    8.0903   -9.3869    0.0000 C   0  0
    8.8000   -8.1598    0.0000 C   0  0
    9.5098  -10.2079    0.0000 C   0  0
 19 45  1  6
 32  7  2  0
  9 31  1  0
  3 17  1  0
 37  5  1  0
 42 20  1  1
 11 37  1  0
 42 43  1  0
 40 22  2  0
 10  7  1  0
 34 30  1  0
 14 12  1  0
 43 11  1  0
 36 10  1  1
  9  1  2  0
 29 23  1  0
  5 41  1  0
 36 29  1  0
 28 26  1  0
 23  6  1  0
 35 19  1  0
 39 27  1  6
 11 21  2  0
  6 39  1  0
 12 40  1  0
 23  2  1  1
  6 44  1  6
 30 14  1  0
 14  8  2  0
 16 10  1  0
 18 16  2  0
  9  4  1  0
 38 28  1  0
 13  2  1  0
 32 18  1  0
 42  5  1  0
  7  1  1  0
  5 15  1  1
 28 46  1  0
 45 24  1  0
 28 25  1  0
  3 32  1  0
  4 38  3  0
 24 34  1  0
 41 35  1  0
 19 42  1  0
 31  3  2  0
 33 40  2  0
 39 36  1  0
 40 13  1  0
 50 47  1  0
 52 49  1  0
 51 50  1  0
 50 52  1  0
 47 53  1  0
 51 48  1  0
M  CHG  2  12  -1  50   1
M  END