
          11280715342D 1   1.00000     0.00000     0

 30 33  0     0  0            999 V2000
    2.1667   -2.5667    0.0000 C   0  0  0  0  0  0           0  0  0
    1.4542   -2.1542    0.0000 C   0  0  0  0  0  0           0  0  0
    2.1667   -3.3917    0.0000 C   0  0  0  0  0  0           0  0  0
    0.7417   -2.5667    0.0000 C   0  0  0  0  0  0           0  0  0
    4.3000   -2.1500    0.0000 C   0  0  0  0  0  0           0  0  0
    5.0125   -1.7292    0.0000 C   0  0  0  0  0  0           0  0  0
    1.4542   -3.8042    0.0000 C   0  0  3  0  0  0           0  0  0
    7.8500   -0.0500    0.0000 C   0  0  0  0  0  0           0  0  0
    1.4542   -1.3292    0.0000 C   0  0  0  0  0  0           0  0  0
    2.8792   -3.8042    0.0000 C   0  0  0  0  0  0           0  0  0
    2.8750   -2.1542    0.0000 C   0  0  0  0  0  0           0  0  0
    0.7417   -3.3917    0.0000 C   0  0  0  0  0  0           0  0  0
    7.1375   -0.4750    0.0000 C   0  0  0  0  0  0           0  0  0
    3.5875   -2.5667    0.0000 C   0  0  0  0  0  0           0  0  0
    7.8375    0.7750    0.0000 O   0  0  0  0  0  0           0  0  0
    5.7167   -1.3125    0.0000 C   0  0  0  0  0  0           0  0  0
    2.1667   -0.9167    0.0000 C   0  0  0  0  0  0           0  0  0
    0.7417   -0.9167    0.0000 C   0  0  0  0  0  0           0  0  0
    6.4167   -0.0667    0.0000 C   0  0  0  0  0  0           0  0  0
    7.1417   -1.3000    0.0000 C   0  0  0  0  0  0           0  0  0
    3.5917   -3.3917    0.0000 C   0  0  0  0  0  0           0  0  0
    8.5667   -0.4542    0.0000 O   0  0  0  0  0  0           0  0  0
    1.4542    0.3208    0.0000 C   0  0  0  0  0  0           0  0  0
    5.7042   -0.4917    0.0000 C   0  0  0  0  0  0           0  0  0
    6.4375   -1.7167    0.0000 C   0  0  0  0  0  0           0  0  0
    0.7417   -0.0917    0.0000 C   0  0  0  0  0  0           0  0  0
    2.1667   -0.0917    0.0000 C   0  0  0  0  0  0           0  0  0
    1.4542    1.1500    0.0000 O   0  0  0  0  0  0           0  0  0
    1.8625   -4.5167    0.0000 C   0  0  0  0  0  0           0  0  0
    1.0375   -4.5167    0.0000 C   0  0  0  0  0  0           0  0  0
  2  1  1  0     0  0
  3  1  2  0     0  0
  4  2  2  0     0  0
  5 14  1  0     0  0
  6  5  3  0     0  0
  7  3  1  0     0  0
  8 13  1  0     0  0
  9  2  1  0     0  0
 10  3  1  0     0  0
 11  1  1  0     0  0
 12  7  1  0     0  0
 13 20  2  0     0  0
 14 11  2  0     0  0
 15  8  2  0     0  0
 16  6  1  0     0  0
 17  9  2  0     0  0
 18  9  1  0     0  0
 19 24  2  0     0  0
 20 25  1  0     0  0
 21 14  1  0     0  0
 22  8  1  0     0  0
 23 26  1  0     0  0
 24 16  1  0     0  0
 25 16  2  0     0  0
 26 18  2  0     0  0
 27 17  1  0     0  0
 28 23  1  0     0  0
 29  7  1  0     0  0
 30  7  1  0     0  0
 10 21  2  0     0  0
  4 12  1  0     0  0
 27 23  2  0     0  0
 13 19  1  0     0  0
M  END