
  SciTegic11201313502D

 22 24  0  0  0  0            999 V2000
   -1.1457    2.0795    0.0000 C   0  0
   -2.4748    1.6956    0.0000 N   0  0
   -0.3208    2.0795    0.0000 C   0  0
   -1.5581    1.3577    0.0000 C   0  0
    0.0859    1.3691    0.0000 C   0  0
   -2.4862    0.8707    0.0000 C   0  0
    0.9109    1.3691    0.0000 C   0  0
   -1.7701    0.4582    0.0000 C   0  0
   -1.8217    1.8561    0.0000 C   0  0
   -1.7816   -0.3667    0.0000 C   0  0
   -3.1049    1.4608    0.0000 C   0  0
    1.3233    0.6531    0.0000 O   0  0
   -1.1515    2.9044    0.0000 C   0  0
    0.0859    2.7955    0.0000 C   0  0
   -2.7096    2.1940    0.0000 C   0  0
    0.8994    2.7955    0.0000 C   0  0
    1.3233    2.0795    0.0000 C   0  0
   -2.4919   -0.7791    0.0000 C   0  0
   -1.0655   -0.7791    0.0000 C   0  0
   -1.0769   -1.6041    0.0000 C   0  0
   -2.5034   -1.6041    0.0000 C   0  0
   -1.7873   -2.0165    0.0000 C   0  0
  2  4  1  0
  3  1  1  0
  4  1  1  0
  5  3  2  0
  6  2  1  0
  7  5  1  0
  8  6  1  0
  9  1  1  0
 10  8  1  0
 11 15  1  0
 12  7  1  0
 13  1  1  0
 14  3  1  0
 15  9  1  0
 16 14  2  0
 17 16  1  0
 18 10  2  0
 19 10  1  0
 20 19  2  0
 21 18  1  0
 22 20  1  0
 11  2  1  0
 17  7  2  0
 22 21  2  0
M  END