
  SciTegic01161211242D

 44 46  0  0  0  0            999 V2000
    8.2000   -4.5250    0.0000 N   0  3
    3.2083   -4.9542    0.0000 C   0  0
    5.3500   -4.5292    0.0000 C   0  0
   -0.3625   -6.2042    0.0000 C   0  0
    3.9208   -4.5375    0.0000 N   0  0
    4.6375   -4.9458    0.0000 C   0  0  1  0  0  0
    6.0667   -4.9417    0.0000 N   0  0
   -1.0792   -5.7917    0.0000 N   0  0
    2.4917   -4.5458    0.0000 N   0  0
    0.3500   -5.7917    0.0000 C   0  0
    3.2125   -5.7792    0.0000 O   0  0
    5.3458   -3.7042    0.0000 O   0  0
   -0.3667   -7.0292    0.0000 O   0  0
    7.4917   -4.9375    0.0000 C   0  0
    4.6417   -5.7708    0.0000 C   0  0
    8.9167   -4.1167    0.0000 C   0  0
    6.7792   -4.5250    0.0000 C   0  0  2  0  0  0
    0.3500   -4.9667    0.0000 C   0  0
    1.0625   -6.2042    0.0000 C   0  0
    1.7792   -4.9625    0.0000 C   0  0
    5.3583   -6.1792    0.0000 C   0  0
    9.6292   -4.5333    0.0000 C   0  0
    8.2000   -3.7000    0.0000 C   0  0
    6.7875   -7.0000    0.0000 C   0  0
   11.0542   -5.3625    0.0000 C   0  0
    8.1958   -5.3458    0.0000 C   0  0
    1.7833   -5.7917    0.0000 C   0  0
    1.0625   -4.5542    0.0000 C   0  0
    6.0667   -5.7625    0.0000 C   0  0
    5.3583   -7.0042    0.0000 C   0  0
    9.6250   -5.3542    0.0000 C   0  0
   10.3417   -4.1208    0.0000 C   0  0
   10.3333   -5.7708    0.0000 C   0  0
    6.0750   -7.4167    0.0000 C   0  0
   11.0542   -4.5333    0.0000 C   0  0
    6.7833   -6.1708    0.0000 C   0  0
   -1.7917   -6.2000    0.0000 C   0  0
    7.5042   -7.4083    0.0000 O   0  0
   11.7667   -5.7792    0.0000 O   0  0
    7.4833   -3.2875    0.0000 C   0  0
    6.7667   -3.7042    0.0000 C   0  0
   -2.5083   -5.7875    0.0000 C   0  0
   -1.7958   -7.0250    0.0000 C   0  0
    8.4500   -7.6500    0.0000 I   0  5
  2  5  1  0
  3  7  1  0
  4 10  1  0
  5  6  1  0
  6  3  1  0
 17  7  1  1
  8  4  1  0
  9  2  1  0
 10 19  1  0
 11  2  2  0
 12  3  2  0
 13  4  2  0
 14  1  1  0
  6 15  1  6
 16  1  1  0
 17 14  1  0
 18 28  1  0
 19 27  2  0
 20  9  1  0
 21 15  1  0
 22 16  1  0
 23  1  1  0
 24 36  1  0
 25 35  1  0
 26  1  1  0
 27 20  1  0
 28 20  2  0
 29 21  1  0
 30 21  2  0
 31 22  2  0
 32 22  1  0
 33 31  1  0
 34 30  1  0
 35 32  2  0
 36 29  2  0
 37  8  1  0
 38 24  1  0
 39 25  1  0
 40 23  1  0
 41 40  1  0
 42 37  1  0
 43 37  1  0
 41 17  1  0
 25 33  2  0
 24 34  2  0
 10 18  2  0
M  CHG  2   1   1  44  -1
M  END