
  SciTegic10311316212D

 25 26  0  0  0  0            999 V2000
    1.8772  -15.2501    0.0000 P   0  0
    1.0522  -15.2501    0.0000 O   0  0
    1.4647  -15.9646    0.0000 O   0  0
    2.5916  -15.6626    0.0000 C   0  0
    3.3061  -15.2501    0.0000 C   0  0
    1.8772  -14.4251    0.0000 O   0  0
    4.0207  -15.6626    0.0000 C   0  0
    4.7351  -15.2501    0.0000 N   0  0
    5.4496  -15.6626    0.0000 C   0  0
    4.7351  -14.4251    0.0000 O   0  0
    5.4496  -16.4876    0.0000 O   0  0
    2.5916  -16.4876    0.0000 C   0  0
    1.8749  -16.8982    0.0000 C   0  0
    1.8746  -17.7225    0.0000 C   0  0
    2.5895  -18.1358    0.0000 C   0  0
    3.3064  -17.7188    0.0000 C   0  0
    3.3032  -16.8960    0.0000 C   0  0
    4.0223  -18.1288    0.0000 Cl  0  0
    2.5906  -18.9608    0.0000 Cl  0  0
    6.1641  -15.2501    0.0000 C   0  0
    6.8773  -15.6669    0.0000 C   0  0
    7.5913  -15.2551    0.0000 C   0  0
    7.5917  -14.4292    0.0000 C   0  0
    6.8723  -14.0169    0.0000 C   0  0
    6.1613  -14.4310    0.0000 C   0  0
  2  1  1  0
  1  3  1  0
  4  5  1  0
  4  1  1  0
  1  6  2  0
  5  7  1  0
  7  8  1  0
  8  9  1  0
  8 10  1  0
  9 11  2  0
  4 12  1  0
 12 13  2  0
 13 14  1  0
 14 15  2  0
 15 16  1  0
 16 17  2  0
 17 12  1  0
 16 18  1  0
 15 19  1  0
  9 20  1  0
 20 21  2  0
 21 22  1  0
 22 23  2  0
 23 24  1  0
 24 25  2  0
 25 20  1  0
M  END