
  Mrv0541 05211314572D          

 15 13  0  0  0  0            999 V2000
   -1.6661   -0.9076    0.0000 N   0  0  0  0  0  0  0  0  0  0  0  0
    1.9925    0.3253    0.0000 C   0  0  0  0  0  0  0  0  0  0  0  0
   -2.8856   -0.3647    0.0000 N   0  0  0  0  0  0  0  0  0  0  0  0
   -2.4731   -1.0792    0.0000 C   0  0  0  0  0  0  0  0  0  0  0  0
   -1.5799   -0.0872    0.0000 C   0  0  0  0  0  0  0  0  0  0  0  0
    1.9925    1.1503    0.0000 N   0  0  0  0  0  0  0  0  0  0  0  0
   -2.3336    0.2484    0.0000 C   0  0  0  0  0  0  0  0  0  0  0  0
    1.2780   -0.0872    0.0000 N   0  0  0  0  0  0  0  0  0  0  0  0
    2.7069   -0.0872    0.0000 S   0  0  0  0  0  0  0  0  0  0  0  0
    5.5428    0.0000    0.0000 I   0  0  0  0  0  0  0  0  0  0  0  0
    0.0000   -2.7292    0.0000 I   0  0  0  0  0  0  0  0  0  0  0  0
   -0.8654    0.3253    0.0000 C   0  0  0  0  0  0  0  0  0  0  0  0
    0.5635    0.3253    0.0000 C   0  0  0  0  0  0  0  0  0  0  0  0
    3.4214    0.3253    0.0000 C   0  0  0  0  0  0  0  0  0  0  0  0
   -0.1510   -0.0872    0.0000 C   0  0  0  0  0  0  0  0  0  0  0  0
  1  4  2  0  0  0  0
  3  4  1  0  0  0  0
  1  5  1  0  0  0  0
  2  6  2  0  0  0  0
  3  7  1  0  0  0  0
  5  7  2  0  0  0  0
  2  8  1  0  0  0  0
  2  9  1  0  0  0  0
  5 12  1  0  0  0  0
  8 13  1  0  0  0  0
  9 14  1  0  0  0  0
 12 15  1  0  0  0  0
 13 15  1  0  0  0  0
M  END