
  SciTegic12131016252D

 21 23  0  0  0  0            999 V2000
   -0.2391   -0.4666    0.0000 C   0  0
    0.8644    0.2820    0.0000 N   0  0
    0.0402    0.3044    0.0000 C   0  0
    1.0943   -0.5132    0.0000 C   0  0
    0.4102   -0.9706    0.0000 C   0  0
    0.4713   -1.7904    0.0000 N   0  0
    1.2076   -2.1538    0.0000 C   0  0
    1.8921   -1.6873    0.0000 N   0  0
    1.8320   -0.8693    0.0000 C   0  0
    2.4895   -0.3674    0.0000 N   0  0
   -1.6941   -0.2557    0.0000 N   0  0
   -2.3565   -0.7550    0.0000 C   0  0  1  0  0  0
   -2.0920   -1.5364    0.0000 C   0  0  2  0  0  0
   -1.2663   -1.5252    0.0000 C   0  0  2  0  0  0
   -1.0196   -0.7365    0.0000 C   0  0  2  0  0  0
   -0.7703   -2.1869    0.0000 O   0  0
   -2.5655   -2.2116    0.0000 O   0  0
   -3.1454   -0.5132    0.0000 C   0  0
   -3.3284    0.2917    0.0000 S   0  0
   -4.1174    0.5377    0.0000 C   0  0
   -4.2977    1.3389    0.0000 C   0  0
  9 10  1  0
  4  5  2  0
 11 12  1  0
  4  2  1  0
  5  6  1  0
  2  3  1  0
  6  7  2  0
 12 13  1  0
 13 14  1  0
 14 15  1  0
 15 11  1  0
  3  1  2  0
 14 16  1  6
  7  8  1  0
 13 17  1  6
 15  1  1  1
  1  5  1  0
 12 18  1  1
  8  9  2  0
 18 19  1  0
  9  4  1  0
 19 20  1  0
 20 21  1  0
M  END