
          11280714452D 1   1.00000     0.00000     0

 31 34  0     0  0            999 V2000
    9.6625   -3.0167    0.0000 C   0  0  0  0  0  0           0  0  0
    1.8167   -1.7875    0.0000 N   0  0  0  0  0  0           0  0  0
    8.9500   -2.6042    0.0000 C   0  0  0  0  0  0           0  0  0
    9.6625   -3.8417    0.0000 C   0  0  0  0  0  0           0  0  0
    7.5167   -2.6042    0.0000 C   0  0  0  0  0  0           0  0  0
    8.2292   -3.0167    0.0000 C   0  0  0  0  0  0           0  0  0
    1.1042   -1.3792    0.0000 C   0  0  0  0  0  0           0  0  0
    6.8042   -3.0167    0.0000 C   0  0  0  0  0  0           0  0  0
   10.3792   -4.2542    0.0000 O   0  0  0  0  0  0           0  0  0
    2.5250   -1.3667    0.0000 C   0  0  0  0  0  0           0  0  0
    8.2292   -3.8417    0.0000 O   0  0  0  0  0  0           0  0  0
    1.1000   -0.5500    0.0000 C   0  0  0  0  0  0           0  0  0
    1.8167   -0.1375    0.0000 C   0  0  0  0  0  0           0  0  0
    6.0917   -2.6042    0.0000 C   0  0  0  0  0  0           0  0  0
    3.9542   -1.3667    0.0000 O   0  0  0  0  0  0           0  0  0
    8.9542   -4.2500    0.0000 O   0  0  0  0  0  0           0  0  0
    4.6667   -1.7792    0.0000 C   0  0  0  0  0  0           0  0  0
    3.2417   -1.7792    0.0000 C   0  0  0  0  0  0           0  0  0
    2.5292   -0.5417    0.0000 C   0  0  0  0  0  0           0  0  0
    5.3792   -3.0125    0.0000 C   0  0  0  0  0  0           0  0  0
    6.0917   -1.7750    0.0000 C   0  0  0  0  0  0           0  0  0
    5.3792   -1.3625    0.0000 C   0  0  0  0  0  0           0  0  0
    4.6667   -2.6042    0.0000 C   0  0  0  0  0  0           0  0  0
   10.3792   -2.6042    0.0000 C   0  0  0  0  0  0           0  0  0
    8.9500   -1.7750    0.0000 C   0  0  0  0  0  0           0  0  0
    0.3917   -1.7917    0.0000 C   0  0  0  0  0  0           0  0  0
    0.3792   -0.1417    0.0000 C   0  0  0  0  0  0           0  0  0
    9.6625   -1.3625    0.0000 C   0  0  0  0  0  0           0  0  0
   10.3792   -1.7750    0.0000 C   0  0  0  0  0  0           0  0  0
   -0.3250   -1.3917    0.0000 C   0  0  0  0  0  0           0  0  0
   -0.3333   -0.5542    0.0000 C   0  0  0  0  0  0           0  0  0
  2 10  1  0     0  0
  3  1  1  0     0  0
  4  1  1  0     0  0
  5  6  1  0     0  0
  6  3  1  0     0  0
  7  2  2  0     0  0
  8  5  2  0     0  0
  9  4  2  0     0  0
 10 18  1  0     0  0
 11  6  2  0     0  0
 12 13  2  0     0  0
 13 19  1  0     0  0
 14  8  1  0     0  0
 15 17  1  0     0  0
 16  4  1  0     0  0
 17 22  2  0     0  0
 18 15  1  0     0  0
 19 10  2  0     0  0
 20 14  1  0     0  0
 21 14  2  0     0  0
 22 21  1  0     0  0
 23 20  2  0     0  0
 24  1  2  0     0  0
 25  3  2  0     0  0
 26  7  1  0     0  0
 27 12  1  0     0  0
 28 29  2  0     0  0
 29 24  1  0     0  0
 30 26  2  0     0  0
 31 27  2  0     0  0
 25 28  1  0     0  0
 17 23  1  0     0  0
 12  7  1  0     0  0
 31 30  1  0     0  0
M  END