
  SciTegic06051313522D

 20 22  0  0  0  0            999 V2000
   22.7696  -18.4101    0.0000 C   0  0
   23.4793  -18.0007    0.0000 C   0  0
   23.4765  -17.1780    0.0000 C   0  0
   22.7679  -16.7728    0.0000 C   0  0
   24.1826  -16.7668    0.0000 N   0  0
   24.8919  -17.1727    0.0000 C   0  0
   22.0616  -18.0012    0.0000 C   0  0
   22.0628  -17.1801    0.0000 C   0  0
   21.2823  -16.9252    0.0000 N   0  0
   20.7986  -17.5887    0.0000 O   0  0
   21.2803  -18.2536    0.0000 N   0  0
   22.7679  -15.9518    0.0000 N   0  3
   22.0593  -15.5447    0.0000 O   0  0
   23.4747  -15.5416    0.0000 O   0  5
   24.8916  -17.9875    0.0000 C   0  0
   25.6000  -18.3934    0.0000 C   0  0
   26.3072  -17.9821    0.0000 C   0  0
   26.3015  -17.1607    0.0000 C   0  0
   25.5925  -16.7585    0.0000 C   0  0
   25.6027  -19.2106    0.0000 Cl  0  0
  7  1  1  0
  1  2  2  0
  2  3  1  0
  3  4  2  0
  4  8  1  0
  3  5  1  0
  5  6  1  0
  7  8  1  0
  8  9  2  0
  9 10  1  0
 10 11  1  0
 11  7  2  0
 12 13  2  0
 12 14  1  0
  4 12  1  0
  6 15  2  0
 15 16  1  0
 16 17  2  0
 17 18  1  0
 18 19  2  0
 19  6  1  0
 16 20  1  0
M  CHG  2  12   1  14  -1
M  END