
  SciTegic04091416292D

 13 13  0  0  0  0            999 V2000
   23.8991  -14.9786    0.0000 N   0  0
   23.4692  -15.6824    0.0000 C   0  0
   22.6445  -15.6622    0.0000 C   0  0
   23.8641  -16.4068    0.0000 O   0  0
   22.2146  -16.3668    0.0000 C   0  0
   21.3903  -16.3252    0.0000 C   0  0
   21.1000  -17.0974    0.0000 C   0  0
   21.7447  -17.6122    0.0000 N   0  0
   22.4334  -17.1580    0.0000 O   0  0
   20.3046  -17.3164    0.0000 C   0  0
   24.7238  -14.9990    0.0000 C   0  0
   25.1537  -14.2950    0.0000 C   0  0
   25.1185  -15.7234    0.0000 C   0  0
  1  2  1  0
  2  3  1  0
  2  4  2  0
  3  5  1  0
  5  6  2  0
  6  7  1  0
  7  8  2  0
  8  9  1  0
  9  5  1  0
  7 10  1  0
  1 11  1  0
 11 12  1  0
 11 13  1  0
M  END