
  SciTegic06051315212D

 64 70  0  0  0  0            999 V2000
   20.6209   -3.4209    0.0000 C   0  0
   19.9542   -3.8959    0.0000 N   0  0
   21.2875   -3.8959    0.0000 N   0  0
   20.2125   -4.6875    0.0000 C   0  0  1  0  0  0
   21.0375   -4.6875    0.0000 C   0  0  2  0  0  0
   20.6250   -5.9583    0.0000 S   0  0
   19.9542   -5.4792    0.0000 C   0  0  1  0  0  0
   21.2916   -5.4666    0.0000 C   0  0
   20.6125   -2.5916    0.0000 O   0  0
   16.3499   -5.7167    0.0000 C   0  0
   15.6458   -5.2750    0.0000 N   0  0
   16.4000   -6.5459    0.0000 O   0  0
   17.0917   -5.3417    0.0000 C   0  0
   19.2167   -5.8542    0.0000 C   0  0
   17.7833   -5.7875    0.0000 C   0  0
   18.5250   -5.4041    0.0000 C   0  0
   21.8583   -4.7750    0.0000 H   0  0
   19.3834   -4.6125    0.0000 H   0  0
   14.9168   -5.6611    0.0000 C   0  0
   14.2179   -5.2227    0.0000 C   0  0
   13.4888   -5.6088    0.0000 C   0  0
   12.7898   -5.1704    0.0000 C   0  0
   12.0607   -5.5565    0.0000 C   0  0
   11.3618   -5.1181    0.0000 C   0  0
   10.6328   -5.5042    0.0000 O   0  0
   11.3920   -4.2937    0.0000 O   0  0
    9.9339   -5.0658    0.0000 C   0  0
    9.9673   -4.2439    0.0000 C   0  0
    9.2692   -3.8056    0.0000 C   0  0
    8.5392   -4.1917    0.0000 C   0  0
    8.5115   -5.0205    0.0000 C   0  0
    9.2103   -5.4550    0.0000 C   0  0
    7.7838   -5.4092    0.0000 C   0  0
    7.0833   -4.9733    0.0000 C   0  0
    7.7565   -6.2337    0.0000 C   0  0
    7.1106   -4.1487    0.0000 C   0  0
    6.3557   -5.3619    0.0000 C   0  0
    7.8391   -3.7653    0.0000 C   0  0
    7.8668   -2.9416    0.0000 C   0  0
    7.1657   -2.5049    0.0000 C   0  0
    6.4355   -2.8978    0.0000 C   0  0
    6.4115   -3.7204    0.0000 C   0  0
    5.6596   -4.9237    0.0000 C   0  0
    4.9324   -5.3118    0.0000 C   0  0
    4.9046   -6.1372    0.0000 C   0  0
    5.6101   -6.5730    0.0000 C   0  0
    6.3344   -6.1826    0.0000 C   0  0
    4.1773   -6.5268    0.0000 O   0  0
    3.4764   -6.0918    0.0000 C   0  0
    2.7491   -6.4814    0.0000 C   0  0
    2.0482   -6.0464    0.0000 N   0  0
    7.1920   -1.6803    0.0000 O   0  0
    6.4909   -1.2453    0.0000 C   0  0
    5.7638   -1.6350    0.0000 C   0  0
    5.0627   -1.2000    0.0000 N   0  0
    5.0022   -0.3728    0.0000 C   0  0
    4.2012   -0.1759    0.0000 C   0  0
    3.7661   -0.8769    0.0000 C   0  0
    4.2985   -1.5071    0.0000 C   0  0
    1.9871   -5.2217    0.0000 C   0  0
    1.1860   -5.0247    0.0000 C   0  0
    0.7510   -5.7258    0.0000 C   0  0
    1.2834   -6.3560    0.0000 C   0  0
    7.0288   -6.6224    0.0000 C   0  0
  2  1  1  0
  3  1  1  0
  4  2  1  0
  5  3  1  0
  6  8  1  0
  7  4  1  0
  8  5  1  0
  9  1  2  0
 10 13  1  0
 11 10  1  0
 12 10  2  0
 13 15  1  0
  7 14  1  1
 15 16  1  0
 16 14  1  0
  5 17  1  6
  4 18  1  6
  5  4  1  0
  6  7  1  0
 11 19  1  0
 19 20  1  0
 20 21  1  0
 21 22  1  0
 22 23  1  0
 23 24  1  0
 24 25  1  0
 24 26  2  0
 25 27  1  0
 27 28  2  0
 28 29  1  0
 29 30  2  0
 30 31  1  0
 31 32  2  0
 32 27  1  0
 31 33  1  0
 33 34  2  0
 33 35  1  0
 34 36  1  0
 34 37  1  0
 36 38  2  0
 38 39  1  0
 39 40  2  0
 40 41  1  0
 41 42  2  0
 42 36  1  0
 37 43  2  0
 43 44  1  0
 44 45  2  0
 45 46  1  0
 46 47  2  0
 47 37  1  0
 45 48  1  0
 48 49  1  0
 49 50  1  0
 50 51  1  0
 40 52  1  0
 52 53  1  0
 53 54  1  0
 54 55  1  0
 55 56  1  0
 56 57  1  0
 57 58  1  0
 58 59  1  0
 59 55  1  0
 51 60  1  0
 60 61  1  0
 61 62  1  0
 62 63  1  0
 63 51  1  0
 35 64  1  0
M  END