
  SciTegic04091415222D

 23 25  0  0  0  0            999 V2000
   27.2227  -19.4599    0.0000 C   0  0
   27.9280  -19.0554    0.0000 C   0  0
   27.9280  -18.2382    0.0000 C   0  0
   27.2227  -17.8255    0.0000 C   0  0
   27.2227  -20.2771    0.0000 O   0  0
   27.2227  -17.0083    0.0000 O   0  0
   26.5174  -19.0554    0.0000 C   0  0
   26.5200  -18.2400    0.0000 C   0  0
   25.8162  -17.8319    0.0000 C   0  0
   25.1095  -18.2381    0.0000 C   0  0
   25.1109  -19.0566    0.0000 C   0  0
   25.8152  -19.4610    0.0000 N   0  0
   28.6351  -19.4650    0.0000 N   0  0
   29.3434  -19.0575    0.0000 C   0  0
   30.0505  -19.4671    0.0000 C   0  0
   30.7588  -19.0595    0.0000 C   0  0
   31.4662  -19.4709    0.0000 C   0  0
   32.1740  -19.0640    0.0000 C   0  0
   32.1757  -18.2459    0.0000 C   0  0
   31.4636  -17.8364    0.0000 C   0  0
   30.7587  -18.2457    0.0000 C   0  0
   32.8834  -17.8374    0.0000 O   0  0
   31.4619  -17.0193    0.0000 O   0  0
  8  4  1  0
  7  1  1  0
  1  2  1  0
  2  3  2  0
  3  4  1  0
  1  5  2  0
  4  6  2  0
  7  8  2  0
  8  9  1  0
  9 10  2  0
 10 11  1  0
 11 12  2  0
 12  7  1  0
  2 13  1  0
 13 14  1  0
 14 15  1  0
 15 16  1  0
 16 17  2  0
 17 18  1  0
 18 19  2  0
 19 20  1  0
 20 21  2  0
 21 16  1  0
 19 22  1  0
 20 23  1  0
M  END