
  CDK    9/16/09,9:59

 66 70  0  0  0  0  0  0  0  0999 V2000
    0.6708  -13.5458    0.0000 C   0  0  0  0  0  0  0  0  0  0  0  0
    0.6708  -14.3708    0.0000 C   0  0  0  0  0  0  0  0  0  0  0  0
    1.3829  -14.7792    0.0000 O   0  0  0  0  0  0  0  0  0  0  0  0
    2.0944  -14.3726    0.0000 C   0  0  0  0  0  0  0  0  0  0  0  0
    2.0949  -13.5458    0.0000 C   0  0  0  0  0  0  0  0  0  0  0  0
    1.3829  -13.1292    0.0000 C   0  0  0  0  0  0  0  0  0  0  0  0
    2.9164  -14.4026    0.0000 O   0  0  0  0  0  0  0  0  0  0  0  0
    2.4706  -15.1017    0.0000 C   0  0  0  0  0  0  0  0  0  0  0  0
    2.0298  -15.7923    0.0000 O   0  0  0  0  0  0  0  0  0  0  0  0
    3.2927  -15.1406    0.0000 O   0  0  0  0  0  0  0  0  0  0  0  0
   -0.0430  -14.7844    0.0000 C   0  0  0  0  0  0  0  0  0  0  0  0
   -0.7581  -14.3729    0.0000 C   0  0  0  0  0  0  0  0  0  0  0  0
   -0.0418  -15.6094    0.0000 O   0  0  0  0  0  0  0  0  0  0  0  0
   -1.4720  -14.7864    0.0000 O   0  0  0  0  0  0  0  0  0  0  0  0
   -0.7593  -13.5479    0.0000 C   0  0  0  0  0  0  0  0  0  0  0  0
   -1.4744  -13.1364    0.0000 N   0  0  0  0  0  0  0  0  0  0  0  0
   -0.0448  -13.1354    0.0000 N   0  0  0  0  0  0  0  0  0  0  0  0
   -0.0473  -12.3104    0.0000 C   0  0  0  0  0  0  0  0  0  0  0  0
   -0.7629  -11.9000    0.0000 C   0  0  0  0  0  0  0  0  0  0  0  0
    0.6660  -11.8958    0.0000 O   0  0  0  0  0  0  0  0  0  0  0  0
    0.6667  -15.1958    0.0000 H   0  0  0  0  0  0  0  0  0  0  0  0
    1.3829  -12.3042    0.0000 O   0  0  0  0  0  0  0  0  0  0  0  0
    3.3548  -13.7037    0.0000 C   0  0  0  0  0  0  0  0  0  0  0  0
    4.1806  -13.7366    0.0000 C   0  0  0  0  0  0  0  0  0  0  0  0
    4.6187  -13.0418    0.0000 C   0  0  0  0  0  0  0  0  0  0  0  0
    4.2362  -12.3104    0.0000 O   0  0  0  0  0  0  0  0  0  0  0  0
    3.4109  -12.2782    0.0000 C   0  0  0  0  0  0  0  0  0  0  0  0
    2.9680  -12.9774    0.0000 C   0  0  0  0  0  0  0  0  0  0  0  0
    3.7625  -14.4125    0.0000 H   0  0  0  0  0  0  0  0  0  0  0  0
    2.1436  -12.9464    0.0000 O   0  0  0  0  0  0  0  0  0  0  0  0
    3.0272  -11.5479    0.0000 C   0  0  0  0  0  0  0  0  0  0  0  0
    3.4680  -10.8504    0.0000 O   0  0  0  0  0  0  0  0  0  0  0  0
    4.5646  -14.4668    0.0000 O   0  0  0  0  0  0  0  0  0  0  0  0
    5.4430  -13.0751    0.0000 O   0  0  0  0  0  0  0  0  0  0  0  0
    5.8840  -12.3778    0.0000 C   0  0  0  0  0  0  0  0  0  0  0  0
    6.7106  -12.4139    0.0000 C   0  0  0  0  0  0  0  0  0  0  0  0
    7.1514  -11.7208    0.0000 C   0  0  0  0  0  0  0  0  0  0  0  0
    6.7716  -10.9880    0.0000 O   0  0  0  0  0  0  0  0  0  0  0  0
    5.9464  -10.9527    0.0000 C   0  0  0  0  0  0  0  0  0  0  0  0
    5.5009  -11.6502    0.0000 C   0  0  0  0  0  0  0  0  0  0  0  0
    4.6767  -11.6156    0.0000 O   0  0  0  0  0  0  0  0  0  0  0  0
    6.2917  -13.0875    0.0000 H   0  0  0  0  0  0  0  0  0  0  0  0
    5.5656  -10.2208    0.0000 C   0  0  0  0  0  0  0  0  0  0  0  0
    6.0089   -9.5251    0.0000 O   0  0  0  0  0  0  0  0  0  0  0  0
   -2.1882  -13.5500    0.0000 C   0  0  0  0  0  0  0  0  0  0  0  0
   -2.9033  -13.1385    0.0000 C   0  0  0  0  0  0  0  0  0  0  0  0
   -2.1870  -14.3750    0.0000 O   0  0  0  0  0  0  0  0  0  0  0  0
   -2.9009  -12.3135    0.0000 C   0  0  0  0  0  0  0  0  0  0  0  0
   -3.6151  -11.9021    0.0000 C   0  0  0  0  0  0  0  0  0  0  0  0
   -4.3300  -12.3157    0.0000 C   0  0  0  0  0  0  0  0  0  0  0  0
   -4.3261  -13.1449    0.0000 C   0  0  0  0  0  0  0  0  0  0  0  0
   -3.6113  -13.5526    0.0000 C   0  0  0  0  0  0  0  0  0  0  0  0
    6.8332   -9.5612    0.0000 C   0  0  0  0  0  0  0  0  0  0  0  0
    7.2109  -10.2926    0.0000 C   0  0  0  0  0  0  0  0  0  0  0  0
    8.0343  -10.3291    0.0000 C   0  0  0  0  0  0  0  0  0  0  0  0
    8.4785   -9.6328    0.0000 C   0  0  0  0  0  0  0  0  0  0  0  0
    8.0933   -8.8984    0.0000 C   0  0  0  0  0  0  0  0  0  0  0  0
    7.2711   -8.8656    0.0000 C   0  0  0  0  0  0  0  0  0  0  0  0
    9.3022   -9.6668    0.0000 C   0  0  0  0  0  0  0  0  0  0  0  0
    9.6833  -10.3997    0.0000 C   0  0  0  0  0  0  0  0  0  0  0  0
   10.5068  -10.4350    0.0000 C   0  0  0  0  0  0  0  0  0  0  0  0
   10.9501   -9.7382    0.0000 C   0  0  0  0  0  0  0  0  0  0  0  0
   10.5639   -9.0043    0.0000 C   0  0  0  0  0  0  0  0  0  0  0  0
    9.7417   -8.9726    0.0000 C   0  0  0  0  0  0  0  0  0  0  0  0
   -5.0456  -11.9052    0.0000 Cl  0  0  0  0  0  0  0  0  0  0  0  0
    1.5583  -16.4250    0.0000 Na  0  0  0  0  0  0  0  0  0  0  0  0
 31 32  1  0  0  0  0 
  4  7  1  1  0  0  0 
 24 33  1  6  0  0  0 
 15 16  1  0  0  0  0 
 25 34  1  1  0  0  0 
 34 35  1  0  0  0  0 
 35 36  1  0  0  0  0 
  1 17  1  6  0  0  0 
  4  8  1  0  0  0  0 
 17 18  1  0  0  0  0 
  1  2  1  0  0  0  0 
 18 19  1  0  0  0  0 
 35 40  1  0  0  0  0 
 36 37  1  0  0  0  0 
 37 38  1  0  0  0  0 
 38 39  1  0  0  0  0 
 39 40  1  0  0  0  0 
  1  6  1  0  0  0  0 
 40 41  1  1  0  0  0 
 18 20  2  0  0  0  0 
 35 42  1  6  0  0  0 
  8  9  1  0  0  0  0 
 39 43  1  1  0  0  0 
  2 21  1  6  0  0  0 
 43 44  1  0  0  0  0 
  8 10  2  0  0  0  0 
 16 45  1  0  0  0  0 
  6 22  1  1  0  0  0 
 45 46  1  0  0  0  0 
  2  3  1  0  0  0  0 
 45 47  2  0  0  0  0 
  7 23  1  0  0  0  0 
 46 48  2  0  0  0  0 
 23 24  1  0  0  0  0 
 48 49  1  0  0  0  0 
  2 11  1  0  0  0  0 
 49 50  2  0  0  0  0 
  3  4  1  0  0  0  0 
 50 51  1  0  0  0  0 
 11 12  1  0  0  0  0 
 51 52  2  0  0  0  0 
 52 46  1  0  0  0  0 
  4  5  1  0  0  0  0 
 44 53  1  0  0  0  0 
 11 13  1  1  0  0  0 
 53 54  2  0  0  0  0 
 23 28  1  0  0  0  0 
 54 55  1  0  0  0  0 
 24 25  1  0  0  0  0 
 55 56  2  0  0  0  0 
 25 26  1  0  0  0  0 
 56 57  1  0  0  0  0 
 26 27  1  0  0  0  0 
 57 58  2  0  0  0  0 
 58 53  1  0  0  0  0 
 27 28  1  0  0  0  0 
  5  6  1  0  0  0  0 
 59 60  2  0  0  0  0 
 23 29  1  6  0  0  0 
 60 61  1  0  0  0  0 
 12 14  1  6  0  0  0 
 61 62  2  0  0  0  0 
 28 30  1  1  0  0  0 
 62 63  1  0  0  0  0 
 63 64  2  0  0  0  0 
 64 59  1  0  0  0  0 
 56 59  1  0  0  0  0 
 27 31  1  1  0  0  0 
 50 65  1  0  0  0  0 
 12 15  1  0  0  0  0 
M  CHG  1   9  -1
M  CHG  1  66   1
M  END