
  SciTegic08261113352D

 31 34  0  0  0  0            999 V2000
    8.0750   -3.8417    0.0000 O   0  0
    7.3625   -4.2583    0.0000 S   0  0
    8.0796   -4.6670    0.0000 O   0  0
    6.6178   -2.2083    0.0000 N   0  0
    7.2770   -1.7123    0.0000 C   0  0
    7.0108   -0.9313    0.0000 C   0  0  2  0  0  0
    6.1834   -0.9448    0.0000 C   0  0
    5.9446   -1.7335    0.0000 N   0  0
    5.6871   -0.2853    0.0000 C   0  0
    6.0106    0.4749    0.0000 C   0  0
    5.5143    1.1330    0.0000 C   0  0
    4.6946    1.0322    0.0000 C   0  0
    4.3736    0.2675    0.0000 C   0  0
    4.8719   -0.3874    0.0000 C   0  0
    7.4869   -0.2603    0.0000 C   0  0
    8.3096   -0.3354    0.0000 C   0  0
    8.7841    0.3386    0.0000 C   0  0
    8.4371    1.0880    0.0000 C   0  0
    7.6109    1.1594    0.0000 C   0  0
    7.1401    0.4845    0.0000 C   0  0
    6.6305   -3.0332    0.0000 C   0  0
    5.9224   -3.4567    0.0000 N   0  0
    7.3512   -3.4347    0.0000 N   0  0
    6.6559   -4.6830    0.0000 N   0  0
    5.2017   -3.0552    0.0000 C   0  0
    4.1968    1.6900    0.0000 Cl  0  0
    5.9395   -4.2816    0.0000 C   0  0
    5.2349   -4.7027    0.0000 C   0  0
    5.2452   -5.5275    0.0000 C   0  0
    5.9661   -5.9293    0.0000 C   0  0
    6.6769   -5.5064    0.0000 C   0  0
 15 16  2  0
  2  1  2  0
 16 17  1  0
  3  2  2  0
 17 18  2  0
  9 10  2  0
 18 19  1  0
  4  5  1  0
 19 20  2  0
 20 15  1  0
  6 15  1  6
 10 11  1  0
  4 21  1  0
 21 22  1  0
 11 12  2  0
 21 23  2  0
 23  2  1  0
  5  6  1  0
  2 24  1  0
 12 13  1  0
 22 25  1  0
  6  7  1  0
 12 26  1  0
 24 27  1  0
 13 14  2  0
 14  9  1  0
  7  9  1  0
  7  8  2  0
  8  4  1  0
 24 31  1  0
 27 28  1  0
 28 29  1  0
 29 30  1  0
 30 31  1  0
M  END