
  SciTegic05231716462D

 26 29  0  0  0  0            999 V2000
    2.3609    9.0255    0.0000 S   0  0
    4.6471    4.5583    0.0000 S   0  0
   10.3317    6.5645    0.0000 S   0  0
   10.4102    5.0665    0.0000 O   0  0
   11.8308    6.5121    0.0000 O   0  0
    0.7500    6.8083    0.0000 N   0  0
    2.0490    4.5583    0.0000 N   0  0
    5.8607    2.1766    0.0000 N   0  0
    3.4336    2.1766    0.0000 N   0  0
    5.3971    0.7500    0.0000 N   0  0
    3.8971    0.7500    0.0000 N   0  0
    3.3481    6.8083    0.0000 C   0  0
    4.4628    7.8120    0.0000 C   0  0
    2.0490    7.5583    0.0000 C   0  0
    3.3481    5.3083    0.0000 C   0  0
    5.9300    7.5001    0.0000 C   0  0
    3.8527    9.1823    0.0000 C   0  0
    4.6471    3.0583    0.0000 C   0  0
    6.9337    8.6148    0.0000 C   0  0
    6.3935    6.0735    0.0000 C   0  0
    8.8645    6.8763    0.0000 C   0  0
    0.7500    5.3083    0.0000 C   0  0
    8.4009    8.3029    0.0000 C   0  0
    7.8608    5.7616    0.0000 C   0  0
    7.2872    2.6401    0.0000 C   0  0
   10.5145    8.0533    0.0000 C   0  0
  1 14  1  0
  1 17  1  0
  2 15  1  0
  2 18  1  0
  3  4  2  0
  3  5  2  0
  3 21  1  0
  3 26  1  0
  6 14  2  0
  6 22  1  0
  7 15  1  0
  7 22  2  0
  8 10  1  0
  8 18  1  0
  8 25  1  0
  9 11  1  0
  9 18  2  0
 10 11  2  0
 12 13  1  0
 12 14  1  0
 12 15  2  0
 13 16  1  0
 13 17  2  0
 16 19  2  0
 16 20  1  0
 19 23  1  0
 20 24  2  0
 21 23  2  0
 21 24  1  0
M  END