
  SciTegic11111309142D

 50 54  0  0  0  0            999 V2000
   -3.9347   -7.6881    0.0000 C   0  0
    0.4296   -1.5086    0.0000 C   0  0
   -0.1835   -2.0607    0.0000 C   0  0
   -0.8980   -1.6482    0.0000 C   0  0
   -0.7265   -0.8412    0.0000 C   0  0
    0.0940   -0.7550    0.0000 C   0  0
   -2.8155   -4.9321    0.0000 O   0  0
   -2.3306   -4.2646    0.0000 C   0  0
   -2.6662   -3.5109    0.0000 C   0  0
   -3.4867   -3.4247    0.0000 C   0  0
   -3.8222   -2.6710    0.0000 C   0  0
   -3.3373   -2.0036    0.0000 C   0  0
   -2.5168   -2.0898    0.0000 C   0  0
   -2.1813   -2.8435    0.0000 C   0  0
   -3.9716   -4.0921    0.0000 Cl  0  0
   -1.3608   -2.9297    0.0000 Cl  0  0
   -2.0319   -1.4224    0.0000 S   0  0
   -1.3644   -1.9073    0.0000 O   0  0
   -2.6993   -0.9375    0.0000 O   0  0
   -0.7265   -0.0162    0.0000 C   0  0
   -0.0120    0.3963    0.0000 N   0  0
   -1.4410    0.3963    0.0000 O   0  0
   -0.0120    1.2213    0.0000 C   0  0
    0.7025    1.6338    0.0000 C   0  0
    1.4169    1.2213    0.0000 N   0  0
    1.4169    0.3963    0.0000 C   0  0
    0.7025   -0.0162    0.0000 C   0  0
    2.1314    1.6338    0.0000 C   0  0
    2.1314    2.4588    0.0000 O   0  0
    2.8459    1.2213    0.0000 C   0  0
    3.5603    1.6338    0.0000 C   0  0
    4.2748    1.2213    0.0000 C   0  0
    4.9893    1.6338    0.0000 C   0  0
    5.7038    1.2213    0.0000 C   0  0
   -2.4800   -5.6857    0.0000 C   0  0
   -1.8089   -7.1931    0.0000 C   0  0
   -1.3239   -6.5256    0.0000 C   0  0
   -1.6595   -5.7720    0.0000 C   0  0
   -2.6293   -7.1068    0.0000 C   0  0
   -2.9649   -6.3532    0.0000 C   0  0
   -3.7854   -6.2669    0.0000 N   0  0
   -4.2703   -6.9344    0.0000 C   0  0
   -3.1143   -7.7743    0.0000 C   0  0
   -5.0908   -6.8481    0.0000 C   0  0
   -2.7787   -8.5280    0.0000 C   0  0
    6.4182    1.6338    0.0000 N   0  0
    7.1327    1.2213    0.0000 C   0  0
    7.8472    1.6338    0.0000 N   0  0
    7.1327    0.3963    0.0000 N   0  0
   -1.5470   -0.7550    0.0000 N   0  0
 13 17  1  0
 17 18  2  0
 17 19  2  0
  5 20  1  0
 20 21  1  0
 20 22  2  0
 21 23  1  0
 21 27  1  0
 23 24  1  0
 24 25  1  0
 25 26  1  0
 26 27  1  0
 25 28  1  0
 28 29  2  0
 28 30  1  0
 30 31  1  0
 31 32  1  0
 32 33  1  0
 33 34  1  0
  7 35  1  0
 35 40  2  0
  2  3  1  0
 39 36  2  0
  3  4  1  0
 36 37  1  0
  4  5  1  0
 37 38  2  0
 38 35  1  0
  5  6  1  0
  6  2  1  0
 39 40  1  0
  7  8  1  0
 40 41  1  0
  8  9  1  0
 41 42  2  0
 42  1  1  0
  9 10  2  0
  1 43  2  0
 43 39  1  0
 10 11  1  0
 42 44  1  0
 11 12  2  0
 43 45  1  0
 12 13  1  0
 34 46  1  0
 13 14  2  0
 46 47  1  0
 14  9  1  0
 47 48  1  0
 10 15  1  0
 47 49  2  0
 14 16  1  0
 17 50  1  0
 50  5  1  0
M  END