
  SciTegic01201417202D

128132  0  0  0  0            999 V2000
   11.5919   -2.5810    0.0000 N   0  0
   11.5919   -3.4016    0.0000 C   0  0  1  0  0  0
   13.0167   -3.4016    0.0000 O   0  0
   10.8763   -3.8152    0.0000 C   0  0
   12.3057   -3.8152    0.0000 C   0  0
   12.3057   -4.6358    0.0000 N   0  0
   13.0167   -5.0523    0.0000 C   0  0
   12.3057   -6.2894    0.0000 O   0  0
   13.0167   -5.8777    0.0000 C   0  0
   13.7275   -4.6358    0.0000 C   0  0
   13.7275   -6.2894    0.0000 N   0  0
   13.7275   -7.1147    0.0000 C   0  0  2  0  0  0
   14.4461   -8.3489    0.0000 O   0  0
   14.4461   -7.5235    0.0000 C   0  0
   13.0167   -7.5235    0.0000 C   0  0
   13.0167   -8.3489    0.0000 C   0  0
   13.7275   -8.7606    0.0000 O   0  0
   12.3057   -8.7606    0.0000 N   0  0
   15.1571   -7.1147    0.0000 N   0  0
   15.1571   -6.2894    0.0000 C   0  0  2  0  0  0
   15.8710   -5.0523    0.0000 O   0  0
   15.8710   -5.8777    0.0000 C   0  0
   14.4461   -5.8777    0.0000 C   0  0
   14.4461   -5.0523    0.0000 S   0  0
   16.5818   -6.2894    0.0000 N   0  0
   17.3006   -5.8777    0.0000 C   0  0  2  0  0  0
   18.7222   -5.8777    0.0000 O   0  0
   18.0114   -6.2894    0.0000 C   0  0
   17.3006   -5.0523    0.0000 C   0  0
   16.5818   -4.6358    0.0000 O   0  0
   18.0114   -7.1147    0.0000 N   0  0
   17.3006   -7.5235    0.0000 C   0  0  2  0  0  0
   18.0114   -8.7606    0.0000 O   0  0
   17.3006   -8.3489    0.0000 C   0  0
   16.5818   -7.1147    0.0000 C   0  0
   15.8710   -7.5235    0.0000 O   0  0
   16.5818   -8.7606    0.0000 N   0  0
   16.5818   -9.5859    0.0000 C   0  0
   18.0114   -9.5859    0.0000 O   0  0
   17.3006   -9.9947    0.0000 C   0  0
   17.3006  -10.8201    0.0000 N   0  0
   18.0114  -11.2319    0.0000 C   0  0  2  0  0  0
   18.7222   -9.9947    0.0000 O   0  0
   18.7222  -10.8201    0.0000 C   0  0
   18.0114  -12.0571    0.0000 C   0  0
   19.4709  -12.1981    0.0000 C   0  0
   18.7057  -12.4973    0.0000 C   0  0
   19.9957  -12.8345    0.0000 N   0  0
   18.7569  -13.3242    0.0000 C   0  0
   19.5513  -13.5280    0.0000 C   0  0
   19.7723  -14.3256    0.0000 C   0  0
   19.1917  -14.9093    0.0000 C   0  0
   18.3972  -14.7025    0.0000 C   0  0
   18.1731  -13.9079    0.0000 C   0  0
   19.4410  -11.2319    0.0000 N   0  0
   20.1548  -10.8201    0.0000 C   0  0  1  0  0  0
   19.4410   -9.5859    0.0000 O   0  0
   20.8704  -11.2319    0.0000 C   0  0
   20.1548   -9.9947    0.0000 C   0  0
   19.1685   -6.9590    0.0000 N   0  0
   19.9743   -6.7742    0.0000 C   0  0
   20.5404   -7.3711    0.0000 N   0  0
   20.2118   -5.9837    0.0000 N   0  0
   20.8704   -9.5859    0.0000 N   0  0
   20.8704   -8.7606    0.0000 C   0  0  2  0  0  0
   21.5765   -7.5235    0.0000 O   0  0
   21.5765   -8.3489    0.0000 C   0  0
   20.3030   -8.1616    0.0000 C   0  0
   19.5007   -8.3505    0.0000 C   0  0
   18.9309   -7.7494    0.0000 C   0  0
   22.2953   -8.7606    0.0000 N   0  0
   23.0061   -8.3489    0.0000 C   0  0  2  0  0  0
   22.2953   -7.1147    0.0000 O   0  0
   23.0061   -7.5235    0.0000 C   0  0
   23.7247   -8.7606    0.0000 C   0  0
   23.7247   -9.5859    0.0000 C   0  0
   24.4357   -9.9947    0.0000 O   0  0
   23.0061   -9.9947    0.0000 O   0  0
   23.7247   -7.1147    0.0000 N   0  0
   24.4357   -7.5235    0.0000 C   0  0  2  0  0  0
   25.8653   -7.5235    0.0000 O   0  0
   25.1496   -7.1147    0.0000 C   0  0
   24.4357   -8.3489    0.0000 C   0  0
   25.2315   -9.5756    0.0000 N   0  0
   26.0412   -9.7462    0.0000 C   0  0
   26.4543   -9.0360    0.0000 N   0  0
   25.9015   -8.4256    0.0000 C   0  0
   25.1496   -8.7606    0.0000 C   0  0
   25.1496   -6.2894    0.0000 N   0  0
   25.8653   -5.8777    0.0000 C   0  0  2  0  0  0
   26.5761   -4.6358    0.0000 O   0  0
   25.8653   -5.0523    0.0000 C   0  0
   26.5761   -6.2894    0.0000 C   0  0
   26.5761   -7.1147    0.0000 O   0  0
   28.0008   -3.8152    0.0000 N   0  0
   28.0008   -4.6358    0.0000 C   0  0
   28.7196   -5.0523    0.0000 N   0  0
   27.2900   -5.0523    0.0000 N   0  0
   25.1496   -4.6358    0.0000 N   0  0
   25.1496   -3.8152    0.0000 C   0  0  2  0  0  0
   24.4357   -2.5810    0.0000 O   0  0
   24.4357   -3.4016    0.0000 C   0  0
   25.8653   -3.4016    0.0000 C   0  0
   26.5761   -3.8152    0.0000 C   0  0
   27.2900   -3.4016    0.0000 C   0  0
   23.7247   -3.8152    0.0000 N   0  0
   23.0061   -3.4016    0.0000 C   0  0
   22.2953   -2.1646    0.0000 O   0  0
   23.0061   -2.5810    0.0000 C   0  0
   22.2953   -3.8152    0.0000 C   0  0
   23.7247   -2.1646    0.0000 N   0  0
   23.7247   -1.3440    0.0000 C   0  0  2  0  0  0
   25.1496   -1.3440    0.0000 O   0  0
   24.4357   -0.9304    0.0000 C   0  0
   23.0061   -0.9304    0.0000 C   0  0
   23.0061   -0.1098    0.0000 S   0  0
   24.4357   -0.1098    0.0000 N   0  0
   13.7275   -3.8152    0.0000 Se  0  0
   22.2953   -4.6358    0.0000 Se  0  0
   15.8710   -8.3489    0.0000 C   0  0
   15.1571   -8.7606    0.0000 C   0  0
   15.1571   -9.5859    0.0000 C   0  0
   15.8710   -9.9947    0.0000 C   0  0
   15.8710  -10.8201    0.0000 C   0  0
   15.1571  -11.2319    0.0000 C   0  0
   14.4461  -10.8201    0.0000 C   0  0
   13.7275  -11.2319    0.0000 C   0  0
   14.4424   -6.7014    0.0000 H   0  0
  5  6  1  0
  9 11  1  0
 14 19  1  0
 22 25  1  0
 28 31  1  0
 34 37  1  0
 40 41  1  0
 44 55  1  0
 59 64  1  0
 67 71  1  0
 74 79  1  0
 82 89  1  0
 92 99  1  0
102106  1  0
109111  1  0
114117  1  0
  2  1  1  6
  2  5  1  0
  5  3  2  0
  2  4  1  0
  7  6  1  0
  7  9  1  0
  9  8  2  0
  7 10  1  0
 12 11  1  0
 12 14  1  0
 14 13  2  0
 12 15  1  6
 15 16  1  0
 16 17  2  0
 16 18  1  0
 20 19  1  0
 20 22  1  0
 22 21  2  0
 20 23  1  0
 23 24  1  0
 26 25  1  0
 26 28  1  0
 28 27  2  0
 26 29  1  1
 29 30  1  0
 32 31  1  0
 32 34  1  0
 34 33  2  0
 32 35  1  6
 35 36  1  0
 37 38  1  0
 38 40  1  0
 40 39  2  0
 41 42  1  0
 42 44  1  0
 44 43  2  0
 42 45  1  6
 45 47  1  0
 46 47  2  0
 47 49  1  0
 48 46  1  0
 50 48  1  0
 49 50  2  0
 50 51  1  0
 51 52  2  0
 52 53  1  0
 53 54  2  0
 54 49  1  0
 55 56  1  0
 56 59  1  0
 59 57  2  0
 56 58  1  6
 60 61  1  0
 61 62  1  0
 61 63  2  0
 65 64  1  0
 65 67  1  0
 67 66  2  0
 65 68  1  1
 68 69  1  0
 69 70  1  0
 70 60  1  0
 72 71  1  0
 72 74  1  0
 74 73  2  0
 72 75  1  6
 75 76  1  0
 76 77  2  0
 76 78  1  0
 80 79  1  0
 80 82  1  0
 82 81  2  0
 80 83  1  6
 83 88  1  0
 84 85  1  0
 85 86  2  0
 86 87  1  0
 87 88  2  0
 88 84  1  0
 90 89  1  0
 90 92  1  0
 92 91  2  0
 90 93  1  6
 93 94  1  0
 95 96  1  0
 96 97  1  0
 96 98  2  0
100 99  1  0
100102  1  0
102101  2  0
100103  1  6
103104  1  0
104105  1  0
105 95  1  0
107106  1  0
107109  1  0
109108  2  0
107110  1  0
112111  1  0
112114  1  1
114113  2  0
112115  1  0
115116  1  0
 10118  1  0
110119  1  0
 37120  1  0
120121  1  0
121122  1  0
122123  1  0
123124  1  0
124125  1  0
125126  1  0
126127  1  0
118119  1  0
 24116  1  0
 20128  1  6
M  END