
  Mrv0541 04051115152D          

 17 19  0  0  0  0            999 V2000
   -0.7886    2.8266    0.0000 N   0  0  0  0  0  0  0  0  0  0  0  0
   -0.7886    3.6516    0.0000 C   0  0  0  0  0  0  0  0  0  0  0  0
   -1.5030    4.0641    0.0000 N   0  0  0  0  0  0  0  0  0  0  0  0
   -2.2175    3.6516    0.0000 C   0  0  0  0  0  0  0  0  0  0  0  0
   -2.2175    2.8266    0.0000 C   0  0  0  0  0  0  0  0  0  0  0  0
   -1.5030    2.4141    0.0000 C   0  0  0  0  0  0  0  0  0  0  0  0
   -0.7886    1.1766    0.0000 C   0  0  0  0  0  0  0  0  0  0  0  0
   -3.0021    2.5717    0.0000 N   0  0  0  0  0  0  0  0  0  0  0  0
   -3.4871    3.2391    0.0000 C   0  0  0  0  0  0  0  0  0  0  0  0
   -3.0021    3.9066    0.0000 N   0  0  0  0  0  0  0  0  0  0  0  0
   -0.7886    0.3516    0.0000 C   0  0  0  0  0  0  0  0  0  0  0  0
   -0.0741   -0.0609    0.0000 C   0  0  0  0  0  0  0  0  0  0  0  0
   -0.0741   -0.8859    0.0000 C   0  0  0  0  0  0  0  0  0  0  0  0
   -0.7886   -1.2984    0.0000 C   0  0  0  0  0  0  0  0  0  0  0  0
   -1.5030   -0.8859    0.0000 C   0  0  0  0  0  0  0  0  0  0  0  0
   -1.5030   -0.0609    0.0000 C   0  0  0  0  0  0  0  0  0  0  0  0
   -1.5030    1.5891    0.0000 N   0  0  0  0  0  0  0  0  0  0  0  0
  2  1  1  0  0  0  0
  6  1  2  0  0  0  0
  2  3  2  0  0  0  0
  4  3  1  0  0  0  0
  4  5  2  0  0  0  0
  4 10  1  0  0  0  0
  5  6  1  0  0  0  0
  5  8  1  0  0  0  0
  6 17  1  0  0  0  0
 11  7  1  0  0  0  0
  7 17  1  0  0  0  0
  9  8  2  0  0  0  0
  9 10  1  0  0  0  0
 11 12  1  0  0  0  0
 11 16  2  0  0  0  0
 12 13  2  0  0  0  0
 13 14  1  0  0  0  0
 14 15  2  0  0  0  0
 15 16  1  0  0  0  0
M  END