
  CDK    9/16/09,10:2

 37 38  0  0  0  0  0  0  0  0999 V2000
   -3.6566   -6.5081    0.0000 C   0  0  0  0  0  0  0  0  0  0  0  0
   -3.6580   -7.3357    0.0000 C   0  0  0  0  0  0  0  0  0  0  0  0
   -2.9456   -7.7510    0.0000 C   0  0  0  0  0  0  0  0  0  0  0  0
   -2.2268   -7.3352    0.0000 C   0  0  0  0  0  0  0  0  0  0  0  0
   -2.2300   -6.5041    0.0000 C   0  0  0  0  0  0  0  0  0  0  0  0
   -2.9476   -6.0976    0.0000 C   0  0  0  0  0  0  0  0  0  0  0  0
   -4.3723   -7.7495    0.0000 C   0  0  0  0  0  0  0  0  0  0  0  0
   -4.3736   -8.5745    0.0000 C   0  0  0  0  0  0  0  0  0  0  0  0
   -5.0880   -8.9837    0.0000 C   0  0  0  0  0  0  0  0  0  0  0  0
   -3.6603   -8.9858    0.0000 C   0  0  0  0  0  0  0  0  0  0  0  0
   -3.6615   -9.8108    0.0000 C   0  0  0  0  0  0  0  0  0  0  0  0
   -2.9482  -10.2266    0.0000 C   0  0  0  0  0  0  0  0  0  0  0  0
   -2.9494  -11.0518    0.0000 C   0  0  0  0  0  0  0  0  0  0  0  0
   -2.2337   -9.8129    0.0000 O   0  0  0  0  0  0  0  0  0  0  0  0
   -3.6639  -11.4609    0.0000 C   0  0  0  0  0  0  0  0  0  0  0  0
   -2.2362  -11.4629    0.0000 C   0  0  0  0  0  0  0  0  0  0  0  0
   -1.5217  -11.0537    0.0000 C   0  0  0  0  0  0  0  0  0  0  0  0
   -4.3760  -10.2247    0.0000 O   0  0  0  0  0  0  0  0  0  0  0  0
   -1.5125   -7.7493    0.0000 N   0  0  0  0  0  0  0  0  0  0  0  0
   -0.7990   -7.3338    0.0000 C   0  0  0  0  0  0  0  0  0  0  0  0
   -0.0801   -7.7480    0.0000 C   0  0  0  0  0  0  0  0  0  0  0  0
   -0.7998   -6.5088    0.0000 O   0  0  0  0  0  0  0  0  0  0  0  0
   -0.0794   -8.5731    0.0000 C   0  0  0  0  0  0  0  0  0  0  0  0
    0.6334   -7.3325    0.0000 C   0  0  0  0  0  0  0  0  0  0  0  0
    0.6348   -8.9826    0.0000 C   0  0  0  0  0  0  0  0  0  0  0  0
    0.6356   -9.8076    0.0000 C   0  0  0  0  0  0  0  0  0  0  0  0
   -0.7006  -11.0528    0.0000 C   0  0  0  0  0  0  0  0  0  0  0  0
   -1.7317  -10.2570    0.0000 C   0  0  0  0  0  0  0  0  0  0  0  0
   -0.2848  -11.7660    0.0000 O   0  0  0  0  0  0  0  0  0  0  0  0
   -0.2867  -10.3383    0.0000 C   0  0  0  0  0  0  0  0  0  0  0  0
   -0.7024   -9.6250    0.0000 O   0  0  0  0  0  0  0  0  0  0  0  0
   -1.5275   -9.6260    0.0000 C   0  0  0  0  0  0  0  0  0  0  0  0
    0.5402  -11.7650    0.0000 C   0  0  0  0  0  0  0  0  0  0  0  0
    0.9494  -11.0505    0.0000 O   0  0  0  0  0  0  0  0  0  0  0  0
    0.9513  -12.4783    0.0000 N   0  0  0  0  0  0  0  0  0  0  0  0
   -4.3750   -6.0931    0.0000 O   0  0  0  0  0  0  0  0  0  0  0  0
   -5.0950   -9.8107    0.0000 C   0  0  0  0  0  0  0  0  0  0  0  0
  8  9  1  6  0  0  0 
  4 19  1  0  0  0  0 
  4  5  1  0  0  0  0 
 19 20  1  0  0  0  0 
  8 10  1  0  0  0  0 
 20 21  1  0  0  0  0 
  2  3  1  0  0  0  0 
 20 22  2  0  0  0  0 
 10 11  1  0  0  0  0 
 21 23  2  0  0  0  0 
  5  6  2  0  0  0  0 
 21 24  1  0  0  0  0 
 11 12  1  0  0  0  0 
 23 25  1  0  0  0  0 
  6  1  1  0  0  0  0 
 25 26  1  0  0  0  0 
 12 13  1  0  0  0  0 
 17 27  1  0  0  0  0 
  1  2  2  0  0  0  0 
 17 28  1  0  0  0  0 
 12 14  1  6  0  0  0 
 27 29  1  1  0  0  0 
  2  7  1  0  0  0  0 
 27 30  1  0  0  0  0 
 13 15  1  6  0  0  0 
 30 31  1  1  0  0  0 
  3  4  2  0  0  0  0 
 31 32  1  0  0  0  0 
 30 26  1  0  0  0  0 
 13 16  1  0  0  0  0 
 29 33  1  0  0  0  0 
  7  8  1  0  0  0  0 
 33 34  2  0  0  0  0 
 16 17  2  0  0  0  0 
 33 35  1  0  0  0  0 
  1 36  1  0  0  0  0 
 11 18  1  1  0  0  0 
 18 37  1  0  0  0  0 
M  END