
  SciTegic12231509382D

 19 21  0  0  0  0            999 V2000
    4.2229  -21.5425    0.0000 N   0  3
    7.0913  -23.1876    0.0000 N   0  0
    7.8053  -22.7743    0.0000 C   0  0
    8.5193  -23.1834    0.0000 N   0  0
    4.9369  -21.9475    0.0000 C   0  0
    6.3731  -22.7743    0.0000 C   0  0
    5.6508  -21.5342    0.0000 C   0  0
    6.3731  -21.9475    0.0000 C   0  0
    4.2229  -20.7075    0.0000 O   0  5
    3.5089  -21.9475    0.0000 O   0  0
    7.8011  -21.9433    0.0000 C   0  0
    9.9347  -24.0018    0.0000 N   0  0
    4.9369  -22.7826    0.0000 C   0  0
    5.6508  -23.1959    0.0000 C   0  0
    7.0788  -21.5342    0.0000 C   0  0
    9.2207  -22.7743    0.0000 C   0  0
    8.5151  -24.0018    0.0000 C   0  0
    9.2207  -24.4152    0.0000 C   0  0
    9.9347  -23.1876    0.0000 C   0  0
  2  6  1  0
  3  2  2  0
  4  3  1  0
  5  1  1  0
  6 14  2  0
  7  5  1  0
  8  7  2  0
  9  1  1  0
 10  1  2  0
 11 15  2  0
 12 18  1  0
 13  5  2  0
 14 13  1  0
 15  8  1  0
 16  4  1  0
 17  4  1  0
 18 17  1  0
 19 16  1  0
  8  6  1  0
 11  3  1  0
 19 12  1  0
M  CHG  2   1   1   9  -1
M  END