
  SciTegic01061414252D

 21 22  0  0  0  0            999 V2000
   11.9985  -28.1541    0.0000 S   0  0
   11.5855  -28.8682    0.0000 O   0  0
   12.4104  -28.8689    0.0000 O   0  0
   12.7144  -26.9150    0.0000 C   0  0
   12.7132  -27.7422    0.0000 C   0  0
   13.4281  -28.1551    0.0000 C   0  0
   14.1444  -27.7417    0.0000 C   0  0
   14.1416  -26.9113    0.0000 C   0  0
   13.4262  -26.5022    0.0000 C   0  0
   14.8545  -26.4961    0.0000 C   0  0
   15.5704  -26.9059    0.0000 C   0  0
   14.8513  -25.6712    0.0000 O   0  0
   16.2833  -26.4908    0.0000 S   0  0
   16.9992  -26.9005    0.0000 C   0  0
   16.9992  -27.7244    0.0000 N   0  0
   17.7144  -28.1340    0.0000 C   0  0
   18.4283  -27.7188    0.0000 C   0  0
   18.4224  -26.8896    0.0000 C   0  0
   17.7068  -26.4836    0.0000 N   0  0
   11.2844  -27.7411    0.0000 N   0  0
   13.4279  -28.9801    0.0000 Cl  0  0
  2  1  2  0
  1  3  2  0
  4  5  2  0
  5  6  1  0
  6  7  2  0
  7  8  1  0
  8  9  2  0
  9  4  1  0
  8 10  1  0
 10 11  1  0
 10 12  2  0
 11 13  1  0
 13 14  1  0
 14 15  2  0
 15 16  1  0
 16 17  2  0
 17 18  1  0
 18 19  2  0
 19 14  1  0
  5  1  1  0
  1 20  1  0
  6 21  1  0
M  END