
          11280715192D 1   1.00000     0.00000     0

  9  9  0     0  0            999 V2000
    1.7625   -2.7542    0.0000 N   0  0  0  0  0  0           0  0  0
    1.0917   -3.2417    0.0000 C   0  0  0  0  0  0           0  0  0
    0.4292   -2.7542    0.0000 S   0  0  0  0  0  0           0  0  0
    1.5042   -1.9750    0.0000 C   0  0  0  0  0  0           0  0  0
    0.6875   -1.9750    0.0000 C   0  0  0  0  0  0           0  0  0
    1.0792   -4.0667    0.0000 N   0  0  0  0  0  0           0  0  0
    1.9917   -1.3042    0.0000 C   0  0  0  0  0  0           0  0  0
    2.1417    0.1208    0.0000 N   0  0  0  0  0  0           0  0  0
    1.6542   -0.5500    0.0000 C   0  0  0  0  0  0           0  0  0
  2  1  2  0     0  0
  3  2  1  0     0  0
  4  1  1  0     0  0
  5  4  2  0     0  0
  6  2  1  0     0  0
  7  4  1  0     0  0
  8  9  1  0     0  0
  9  7  1  0     0  0
  5  3  1  0     0  0
M  END