
  SciTegic11261311332D

 28 30  0  0  0  0            999 V2000
   -2.4053   -3.3497    0.0000 P   0  0
   -2.3191   -4.1702    0.0000 O   0  0
   -1.5848   -3.2635    0.0000 O   0  0
   -3.2258   -3.4359    0.0000 O   0  0
   -2.4916   -2.5292    0.0000 O   0  0
   -1.8241   -2.0443    0.0000 P   0  0
   -1.3392   -2.7117    0.0000 O   0  0
   -2.3090   -1.3769    0.0000 O   0  0
   -1.1567   -1.5594    0.0000 O   0  0
   -1.2429   -0.7389    0.0000 C   0  0
   -0.5755   -0.2540    0.0000 C   0  0  1  0  0  0
   -0.5755    0.5710    0.0000 O   0  0
    0.2092   -0.5089    0.0000 C   0  0  1  0  0  0
    0.4641   -1.2935    0.0000 O   0  0
    0.6941    0.1585    0.0000 C   0  0  1  0  0  0
    1.5191    0.1585    0.0000 O   0  0
    0.2092    0.8260    0.0000 C   0  0  2  0  0  0
    0.4641    1.6106    0.0000 N   0  0
   -0.0208    2.2780    0.0000 C   0  0
    0.4641    2.9455    0.0000 N   0  0
    1.2487    2.6905    0.0000 C   0  0
    1.9632    3.1030    0.0000 C   0  0
    1.9632    3.9280    0.0000 O   0  0
    2.6777    2.6905    0.0000 N   0  0
    2.6777    1.8655    0.0000 C   0  0
    3.3921    1.4530    0.0000 N   0  0
    1.9632    1.4530    0.0000 N   0  0
    1.2487    1.8655    0.0000 C   0  0
  2  1  2  0
  3  1  1  0
  4  1  1  0
  5  1  1  0
  6  5  1  0
  7  6  2  0
  6  8  1  0
  9  6  1  0
 10  9  1  0
 11 10  1  1
 11 12  1  0
 13 11  1  0
 17 12  1  0
 13 14  1  6
 15 13  1  0
 15 16  1  6
 17 15  1  0
 17 18  1  1
 19 18  1  0
 28 18  1  0
 19 20  2  0
 21 20  1  0
 21 22  1  0
 28 21  2  0
 22 23  2  0
 22 24  1  0
 25 24  1  0
 25 26  1  0
 25 27  2  0
 28 27  1  0
M  END