
  CDK    6/4/10,11:42

 26 30  0  0  0  0  0  0  0  0999 V2000
    7.8514  -23.9792    0.0000 C   0  0  0  0  0  0  0  0  0  0  0  0
    6.9555  -24.2547    0.0000 C   0  0  0  0  0  0  0  0  0  0  0  0
    7.0413  -23.7755    0.0000 C   0  0  0  0  0  0  0  0  0  0  0  0
    6.4661  -23.6774    0.0000 C   0  0  0  0  0  0  0  0  0  0  0  0
    6.5358  -23.1429    0.0000 C   0  0  0  0  0  0  0  0  0  0  0  0
    5.7247  -23.4675    0.0000 C   0  0  0  0  0  0  0  0  0  0  0  0
    6.6208  -24.5171    0.0000 C   0  0  0  0  0  0  0  0  0  0  0  0
    5.8111  -24.8123    0.0000 C   0  0  0  0  0  0  0  0  0  0  0  0
    6.5628  -24.9512    0.0000 C   0  0  0  0  0  0  0  0  0  0  0  0
    5.3134  -24.1757    0.0000 C   0  0  0  0  0  0  0  0  0  0  0  0
    4.9927  -23.0869    0.0000 N   0  0  0  0  0  0  0  0  0  0  0  0
    2.6319  -26.3083    0.0000 C   0  0  0  0  0  0  0  0  0  0  0  0
    2.6307  -27.1357    0.0000 C   0  0  0  0  0  0  0  0  0  0  0  0
    3.3456  -27.5485    0.0000 C   0  0  0  0  0  0  0  0  0  0  0  0
    4.0620  -27.1352    0.0000 C   0  0  0  0  0  0  0  0  0  0  0  0
    4.0591  -26.3047    0.0000 C   0  0  0  0  0  0  0  0  0  0  0  0
    3.3438  -25.8955    0.0000 C   0  0  0  0  0  0  0  0  0  0  0  0
    3.3391  -25.0669    0.0000 N   0  0  0  0  0  0  0  0  0  0  0  0
    4.0051  -24.5800    0.0000 C   0  0  0  0  0  0  0  0  0  0  0  0
    3.7478  -23.7961    0.0000 C   0  0  0  0  0  0  0  0  0  0  0  0
    2.9227  -23.7986    0.0000 N   0  0  0  0  0  0  0  0  0  0  0  0
    2.6703  -24.5840    0.0000 C   0  0  0  0  0  0  0  0  0  0  0  0
    4.7905  -24.8326    0.0000 Cl  0  0  0  0  0  0  0  0  0  0  0  0
    4.1656  -23.0845    0.0000 C   0  0  0  0  0  0  0  0  0  0  0  0
    3.7584  -22.3670    0.0000 O   0  0  0  0  0  0  0  0  0  0  0  0
    1.8864  -24.8413    0.0000 Cl  0  0  0  0  0  0  0  0  0  0  0  0
  1  3  1  0  0  0  0 
 12 13  2  0  0  0  0 
  2  4  1  0  0  0  0 
 13 14  1  0  0  0  0 
  3  5  1  0  0  0  0 
 14 15  2  0  0  0  0 
  4  6  1  0  0  0  0 
 15 16  1  0  0  0  0 
  5  6  1  0  0  0  0 
 16 17  2  0  0  0  0 
 17 12  1  0  0  0  0 
 18 19  1  0  0  0  0 
  7  8  1  0  0  0  0 
  3  7  1  0  0  0  0 
  2  9  1  0  0  0  0 
  6 10  1  0  0  0  0 
 10  8  1  0  0  0  0 
 19 20  2  0  0  0  0 
 20 21  1  0  0  0  0 
 21 22  2  0  0  0  0 
 22 18  1  0  0  0  0 
 17 18  1  0  0  0  0 
  8  9  1  0  0  0  0 
 19 23  1  0  0  0  0 
 20 24  1  0  0  0  0 
 24 11  1  0  0  0  0 
  6 11  1  0  0  0  0 
 24 25  2  0  0  0  0 
  1  2  1  0  0  0  0 
 22 26  1  0  0  0  0 
M  END