
  SciTegic08041117222D

 28 28  0  0  0  0            999 V2000
    0.2487   -0.4162    0.0000 O   0  0
    0.6612   -1.1307    0.0000 C   0  0
    1.4862   -1.1307    0.0000 O   0  0
    0.2487   -1.8452    0.0000 C   0  0
   -0.5763   -1.8452    0.0000 C   0  0
   -0.9888   -1.1307    0.0000 C   0  0
   -1.8138   -1.1307    0.0000 O   0  0
   -0.5763   -0.4162    0.0000 O   0  0
   -2.5593    0.6222    0.0000 C   0  0
   -1.8462    0.2157    0.0000 C   0  0
   -1.1331    0.6222    0.0000 C   0  0
   -3.2759    0.2112    0.0000 C   0  0
   -4.0309    0.5442    0.0000 N   0  0
   -4.5838   -0.0670    0.0000 C   0  0
   -4.1679   -0.7819    0.0000 N   0  0
   -3.3605   -0.6100    0.0000 C   0  0
   -0.4230    0.2094    0.0000 O   0  0
    0.2937    0.6181    0.0000 C   0  0
    1.0080    0.2053    0.0000 N   0  0
    0.2961    1.4436    0.0000 O   0  0
    1.7247    0.6140    0.0000 C   0  0
    2.4390    0.2012    0.0000 C   0  0
    3.1557    0.6098    0.0000 C   0  0
    3.8648    0.1940    0.0000 C   0  0
    4.5810    0.6020    0.0000 C   0  0
    4.5838    1.4284    0.0000 C   0  0
    3.8645    1.8452    0.0000 C   0  0
    3.1512    1.4307    0.0000 C   0  0
  1  2  1  0
  2  3  2  0
  2  4  1  0
  4  5  2  0
  5  6  1  0
  6  7  2  0
  6  8  1  0
  9 10  1  0
 10 11  1  0
 15 16  1  0
 13 14  2  0
 12 13  1  0
 14 15  1  0
 16 12  2  0
  9 12  1  0
 11 17  1  0
 17 18  1  0
 18 19  1  0
 18 20  2  0
 19 21  1  0
 21 22  1  0
 22 23  1  0
 23 24  1  0
 24 25  1  0
 25 26  1  0
 26 27  1  0
 27 28  1  0
 28 23  1  0
M  END