
  SciTegic12231509382D

 14 13  0  0  0  0            999 V2000
    9.0999    0.7500    0.0000 N   0  0
    2.6000    0.0000    0.0000 N   0  0
    1.3000    0.7500    0.0000 C   0  0
    7.7999    0.0000    0.0000 O   0  0
   10.3999    0.0000    0.0000 C   0  0
    5.2000    0.0000    0.0000 C   0  0
    3.9000    0.7500    0.0000 C   0  0
    6.5000    0.7500    0.0000 C   0  0
    5.2000   -1.2000    0.0000 O   0  0
    0.2606    0.1503    0.0000 C   0  0
    0.2609    1.3502    0.0000 C   0  0
    1.3000    1.9500    0.0000 C   0  0
   10.4011   -1.2000    0.0000 C   0  0
   11.4388    0.6007    0.0000 C   0  0
  2  3  1  0
  1  4  1  0
  1  5  2  0
  2  7  1  0
  6  7  1  0
  4  8  1  0
  6  8  1  0
  6  9  1  0
  3 10  1  0
  3 11  1  0
  3 12  1  0
  5 13  1  0
  5 14  1  0
M  END