
  SciTegic05061409512D

 31 34  0  0  0  0            999 V2000
   16.1003   -2.2370    0.0000 C   0  0
   15.2831   -2.2328    0.0000 C   0  0
   14.8732   -2.9346    0.0000 C   0  0
   15.2760   -3.6449    0.0000 C   0  0
   16.0932   -3.6491    0.0000 C   0  0
   16.5076   -2.9428    0.0000 N   0  0
   14.0561   -2.9293    0.0000 C   0  0  1  0  0  0
   13.6520   -2.2190    0.0000 C   0  0
   14.0660   -1.5163    0.0000 C   0  0
   13.6626   -0.8064    0.0000 C   0  0
   12.8446   -0.8007    0.0000 C   0  0
   12.4316   -1.5108    0.0000 C   0  0
   12.8373   -2.2177    0.0000 C   0  0
   17.3248   -2.9458    0.0000 C   0  0
   17.7360   -2.2396    0.0000 C   0  0
   18.5532   -2.2426    0.0000 C   0  0
   18.9644   -1.5364    0.0000 O   0  0
   19.7815   -1.5394    0.0000 C   0  0
   20.1839   -2.2472    0.0000 C   0  0
   21.0003   -2.2506    0.0000 C   0  0
   21.4123   -1.5438    0.0000 C   0  0
   21.0019   -0.8323    0.0000 C   0  0
   20.1869   -0.8324    0.0000 C   0  0
   22.2292   -1.5479    0.0000 C   0  0
   23.0464   -1.5498    0.0000 N   0  0
   13.6454   -3.6322    0.0000 C   0  0
   12.8322   -3.7124    0.0000 C   0  0
   12.6572   -4.5107    0.0000 C   0  0
   13.3623   -4.9238    0.0000 C   0  0
   13.9730   -4.3809    0.0000 C   0  0
   13.2360   -2.9262    0.0000 O   0  0
  1  2  1  0
  1  6  1  0
  2  3  1  0
  3  4  1  0
  4  5  1  0
  5  6  1  0
  3  7  1  0
  7  8  1  0
  8  9  2  0
  9 10  1  0
 10 11  2  0
 11 12  1  0
 12 13  2  0
 13  8  1  0
  6 14  1  0
 14 15  1  0
 15 16  1  0
 16 17  1  0
 17 18  1  0
 18 19  2  0
 19 20  1  0
 20 21  2  0
 21 22  1  0
 22 23  2  0
 23 18  1  0
 24 25  3  0
 21 24  1  0
 26 27  1  0
 27 28  1  0
 28 29  1  0
 29 30  1  0
 30 26  1  0
  7 26  1  0
  7 31  1  1
M  END