
          11280715042D 1   1.00000     0.00000     0

 45 48  0     1  0            999 V2000
   -3.0083    1.3708    0.0000 C   0  0  0  0  0  0           0  0  0
   -3.0083    0.5458    0.0000 N   0  0  3  0  0  0           0  0  0
    4.1292   -1.1375    0.0000 C   0  0  0  0  0  0           0  0  0
    1.9875   -0.7167    0.0000 C   0  0  0  0  0  0           0  0  0
    4.8417   -0.7292    0.0000 C   0  0  0  0  0  0           0  0  0
    3.4167   -0.7250    0.0000 N   0  0  3  0  0  0           0  0  0
   -3.7208    1.7875    0.0000 C   0  0  3  0  0  0           0  0  0
    1.2667   -1.9500    0.0000 C   0  0  0  0  0  0           0  0  0
    2.7000   -1.1292    0.0000 C   0  0  0  0  0  0           0  0  0
    1.2667   -1.1250    0.0000 C   0  0  1  0  0  0           0  0  0
   -2.2958    0.1333    0.0000 C   0  0  3  0  0  0           0  0  0
   -0.8708   -0.7000    0.0000 N   0  0  3  0  0  0           0  0  0
    1.9750   -2.3542    0.0000 C   0  0  0  0  0  0           0  0  0
    1.9750   -3.1792    0.0000 C   0  0  0  0  0  0           0  0  0
    1.9917    0.1083    0.0000 N   0  0  0  0  0  0           0  0  0
   -3.0083    3.0250    0.0000 C   0  0  0  0  0  0           0  0  0
    0.5542   -0.7042    0.0000 C   0  0  0  0  0  0           0  0  0
    4.8417    0.0958    0.0000 C   0  0  0  0  0  0           0  0  0
    5.5542   -1.1500    0.0000 C   0  0  0  0  0  0           0  0  0
   -2.2958    1.7833    0.0000 O   0  0  0  0  0  0           0  0  0
   -3.7208    2.6125    0.0000 C   0  0  0  0  0  0           0  0  0
   -2.2958   -0.6917    0.0000 C   0  0  0  0  0  0           0  0  0
   -1.5833    0.5458    0.0000 C   0  0  0  0  0  0           0  0  0
    1.2542   -3.5917    0.0000 C   0  0  0  0  0  0           0  0  0
    4.1250   -1.9625    0.0000 O   0  0  0  0  0  0           0  0  0
    6.2667   -0.7417    0.0000 C   0  0  0  0  0  0           0  0  0
    5.5542    0.5000    0.0000 C   0  0  0  0  0  0           0  0  0
    6.2750    0.0833    0.0000 C   0  0  0  0  0  0           0  0  0
    0.5500   -2.3542    0.0000 C   0  0  0  0  0  0           0  0  0
   -3.0083    3.8583    0.0000 O   0  0  0  0  0  0           0  0  0
   -0.1583   -1.1167    0.0000 C   0  0  0  0  0  0           0  0  0
    0.5417   -3.1792    0.0000 C   0  0  0  0  0  0           0  0  0
   -1.5875   -1.1042    0.0000 C   0  0  0  0  0  0           0  0  0
   -0.8708    0.1250    0.0000 C   0  0  0  0  0  0           0  0  0
   -2.2958    2.6125    0.0000 N   0  0  0  0  0  0           0  0  0
   -3.7208    0.1375    0.0000 C   0  0  0  0  0  0           0  0  0
    2.6875   -3.5917    0.0000 Cl  0  0  0  0  0  0           0  0  0
    1.2542   -4.4167    0.0000 Cl  0  0  0  0  0  0           0  0  0
    5.5542    1.3250    0.0000 Cl  0  0  0  0  0  0           0  0  0
    6.9792   -1.1542    0.0000 Cl  0  0  0  0  0  0           0  0  0
    2.7042    0.5208    0.0000 O   0  0  0  0  0  0           0  0  0
    3.4167    0.1000    0.0000 C   0  0  0  0  0  0           0  0  0
   -4.4333    1.3708    0.0000 C   0  0  0  0  0  0           0  0  0
   -4.4333    0.5458    0.0000 C   0  0  0  0  0  0           0  0  0
    3.4250    0.9208    0.0000 C   0  0  0  0  0  0           0  0  0
  2  1  1  0     0  0
  3  6  1  0     0  0
  4 10  1  0     0  0
  5  3  1  0     0  0
  6  9  1  0     0  0
  7  1  1  0     0  0
 10  8  1  1     0  0
  9  4  1  0     0  0
 10 17  1  0     0  0
 11  2  1  0     0  0
 12 34  1  0     0  0
 13  8  1  0     0  0
 14 13  2  0     0  0
 15  4  2  0     0  0
 16 21  1  0     0  0
 17 31  1  0     0  0
 18  5  1  0     0  0
 19  5  2  0     0  0
 20  1  2  0     0  0
  7 21  1  0     0  0
 22 11  1  0     0  0
 23 11  1  0     0  0
 24 32  2  0     0  0
 25  3  2  0     0  0
 26 19  1  0     0  0
 27 18  2  0     0  0
 28 26  2  0     0  0
 29  8  2  0     0  0
 30 16  2  0     0  0
 31 12  1  0     0  0
 32 29  1  0     0  0
 33 22  1  0     0  0
 34 23  1  0     0  0
 35 16  1  0     0  0
 36  2  1  0     0  0
 37 14  1  0     0  0
 38 24  1  0     0  0
 39 27  1  0     0  0
 40 26  1  0     0  0
 41 15  1  0     0  0
 42  6  1  0     0  0
 43  7  1  0     0  0
 44 43  1  0     0  0
 45 41  1  0     0  0
 36 44  1  0     0  0
 33 12  1  0     0  0
 14 24  1  0     0  0
 28 27  1  0     0  0
M  END