
  CDK    12/20/10,15:20

 24 26  0  0  0  0  0  0  0  0999 V2000
   -4.3072   -0.9043    0.0000 C   0  0  0  0  0  0  0  0  0  0  0  0
   -3.4798   -0.9088    0.0000 C   0  0  0  0  0  0  0  0  0  0  0  0
   -3.0627   -0.1994    0.0000 C   0  0  0  0  0  0  0  0  0  0  0  0
   -3.4733    0.5234    0.0000 C   0  0  0  0  0  0  0  0  0  0  0  0
   -4.3035    0.5231    0.0000 C   0  0  0  0  0  0  0  0  0  0  0  0
   -4.7165   -0.1923    0.0000 C   0  0  0  0  0  0  0  0  0  0  0  0
   -4.7158    1.2344    0.0000 Cl  0  0  0  0  0  0  0  0  0  0  0  0
   -2.2381   -0.1994    0.0000 N   0  0  0  0  0  0  0  0  0  0  0  0
   -4.7195   -1.6198    0.0000 Cl  0  0  0  0  0  0  0  0  0  0  0  0
   -1.7594   -0.8776    0.0000 C   0  0  0  0  0  0  0  0  0  0  0  0
   -0.9735   -0.6255    0.0000 C   0  0  0  0  0  0  0  0  0  0  0  0
   -0.9683    0.1991    0.0000 N   0  0  0  0  0  0  0  0  0  0  0  0
   -1.7511    0.4567    0.0000 C   0  0  0  0  0  0  0  0  0  0  0  0
   -2.0023    1.2428    0.0000 O   0  0  0  0  0  0  0  0  0  0  0  0
   -2.0194   -1.6595    0.0000 O   0  0  0  0  0  0  0  0  0  0  0  0
   -0.1510   -0.5417    0.0000 C   0  0  0  0  0  0  0  0  0  0  0  0
    0.1869    0.2102    0.0000 C   0  0  0  0  0  0  0  0  0  0  0  0
    1.0062    0.2892    0.0000 C   0  0  0  0  0  0  0  0  0  0  0  0
    1.3481    1.0400    0.0000 C   0  0  0  0  0  0  0  0  0  0  0  0
    0.8632    1.7094    0.0000 C   0  0  0  0  0  0  0  0  0  0  0  0
    0.0389    1.6248    0.0000 C   0  0  0  0  0  0  0  0  0  0  0  0
   -0.2973    0.8737    0.0000 C   0  0  0  0  0  0  0  0  0  0  0  0
    1.2035    2.4621    0.0000 Br  0  0  0  0  0  0  0  0  0  0  0  0
   -0.8063   -1.4322    0.0000 C   0  0  0  0  0  0  0  0  0  0  0  0
  1  2  2  0  0  0  0 
  2  3  1  0  0  0  0 
  3  4  2  0  0  0  0 
  4  5  1  0  0  0  0 
  5  6  2  0  0  0  0 
  6  1  1  0  0  0  0 
  5  7  1  0  0  0  0 
  3  8  1  0  0  0  0 
  1  9  1  0  0  0  0 
  8 10  1  0  0  0  0 
 10 11  1  0  0  0  0 
 11 12  1  0  0  0  0 
 12 13  1  0  0  0  0 
 13  8  1  0  0  0  0 
 13 14  2  0  0  0  0 
 10 15  2  0  0  0  0 
 11 16  1  6  0  0  0 
 16 17  1  0  0  0  0 
 17 18  2  0  0  0  0 
 18 19  1  0  0  0  0 
 19 20  2  0  0  0  0 
 20 21  1  0  0  0  0 
 21 22  2  0  0  0  0 
 22 17  1  0  0  0  0 
 20 23  1  0  0  0  0 
 11 24  1  0  0  0  0 
M  END