
  SciTegic06141115222D

 22 23  0  0  0  0            999 V2000
    4.4170   -2.9854    0.0000 S   0  3
    5.8504   -2.9793    0.0000 C   0  0
    6.6794   -2.9758    0.0000 C   0  0
    6.2619   -2.2637    0.0000 C   0  0
    4.4135   -2.1565    0.0000 O   0  5
    5.1327   -3.3968    0.0000 C   0  0
   -2.0471   -1.7811    0.0000 N   0  0
    3.6993   -3.4030    0.0000 C   0  0
    0.8196   -1.7573    0.0000 O   0  0
   -0.6137   -1.7749    0.0000 C   0  0
    1.5467   -2.1687    0.0000 C   0  0
    2.9837   -2.9915    0.0000 C   0  0
   -1.3315   -2.1925    0.0000 C   0  0
    0.1019   -2.1864    0.0000 C   0  0
    2.2588   -1.7512    0.0000 C   0  0
    1.5503   -3.0091    0.0000 C   0  0
    2.9801   -2.1626    0.0000 C   0  0
    2.2659   -3.4206    0.0000 C   0  0
   -0.6173   -0.9460    0.0000 O   0  0
   -2.7707   -2.1986    0.0000 C   0  0
   -2.7613   -3.0276    0.0000 C   0  0
   -3.4920   -1.7872    0.0000 C   0  0
  2  6  1  0
  3  2  1  0
  4  2  1  0
  5  1  1  0
  6  1  1  0
  7 13  1  0
  8  1  1  0
  9 11  1  0
 10 14  1  0
 11 16  1  0
 12  8  1  0
 13 10  1  0
 14  9  1  0
 15 17  1  0
 16 18  2  0
 17 12  2  0
 18 12  1  0
 19 10  1  0
 20  7  1  0
 21 20  1  0
 22 20  1  0
  3  4  1  0
 11 15  2  0
M  CHG  2   1   1   5  -1
M  END