
          11280715262D 1   1.00000     0.00000     0

 23 26  0     0  0            999 V2000
   -2.4458   -0.9250    0.0000 C   0  0  3  0  0  0           0  0  0
    0.4000   -0.0917    0.0000 C   0  0  0  0  0  0           0  0  0
   -0.3083    0.3333    0.0000 C   0  0  0  0  0  0           0  0  0
   -1.0208   -0.0875    0.0000 N   0  0  0  0  0  0           0  0  0
   -1.7375    0.3208    0.0000 C   0  0  0  0  0  0           0  0  0
   -2.9000   -2.5917    0.0000 C   0  0  3  0  0  0           0  0  0
   -3.1958   -2.2250    0.0000 C   0  0  3  0  0  0           0  0  0
   -1.7250   -2.1625    0.0000 C   0  0  3  0  0  0           0  0  0
   -2.4458   -0.0917    0.0000 C   0  0  0  0  0  0           0  0  0
    1.1167    0.3083    0.0000 C   0  0  0  0  0  0           0  0  0
   -2.9000   -1.5542    0.0000 C   0  0  0  0  0  0           0  0  0
   -3.2000   -1.3250    0.0000 C   0  0  0  0  0  0           0  0  0
   -1.7250   -1.3417    0.0000 C   0  0  0  0  0  0           0  0  0
   -1.7458    1.1458    0.0000 O   0  0  0  0  0  0           0  0  0
   -2.0833   -2.8750    0.0000 C   0  0  0  0  0  0           0  0  0
   -3.5458   -2.8750    0.0000 C   0  0  0  0  0  0           0  0  0
   -2.4208   -2.5167    0.0000 C   0  0  0  0  0  0           0  0  0
    1.8292   -0.1125    0.0000 O   0  0  0  0  0  0           0  0  0
   -0.2958    1.1583    0.0000 C   0  0  0  0  0  0           0  0  0
    0.3917   -0.9167    0.0000 C   0  0  0  0  0  0           0  0  0
    0.4250    1.5583    0.0000 C   0  0  0  0  0  0           0  0  0
    1.1292    1.1333    0.0000 C   0  0  0  0  0  0           0  0  0
    1.8167   -0.9375    0.0000 C   0  0  0  0  0  0           0  0  0
  2  3  2  0     0  0
  3  4  1  0     0  0
  4  5  1  0     0  0
  5  9  1  0     0  0
  6 11  1  0     0  0
  7 12  1  0     0  0
  8 13  1  0     0  0
  9  1  1  0     0  0
 10  2  1  0     0  0
 11  1  1  0     0  0
 12  1  1  0     0  0
 13  1  1  0     0  0
 14  5  2  0     0  0
 15  8  1  0     0  0
 16  7  1  0     0  0
 17  8  1  0     0  0
 18 10  1  0     0  0
 19  3  1  0     0  0
 20  2  1  0     0  0
 21 19  2  0     0  0
 22 21  1  0     0  0
 23 18  1  0     0  0
  7 17  1  0     0  0
  6 15  1  0     0  0
  6 16  1  0     0  0
 22 10  2  0     0  0
M  END