
          11280715322D 1   1.00000     0.00000     0

 19 19  0     1  0            999 V2000
    8.1167   -3.8292    0.0000 N   0  0  0  0  0  0           0  0  0
    5.2625   -3.8417    0.0000 O   0  0  0  0  0  0           0  0  0
    6.6917   -3.8375    0.0000 C   0  0  1  0  0  0           0  0  0
    4.5500   -4.2542    0.0000 C   0  0  0  0  0  0           0  0  0
    7.4042   -4.2417    0.0000 C   0  0  0  0  0  0           0  0  0
    5.9792   -4.2500    0.0000 C   0  0  0  0  0  0           0  0  0
    3.1167   -5.0875    0.0000 C   0  0  0  0  0  0           0  0  0
    3.8292   -3.8417    0.0000 C   0  0  0  0  0  0           0  0  0
    4.5500   -5.0875    0.0000 C   0  0  0  0  0  0           0  0  0
    3.1167   -4.2542    0.0000 C   0  0  0  0  0  0           0  0  0
    3.8292   -5.5000    0.0000 C   0  0  0  0  0  0           0  0  0
    6.6875   -3.0125    0.0000 O   0  0  0  0  0  0           0  0  0
    8.8375   -4.2417    0.0000 C   0  0  3  0  0  0           0  0  0
    1.6917   -6.7375    0.0000 O   0  0  0  0  0  0           0  0  0
    2.4042   -5.5000    0.0000 C   0  0  0  0  0  0           0  0  0
    2.4042   -6.3250    0.0000 C   0  0  0  0  0  0           0  0  0
    0.9750   -6.3167    0.0000 C   0  0  0  0  0  0           0  0  0
    9.5500   -3.8250    0.0000 C   0  0  0  0  0  0           0  0  0
    8.8375   -5.0667    0.0000 C   0  0  0  0  0  0           0  0  0
  2  6  1  0     0  0
  3  5  1  0     0  0
  4  2  1  0     0  0
  5  1  1  0     0  0
  6  3  1  0     0  0
  7 11  1  0     0  0
  8  4  2  0     0  0
  9  4  1  0     0  0
 10  8  1  0     0  0
 11  9  2  0     0  0
  3 12  1  1     0  0
 13  1  1  0     0  0
 14 16  1  0     0  0
 15  7  1  0     0  0
 16 15  1  0     0  0
 17 14  1  0     0  0
 18 13  1  0     0  0
 19 13  1  0     0  0
  7 10  2  0     0  0
M  END