
  SciTegic01111613442D

 24 27  0  0  0  0            999 V2000
   -1.0028   -1.5132    0.0000 C   0  0
   -1.0028    1.5132    0.0000 C   0  0
   -2.3155    0.7475    0.0000 C   0  0
   -2.3155   -0.7475    0.0000 C   0  0
   -3.6217    1.4865    0.0000 O   0  0
   -4.9153    0.7255    0.0000 C   0  0
   -6.2216    1.4644    0.0000 C   0  0  1  0  0  0
   -7.5156    0.7056    0.0000 C   0  0  1  0  0  0
   -8.8197    1.4467    0.0000 C   0  0
   -8.8299    2.9467    0.0000 C   0  0
   -7.5360    3.7055    0.0000 N   0  0
   -6.2319    2.9644    0.0000 C   0  0
   -7.5054   -0.7951    0.0000 C   0  0
   -6.2025   -1.5385    0.0000 C   0  0
   -6.1947   -3.0384    0.0000 C   0  0
   -7.4898   -3.7952    0.0000 C   0  0
   -8.7927   -3.0520    0.0000 C   0  0
   -8.8005   -1.5520    0.0000 C   0  0
    0.2917    0.7475    0.0000 C   0  0
    0.2917   -0.7475    0.0000 C   0  0
    1.7138   -1.2033    0.0000 O   0  0
    2.5889    0.0182    0.0000 C   0  0
    1.7138    1.2033    0.0000 O   0  0
   -7.4835   -4.9952    0.0000 F   0  0
  1 20  2  0
 19  2  2  0
  2  3  1  0
  3  4  2  0
  4  1  1  0
  3  5  1  0
  5  6  1  0
  7  6  1  1
  7  8  1  0
  7 12  1  0
  8  9  1  0
  9 10  1  0
 10 11  1  0
 11 12  1  0
 13 14  2  0
 14 15  1  0
 15 16  2  0
 16 17  1  0
 17 18  2  0
 18 13  1  0
  8 13  1  6
 19 20  1  0
 20 21  1  0
 21 22  1  0
 22 23  1  0
 23 19  1  0
 16 24  1  0
M  END