
          11280715452D 1   1.00000     0.00000     0

 42 44  0     1  0            999 V2000
    0.1417    2.1000    0.0000 N   0  0  3  0  0  0           0  0  0
    0.0417    2.8458    0.0000 C   0  0  0  0  0  0           0  0  0
    0.3542    1.4000    0.0000 C   0  0  3  0  0  0           0  0  0
   -0.2333    0.9458    0.0000 C   0  0  0  0  0  0           0  0  0
   -0.6458    3.8458    0.0000 N   0  0  0  0  0  0           0  0  0
   -0.6583    3.1083    0.0000 C   0  0  1  0  0  0           0  0  0
    0.2000   -0.9792    0.0000 C   0  0  0  0  0  0           0  0  0
   -1.3125    4.1792    0.0000 C   0  0  0  0  0  0           0  0  0
   -0.1000    0.2000    0.0000 N   0  0  0  0  0  0           0  0  0
    0.0292   -1.7042    0.0000 N   0  0  0  0  0  0           0  0  0
    0.8750    2.4708    0.0000 C   0  0  0  0  0  0           0  0  0
   -0.3708   -0.4792    0.0000 C   0  0  1  0  0  0           0  0  0
    1.0875    1.1625    0.0000 C   0  0  0  0  0  0           0  0  0
    0.6000   -2.1667    0.0000 C   0  0  2  0  0  0           0  0  0
    0.3542   -2.8792    0.0000 C   0  0  0  0  0  0           0  0  0
    0.6542    3.2750    0.0000 O   0  0  0  0  0  0           0  0  0
   -0.9458    1.1750    0.0000 O   0  0  0  0  0  0           0  0  0
    0.9167   -0.7792    0.0000 O   0  0  0  0  0  0           0  0  0
   -1.9250    3.7458    0.0000 O   0  0  0  0  0  0           0  0  0
    1.3292   -1.9667    0.0000 C   0  0  0  0  0  0           0  0  0
   -1.1000   -0.6792    0.0000 C   0  0  0  0  0  0           0  0  0
   -0.3833   -3.0792    0.0000 O   0  0  0  0  0  0           0  0  0
   -1.3250    4.9292    0.0000 C   0  0  1  0  0  0           0  0  0
   -1.2833    2.6833    0.0000 C   0  0  3  0  0  0           0  0  0
    1.8542   -2.5000    0.0000 C   0  0  0  0  0  0           0  0  0
    0.5750   -3.6667    0.0000 O   0  0  0  0  0  0           0  0  0
    2.9167   -3.5625    0.0000 C   0  0  0  0  0  0           0  0  0
   -2.0208    5.1667    0.0000 N   0  0  0  0  0  0           0  0  0
   -1.2958   -1.4000    0.0000 C   0  0  0  0  0  0           0  0  0
    2.5875   -2.3042    0.0000 C   0  0  0  0  0  0           0  0  0
    1.6667   -3.2250    0.0000 C   0  0  0  0  0  0           0  0  0
    3.1167   -2.8375    0.0000 C   0  0  0  0  0  0           0  0  0
    2.1917   -3.7542    0.0000 C   0  0  0  0  0  0           0  0  0
    3.4500   -4.0917    0.0000 O   0  0  0  0  0  0           0  0  0
   -0.7083    5.3542    0.0000 C   0  0  0  0  0  0           0  0  0
   -1.9583    2.9958    0.0000 C   0  0  0  0  0  0           0  0  0
   -1.2083    1.9333    0.0000 C   0  0  0  0  0  0           0  0  0
   -0.7625   -1.9292    0.0000 C   0  0  0  0  0  0           0  0  0
   -2.0208   -1.5917    0.0000 C   0  0  0  0  0  0           0  0  0
   -2.2125   -2.3167    0.0000 C   0  0  0  0  0  0           0  0  0
   -0.9583   -2.6542    0.0000 C   0  0  0  0  0  0           0  0  0
   -1.6833   -2.8542    0.0000 C   0  0  0  0  0  0           0  0  0
  2  1  1  0     0  0
  3  1  1  0     0  0
  4  3  1  0     0  0
  5  6  1  0     0  0
  6  2  1  0     0  0
  7 12  1  0     0  0
  8  5  1  0     0  0
  9  4  1  0     0  0
 10  7  1  0     0  0
 11  1  1  0     0  0
 12  9  1  0     0  0
 13 11  1  0     0  0
 14 10  1  0     0  0
 15 14  1  0     0  0
 16  2  2  0     0  0
 17  4  2  0     0  0
 18  7  2  0     0  0
 19  8  2  0     0  0
 14 20  1  1     0  0
 12 21  1  6     0  0
 22 15  2  0     0  0
 23  8  1  0     0  0
  6 24  1  6     0  0
 25 20  1  0     0  0
 26 15  1  0     0  0
 27 33  1  0     0  0
 28 23  1  0     0  0
 29 21  1  0     0  0
 30 25  2  0     0  0
 31 25  1  0     0  0
 32 30  1  0     0  0
 33 31  2  0     0  0
 34 27  1  0     0  0
 23 35  1  1     0  0
 36 24  1  0     0  0
 37 24  1  0     0  0
 38 29  1  0     0  0
 39 29  2  0     0  0
 40 39  1  0     0  0
 41 38  2  0     0  0
 42 40  2  0     0  0
  3 13  1  0     0  0
 41 42  1  0     0  0
 32 27  2  0     0  0
M  END