
  SciTegic09261414462D

 29 32  0  0  0  0            999 V2000
    6.1371   -4.5768    0.0000 N   0  0
    6.9543   -4.5771    0.0000 N   0  0
    7.2087   -3.8004    0.0000 C   0  0
    6.5458   -3.3183    0.0000 C   0  0
    5.8870   -3.8004    0.0000 C   0  0
    5.1097   -3.5482    0.0000 O   0  0
    7.9863   -3.5490    0.0000 O   0  0
    5.7183   -5.2752    0.0000 C   0  0
    4.9001   -5.2617    0.0000 C   0  0
    4.4812   -5.9625    0.0000 C   0  0
    4.8792   -6.6772    0.0000 C   0  0
    5.7006   -6.6867    0.0000 C   0  0
    6.1159   -5.9854    0.0000 C   0  0
    6.5445   -2.5011    0.0000 C   0  0
    5.8362   -2.0936    0.0000 C   0  0
    5.7524   -1.2765    0.0000 C   0  0
    4.9528   -1.1078    0.0000 C   0  0
    4.5453   -1.8162    0.0000 C   0  0
    5.0931   -2.4225    0.0000 O   0  0
    3.7329   -1.8980    0.0000 C   0  0
    3.2520   -1.2359    0.0000 C   0  0
    2.4401   -1.3222    0.0000 C   0  0
    2.1082   -2.0699    0.0000 C   0  0
    2.5942   -2.7322    0.0000 C   0  0
    3.4043   -2.6425    0.0000 C   0  0
    2.2656   -3.4804    0.0000 Cl  0  0
    1.2937   -2.1559    0.0000 C   0  0
    0.8147   -1.4961    0.0000 O   0  0
    0.9629   -2.9047    0.0000 O   0  0
  1  2  1  0
  2  3  1  0
  3  4  1  0
  4  5  1  0
  5  1  1  0
  5  6  2  0
  3  7  2  0
  8  9  2  0
  9 10  1  0
 10 11  2  0
 11 12  1  0
 12 13  2  0
 13  8  1  0
  1  8  1  0
  4 14  2  0
 14 15  1  0
 15 16  2  0
 16 17  1  0
 17 18  2  0
 18 19  1  0
 19 15  1  0
 20 21  2  0
 21 22  1  0
 22 23  2  0
 23 24  1  0
 24 25  2  0
 25 20  1  0
 18 20  1  0
 24 26  1  0
 27 28  1  0
 27 29  2  0
 23 27  1  0
M  END