
  SciTegic10311316212D

 13 14  0  0  0  0            999 V2000
   19.1092   -2.3847    0.0000 C   0  0
   19.8350   -2.7857    0.0000 O   0  0
   19.8013   -1.1319    0.0000 N   0  0
   19.0887   -1.5558    0.0000 C   0  0
   20.5271   -1.5328    0.0000 C   0  0
   20.5363   -2.3578    0.0000 C   0  0
   21.2513   -2.7601    0.0000 C   0  0
   21.9618   -2.3419    0.0000 C   0  0
   21.9526   -1.5171    0.0000 C   0  0
   21.2330   -1.1102    0.0000 C   0  0
   18.3629   -1.1548    0.0000 O   0  0
   22.6665   -1.0952    0.0000 C   0  0
   23.3888   -1.5026    0.0000 O   0  0
  1  2  1  0
  1  4  1  0
  2  6  1  0
  5  3  1  0
  3  4  1  0
  5  6  1  0
  5 10  2  0
  6  7  2  0
  7  8  1  0
  8  9  2  0
  9 10  1  0
  4 11  2  0
  9 12  1  0
 12 13  2  0
M  END