
  Mrv0541 09091311472D          

 44 49  0  0  1  0            999 V2000
    2.2047   -4.9207    0.0000 C   0  0  0  0  0  0  0  0  0  0  0  0
    1.5052   -6.1558    0.0000 C   0  0  2  0  0  0  0  0  0  0  0  0
    2.0937   -6.7298    0.0000 C   0  0  0  0  0  0  0  0  0  0  0  0
    0.8201   -7.4052    0.0000 C   0  0  0  0  0  0  0  0  0  0  0  0
   -0.5934   -7.4679    0.0000 C   0  0  0  0  0  0  0  0  0  0  0  0
   -1.3315   -7.1544    0.0000 C   0  0  0  0  0  0  0  0  0  0  0  0
   -0.5934   -8.2784    0.0000 C   0  0  0  0  0  0  0  0  0  0  0  0
    3.5409   -4.8822    0.0000 N   0  0  0  0  0  0  0  0  0  0  0  0
    2.8897   -5.3838    0.0000 C   0  0  0  0  0  0  0  0  0  0  0  0
    1.5196   -6.9807    0.0000 N   0  0  0  0  0  0  0  0  0  0  0  0
    2.2192   -5.7457    0.0000 C   0  0  0  0  0  0  0  0  0  0  0  0
    2.1130   -7.5548    0.0000 N   0  0  0  0  0  0  0  0  0  0  0  0
    2.4410   -4.1199    0.0000 C   0  0  0  0  0  0  0  0  0  0  0  0
    0.0964   -7.0193    0.0000 O   0  0  0  0  0  0  0  0  0  0  0  0
    2.8560   -8.7801    0.0000 C   0  0  0  0  0  0  0  0  0  0  0  0
    2.1516   -9.2142    0.0000 C   0  0  0  0  0  0  0  0  0  0  0  0
    2.8318   -7.9551    0.0000 C   0  0  1  0  0  0  0  0  0  0  0  0
   -1.8911   -8.6547    0.0000 C   0  0  0  0  0  0  0  0  0  0  0  0
   -2.0551   -8.2060    0.0000 C   0  0  0  0  0  0  0  0  0  0  0  0
    3.2660   -4.1102    0.0000 C   0  0  0  0  0  0  0  0  0  0  0  0
   -2.0551   -7.4196    0.0000 C   0  0  0  0  0  0  0  0  0  0  0  0
   -1.3411   -8.4665    0.0000 C   0  0  0  0  0  0  0  0  0  0  0  0
   -1.8911   -7.8153    0.0000 C   0  0  0  0  0  0  0  0  0  0  0  0
   -1.1433   -8.9682    0.0000 C   0  0  0  0  0  0  0  0  0  0  0  0
    0.8298   -8.2301    0.0000 O   0  0  0  0  0  0  0  0  0  0  0  0
    2.9186   -6.7298    0.0000 O   0  0  0  0  0  0  0  0  0  0  0  0
    1.4279   -8.8235    0.0000 O   0  0  0  0  0  0  0  0  0  0  0  0
   -2.6919   -8.8911    0.0000 C   0  0  0  0  0  0  0  0  0  0  0  0
    3.5409   -7.5307    0.0000 C   0  0  0  0  0  0  0  0  0  0  0  0
    5.7022   -8.7174    0.0000 C   0  0  0  0  0  0  0  0  0  0  0  0
    4.2598   -7.9310    0.0000 C   0  0  0  0  0  0  0  0  0  0  0  0
    2.1758  -10.0392    0.0000 O   0  0  0  0  0  0  0  0  0  0  0  0
    6.4259   -9.1178    0.0000 N   0  0  0  0  0  0  0  0  0  0  0  0
    4.9979   -9.1419    0.0000 C   0  0  0  0  0  0  0  0  0  0  0  0
    5.6829   -7.8925    0.0000 C   0  0  0  0  0  0  0  0  0  0  0  0
    4.9641   -7.4920    0.0000 C   0  0  0  0  0  0  0  0  0  0  0  0
    4.2791   -8.7560    0.0000 C   0  0  0  0  0  0  0  0  0  0  0  0
    0.7815   -5.7553    0.0000 C   0  0  0  0  0  0  0  0  0  0  0  0
    2.0166   -3.4204    0.0000 C   0  0  0  0  0  0  0  0  0  0  0  0
    3.6616   -3.3962    0.0000 C   0  0  0  0  0  0  0  0  0  0  0  0
    2.4169   -2.7113    0.0000 C   0  0  0  0  0  0  0  0  0  0  0  0
    3.2419   -2.6823    0.0000 C   0  0  0  0  0  0  0  0  0  0  0  0
    5.0172   -9.9668    0.0000 H   0  0  0  0  0  0  0  0  0  0  0  0
    6.3873   -7.4534    0.0000 H   0  0  0  0  0  0  0  0  0  0  0  0
  2 11  1  6  0  0  0
  3  2  1  0  0  0  0
  4 10  1  0  0  0  0
  5 14  1  0  0  0  0
  6  5  1  0  0  0  0
  7  5  1  0  0  0  0
  8  9  1  0  0  0  0
  9  1  2  0  0  0  0
 10  2  1  0  0  0  0
 11  1  1  0  0  0  0
 12  3  1  0  0  0  0
 13  1  1  0  0  0  0
 14  4  1  0  0  0  0
 17 15  1  6  0  0  0
 16 15  1  0  0  0  0
 17 12  1  0  0  0  0
 18 24  1  0  0  0  0
 19 22  1  0  0  0  0
 20 13  2  0  0  0  0
 21  6  1  0  0  0  0
 22  7  1  0  0  0  0
 23  6  1  0  0  0  0
 24  7  1  0  0  0  0
 25  4  2  0  0  0  0
 26  3  2  0  0  0  0
 27 16  2  0  0  0  0
 28 18  1  0  0  0  0
 29 17  1  0  0  0  0
 30 34  2  0  0  0  0
 31 29  1  0  0  0  0
 32 16  1  0  0  0  0
 33 30  1  0  0  0  0
 34 37  1  0  0  0  0
 35 36  2  0  0  0  0
 36 31  1  0  0  0  0
 37 31  2  0  0  0  0
  2 38  1  1  0  0  0
 39 13  1  0  0  0  0
 40 20  1  0  0  0  0
 41 39  2  0  0  0  0
 42 41  1  0  0  0  0
 43 34  1  0  0  0  0
 44 35  1  0  0  0  0
 20  8  1  0  0  0  0
 42 40  2  0  0  0  0
 18 23  1  0  0  0  0
 19 21  1  0  0  0  0
 35 30  1  0  0  0  0
 19 28  1  0  0  0  0
M  ISO  2  43   3  44   3
M  END