
  SciTegic03161212222D

 35 37  0  0  0  0            999 V2000
    0.0000    0.0000    0.0000 Cl  0  0
    2.2393    5.6599    0.0000 C   0  0
    2.9538    5.2474    0.0000 N   0  0
    3.6682    5.6599    0.0000 C   0  0
    2.9538    4.4224    0.0000 C   0  0
    3.6682    4.0099    0.0000 C   0  0
    4.3827    4.4224    0.0000 O   0  0
    3.6682    3.1849    0.0000 N   0  0
    4.3827    2.7724    0.0000 C   0  0
    4.3827    1.9474    0.0000 C   0  0
    3.6682    1.5349    0.0000 C   0  0
    2.9538    1.9474    0.0000 C   0  0
    2.9538    2.7724    0.0000 C   0  0
    3.6682    0.7099    0.0000 C   0  0
    4.3827    0.2974    0.0000 C   0  0
    4.3827   -0.5276    0.0000 C   0  0
    5.0972   -0.9401    0.0000 C   0  0
    5.8116   -0.5276    0.0000 C   0  0
    6.5261   -0.9401    0.0000 C   0  0
    6.5261   -1.7651    0.0000 C   0  0
    5.8116   -2.1776    0.0000 C   0  0
    5.0972   -1.7651    0.0000 C   0  0
    3.6682   -0.9401    0.0000 C   0  0
    3.6682   -1.7651    0.0000 N   0  0
    2.9538   -2.1776    0.0000 C   0  0
    2.2393   -1.7651    0.0000 O   0  0
    2.9538   -3.0026    0.0000 C   0  0
    3.6212   -3.4875    0.0000 N   0  0
    3.3663   -4.2721    0.0000 C   0  0
    2.5413   -4.2721    0.0000 C   0  0
    2.2863   -3.4875    0.0000 N   0  0
    3.8512   -4.9395    0.0000 C   0  0
    4.3361   -5.6070    0.0000 N   0  0
    2.9538   -0.5276    0.0000 C   0  0
    2.9538    0.2974    0.0000 C   0  0
  2  3  1  0
  3  4  1  0
  3  5  1  0
  5  6  1  0
  6  7  2  0
  6  8  1  0
  8  9  1  0
  9 10  1  0
 10 11  1  0
 11 12  1  0
 12 13  1  0
  8 13  1  0
 11 14  1  0
 14 15  2  0
 15 16  1  0
 16 17  1  0
 17 18  2  0
 18 19  1  0
 19 20  1  0
 20 21  1  0
 21 22  1  0
 17 22  1  0
 16 23  2  0
 23 24  1  0
 24 25  1  0
 25 26  2  0
 25 27  1  0
 27 28  2  0
 28 29  1  0
 29 30  2  0
 30 31  1  0
 27 31  1  0
 29 32  1  0
 32 33  3  0
 23 34  1  0
 34 35  2  0
 14 35  1  0
M  END