
  SciTegic11081110012D

 26 29  0  0  0  0            999 V2000
    7.4162  -13.7966    0.0000 C   0  0
    7.9955  -14.3918    0.0000 C   0  0
    8.5907  -13.8124    0.0000 C   0  0
    8.0114  -13.2172    0.0000 C   0  0
    9.4154  -13.8236    0.0000 N   0  0
    9.7799  -13.0913    0.0000 C   0  0
   10.5878  -12.9164    0.0000 C   0  0
    9.7623  -14.5747    0.0000 C   0  0
   10.5655  -14.7676    0.0000 C   0  0
   11.2244  -13.4334    0.0000 C   0  0
   11.2155  -14.2583    0.0000 C   0  0
   11.9243  -14.6766    0.0000 C   0  0
   12.6425  -14.2711    0.0000 C   0  0
   12.6474  -13.4431    0.0000 C   0  0
   11.9379  -13.0285    0.0000 C   0  0
   13.3639  -13.0347    0.0000 O   0  0
   14.0759  -13.4511    0.0000 C   0  0
   14.0676  -14.2759    0.0000 C   0  0
   14.7787  -14.6922    0.0000 N   0  0
   15.4961  -14.2838    0.0000 C   0  0
   15.4981  -13.4548    0.0000 C   0  0
   14.7865  -13.0422    0.0000 N   0  0
   16.2086  -14.6992    0.0000 C   0  0
   16.2051  -15.5239    0.0000 O   0  0
   16.9247  -14.2899    0.0000 N   0  0
   17.6372  -14.7053    0.0000 C   0  0
  5  6  1  0
 12 13  2  0
  2  3  1  0
 13 14  1  0
  6  7  1  0
 14 15  2  0
 15 10  1  0
  3  4  1  0
 14 16  1  0
  5  8  1  0
 16 17  1  0
  7 10  1  0
 17 18  2  0
  4  1  1  0
 18 19  1  0
  8  9  1  0
 19 20  2  0
  9 11  1  0
 20 21  1  0
 21 22  2  0
 22 17  1  0
  3  5  1  0
 20 23  1  0
 10 11  2  0
 23 24  2  0
  1  2  1  0
 23 25  1  0
 11 12  1  0
 25 26  1  0
M  END