
          11280714442D 1   1.00000     0.00000     0

 19 19  0     0  0            999 V2000
   10.4292   -0.1917    0.0000 C   0  0  0  0  0  0           0  0  0
    9.7375   -0.6417    0.0000 C   0  0  0  0  0  0           0  0  0
   11.1625   -0.5750    0.0000 O   0  0  0  0  0  0           0  0  0
   14.0167   -0.4417    0.0000 N   0  0  0  0  0  0           0  0  0
    9.0042   -0.2542    0.0000 C   0  0  0  0  0  0           0  0  0
   10.3917    0.6250    0.0000 O   0  0  0  0  0  0           0  0  0
   14.7125   -0.0042    0.0000 C   0  0  3  0  0  0           0  0  0
   12.5917   -0.5125    0.0000 C   0  0  3  0  0  0           0  0  0
   11.8542   -0.1292    0.0000 C   0  0  0  0  0  0           0  0  0
   13.2875   -0.0667    0.0000 C   0  0  0  0  0  0           0  0  0
    8.3125   -0.7042    0.0000 C   0  0  0  0  0  0           0  0  0
   12.6292   -1.3375    0.0000 O   0  0  0  0  0  0           0  0  0
    7.5792   -0.3292    0.0000 O   0  0  0  0  0  0           0  0  0
    9.7792   -1.4625    0.0000 C   0  0  0  0  0  0           0  0  0
    9.0875   -1.9042    0.0000 C   0  0  0  0  0  0           0  0  0
   14.6792    0.8208    0.0000 C   0  0  0  0  0  0           0  0  0
   15.2667    0.6083    0.0000 C   0  0  0  0  0  0           0  0  0
   15.4417   -0.3792    0.0000 C   0  0  0  0  0  0           0  0  0
    8.3500   -1.5292    0.0000 C   0  0  0  0  0  0           0  0  0
  2  1  1  0     0  0
  3  1  1  0     0  0
  4 10  1  0     0  0
  5  2  2  0     0  0
  6  1  2  0     0  0
  7  4  1  0     0  0
  8  9  1  0     0  0
  9  3  1  0     0  0
 10  8  1  0     0  0
 11  5  1  0     0  0
 12  8  1  0     0  0
 13 11  1  0     0  0
 14  2  1  0     0  0
 15 14  2  0     0  0
 16  7  1  0     0  0
 17  7  1  0     0  0
 18  7  1  0     0  0
 19 15  1  0     0  0
 19 11  2  0     0  0
M  END