
  SciTegic04191616232D

 95103  0  0  0  0            999 V2000
   14.6277  -36.6261    0.0000 C   0  0
   15.9201  -35.8647    0.0000 C   0  0
   15.8710  -34.3859    0.0000 C   0  0  2  0  0  0
   14.6013  -33.6262    0.0000 C   0  0
   13.3089  -34.3876    0.0000 C   0  0
   13.3221  -35.8875    0.0000 C   0  0  1  0  0  0
   12.0305  -36.6520    0.0000 O   0  0
   12.0458  -38.1527    0.0000 C   0  0
   10.7561  -38.9186    0.0000 C   0  0
   10.7744  -40.4185    0.0000 C   0  0
   12.0825  -41.1526    0.0000 C   0  0
   13.3723  -40.3867    0.0000 C   0  0
   13.3540  -38.8869    0.0000 C   0  0
    9.7426  -41.0312    0.0000 Cl  0  0
    9.7096  -38.3314    0.0000 F   0  0
   17.1775  -35.1253    0.0000 C   0  0
   18.4712  -34.3645    0.0000 C   0  0
   19.7778  -35.1014    0.0000 N   0  0
   21.0692  -34.3385    0.0000 C   0  0
   21.0542  -32.8385    0.0000 C   0  0
   19.7477  -32.1016    0.0000 C   0  0
   18.4563  -32.8646    0.0000 C   0  0
   22.3780  -35.0731    0.0000 N   0  0
   23.6690  -34.3079    0.0000 C   0  0
   25.0287  -34.9106    0.0000 S   0  0
   26.0173  -33.7825    0.0000 C   0  0
   25.2498  -32.4937    0.0000 C   0  0
   23.7869  -32.8253    0.0000 N   0  0
   15.8576  -32.8852    0.0000 C   0  0
   14.5516  -32.1456    0.0000 N   0  0
   16.8916  -32.2762    0.0000 O   0  0
   14.5382  -30.6448    0.0000 C   0  0
   13.2323  -29.9052    0.0000 C   0  0
   13.2189  -28.4044    0.0000 C   0  0
   11.9129  -27.6648    0.0000 N   0  0
   14.2529  -27.7955    0.0000 O   0  0
   11.8995  -26.1641    0.0000 C   0  0  1  0  0  0
   10.5936  -25.4245    0.0000 C   0  0
   10.5802  -23.9237    0.0000 N   0  0
    9.5596  -26.0334    0.0000 O   0  0
   13.1912  -25.3998    0.0000 C   0  0
   13.1761  -23.8991    0.0000 C   0  0
   14.4660  -23.1334    0.0000 C   0  0
   14.4479  -21.6335    0.0000 C   0  0
   13.1399  -20.8992    0.0000 C   0  0
   11.8500  -21.6648    0.0000 C   0  0
   11.8681  -23.1647    0.0000 C   0  0
    9.2742  -23.1841    0.0000 C   0  0
    9.2608  -21.6834    0.0000 C   0  0
    7.9549  -20.9438    0.0000 C   0  0
    7.9415  -19.4430    0.0000 O   0  0
    6.6355  -18.7034    0.0000 C   0  0
    6.6221  -17.2026    0.0000 C   0  0
    5.3162  -16.4630    0.0000 O   0  0
    5.3028  -14.9623    0.0000 C   0  0
    3.9968  -14.2227    0.0000 C   0  0
    3.9834  -12.7219    0.0000 O   0  0
    2.6775  -11.9823    0.0000 C   0  0
    2.6641  -10.4816    0.0000 C   0  0
    1.3581   -9.7420    0.0000 C   0  0
    1.3447   -8.2412    0.0000 N   0  0
    0.0388   -7.5016    0.0000 C   0  0
   -0.9952   -8.1105    0.0000 O   0  0
    0.0254   -6.0008    0.0000 C   0  0
   -1.2788   -5.2598    0.0000 C   0  0
   -1.2891   -3.7598    0.0000 C   0  0
    0.0046   -3.0009    0.0000 C   0  0
    1.3089   -3.7420    0.0000 C   0  0
    1.3192   -5.2419    0.0000 C   0  0
    0.0000   -1.5002    0.0000 C   0  0
    0.0000    1.5002    0.0000 O   0  0
   -1.2989   -0.7501    0.0000 C   0  0
   -1.2989    0.7501    0.0000 C   0  0
   -2.5978    1.5002    0.0000 C   0  0
   -3.8968    0.7501    0.0000 C   0  0
   -3.8968   -0.7501    0.0000 C   0  0
   -2.5978   -1.5002    0.0000 C   0  0
    1.2806    0.7501    0.0000 C   0  0
    1.2806   -0.7501    0.0000 C   0  0
    2.5978   -1.5002    0.0000 C   0  0
    3.8968   -0.7501    0.0000 C   0  0
    3.8968    0.7501    0.0000 C   0  0
    2.5978    1.5002    0.0000 C   0  0
    5.1950    1.5032    0.0000 N   0  3
    6.2358    0.9060    0.0000 C   0  0
    5.1921    2.7032    0.0000 C   0  0
   -5.1981    1.4978    0.0000 N   0  0
   -6.2364    0.8963    0.0000 C   0  0
   -5.2002    2.6978    0.0000 C   0  0
   -2.5955   -3.0210    0.0000 C   0  0
   -2.6041   -2.0211    0.0000 O   0  0
   -3.6297   -3.6296    0.0000 O   0  0
   13.1187  -19.3985    0.0000 N   0  0
   11.8089  -18.6657    0.0000 N   0  3
   10.7617  -18.0798    0.0000 N   0  5
  1  2  1  0
  1  6  1  0
  2  3  1  0
  3  4  1  0
  4  5  1  0
  5  6  1  0
  6  7  1  6
  7  8  1  0
  8  9  2  0
  9 10  1  0
 10 11  2  0
 11 12  1  0
 12 13  2  0
 13  8  1  0
 10 14  1  0
  9 15  1  0
  3 16  1  0
 16 17  1  0
 17 18  2  0
 18 19  1  0
 19 20  2  0
 20 21  1  0
 21 22  2  0
 22 17  1  0
 19 23  1  0
 23 24  1  0
 24 25  1  0
 25 26  1  0
 26 27  2  0
 27 28  1  0
 28 24  2  0
  3 29  1  1
 29 30  1  0
 29 31  2  0
 30 32  1  0
 32 33  1  0
 33 34  1  0
 34 35  1  0
 34 36  2  0
 35 37  1  0
 37 38  1  0
 38 39  1  0
 38 40  2  0
 37 41  1  1
 41 42  1  0
 42 43  2  0
 43 44  1  0
 44 45  2  0
 45 46  1  0
 46 47  2  0
 47 42  1  0
 39 48  1  0
 48 49  1  0
 49 50  1  0
 50 51  1  0
 51 52  1  0
 52 53  1  0
 53 54  1  0
 54 55  1  0
 55 56  1  0
 56 57  1  0
 57 58  1  0
 58 59  1  0
 59 60  1  0
 60 61  1  0
 61 62  1  0
 62 63  2  0
 62 64  1  0
 64 65  2  0
 65 66  1  0
 66 67  2  0
 67 68  1  0
 68 69  2  0
 69 64  1  0
 67 70  1  0
 70 79  2  0
 70 72  1  0
 78 71  1  0
 71 73  1  0
 72 73  2  0
 73 74  1  0
 74 75  2  0
 75 76  1  0
 76 77  2  0
 77 72  1  0
 78 79  1  0
 78 83  2  0
 79 80  1  0
 80 81  2  0
 81 82  1  0
 82 83  1  0
 82 84  2  0
 84 85  1  0
 84 86  1  0
 75 87  1  0
 87 88  1  0
 87 89  1  0
 66 90  1  0
 90 91  1  0
 90 92  2  0
 45 93  1  0
 93 94  2  0
 94 95  2  0
M  CHG  3  84   1  94   1  95  -1
M  END