
  CDK    12/20/10,15:21

 40 45  0  0  0  0  0  0  0  0999 V2000
    4.7402  -17.7041    0.0000 C   0  0  0  0  0  0  0  0  0  0  0  0
    4.7391  -18.5315    0.0000 C   0  0  0  0  0  0  0  0  0  0  0  0
    5.4539  -18.9444    0.0000 C   0  0  0  0  0  0  0  0  0  0  0  0
    6.1703  -18.5310    0.0000 C   0  0  0  0  0  0  0  0  0  0  0  0
    6.1675  -17.7005    0.0000 N   0  0  0  0  0  0  0  0  0  0  0  0
    5.4521  -17.2914    0.0000 C   0  0  0  0  0  0  0  0  0  0  0  0
    4.0243  -18.9434    0.0000 C   0  0  0  0  0  0  0  0  0  0  0  0
    3.3101  -18.5304    0.0000 N   0  0  0  0  0  0  0  0  0  0  0  0
    3.3148  -17.7012    0.0000 C   0  0  0  0  0  0  0  0  0  0  0  0
    2.6047  -17.2882    0.0000 C   0  0  0  0  0  0  0  0  0  0  0  0
    1.8875  -17.6966    0.0000 C   0  0  0  0  0  0  0  0  0  0  0  0
    1.8849  -18.5226    0.0000 C   0  0  0  0  0  0  0  0  0  0  0  0
    2.5995  -18.9401    0.0000 C   0  0  0  0  0  0  0  0  0  0  0  0
    1.1749  -17.2808    0.0000 C   0  0  0  0  0  0  0  0  0  0  0  0
    1.1787  -16.4559    0.0000 O   0  0  0  0  0  0  0  0  0  0  0  0
    0.4586  -17.6901    0.0000 N   0  0  0  0  0  0  0  0  0  0  0  0
   -0.2575  -17.2749    0.0000 C   0  0  0  0  0  0  0  0  0  0  0  0
   -0.9717  -17.6807    0.0000 C   0  0  0  0  0  0  0  0  0  0  0  0
   -0.9797  -18.5060    0.0000 C   0  0  0  0  0  0  0  0  0  0  0  0
   -0.2673  -18.9239    0.0000 C   0  0  0  0  0  0  0  0  0  0  0  0
    0.4531  -18.5166    0.0000 C   0  0  0  0  0  0  0  0  0  0  0  0
   -1.6976  -18.9125    0.0000 N   0  0  0  0  0  0  0  0  0  0  0  0
   -2.4502  -18.5699    0.0000 C   0  0  0  0  0  0  0  0  0  0  0  0
   -3.0074  -19.1783    0.0000 N   0  0  0  0  0  0  0  0  0  0  0  0
   -1.7925  -19.7314    0.0000 C   0  0  0  0  0  0  0  0  0  0  0  0
   -2.5981  -19.8982    0.0000 C   0  0  0  0  0  0  0  0  0  0  0  0
   -2.8550  -20.6778    0.0000 C   0  0  0  0  0  0  0  0  0  0  0  0
   -2.3072  -21.2913    0.0000 C   0  0  0  0  0  0  0  0  0  0  0  0
   -1.4993  -21.1199    0.0000 C   0  0  0  0  0  0  0  0  0  0  0  0
   -1.2462  -20.3405    0.0000 C   0  0  0  0  0  0  0  0  0  0  0  0
   -2.6150  -17.7615    0.0000 O   0  0  0  0  0  0  0  0  0  0  0  0
   -3.8272  -19.0860    0.0000 C   0  0  0  0  0  0  0  0  0  0  0  0
   -4.1571  -18.3298    0.0000 C   0  0  0  0  0  0  0  0  0  0  0  0
   -4.9769  -18.2374    0.0000 O   0  0  0  0  0  0  0  0  0  0  0  0
   -5.3068  -17.4812    0.0000 C   0  0  0  0  0  0  0  0  0  0  0  0
   -4.8174  -16.8183    0.0000 C   0  0  0  0  0  0  0  0  0  0  0  0
   -5.1467  -16.0627    0.0000 C   0  0  0  0  0  0  0  0  0  0  0  0
   -5.9673  -15.9698    0.0000 C   0  0  0  0  0  0  0  0  0  0  0  0
   -6.4576  -16.6386    0.0000 C   0  0  0  0  0  0  0  0  0  0  0  0
   -6.1257  -17.3915    0.0000 C   0  0  0  0  0  0  0  0  0  0  0  0
 16 21  1  0  0  0  0 
 17 18  1  0  0  0  0 
 18 19  1  0  0  0  0 
 19 20  1  0  0  0  0 
 20 21  1  0  0  0  0 
  5  6  2  0  0  0  0 
 19 22  1  0  0  0  0 
 22 23  1  0  0  0  0 
  6  1  1  0  0  0  0 
  8 13  1  0  0  0  0 
 23 24  1  0  0  0  0 
 24 26  1  0  0  0  0 
 25 22  1  0  0  0  0 
  9 10  1  0  0  0  0 
 10 11  1  0  0  0  0 
 25 26  2  0  0  0  0 
 11 12  1  0  0  0  0 
 26 27  1  0  0  0  0 
 12 13  1  0  0  0  0 
 27 28  2  0  0  0  0 
  1  2  2  0  0  0  0 
 28 29  1  0  0  0  0 
 11 14  1  0  0  0  0 
 29 30  2  0  0  0  0 
 30 25  1  0  0  0  0 
  2  7  1  0  0  0  0 
 23 31  2  0  0  0  0 
 14 15  2  0  0  0  0 
 24 32  1  0  0  0  0 
  3  4  2  0  0  0  0 
 32 33  1  0  0  0  0 
 14 16  1  0  0  0  0 
 33 34  1  0  0  0  0 
 16 17  1  0  0  0  0 
 34 35  1  0  0  0  0 
  7  8  1  0  0  0  0 
 35 36  2  0  0  0  0 
  8  9  1  0  0  0  0 
 36 37  1  0  0  0  0 
 37 38  2  0  0  0  0 
  4  5  1  0  0  0  0 
 38 39  1  0  0  0  0 
  2  3  1  0  0  0  0 
 39 40  2  0  0  0  0 
 40 35  1  0  0  0  0 
M  END