
  SciTegic12201615522D

 24 26  0  0  0  0            999 V2000
    7.0514    2.6798    0.0000 C   0  0
    6.3207    1.3698    0.0000 C   0  0
    4.8208    1.3475    0.0000 C   0  0
    4.0518    2.6354    0.0000 C   0  0
    4.7825    3.9454    0.0000 C   0  0
    6.2823    3.9676    0.0000 C   0  0
    4.0102    5.2323    0.0000 O   0  0
    2.8104    5.2129    0.0000 C   0  0
    7.0161    5.2768    0.0000 O   0  0
    8.5168    5.2969    0.0000 C   0  0
    9.2506    6.6061    0.0000 C   0  0
   10.4505    6.6221    0.0000 O   0  0
    8.6371    7.6374    0.0000 O   0  0
    4.0872    0.0382    0.0000 C   0  0
    2.5889    0.0182    0.0000 C   0  0
    1.7138    1.2033    0.0000 S   0  0
    1.7138   -1.2033    0.0000 C   0  0
    2.0907   -2.3426    0.0000 O   0  0
    0.2917   -0.7475    0.0000 C   0  0
    0.2917    0.7475    0.0000 C   0  0
   -1.0028    1.5132    0.0000 C   0  0
   -2.3155    0.7475    0.0000 C   0  0
   -2.3155   -0.7475    0.0000 C   0  0
   -1.0028   -1.5132    0.0000 C   0  0
  1  2  1  0
  2  3  2  0
  3  4  1  0
  4  5  2  0
  5  6  1  0
  6  1  2  0
  5  7  1  0
  7  8  1  0
  6  9  1  0
  9 10  1  0
 10 11  1  0
 11 12  2  0
 11 13  1  0
  3 14  1  0
 14 15  2  0
 15 16  1  0
 16 20  1  0
 19 17  1  0
 17 15  1  0
 17 18  2  0
 19 20  2  0
 20 21  1  0
 21 22  2  0
 22 23  1  0
 23 24  2  0
 24 19  1  0
M  END