
  SciTegic05171617272D

 20 21  0  0  1  0            999 V2000
    0.8441    6.0599    0.0000 C   0  0
    1.6464    5.1675    0.0000 S   0  0
    3.1148    5.4775    0.0000 C   0  0
    4.1182    4.3614    0.0000 C   0  0  2  0  0  0
    3.6500    2.9355    0.0000 N   0  0
    2.1812    2.6271    0.0000 C   0  0
    1.7138    1.2033    0.0000 C   0  0
    2.5889    0.0182    0.0000 C   0  0
    1.7138   -1.2033    0.0000 N   0  0
    0.2917   -0.7475    0.0000 C   0  0
    0.2917    0.7475    0.0000 C   0  0
   -1.0028    1.5132    0.0000 N   0  0
   -2.3155    0.7475    0.0000 C   0  0
   -2.3155   -0.7475    0.0000 N   0  0
   -1.0028   -1.5132    0.0000 C   0  0
   -0.9991   -2.7132    0.0000 O   0  0
    5.5870    4.6698    0.0000 C   0  0  2  0  0  0
    6.3875    3.7758    0.0000 O   0  0
    6.0553    6.0958    0.0000 C   0  0
    7.2296    6.3423    0.0000 O   0  0
  1  2  1  0
  2  3  1  0
  3  4  1  0
  4  5  1  1
  5  6  1  0
  6  7  1  0
  7  8  2  0
  8  9  1  0
  9 10  1  0
 10 11  2  0
  7 11  1  0
 11 12  1  0
 12 13  2  0
 13 14  1  0
 14 15  1  0
 10 15  1  0
 15 16  2  0
  4 17  1  0
 17 18  1  1
 17 19  1  0
 19 20  1  0
M  END