
  SciTegic12231509382D

 15 16  0  0  0  0            999 V2000
    8.0037  -14.1318    0.0000 C   0  0
    9.3271  -14.5272    0.0000 N   0  0
    7.1787  -14.1318    0.0000 C   0  0
    8.4104  -14.8537    0.0000 C   0  0
    6.7662  -14.8537    0.0000 C   0  0
    5.9412  -14.8537    0.0000 C   0  0
    8.6740  -14.3553    0.0000 C   0  0
    5.5287  -15.5584    0.0000 O   0  0
    9.9631  -14.7506    0.0000 C   0  0
    8.0037  -13.3068    0.0000 C   0  0
    9.3271  -15.3522    0.0000 C   0  0
    6.7662  -13.4214    0.0000 C   0  0
    9.5506  -14.0287    0.0000 C   0  0
    5.9412  -13.4214    0.0000 C   0  0
    5.5287  -14.1318    0.0000 C   0  0
  2  4  1  0
  3  1  1  0
  4  1  1  0
  5  3  2  0
  6  5  1  0
  7  1  1  0
  8  6  1  0
  9 13  1  0
 10  1  1  0
 11  2  1  0
 12  3  1  0
 13  7  1  0
 14 12  2  0
 15 14  1  0
  9  2  1  0
 15  6  2  0
M  END