
  SciTegic07121117002D

 32 35  0  0  1  0            999 V2000
   -2.9675    3.8150    0.0000 F   0  0
   -2.8934   -0.5019    0.0000 O   0  0
    0.2508   -2.1512    0.0000 O   0  0
    2.3943   -0.0887    0.0000 O   0  0
    5.2521   -0.0887    0.0000 O   0  0
   -3.8186    0.6407    0.0000 N   0  0
   -1.7693   -0.6362    0.0000 N   0  0
    0.9653   -0.9137    0.0000 N   0  0
    3.8232   -0.9137    0.0000 N   0  0
   -2.5129    0.9182    0.0000 C   0  0
   -2.9254    1.6327    0.0000 C   0  0
   -1.3568    0.0783    0.0000 C   0  0
   -0.4636   -0.9137    0.0000 C   0  0
   -3.7323    1.4612    0.0000 C   0  0
   -0.5499   -0.0932    0.0000 C   0  0
   -3.0649    0.3051    0.0000 C   0  0
   -1.6924    0.8320    0.0000 C   0  0
   -1.2173   -1.2493    0.0000 C   0  0
   -2.6704    2.4173    0.0000 C   0  0
    0.2508   -1.3262    0.0000 C   0  0
   -4.2844    2.0742    0.0000 C   0  0
   -3.2225    3.0304    0.0000 C   0  0
   -4.0294    2.8589    0.0000 C   0  0
    0.0632    0.4588    0.0000 C   0  0
   -1.3888   -2.0562    0.0000 C   0  0
    1.6798   -1.3262    0.0000 C   0  0
    2.3943   -0.9137    0.0000 C   0  0  1  0  0  0
    3.1087   -1.3262    0.0000 C   0  0
    4.5377   -1.3262    0.0000 C   0  0
    3.8232   -0.0887    0.0000 C   0  0
    5.2521   -0.9137    0.0000 C   0  0
    4.5377    0.3238    0.0000 C   0  0
  1 22  1  0
  2 16  2  0
  3 20  2  0
 27  4  1  6
  5 31  1  0
  5 32  1  0
  6 14  1  0
  6 16  1  0
  7 12  1  0
  7 18  1  0
  8 20  1  0
  8 26  1  0
  9 28  1  0
  9 29  1  0
  9 30  1  0
 10 11  1  0
 10 16  1  0
 10 17  2  0
 11 14  2  0
 11 19  1  0
 12 15  2  0
 12 17  1  0
 13 15  1  0
 13 18  2  0
 13 20  1  0
 14 21  1  0
 15 24  1  0
 18 25  1  0
 19 22  2  0
 21 23  2  0
 22 23  1  0
 26 27  1  0
 27 28  1  0
 29 31  1  0
 30 32  1  0
M  END