
  CDK    9/16/09,9:58

 30 34  0  0  0  0  0  0  0  0999 V2000
   -3.4375   -2.0875    0.0000 C   0  0  0  0  0  0  0  0  0  0  0  0
   -3.4375   -2.9125    0.0000 C   0  0  0  0  0  0  0  0  0  0  0  0
   -2.7255   -3.3208    0.0000 N   0  0  0  0  0  0  0  0  0  0  0  0
   -2.7255   -1.6708    0.0000 C   0  0  0  0  0  0  0  0  0  0  0  0
   -2.0135   -2.0875    0.0000 C   0  0  0  0  0  0  0  0  0  0  0  0
   -2.0135   -2.9135    0.0000 C   0  0  0  0  0  0  0  0  0  0  0  0
   -1.2279   -3.1689    0.0000 N   0  0  0  0  0  0  0  0  0  0  0  0
   -0.7423   -2.5006    0.0000 C   0  0  0  0  0  0  0  0  0  0  0  0
   -1.2278   -1.8323    0.0000 C   0  0  0  0  0  0  0  0  0  0  0  0
   -4.1514   -3.3260    0.0000 C   0  0  0  0  0  0  0  0  0  0  0  0
   -0.9732   -3.9486    0.0000 C   0  0  0  0  0  0  0  0  0  0  0  0
   -1.5270   -4.5616    0.0000 C   0  0  0  0  0  0  0  0  0  0  0  0
   -1.2727   -5.3456    0.0000 C   0  0  0  0  0  0  0  0  0  0  0  0
   -0.4650   -5.5178    0.0000 C   0  0  0  0  0  0  0  0  0  0  0  0
    0.0880   -4.8998    0.0000 C   0  0  0  0  0  0  0  0  0  0  0  0
   -0.1693   -4.1182    0.0000 C   0  0  0  0  0  0  0  0  0  0  0  0
   -2.7251   -0.8456    0.0000 N   0  0  0  0  0  0  0  0  0  0  0  0
   -2.0577   -0.3606    0.0000 N   0  0  0  0  0  0  0  0  0  0  0  0
   -2.3126    0.4240    0.0000 C   0  0  0  0  0  0  0  0  0  0  0  0
   -3.1377    0.4240    0.0000 C   0  0  0  0  0  0  0  0  0  0  0  0
   -3.3925   -0.3606    0.0000 C   0  0  0  0  0  0  0  0  0  0  0  0
   -1.8277    1.0914    0.0000 N   0  0  0  0  0  0  0  0  0  0  0  0
   -0.9998    1.0871    0.0000 C   0  0  0  0  0  0  0  0  0  0  0  0
   -0.7448    1.8717    0.0000 N   0  0  0  0  0  0  0  0  0  0  0  0
   -1.4123    2.3567    0.0000 C   0  0  0  0  0  0  0  0  0  0  0  0
   -2.0797    1.8717    0.0000 C   0  0  0  0  0  0  0  0  0  0  0  0
   -0.2091   -6.3021    0.0000 O   0  0  0  0  0  0  0  0  0  0  0  0
   -0.7604   -6.9159    0.0000 C   0  0  0  0  0  0  0  0  0  0  0  0
    0.3811   -3.5036    0.0000 C   0  0  0  0  0  0  0  0  0  0  0  0
   -0.5166    0.4184    0.0000 O   0  0  0  0  0  0  0  0  0  0  0  0
 14 15  1  0  0  0  0 
  3  6  2  0  0  0  0 
 15 16  2  0  0  0  0 
 16 11  1  0  0  0  0 
  7 11  1  0  0  0  0 
 17 18  1  0  0  0  0 
  6  7  1  0  0  0  0 
  7  8  1  0  0  0  0 
  8  9  1  0  0  0  0 
  9  5  1  0  0  0  0 
  5  4  2  0  0  0  0 
 18 19  2  0  0  0  0 
 19 20  1  0  0  0  0 
 20 21  2  0  0  0  0 
 21 17  1  0  0  0  0 
  4 17  1  0  0  0  0 
  2 10  1  0  0  0  0 
 19 22  1  0  0  0  0 
 22 23  1  0  0  0  0 
  5  6  1  0  0  0  0 
 11 12  2  0  0  0  0 
  1  2  2  0  0  0  0 
 23 24  1  0  0  0  0 
 24 25  1  0  0  0  0 
 25 26  1  0  0  0  0 
 26 22  1  0  0  0  0 
 12 13  1  0  0  0  0 
 14 27  1  0  0  0  0 
  1  4  1  0  0  0  0 
 27 28  1  0  0  0  0 
 13 14  2  0  0  0  0 
 16 29  1  0  0  0  0 
  2  3  1  0  0  0  0 
 23 30  2  0  0  0  0 
M  END