
  SciTegic10301317112D

 33 33  0  0  0  0            999 V2000
    2.1906   -4.4395    0.0000 S   0  0
   12.1357   -9.1747    0.0000 C   0  0
   12.3814   -8.3876    0.0000 C   0  0  1  0  0  0
    5.4765   -4.4270    0.0000 C   0  0
   13.1852   -8.2002    0.0000 C   0  0
   11.8192   -7.7837    0.0000 N   0  0
    3.0110   -4.4395    0.0000 C   0  0
   12.6980   -9.7827    0.0000 C   0  0
   10.9946   -7.7879    0.0000 C   0  0
    5.8971   -5.1392    0.0000 N   0  0
    2.1864   -5.2641    0.0000 O   0  0
    2.1906   -3.6149    0.0000 O   0  0
    7.1382   -5.8388    0.0000 C   0  0
    9.2704   -6.4135    0.0000 C   0  0
    4.6519   -4.4270    0.0000 C   0  0
    1.3618   -4.4353    0.0000 N   0  0
    9.7494   -7.0840    0.0000 N   0  0
    7.9628   -5.8388    0.0000 N   0  0
    5.8888   -3.7107    0.0000 O   0  0
   13.4309   -7.4131    0.0000 O   0  0
   13.4976   -9.5995    0.0000 O   0  0
   10.5865   -8.5083    0.0000 O   0  0
    6.7259   -6.5593    0.0000 O   0  0
    9.5995   -5.6639    0.0000 O   0  0
    3.4150   -3.7274    0.0000 C   0  0
    3.4275   -5.1517    0.0000 C   0  0
    4.2479   -5.1475    0.0000 C   0  0
    4.2354   -3.7149    0.0000 C   0  0
    6.7217   -5.1267    0.0000 C   0  0
   10.5740   -7.0757    0.0000 C   0  0
    8.4500   -6.5010    0.0000 C   0  0
   12.4564  -10.5698    0.0000 N   0  0
   13.7474   -8.8124    0.0000 O   0  0
  3  2  1  6
  3  6  1  0
  4 15  1  0
  5  3  1  0
  6  9  1  0
  7  1  1  0
  8  2  1  0
  9 30  1  0
 10  4  1  0
 11  1  2  0
 12  1  2  0
 13 29  1  0
 14 31  1  0
 15 27  2  0
 16  1  1  0
 17 14  1  0
 18 13  1  0
 19  4  2  0
 20  5  2  0
 21  8  2  0
 22  9  2  0
 23 13  2  0
 24 14  2  0
 25  7  1  0
 26  7  2  0
 27 26  1  0
 28 25  2  0
 29 10  1  0
 30 17  1  0
 31 18  1  0
 32  8  1  0
 33  5  1  0
 15 28  1  0
M  END