
          11280715132D 1   1.00000     0.00000     0

 29 31  0     0  0            999 V2000
    5.9875   -3.9792    0.0000 C   0  0  0  0  0  0           0  0  0
    5.9917   -4.8125    0.0000 C   0  0  0  0  0  0           0  0  0
    5.2667   -3.5750    0.0000 N   0  0  0  0  0  0           0  0  0
    5.2750   -5.2250    0.0000 C   0  0  0  0  0  0           0  0  0
    3.1875   -0.7375    0.0000 N   0  0  3  0  0  0           0  0  0
    6.7042   -5.2250    0.0000 C   0  0  0  0  0  0           0  0  0
    2.4667   -0.3250    0.0000 C   0  0  0  0  0  0           0  0  0
    4.7417   -1.2792    0.0000 N   0  0  3  0  0  0           0  0  0
    4.5542   -4.8125    0.0000 C   0  0  0  0  0  0           0  0  0
    4.5542   -3.9875    0.0000 C   0  0  0  0  0  0           0  0  0
    3.3417   -1.5417    0.0000 C   0  0  0  0  0  0           0  0  0
    3.8125   -0.2042    0.0000 C   0  0  0  0  0  0           0  0  0
    6.6125   -3.4417    0.0000 N   0  0  0  0  0  0           0  0  0
    6.7042   -6.0500    0.0000 O   0  0  0  0  0  0           0  0  0
    2.4667    0.5083    0.0000 C   0  0  0  0  0  0           0  0  0
    7.4167   -4.8042    0.0000 N   0  0  0  0  0  0           0  0  0
    4.1167   -1.8250    0.0000 C   0  0  0  0  0  0           0  0  0
    4.5875   -0.4667    0.0000 C   0  0  0  0  0  0           0  0  0
    3.1792    0.9208    0.0000 O   0  0  0  0  0  0           0  0  0
    5.5167   -1.5500    0.0000 C   0  0  0  0  0  0           0  0  0
    5.2750   -6.0500    0.0000 C   0  0  0  0  0  0           0  0  0
    5.6750   -2.3625    0.0000 C   0  0  0  0  0  0           0  0  0
    1.7542   -0.7375    0.0000 C   0  0  0  0  0  0           0  0  0
    6.4542   -2.6292    0.0000 C   0  0  0  0  0  0           0  0  0
    3.8417   -3.5750    0.0000 C   0  0  0  0  0  0           0  0  0
    1.7542    0.9208    0.0000 C   0  0  0  0  0  0           0  0  0
    3.9000    0.5125    0.0000 C   0  0  0  0  0  0           0  0  0
    1.0417   -0.3250    0.0000 C   0  0  0  0  0  0           0  0  0
    1.0417    0.5083    0.0000 C   0  0  0  0  0  0           0  0  0
  2  1  1  0     0  0
  3  1  2  0     0  0
  4  2  2  0     0  0
  5 12  1  0     0  0
  6  2  1  0     0  0
  7  5  1  0     0  0
  8 20  1  0     0  0
  9 10  2  0     0  0
 10  3  1  0     0  0
 11 17  1  0     0  0
 12 18  1  0     0  0
 13  1  1  0     0  0
 14  6  2  0     0  0
 15  7  1  0     0  0
 16  6  1  0     0  0
 17  8  1  0     0  0
 18  8  1  0     0  0
 19 15  1  0     0  0
 20 22  1  0     0  0
 21  4  1  0     0  0
 22 24  1  0     0  0
 23  7  2  0     0  0
 24 13  1  0     0  0
 25 10  1  0     0  0
 26 15  2  0     0  0
 27 19  1  0     0  0
 28 23  1  0     0  0
 29 28  2  0     0  0
  9  4  1  0     0  0
 11  5  1  0     0  0
 29 26  1  0     0  0
M  END