
  SciTegic09261414532D

 35 39  0  0  0  0            999 V2000
   17.2673   -8.3786    0.0000 N   0  0
   17.9808   -7.9647    0.0000 C   0  0
   17.9760   -7.1366    0.0000 C   0  0
   17.2617   -6.7302    0.0000 C   0  0
   18.6953   -8.3736    0.0000 C   0  0
   18.6864   -6.7206    0.0000 C   0  0  1  0  0  0
   19.4019   -7.1279    0.0000 C   0  0
   20.1123   -6.7120    0.0000 O   0  0
   19.4069   -7.9511    0.0000 O   0  0
   18.6815   -5.8974    0.0000 O   0  0
   19.3919   -5.4814    0.0000 C   0  0
   19.3869   -4.6583    0.0000 C   0  0
   20.1072   -5.8887    0.0000 C   0  0
   20.1027   -5.0642    0.0000 C   0  0
   17.2573   -5.9070    0.0000 C   0  0
   17.9692   -5.4973    0.0000 C   0  0
   17.9651   -4.6749    0.0000 C   0  0
   16.5439   -5.5071    0.0000 C   0  0
   16.5364   -4.6860    0.0000 C   0  0
   17.2549   -4.2671    0.0000 C   0  0
   17.2514   -3.4400    0.0000 O   0  0
   16.5310   -3.0256    0.0000 C   0  0
   15.8125   -3.4445    0.0000 C   0  0
   15.8143   -4.2779    0.0000 C   0  0
   16.5523   -7.1444    0.0000 C   0  0
   16.5539   -7.9684    0.0000 C   0  0
   15.9013   -6.6301    0.0000 C   0  0
   15.0940   -6.8190    0.0000 C   0  0
   14.7406   -7.5686    0.0000 C   0  0
   15.9117   -8.4879    0.0000 C   0  0
   15.1007   -8.3127    0.0000 C   0  0
   14.5454   -8.9267    0.0000 C   0  0
   14.8000   -9.7161    0.0000 C   0  0
   15.6150   -9.8881    0.0000 C   0  0
   16.1666   -9.2726    0.0000 C   0  0
 26  1  1  0
  1  2  2  0
  2  3  1  0
  3  4  2  0
  4 25  1  0
  2  5  1  0
  3  6  1  0
  6  7  1  0
  7  8  1  0
  7  9  2  0
  6 10  1  6
 10 11  1  0
 11 12  1  0
 11 13  1  0
 11 14  1  0
  4 15  1  0
 15 16  2  0
 16 17  1  0
 17 20  2  0
 19 18  2  0
 18 15  1  0
 19 20  1  0
 19 24  1  0
 20 21  1  0
 21 22  1  0
 22 23  1  0
 23 24  1  0
 25 26  2  0
 26 30  1  0
 25 27  1  0
 27 28  1  0
 31 29  1  0
 28 29  1  0
 30 31  2  0
 31 32  1  0
 32 33  2  0
 33 34  1  0
 34 35  2  0
 35 30  1  0
M  END