
          11280714462D 1   1.00000     0.00000     0

 22 23  0     0  0            999 V2000
    3.3042   -2.4042    0.0000 C   0  0  0  0  0  0           0  0  0
    3.3125   -3.0042    0.0000 N   0  0  3  0  0  0           0  0  0
    2.7875   -2.1042    0.0000 C   0  0  0  0  0  0           0  0  0
    3.0125   -3.9292    0.0000 N   0  0  0  0  0  0           0  0  0
    2.8292   -3.3500    0.0000 C   0  0  0  0  0  0           0  0  0
    2.7875   -1.5000    0.0000 C   0  0  0  0  0  0           0  0  0
    3.7917   -3.3625    0.0000 C   0  0  0  0  0  0           0  0  0
    3.6042   -3.9292    0.0000 C   0  0  0  0  0  0           0  0  0
    3.3042   -1.1917    0.0000 O   0  0  0  0  0  0           0  0  0
    3.8292   -2.1000    0.0000 C   0  0  0  0  0  0           0  0  0
    5.4292   -1.7500    0.0000 N   0  0  0  0  0  0           0  0  0
    4.4042   -1.3292    0.0000 C   0  0  3  0  0  0           0  0  0
    3.8250   -1.4917    0.0000 C   0  0  0  0  0  0           0  0  0
    4.8292   -1.7500    0.0000 C   0  0  0  0  0  0           0  0  0
    2.2667   -2.4042    0.0000 C   0  0  0  0  0  0           0  0  0
    4.5500   -0.7500    0.0000 O   0  0  0  0  0  0           0  0  0
    5.7292   -2.2667    0.0000 C   0  0  3  0  0  0           0  0  0
    2.2667   -1.2000    0.0000 C   0  0  0  0  0  0           0  0  0
    5.4292   -2.7875    0.0000 C   0  0  0  0  0  0           0  0  0
    6.3292   -2.2625    0.0000 C   0  0  0  0  0  0           0  0  0
    1.7500   -2.1042    0.0000 C   0  0  0  0  0  0           0  0  0
    1.7500   -1.5000    0.0000 C   0  0  0  0  0  0           0  0  0
  2  1  1  0     0  0
  3  1  1  0     0  0
  4  5  2  0     0  0
  5  2  1  0     0  0
  6  3  1  0     0  0
  7  2  1  0     0  0
  8  7  2  0     0  0
  9  6  1  0     0  0
 10  1  2  0     0  0
 11 14  1  0     0  0
 12 13  1  0     0  0
 13  9  1  0     0  0
 14 12  1  0     0  0
 15  3  2  0     0  0
 16 12  1  0     0  0
 17 11  1  0     0  0
 18  6  2  0     0  0
 19 17  1  0     0  0
 20 17  1  0     0  0
 21 15  1  0     0  0
 22 21  2  0     0  0
  8  4  1  0     0  0
 22 18  1  0     0  0
M  END