
  SciTegic01091216402D

 22 24  0  0  0  0            999 V2000
   -5.0014   -7.2166    0.0000 C   0  0
   -5.0026   -8.0440    0.0000 C   0  0
   -4.2878   -8.4569    0.0000 C   0  0
   -3.5713   -8.0435    0.0000 C   0  0
   -3.5742   -7.2130    0.0000 C   0  0
   -4.2896   -6.8039    0.0000 C   0  0
   -4.2920   -5.9789    0.0000 O   0  0
   -2.8643   -6.7991    0.0000 C   0  0
   -2.1480   -7.2106    0.0000 N   0  0
   -1.4356   -6.7961    0.0000 C   0  0
   -1.4383   -5.9703    0.0000 N   0  0
   -2.1593   -5.5606    0.0000 C   0  0
   -2.8688   -5.9775    0.0000 N   0  0
   -2.1653   -4.7357    0.0000 N   0  0
   -0.7198   -7.2063    0.0000 C   0  0
   -0.7171   -8.0313    0.0000 C   0  0
   -0.0018   -8.4418    0.0000 C   0  0
   -0.0149   -9.2634    0.0000 O   0  0
    0.7641   -9.5350    0.0000 C   0  0
    1.2631   -8.8780    0.0000 C   0  0
    0.7924   -8.2005    0.0000 C   0  0
    1.0023  -10.3249    0.0000 C   0  0
  5  6  2  0
 11 12  1  0
  6  1  1  0
 12 13  2  0
 13  8  1  0
  5  8  1  0
  1  2  2  0
 12 14  1  0
  6  7  1  0
 10 15  1  0
  3  4  2  0
 15 16  2  0
 16 17  1  0
 17 18  1  0
  8  9  2  0
  4  5  1  0
  9 10  1  0
  2  3  1  0
 18 19  1  0
 19 20  2  0
 20 21  1  0
 21 17  2  0
 10 11  2  0
 19 22  1  0
M  END