
          03140815522D 1   1.00000     0.00000     0

 13 14  0     0  0            999 V2000
    1.3019   -9.9607    0.0000 C   0  0  0  0  0  0           0  0  0
    1.3008  -10.7877    0.0000 C   0  0  0  0  0  0           0  0  0
    2.0152  -11.2003    0.0000 C   0  0  0  0  0  0           0  0  0
    2.7312  -10.7872    0.0000 C   0  0  0  0  0  0           0  0  0
    2.7284   -9.9571    0.0000 C   0  0  0  0  0  0           0  0  0
    2.0134   -9.5483    0.0000 C   0  0  0  0  0  0           0  0  0
    3.4460  -11.1983    0.0000 O   0  0  0  0  0  0           0  0  0
    3.4409   -9.5422    0.0000 C   0  0  0  0  0  0           0  0  0
    4.1986   -9.8775    0.0000 O   0  0  0  0  0  0           0  0  0
    4.7434   -9.2624    0.0000 C   0  0  0  0  0  0           0  0  0
    4.3179   -8.5413    0.0000 N   0  0  0  0  0  0           0  0  0
    3.5245   -8.7226    0.0000 N   0  0  0  0  0  0           0  0  0
    5.5675   -9.2613    0.0000 S   0  0  0  0  0  0           0  0  0
  1  2  2  0     0  0
  4  7  1  0     0  0
  3  4  2  0     0  0
  5  8  1  0     0  0
  4  5  1  0     0  0
  2  3  1  0     0  0
  5  6  2  0     0  0
  9 10  1  0     0  0
 10 11  2  0     0  0
 11 12  1  0     0  0
 12  8  2  0     0  0
  8  9  1  0     0  0
  6  1  1  0     0  0
 10 13  1  0     0  0
M  END