
          11280714522D 1   1.00000     0.00000     0

 32 36  0     0  0            999 V2000
    6.5167   -5.2417    0.0000 C   0  0  0  0  0  0           0  0  0
    7.2250   -4.8292    0.0000 C   0  0  0  0  0  0           0  0  0
    5.8000   -4.8292    0.0000 O   0  0  0  0  0  0           0  0  0
    6.5167   -6.0667    0.0000 C   0  0  0  0  0  0           0  0  0
    5.0875   -5.2500    0.0000 C   0  0  0  0  0  0           0  0  0
    5.0875   -6.0750    0.0000 C   0  0  0  0  0  0           0  0  0
    2.2667   -1.0667    0.0000 N   0  0  0  0  0  0           0  0  0
    5.8000   -6.4875    0.0000 C   0  0  0  0  0  0           0  0  0
    2.9375   -1.5417    0.0000 C   0  0  0  0  0  0           0  0  0
    3.6042   -1.0625    0.0000 S   0  0  0  0  0  0           0  0  0
    7.2167   -4.0042    0.0000 C   0  0  0  0  0  0           0  0  0
    2.5167   -0.2792    0.0000 C   0  0  0  0  0  0           0  0  0
    3.3417   -0.2792    0.0000 C   0  0  0  0  0  0           0  0  0
    4.3750   -4.8375    0.0000 C   0  0  0  0  0  0           0  0  0
    7.9417   -5.2375    0.0000 C   0  0  0  0  0  0           0  0  0
    7.2292   -6.4792    0.0000 C   0  0  0  0  0  0           0  0  0
    7.9417   -6.0667    0.0000 C   0  0  0  0  0  0           0  0  0
    5.8042   -7.3125    0.0000 O   0  0  0  0  0  0           0  0  0
    6.5042   -3.5917    0.0000 O   0  0  0  0  0  0           0  0  0
    4.3750   -4.0042    0.0000 C   0  0  0  0  0  0           0  0  0
    2.9417   -2.3667    0.0000 C   0  0  0  0  0  0           0  0  0
    3.6542   -2.7750    0.0000 O   0  0  0  0  0  0           0  0  0
    3.6625   -3.6000    0.0000 C   0  0  0  0  0  0           0  0  0
    7.9292   -3.5875    0.0000 O   0  0  0  0  0  0           0  0  0
    8.6625   -6.4750    0.0000 Br  0  0  0  0  0  0           0  0  0
    3.6625   -5.2500    0.0000 C   0  0  0  0  0  0           0  0  0
    2.9417   -4.8292    0.0000 C   0  0  0  0  0  0           0  0  0
    2.1000    0.4333    0.0000 C   0  0  0  0  0  0           0  0  0
    3.7542    0.4333    0.0000 C   0  0  0  0  0  0           0  0  0
    2.9500   -4.0042    0.0000 C   0  0  0  0  0  0           0  0  0
    2.5167    1.1500    0.0000 C   0  0  0  0  0  0           0  0  0
    3.3417    1.1500    0.0000 C   0  0  0  0  0  0           0  0  0
  2  1  1  0     0  0
  3  1  1  0     0  0
  4  1  2  0     0  0
  5  3  1  0     0  0
  6  8  1  0     0  0
  7  9  2  0     0  0
  8  4  1  0     0  0
  9 21  1  0     0  0
 10  9  1  0     0  0
 11  2  1  0     0  0
 12  7  1  0     0  0
 13 10  1  0     0  0
 14  5  1  0     0  0
 15  2  2  0     0  0
 16  4  1  0     0  0
 17 16  2  0     0  0
 18  8  2  0     0  0
 19 11  2  0     0  0
 20 14  1  0     0  0
 21 22  1  0     0  0
 22 23  1  0     0  0
 23 20  2  0     0  0
 24 11  1  0     0  0
 25 17  1  0     0  0
 26 14  2  0     0  0
 27 26  1  0     0  0
 28 12  1  0     0  0
 29 13  1  0     0  0
 30 27  2  0     0  0
 31 28  2  0     0  0
 32 29  2  0     0  0
 17 15  1  0     0  0
  6  5  2  0     0  0
 30 23  1  0     0  0
 13 12  2  0     0  0
 31 32  1  0     0  0
M  END