
  Mrv0541 04051115152D          

 18 19  0  0  0  0            999 V2000
   -0.3767   -0.2681    0.0000 C   0  0  0  0  0  0  0  0  0  0  0  0
    0.3377   -0.6806    0.0000 C   0  0  0  0  0  0  0  0  0  0  0  0
    0.3377   -1.5056    0.0000 C   0  0  0  0  0  0  0  0  0  0  0  0
   -0.3767   -1.9181    0.0000 C   0  0  0  0  0  0  0  0  0  0  0  0
   -1.0912   -1.5056    0.0000 C   0  0  0  0  0  0  0  0  0  0  0  0
   -1.0912   -0.6806    0.0000 C   0  0  0  0  0  0  0  0  0  0  0  0
   -0.3767    0.5569    0.0000 O   0  0  0  0  0  0  0  0  0  0  0  0
    0.3377    0.9694    0.0000 C   0  0  0  0  0  0  0  0  0  0  0  0
    0.3377    1.7944    0.0000 C   0  0  0  0  0  0  0  0  0  0  0  0
    1.0522    2.2069    0.0000 C   0  0  0  0  0  0  0  0  0  0  0  0
    1.7667    1.7944    0.0000 C   0  0  0  0  0  0  0  0  0  0  0  0
    1.7667    0.9694    0.0000 C   0  0  0  0  0  0  0  0  0  0  0  0
    1.0522    0.5569    0.0000 C   0  0  0  0  0  0  0  0  0  0  0  0
   -0.3767   -2.7431    0.0000 C   0  0  0  0  0  0  0  0  0  0  0  0
   -1.0912   -3.1556    0.0000 O   0  0  0  0  0  0  0  0  0  0  0  0
    2.4811    2.2069    0.0000 Cl  0  0  0  0  0  0  0  0  0  0  0  0
   -0.3767    2.2069    0.0000 Cl  0  0  0  0  0  0  0  0  0  0  0  0
    1.0522   -0.2681    0.0000 O   0  0  0  0  0  0  0  0  0  0  0  0
  1  2  2  0  0  0  0
  1  6  1  0  0  0  0
  1  7  1  0  0  0  0
  2  3  1  0  0  0  0
  2 18  1  0  0  0  0
  3  4  2  0  0  0  0
  4  5  1  0  0  0  0
 14  4  1  0  0  0  0
  5  6  2  0  0  0  0
  8  7  1  0  0  0  0
  8  9  2  0  0  0  0
 13  8  1  0  0  0  0
 10  9  1  0  0  0  0
  9 17  1  0  0  0  0
 10 11  2  0  0  0  0
 11 12  1  0  0  0  0
 11 16  1  0  0  0  0
 12 13  2  0  0  0  0
 14 15  2  0  0  0  0
M  END