
  SciTegic01161211242D

 33 36  0  0  0  0            999 V2000
    1.5098  -15.4144    0.0000 C   0  0
    2.5040  -15.3067    0.0000 O   0  0
    2.9078  -14.3919    0.0000 C   0  0
    2.3175  -13.5847    0.0000 O   0  0
    3.9020  -14.2842    0.0000 C   0  0
    4.4930  -15.0973    0.0000 C   0  0
    5.4872  -14.9897    0.0000 C   0  0
    5.8964  -14.0772    0.0000 C   0  0
    5.3054  -13.2641    0.0000 C   0  0
    5.7146  -12.3516    0.0000 N   0  0
    5.1291  -11.5410    0.0000 C   0  0
    4.1343  -11.6428    0.0000 O   0  0
    5.5383  -10.6286    0.0000 N   0  0
    4.9527   -9.8180    0.0000 C   0  0
    3.9512   -9.8164    0.0000 C   0  0
    3.6462   -8.8642    0.0000 C   0  0
    4.4544   -8.2746    0.0000 N   0  0
    5.2660   -8.8667    0.0000 C   0  0
    4.4544   -7.2746    0.0000 C   0  0
    3.5870   -6.7770    0.0000 C   0  0
    3.5870   -5.7719    0.0000 C   0  0
    4.4544   -5.2644    0.0000 N   0  0
    5.3218   -5.7719    0.0000 C   0  0
    6.1893   -5.2744    0.0000 N   0  0
    6.1922   -4.2744    0.0000 C   0  0
    5.3216   -3.7719    0.0000 C   0  0
    5.3244   -2.7718    0.0000 C   0  0
    6.1890   -2.2693    0.0000 C   0  0
    6.1875   -1.2693    0.0000 F   0  0
    7.0596   -2.7718    0.0000 C   0  0
    7.0656   -3.7769    0.0000 C   0  0
    5.3218   -6.7770    0.0000 N   0  0
    4.3052  -13.3635    0.0000 C   0  0
  1  2  1  0
  2  3  1  0
  3  4  2  0
  3  5  1  0
  5 33  2  0
  5  6  1  0
  6  7  2  0
  7  8  1  0
  8  9  2  0
  9 10  1  0
 10 11  1  0
 11 12  2  0
 11 13  1  0
 13 14  1  0
 14 18  1  0
 14 15  1  0
 15 16  1  0
 16 17  1  0
 17 18  1  0
 17 19  1  0
 19 32  2  0
 19 20  1  0
 20 21  2  0
 21 22  1  0
 22 23  2  0
 23 24  1  0
 24 25  1  0
 25 31  2  0
 25 26  1  0
 26 27  2  0
 27 28  1  0
 28 29  1  0
 28 30  2  0
 30 31  1  0
 23 32  1  0
  9 33  1  0
M  END