
  SciTegic09261414462D

 23 22  0  0  0  0            999 V2000
   10.6978  -27.0540    0.0000 N   0  3
    7.8665  -26.9797    0.0000 N   0  3
    8.5599  -27.4131    0.0000 C   0  0
    9.9714  -27.4378    0.0000 C   0  0
    9.2780  -27.0168    0.0000 C   0  0
   11.3953  -27.4750    0.0000 C   0  0
    7.1484  -27.3759    0.0000 C   0  0
    7.8871  -26.1749    0.0000 C   0  0
   10.7143  -26.2244    0.0000 C   0  0
    6.4674  -26.1377    0.0000 C   0  0
   12.1382  -26.2616    0.0000 C   0  0
   12.1134  -27.0787    0.0000 C   0  0
    6.4550  -26.9549    0.0000 C   0  0
   11.4407  -25.8282    0.0000 C   0  0
    7.1938  -25.7539    0.0000 C   0  0
   12.8583  -25.8753    0.0000 C   0  0
   13.5529  -26.3059    0.0000 N   0  0
   12.8839  -25.0585    0.0000 O   0  0
    7.1314  -28.1929    0.0000 C   0  0
    6.4154  -28.5868    0.0000 N   0  0
    6.3984  -29.4038    0.0000 O   0  0
   10.8629  -28.6182    0.0000 Cl  0  5
    7.8913  -28.7090    0.0000 Cl  0  5
  2  3  1  0
  3  5  1  0
  4  1  1  0
  5  4  1  0
  6  1  1  0
  7  2  2  0
  8  2  1  0
  9  1  2  0
 10 13  2  0
 11 12  1  0
 12  6  2  0
 13  7  1  0
 14  9  1  0
 15  8  2  0
 14 11  2  0
 15 10  1  0
 11 16  1  0
 16 17  1  0
 16 18  2  0
  7 19  1  0
 19 20  2  0
 20 21  1  0
M  CHG  4   1   1   2   1  22  -1  23  -1
M  END