
  SciTegic06271217572D

 20 21  0  0  0  0            999 V2000
   24.1847  -21.6617    0.0000 S   0  0
   23.7585  -22.3681    0.0000 O   0  0
   24.5834  -22.3839    0.0000 O   0  0
   23.4782  -21.2356    0.0000 N   0  0
   24.9027  -20.4208    0.0000 C   0  0
   24.9016  -21.2482    0.0000 C   0  0
   25.6164  -21.6610    0.0000 C   0  0
   26.3328  -21.2477    0.0000 C   0  0
   26.3300  -20.4172    0.0000 C   0  0
   25.6146  -20.0080    0.0000 C   0  0
   27.0429  -20.0020    0.0000 C   0  0
   27.7589  -20.4118    0.0000 C   0  0
   27.0398  -19.1770    0.0000 O   0  0
   28.4718  -19.9966    0.0000 S   0  0
   29.1878  -20.4064    0.0000 C   0  0
   29.1878  -21.2303    0.0000 N   0  0
   29.9030  -21.6400    0.0000 C   0  0
   30.6169  -21.2247    0.0000 C   0  0
   30.6111  -20.3955    0.0000 C   0  0
   29.8954  -19.9895    0.0000 N   0  0
  6  1  1  0
  5  6  2  0
  9 11  1  0
 11 12  1  0
  6  7  1  0
 11 13  2  0
  1  4  1  0
 12 14  1  0
  7  8  2  0
 14 15  1  0
  2  1  2  0
 15 16  2  0
  8  9  1  0
 16 17  1  0
  1  3  2  0
 17 18  2  0
  9 10  2  0
 18 19  1  0
 10  5  1  0
 19 20  2  0
 20 15  1  0
M  END