
  SciTegic05171617282D

 25 27  0  0  0  0            999 V2000
   -2.8854    8.1112    0.0000 C   0  0
   -3.9222    7.5071    0.0000 C   0  0
   -3.9172    6.0063    0.0000 O   0  0
   -5.2140    5.2507    0.0000 C   0  0
   -6.5144    5.9982    0.0000 C   0  0
   -7.8120    5.2457    0.0000 C   0  0
   -7.8092    3.7457    0.0000 C   0  0
   -6.5087    2.9982    0.0000 C   0  0
   -5.2110    3.7506    0.0000 C   0  0
   -3.9114    3.0001    0.0000 N   0  0
   -2.8722    3.6003    0.0000 C   0  0
   -3.9106    1.4992    0.0000 S   0  0
   -4.9500    2.0989    0.0000 O   0  0
   -4.9497    0.8990    0.0000 O   0  0
   -2.6111    0.7486    0.0000 C   0  0
   -2.6111   -0.7486    0.0000 C   0  0
   -1.2964   -1.4973    0.0000 C   0  0
    0.0000   -0.7486    0.0000 C   0  0
    1.2964   -1.4973    0.0000 N   0  0
    2.5929   -0.7486    0.0000 C   0  0
    3.6321   -1.3486    0.0000 O   0  0
    2.5929    0.7486    0.0000 C   0  0
    1.2964    1.4973    0.0000 C   0  0
    0.0000    0.7486    0.0000 C   0  0
   -1.2964    1.4973    0.0000 C   0  0
  1  2  1  0
  2  3  1  0
  3  4  1  0
  4  5  2  0
  5  6  1  0
  6  7  2  0
  7  8  1  0
  8  9  2  0
  4  9  1  0
  9 10  1  0
 10 11  1  0
 10 12  1  0
 12 13  2  0
 12 14  2  0
 12 15  1  0
 15 16  2  0
 16 17  1  0
 17 18  2  0
 18 19  1  0
 19 20  1  0
 20 21  2  0
 20 22  1  0
 22 23  2  0
 23 24  1  0
 18 24  1  0
 24 25  2  0
 15 25  1  0
M  END