
          02060813472D 1   1.00000     0.00000     0

 78 81  0     1  0            999 V2000
    5.9949  -16.5687    0.0000 C   0  0  0  0  0  0           0  0  0
    5.2783  -16.1543    0.0000 S   0  0  0  0  0  0           0  0  0
    4.5591  -16.5618    0.0000 S   0  0  0  0  0  0           0  0  0
    3.8420  -16.1402    0.0000 C   0  0  0  0  0  0           0  0  0
    3.8562  -15.3137    0.0000 C   0  0  0  0  0  0           0  0  0
    3.1412  -14.8941    0.0000 C   0  0  0  0  0  0           0  0  0
    3.1505  -14.0695    0.0000 N   0  0  0  0  0  0           0  0  0
    2.4157  -15.2951    0.0000 O   0  0  0  0  0  0           0  0  0
    2.4341  -13.6449    0.0000 C   0  0  2  0  0  0           0  0  0
    2.4426  -12.8203    0.0000 C   0  0  0  0  0  0           0  0  0
    1.7188  -14.0502    0.0000 C   0  0  0  0  0  0           0  0  0
    1.0060  -13.6289    0.0000 C   0  0  0  0  0  0           0  0  0
    1.0176  -12.8058    0.0000 C   0  0  0  0  0  0           0  0  0
    0.3015  -12.3842    0.0000 C   0  0  0  0  0  0           0  0  0
   -0.4189  -12.7882    0.0000 C   0  0  0  0  0  0           0  0  0
   -0.4232  -13.6299    0.0000 C   0  0  0  0  0  0           0  0  0
    0.2888  -14.0420    0.0000 C   0  0  0  0  0  0           0  0  0
    3.1689  -12.4193    0.0000 N   0  0  0  0  0  0           0  0  0
    1.7276  -12.4048    0.0000 O   0  0  0  0  0  0           0  0  0
    3.9089  -12.3919    0.0000 C   0  0  2  0  0  0           0  0  0
    4.5916  -12.3947    0.0000 C   0  0  0  0  0  0           0  0  0
    5.3066  -12.8485    0.0000 N   0  0  0  0  0  0           0  0  0
    4.5994  -11.5993    0.0000 O   0  0  0  0  0  0           0  0  0
    6.0265  -12.4348    0.0000 C   0  0  2  0  0  0           0  0  0
    6.7415  -12.8566    0.0000 C   0  0  0  0  0  0           0  0  0
    6.0352  -11.6084    0.0000 C   0  0  0  0  0  0           0  0  0
    6.7545  -11.2009    0.0000 C   0  0  0  0  0  0           0  0  0
    6.7589  -10.3764    0.0000 C   0  0  0  0  0  0           0  0  0
    7.4783   -9.9679    0.0000 N   0  0  0  0  0  0           0  0  0
    6.0439   -9.9609    0.0000 O   0  0  0  0  0  0           0  0  0
    7.4607  -12.4533    0.0000 O   0  0  0  0  0  0           0  0  0
    6.7308  -13.6812    0.0000 N   0  0  0  0  0  0           0  0  0
    7.4456  -14.1027    0.0000 C   0  0  2  0  0  0           0  0  0
    7.4379  -14.9272    0.0000 C   0  0  0  0  0  0           0  0  0
    8.1599  -13.6981    0.0000 C   0  0  0  0  0  0           0  0  0
    8.8795  -14.1219    0.0000 C   0  0  0  0  0  0           0  0  0
    9.5947  -13.7063    0.0000 N   0  0  0  0  0  0           0  0  0
    8.8710  -14.9464    0.0000 O   0  0  0  0  0  0           0  0  0
    6.7188  -15.3355    0.0000 N   0  0  0  0  0  0           0  0  0
    8.1446  -15.3433    0.0000 O   0  0  0  0  0  0           0  0  0
    6.7092  -16.1674    0.0000 C   0  0  2  0  0  0           0  0  0
    7.4242  -16.5817    0.0000 C   0  0  0  0  0  0           0  0  0
    8.1400  -16.1762    0.0000 O   0  0  0  0  0  0           0  0  0
    3.9013  -13.1259    0.0000 C   0  0  2  0  0  0           0  0  0
    3.9083  -11.5667    0.0000 H   0  0  0  0  0  0           0  0  0
    4.5147  -13.4625    0.0000 C   0  0  0  0  0  0           0  0  0
    4.4760  -14.3661    0.0000 C   0  0  0  0  0  0           0  0  0
    3.2312  -13.5216    0.0000 C   0  0  0  0  0  0           0  0  0
    7.4157  -17.4067    0.0000 N   0  0  3  0  0  0           0  0  0
    6.6998  -17.8113    0.0000 C   0  0  0  0  0  0           0  0  0
    8.1143  -18.6489    0.0000 C   0  0  0  0  0  0           0  0  0
    8.1263  -17.8246    0.0000 C   0  0  2  0  0  0           0  0  0
    8.8487  -17.4123    0.0000 C   0  0  0  0  0  0           0  0  0
    9.5584  -17.8324    0.0000 N   0  0  0  0  0  0           0  0  0
    8.8565  -16.5872    0.0000 O   0  0  0  0  0  0           0  0  0
   10.2727  -17.4282    0.0000 C   0  0  2  0  0  0           0  0  0
   10.9855  -17.8408    0.0000 C   0  0  0  0  0  0           0  0  0
   10.2846  -16.6031    0.0000 C   0  0  0  0  0  0           0  0  0
   10.9855  -18.6702    0.0000 O   0  0  0  0  0  0           0  0  0
    7.3965  -19.0562    0.0000 C   0  0  0  0  0  0           0  0  0
    6.6899  -18.6286    0.0000 C   0  0  0  0  0  0           0  0  0
    5.9746  -19.0354    0.0000 C   0  0  0  0  0  0           0  0  0
    5.9617  -19.8618    0.0000 C   0  0  0  0  0  0           0  0  0
    6.6743  -20.2832    0.0000 C   0  0  0  0  0  0           0  0  0
    7.3891  -19.8721    0.0000 C   0  0  0  0  0  0           0  0  0
   -1.8461  -12.7860    0.0000 C   0  0  0  0  0  0           0  0  0
   -2.5589  -12.3722    0.0000 C   0  0  0  0  0  0           0  0  0
   10.6872  -15.8841    0.0000 C   0  0  3  0  0  0           0  0  0
   11.5122  -15.8792    0.0000 C   0  0  0  0  0  0           0  0  0
   10.2695  -15.1775    0.0000 C   0  0  0  0  0  0           0  0  0
   11.7037  -17.4283    0.0000 N   0  0  0  0  0  0           0  0  0
   12.4217  -17.8408    0.0000 C   0  0  3  0  0  0           0  0  0
   12.8344  -17.1270    0.0000 C   0  0  0  0  0  0           0  0  0
   13.1357  -18.2535    0.0000 C   0  0  0  0  0  0           0  0  0
   13.1357  -19.0827    0.0000 O   0  0  0  0  0  0           0  0  0
   13.8475  -17.8408    0.0000 N   0  0  0  0  0  0           0  0  0
   12.0092  -18.5569    0.0000 C   0  0  0  0  0  0           0  0  0
   -1.1319  -12.3731    0.0000 O   0  0  0  0  0  0           0  0  0
 41  1  1  0     0  0
  1  2  1  0     0  0
  2  3  1  0     0  0
  3  4  1  0     0  0
  4  5  1  0     0  0
  5  6  1  0     0  0
  6  7  1  0     0  0
  6  8  2  0     0  0
  7  9  1  0     0  0
  9 10  1  0     0  0
  9 11  1  1     0  0
 11 12  1  0     0  0
 12 13  2  0     0  0
 13 14  1  0     0  0
 14 15  2  0     0  0
 15 16  1  0     0  0
 16 17  2  0     0  0
 17 12  1  0     0  0
 10 18  1  0     0  0
 10 19  2  0     0  0
 18 20  1  0     0  0
 20 21  1  0     0  0
 21 22  1  0     0  0
 21 23  2  0     0  0
 22 24  1  0     0  0
 24 25  1  0     0  0
 24 26  1  1     0  0
 26 27  1  0     0  0
 27 28  1  0     0  0
 28 29  1  0     0  0
 28 30  2  0     0  0
 25 31  2  0     0  0
 25 32  1  0     0  0
 32 33  1  0     0  0
 33 34  1  0     0  0
 33 35  1  1     0  0
 35 36  1  0     0  0
 36 37  1  0     0  0
 36 38  2  0     0  0
 34 39  1  0     0  0
 34 40  2  0     0  0
 39 41  1  0     0  0
 41 42  1  6     0  0
 42 43  2  0     0  0
 20 44  1  0     0  0
 20 45  1  1     0  0
 44 46  1  0     0  0
 46 47  1  0     0  0
 44 48  1  6     0  0
 42 49  1  0     0  0
 49 50  1  0     0  0
 49 52  1  0     0  0
 50 61  1  0     0  0
 60 51  1  0     0  0
 51 52  1  0     0  0
 52 53  1  1     0  0
 53 54  1  0     0  0
 53 55  2  0     0  0
 54 56  1  0     0  0
 56 57  1  0     0  0
 56 58  1  1     0  0
 57 59  2  0     0  0
 60 61  2  0     0  0
 61 62  1  0     0  0
 62 63  2  0     0  0
 63 64  1  0     0  0
 64 65  2  0     0  0
 65 60  1  0     0  0
 66 67  1  0     0  0
 58 68  1  0     0  0
 68 69  1  0     0  0
 68 70  1  0     0  0
 57 71  1  0     0  0
 71 72  1  0     0  0
 72 73  1  0     0  0
 72 74  1  0     0  0
 74 75  2  0     0  0
 74 76  1  0     0  0
 72 77  1  0     0  0
 15 78  1  0     0  0
 78 66  1  0     0  0
M  END