
  SciTegic05061116452D

 33 36  0  0  0  0            999 V2000
    8.9932  -17.7459    0.0000 N   0  0
    9.7049  -17.3373    0.0000 C   0  0
    9.7049  -16.5123    0.0000 N   0  0
    8.9932  -16.0958    0.0000 C   0  0
    8.2815  -17.3373    0.0000 C   0  0
    8.2815  -16.5077    0.0000 C   0  0
    7.4925  -16.2512    0.0000 N   0  0
    7.0048  -16.9224    0.0000 C   0  0
    7.4924  -17.5936    0.0000 N   0  0
    7.2374  -18.3782    0.0000 C   0  0
    6.4305  -18.5497    0.0000 C   0  0
    6.1755  -19.3343    0.0000 O   0  0
    5.8784  -17.9365    0.0000 O   0  0
    8.9951  -15.2708    0.0000 N   0  0
   10.4189  -17.7507    0.0000 N   0  0
   11.1339  -17.3390    0.0000 C   0  0
   11.8478  -17.7523    0.0000 C   0  0
    9.7106  -14.8600    0.0000 C   0  0
   11.8423  -18.5758    0.0000 C   0  0
   12.5554  -18.9890    0.0000 C   0  0
   13.2714  -18.5773    0.0000 C   0  0
   13.2697  -17.7481    0.0000 C   0  0
   12.5560  -17.3384    0.0000 C   0  0
   13.9821  -18.9869    0.0000 C   0  0
   13.9802  -19.8129    0.0000 C   0  0
   14.6907  -20.2252    0.0000 C   0  0
   15.4076  -19.8162    0.0000 C   0  0
   15.4094  -18.9902    0.0000 C   0  0
   14.6944  -18.5732    0.0000 C   0  0
   10.4241  -15.2743    0.0000 C   0  0
   11.1396  -14.8634    0.0000 C   0  0
   11.8530  -15.2776    0.0000 C   0  0
   11.1415  -14.0384    0.0000 C   0  0
 15 16  1  0
  6  7  1  0
 16 17  1  0
  7  8  2  0
 14 18  1  0
  8  9  1  0
 17 19  2  0
  9  5  1  0
 19 20  1  0
  3  4  2  0
 20 21  2  0
  9 10  1  0
 21 22  1  0
  5  6  2  0
 22 23  2  0
 23 17  1  0
 24 25  1  0
 10 11  1  0
 11 12  1  0
  6  4  1  0
 11 13  2  0
  5  1  1  0
 24 29  1  0
 25 26  1  0
 26 27  1  0
 27 28  1  0
 28 29  1  0
 21 24  1  0
  4 14  1  0
 18 30  1  0
  1  2  2  0
 30 31  1  0
  2 15  1  0
 31 32  1  0
  2  3  1  0
 31 33  1  0
M  END