
  CDK    9/16/09,9:40

 32 34  0  0  0  0  0  0  0  0999 V2000
    8.7828  -12.6456    0.0000 C   0  0  0  0  0  0  0  0  0  0  0  0
    8.3854  -13.3713    0.0000 C   0  0  0  0  0  0  0  0  0  0  0  0
    8.8150  -14.0762    0.0000 C   0  0  0  0  0  0  0  0  0  0  0  0
    9.6054  -12.6244    0.0000 C   0  0  0  0  0  0  0  0  0  0  0  0
   10.0373  -13.3263    0.0000 C   0  0  0  0  0  0  0  0  0  0  0  0
    9.6434  -14.0580    0.0000 C   0  0  0  0  0  0  0  0  0  0  0  0
   10.2177  -14.6588    0.0000 N   0  0  0  0  0  0  0  0  0  0  0  0
   10.9665  -14.2983    0.0000 C   0  0  0  0  0  0  0  0  0  0  0  0
   10.8550  -13.4748    0.0000 O   0  0  0  0  0  0  0  0  0  0  0  0
   11.6930  -14.6893    0.0000 N   0  0  0  0  0  0  0  0  0  0  0  0
   11.7176  -15.5139    0.0000 C   0  0  0  0  0  0  0  0  0  0  0  0
   12.3948  -14.2556    0.0000 C   0  0  0  0  0  0  0  0  0  0  0  0
   13.1213  -14.6466    0.0000 C   0  0  0  0  0  0  0  0  0  0  0  0
   13.8231  -14.2130    0.0000 C   0  0  0  0  0  0  0  0  0  0  0  0
   14.5477  -14.6046    0.0000 C   0  0  0  0  0  0  0  0  0  0  0  0
   15.2491  -14.1716    0.0000 C   0  0  0  0  0  0  0  0  0  0  0  0
   15.2249  -13.3461    0.0000 C   0  0  0  0  0  0  0  0  0  0  0  0
   14.4934  -12.9554    0.0000 C   0  0  0  0  0  0  0  0  0  0  0  0
   13.7950  -13.3907    0.0000 C   0  0  0  0  0  0  0  0  0  0  0  0
   15.9261  -12.9115    0.0000 O   0  0  0  0  0  0  0  0  0  0  0  0
   12.4441  -15.9049    0.0000 C   0  0  0  0  0  0  0  0  0  0  0  0
   13.1459  -15.4713    0.0000 C   0  0  0  0  0  0  0  0  0  0  0  0
   13.8724  -15.8622    0.0000 C   0  0  0  0  0  0  0  0  0  0  0  0
   14.5742  -15.4286    0.0000 C   0  0  0  0  0  0  0  0  0  0  0  0
   15.3007  -15.8196    0.0000 C   0  0  0  0  0  0  0  0  0  0  0  0
   16.0026  -15.3859    0.0000 C   0  0  0  0  0  0  0  0  0  0  0  0
   16.6531  -13.3015    0.0000 C   0  0  0  0  0  0  0  0  0  0  0  0
   17.3625  -13.7125    0.0000 C   0  0  0  0  0  0  0  0  0  0  0  0
   17.0549  -12.5810    0.0000 C   0  0  0  0  0  0  0  0  0  0  0  0
   17.8799  -12.5688    0.0000 O   0  0  0  0  0  0  0  0  0  0  0  0
   16.6319  -11.8727    0.0000 O   0  0  0  0  0  0  0  0  0  0  0  0
   16.2559  -14.0246    0.0000 C   0  0  0  0  0  0  0  0  0  0  0  0
  5  4  2  0  0  0  0 
 15 16  1  0  0  0  0 
  6  7  1  0  0  0  0 
 16 17  2  0  0  0  0 
  7  8  2  0  0  0  0 
 17 18  1  0  0  0  0 
  8  9  1  0  0  0  0 
 18 19  2  0  0  0  0 
 19 14  1  0  0  0  0 
  9  5  1  0  0  0  0 
 17 20  1  0  0  0  0 
  4  1  1  0  0  0  0 
 11 21  1  0  0  0  0 
  8 10  1  0  0  0  0 
 21 22  1  0  0  0  0 
  5  6  1  0  0  0  0 
 22 23  1  0  0  0  0 
 10 11  1  0  0  0  0 
 23 24  1  0  0  0  0 
 24 25  1  0  0  0  0 
 10 12  1  0  0  0  0 
 25 26  1  0  0  0  0 
  2  3  1  0  0  0  0 
 20 27  1  0  0  0  0 
 12 13  1  0  0  0  0 
 27 28  1  0  0  0  0 
  3  6  2  0  0  0  0 
 27 29  1  0  0  0  0 
 13 14  1  0  0  0  0 
 29 30  1  0  0  0  0 
  1  2  2  0  0  0  0 
 29 31  2  0  0  0  0 
 14 15  2  0  0  0  0 
 27 32  1  0  0  0  0 
M  END