
  SciTegic01161211232D

 23 24  0  0  0  0            999 V2000
    1.5548   -3.6021    0.0000 O   0  0
    2.5951   -3.0039    0.0000 C   0  0
    2.5973   -1.5031    0.0000 N   0  0
    1.2990   -0.7500    0.0000 C   0  0
    1.2990    0.7500    0.0000 C   0  0
    0.0000    1.5000    0.0000 C   0  0
   -1.2990    0.7500    0.0000 C   0  0
   -1.2990   -0.7500    0.0000 C   0  0
    0.0000   -1.5000    0.0000 N   0  0
    3.8933   -3.7570    0.0000 C   0  0
    5.1943   -3.0089    0.0000 C   0  0
    6.4932   -3.7593    0.0000 C   0  0
    7.7925   -3.0098    0.0000 C   0  0
    7.7931   -1.5098    0.0000 C   0  0
    6.4943   -0.7593    0.0000 C   0  0
    5.1950   -1.5088    0.0000 C   0  0
    3.8912   -5.2578    0.0000 C   0  0
    5.1876   -6.0124    0.0000 C   0  0
    5.1824   -7.5124    0.0000 C   0  0
    3.8808   -8.2579    0.0000 C   0  0
    2.5844   -7.5034    0.0000 C   0  0
    2.5895   -6.0034    0.0000 C   0  0
   10.2931   -3.3789    0.0000 Cl  0  0
  1  2  2  0
  2  3  1  0
  3  4  1  0
  4  5  1  0
  5  6  1  0
  6  7  1  0
  7  8  1  0
  8  9  1  0
  9  4  1  0
  2 10  1  0
 10 11  1  0
 11 12  1  0
 12 13  1  0
 13 14  1  0
 14 15  1  0
 15 16  1  0
 16 11  1  0
 10 17  1  0
 17 18  2  0
 18 19  1  0
 19 20  2  0
 20 21  1  0
 21 22  2  0
 22 17  1  0
M  END