
  SciTegic09081514162D

 28 31  0  0  0  0            999 V2000
    1.7138    1.2033    0.0000 N   0  0
    2.1749    2.6315    0.0000 C   0  0  1  0  0  0
    0.2917    0.7475    0.0000 C   0  0
    2.5889    0.0182    0.0000 C   0  0
    3.5533    3.1779    0.0000 C   0  0  1  0  0  0
    1.1949    3.7514    0.0000 O   0  0
    0.2917   -0.7475    0.0000 C   0  0
   -1.0028    1.5132    0.0000 N   0  0
    1.7138   -1.2033    0.0000 N   0  0
    3.4400    4.6736    0.0000 C   0  0  1  0  0  0
    4.5707    2.5416    0.0000 O   0  0
    1.9824    5.0281    0.0000 C   0  0  1  0  0  0
   -1.0028   -1.5132    0.0000 C   0  0
   -2.3155    0.7475    0.0000 C   0  0
    4.3547    5.4503    0.0000 O   0  0
    1.4103    6.4127    0.0000 C   0  0
   -2.3155   -0.7475    0.0000 N   0  0
   -0.9991   -2.7132    0.0000 N   0  0
    0.2208    6.5711    0.0000 O   0  0
    4.0872    0.0320    0.0000 N   0  0
    4.8506   -1.2602    0.0000 C   0  0
    6.3513   -1.2462    0.0000 C   0  0
    7.1161   -2.5367    0.0000 C   0  0
    8.6160   -2.5196    0.0000 C   0  0
    9.3512   -1.2122    0.0000 C   0  0
    8.5865    0.0783    0.0000 C   0  0
    7.0866    0.0613    0.0000 C   0  0
   10.5511   -1.1985    0.0000 C   0  0
  2  1  1  6
  1  3  1  0
  1  4  1  0
  5  2  1  0
  2  6  1  0
  3  7  2  0
  3  8  1  0
  4  9  2  0
  5 10  1  0
  5 11  1  1
  6 12  1  0
  7 13  1  0
  8 14  2  0
 10 15  1  1
 12 16  1  6
 13 17  2  0
 13 18  1  0
 16 19  1  0
  7  9  1  0
 10 12  1  0
 14 17  1  0
  4 20  1  0
 20 21  1  0
 21 22  1  0
 22 23  2  0
 23 24  1  0
 24 25  2  0
 25 26  1  0
 26 27  2  0
 27 22  1  0
 25 28  1  0
M  END