
          11280715492D 1   1.00000     0.00000     0

 17 18  0     0  0            999 V2000
   -3.0306   -4.2458    0.0000 C   0  0  0  0  0  0           0  0  0
   -3.0318   -5.0732    0.0000 C   0  0  0  0  0  0           0  0  0
   -2.3169   -5.4860    0.0000 C   0  0  0  0  0  0           0  0  0
   -1.6005   -5.0727    0.0000 C   0  0  0  0  0  0           0  0  0
   -1.6034   -4.2422    0.0000 C   0  0  0  0  0  0           0  0  0
   -2.3187   -3.8330    0.0000 C   0  0  0  0  0  0           0  0  0
   -0.8935   -3.8283    0.0000 C   0  0  0  0  0  0           0  0  0
   -0.1772   -4.2398    0.0000 C   0  0  0  0  0  0           0  0  0
    0.5352   -3.8253    0.0000 C   0  0  0  0  0  0           0  0  0
    0.5326   -2.9994    0.0000 C   0  0  0  0  0  0           0  0  0
   -0.1885   -2.5898    0.0000 C   0  0  0  0  0  0           0  0  0
   -0.8979   -3.0067    0.0000 C   0  0  0  0  0  0           0  0  0
    1.2449   -2.5833    0.0000 C   0  0  0  0  0  0           0  0  0
    1.9615   -2.9921    0.0000 O   0  0  0  0  0  0           0  0  0
    1.2407   -1.7583    0.0000 O   0  0  0  0  0  0           0  0  0
   -3.7466   -5.4851    0.0000 C   0  0  0  0  0  0           0  0  0
   -4.4607   -5.0720    0.0000 C   0  0  0  0  0  0           0  0  0
  8  9  1  0     0  0
  4  5  1  0     0  0
  9 10  2  0     0  0
  2  3  1  0     0  0
 10 11  1  0     0  0
  5  6  2  0     0  0
 11 12  2  0     0  0
 12  7  1  0     0  0
  5  7  1  0     0  0
  6  1  1  0     0  0
 10 13  1  0     0  0
  1  2  2  0     0  0
 13 14  1  0     0  0
  3  4  2  0     0  0
 13 15  2  0     0  0
  7  8  2  0     0  0
  2 16  1  0     0  0
 16 17  1  0     0  0
M  END