
  SciTegic02271514512D

 23 26  0  0  0  0            999 V2000
    4.7498   -7.5089    0.0000 N   0  0
    2.9287   -8.6757    0.0000 C   0  0
    3.7234   -8.4843    0.0000 N   0  0
    3.9550   -7.7003    0.0000 C   0  0
    3.3919   -7.1077    0.0000 C   0  0
    2.5971   -7.2991    0.0000 C   0  0
    2.3655   -8.0831    0.0000 N   0  0
    3.6235   -6.3237    0.0000 F   0  0
    1.9486  -10.5503    0.0000 C   0  0
    1.9266   -9.7331    0.0000 C   0  0
    1.2080   -9.3435    0.0000 C   0  0
    0.5113   -9.7712    0.0000 C   0  0
    0.5332  -10.5883    0.0000 C   0  0
    1.2519  -10.9779    0.0000 N   0  0
    2.7326  -10.7819    0.0000 N   0  0
    2.6970   -9.4596    0.0000 C   0  0
    3.1951  -10.1078    0.0000 C   0  0
   -0.2135   -9.3816    0.0000 Cl  0  0
    5.3127   -8.1013    0.0000 C   0  0
    5.1677   -8.9090    0.0000 C   0  0
    5.8861   -9.2984    0.0000 C   0  0
    6.4785   -8.7354    0.0000 C   0  0
    6.1261   -7.9981    0.0000 C   0  0
  2  3  1  0
  3  4  2  0
  4  5  1  0
  5  6  2  0
  6  7  1  0
  2  7  2  0
  5  8  1  0
  9 10  1  0
 10 11  2  0
 11 12  1  0
 12 13  2  0
 13 14  1  0
  9 14  2  0
 16 17  2  0
 15 17  1  0
  9 15  1  0
 10 16  1  0
 12 18  1  0
  2 16  1  0
  1  4  1  0
  1 19  1  0
 19 20  1  0
 20 21  1  0
 21 22  1  0
 22 23  1  0
 23 19  1  0
M  END