
          11280714442D 1   1.00000     0.00000     0

 32 35  0     0  0            999 V2000
   -2.6958   -1.1750    0.0000 C   0  0  0  0  0  0           0  0  0
   -2.1708   -1.8042    0.0000 N   0  0  3  0  0  0           0  0  0
   -3.4625   -1.4750    0.0000 N   0  0  3  0  0  0           0  0  0
   -1.1208    1.8375    0.0000 C   0  0  0  0  0  0           0  0  0
   -2.6208   -2.5042    0.0000 C   0  0  0  0  0  0           0  0  0
   -2.3458    1.3208    0.0000 N   0  0  0  0  0  0           0  0  0
   -1.5375    1.1333    0.0000 N   0  0  0  0  0  0           0  0  0
   -2.4208    2.1250    0.0000 N   0  0  0  0  0  0           0  0  0
   -3.4125   -2.2917    0.0000 C   0  0  0  0  0  0           0  0  0
   -1.6708    2.4583    0.0000 N   0  0  0  0  0  0           0  0  0
   -0.2958    1.8833    0.0000 C   0  0  0  0  0  0           0  0  0
    0.1542    1.1875    0.0000 C   0  0  0  0  0  0           0  0  0
   -1.3458   -1.7625    0.0000 C   0  0  0  0  0  0           0  0  0
   -2.4833   -0.3667    0.0000 O   0  0  0  0  0  0           0  0  0
   -0.2208    0.4583    0.0000 C   0  0  0  0  0  0           0  0  0
   -1.0458    0.4083    0.0000 C   0  0  0  0  0  0           0  0  0
    0.2292   -0.2500    0.0000 C   0  0  0  0  0  0           0  0  0
   -0.9708   -1.0292    0.0000 C   0  0  0  0  0  0           0  0  0
   -4.1583   -1.0292    0.0000 C   0  0  0  0  0  0           0  0  0
   -0.1458   -0.9792    0.0000 C   0  0  0  0  0  0           0  0  0
   -1.4208   -0.3292    0.0000 C   0  0  0  0  0  0           0  0  0
   -2.3208   -3.2792    0.0000 C   0  0  0  0  0  0           0  0  0
    0.0792    2.6208    0.0000 C   0  0  0  0  0  0           0  0  0
    0.9792    1.2333    0.0000 C   0  0  0  0  0  0           0  0  0
   -4.1208   -0.2042    0.0000 C   0  0  0  0  0  0           0  0  0
   -1.4958   -3.4125    0.0000 C   0  0  0  0  0  0           0  0  0
   -1.1958   -4.1792    0.0000 C   0  0  0  0  0  0           0  0  0
   -4.8208    0.2375    0.0000 C   0  0  0  0  0  0           0  0  0
    1.3542    1.9708    0.0000 C   0  0  0  0  0  0           0  0  0
    0.9042    2.6708    0.0000 C   0  0  0  0  0  0           0  0  0
   -0.3750   -4.3000    0.0000 C   0  0  0  0  0  0           0  0  0
   -4.7833    1.0625    0.0000 C   0  0  0  0  0  0           0  0  0
  2  1  1  0     0  0
  3  1  1  0     0  0
  4 11  1  0     0  0
  5  2  1  0     0  0
  6  7  2  0     0  0
  7  4  1  0     0  0
  8 10  1  0     0  0
  9  3  1  0     0  0
 10  4  2  0     0  0
 11 12  2  0     0  0
 12 15  1  0     0  0
 13  2  1  0     0  0
 14  1  2  0     0  0
 15 16  2  0     0  0
 16 21  1  0     0  0
 17 20  2  0     0  0
 18 13  1  0     0  0
 19  3  1  0     0  0
 20 18  1  0     0  0
 21 18  2  0     0  0
 22  5  1  0     0  0
 23 11  1  0     0  0
 24 12  1  0     0  0
 25 19  1  0     0  0
 26 22  1  0     0  0
 27 26  1  0     0  0
 28 25  1  0     0  0
 29 24  2  0     0  0
 30 29  1  0     0  0
 31 27  1  0     0  0
 32 28  1  0     0  0
  5  9  2  0     0  0
 15 17  1  0     0  0
 30 23  2  0     0  0
  6  8  1  0     0  0
M  END