
  Mrv0541 05211314572D          

 38 41  0  0  0  0            999 V2000
    0.6378   -0.6581    0.0000 C   0  0  0  0  0  0  0  0  0  0  0  0
   -0.0767   -0.2456    0.0000 C   0  0  0  0  0  0  0  0  0  0  0  0
   -0.7912   -0.6581    0.0000 C   0  0  0  0  0  0  0  0  0  0  0  0
   -1.5056   -0.2456    0.0000 N   0  0  0  0  0  0  0  0  0  0  0  0
   -0.7912   -1.4831    0.0000 O   0  0  0  0  0  0  0  0  0  0  0  0
   -2.2201   -0.6581    0.0000 C   0  0  0  0  0  0  0  0  0  0  0  0
   -2.9346   -0.2456    0.0000 C   0  0  0  0  0  0  0  0  0  0  0  0
   -2.9346    0.5794    0.0000 N   0  0  0  0  0  0  0  0  0  0  0  0
   -2.2201    0.9919    0.0000 C   0  0  0  0  0  0  0  0  0  0  0  0
   -1.5056    0.5794    0.0000 C   0  0  0  0  0  0  0  0  0  0  0  0
   -3.6490    0.9919    0.0000 C   0  0  0  0  0  0  0  0  0  0  0  0
   -4.3635    0.5794    0.0000 C   0  0  0  0  0  0  0  0  0  0  0  0
   -5.0780    0.9919    0.0000 C   0  0  0  0  0  0  0  0  0  0  0  0
   -5.0780    1.8169    0.0000 C   0  0  0  0  0  0  0  0  0  0  0  0
   -4.3635    2.2294    0.0000 C   0  0  0  0  0  0  0  0  0  0  0  0
   -3.6490    1.8169    0.0000 C   0  0  0  0  0  0  0  0  0  0  0  0
    1.3523   -0.2456    0.0000 N   0  0  0  0  0  0  0  0  0  0  0  0
    1.3523    0.5794    0.0000 C   0  0  0  0  0  0  0  0  0  0  0  0
    2.0667   -0.6581    0.0000 C   0  0  0  0  0  0  0  0  0  0  0  0
    2.7812   -0.2456    0.0000 C   0  0  0  0  0  0  0  0  0  0  0  0
    3.4957   -0.6581    0.0000 C   0  0  0  0  0  0  0  0  0  0  0  0
    4.8014   -0.9356    0.0000 C   0  0  0  0  0  0  0  0  0  0  0  0
    4.2493   -0.3225    0.0000 C   0  0  0  0  0  0  0  0  0  0  0  0
    4.5043    0.4621    0.0000 C   0  0  0  0  0  0  0  0  0  0  0  0
    5.3113    0.6336    0.0000 C   0  0  0  0  0  0  0  0  0  0  0  0
    5.8633    0.0205    0.0000 C   0  0  0  0  0  0  0  0  0  0  0  0
    5.6084   -0.7641    0.0000 C   0  0  0  0  0  0  0  0  0  0  0  0
    3.5819   -1.4786    0.0000 C   0  0  0  0  0  0  0  0  0  0  0  0
    4.3889   -1.6501    0.0000 C   0  0  0  0  0  0  0  0  0  0  0  0
    4.6438   -2.4347    0.0000 C   0  0  0  0  0  0  0  0  0  0  0  0
    4.0918   -3.0478    0.0000 C   0  0  0  0  0  0  0  0  0  0  0  0
    3.2848   -2.8763    0.0000 C   0  0  0  0  0  0  0  0  0  0  0  0
    3.0299   -2.0917    0.0000 C   0  0  0  0  0  0  0  0  0  0  0  0
   -5.7925    2.2294    0.0000 C   0  0  0  0  0  0  0  0  0  0  0  0
   -6.5069    2.6419    0.0000 F   0  0  0  0  0  0  0  0  0  0  0  0
   -5.3800    2.9439    0.0000 F   0  0  0  0  0  0  0  0  0  0  0  0
   -6.2050    1.5149    0.0000 F   0  0  0  0  0  0  0  0  0  0  0  0
    8.1026    0.0000    0.0000 Cl  0  0  0  0  0  0  0  0  0  0  0  0
 17 18  1  0  0  0  0
  7  8  1  0  0  0  0
 17 19  1  0  0  0  0
  8  9  1  0  0  0  0
 19 20  1  0  0  0  0
  9 10  1  0  0  0  0
 20 21  1  0  0  0  0
 21 23  1  0  0  0  0
 22 29  1  0  0  0  0
 28 21  1  0  0  0  0
 22 23  2  0  0  0  0
  4  6  1  0  0  0  0
  8 11  1  0  0  0  0
  2  3  1  0  0  0  0
 11 12  2  0  0  0  0
  1  2  1  0  0  0  0
 12 13  1  0  0  0  0
 22 27  1  0  0  0  0
 23 24  1  0  0  0  0
 24 25  2  0  0  0  0
 25 26  1  0  0  0  0
 26 27  2  0  0  0  0
 28 29  2  0  0  0  0
  3  4  1  0  0  0  0
 13 14  2  0  0  0  0
 14 15  1  0  0  0  0
  3  5  2  0  0  0  0
 15 16  2  0  0  0  0
 28 33  1  0  0  0  0
 29 30  1  0  0  0  0
 30 31  2  0  0  0  0
 31 32  1  0  0  0  0
 32 33  2  0  0  0  0
 16 11  1  0  0  0  0
 14 34  1  0  0  0  0
  4 10  1  0  0  0  0
 34 35  1  0  0  0  0
  1 17  1  0  0  0  0
 34 36  1  0  0  0  0
  6  7  1  0  0  0  0
 34 37  1  0  0  0  0
M  END