
          11280715312D 1   1.00000     0.00000     0

 22 25  0     0  0            999 V2000
    5.8500   -5.5875    0.0000 N   0  0  3  0  0  0           0  0  0
    5.8500   -4.7625    0.0000 C   0  0  0  0  0  0           0  0  0
    6.5250   -6.0667    0.0000 C   0  0  0  0  0  0           0  0  0
    7.6250   -7.2917    0.0000 C   0  0  0  0  0  0           0  0  0
    6.2667   -6.8542    0.0000 C   0  0  0  0  0  0           0  0  0
    8.2917   -7.7667    0.0000 N   0  0  3  0  0  0           0  0  0
    7.3250   -5.9000    0.0000 C   0  0  0  0  0  0           0  0  0
    7.8750   -6.5042    0.0000 C   0  0  0  0  0  0           0  0  0
    6.8167   -7.4625    0.0000 C   0  0  0  0  0  0           0  0  0
    5.1292   -4.3542    0.0000 N   0  0  0  0  0  0           0  0  0
    5.1917   -6.0750    0.0000 C   0  0  0  0  0  0           0  0  0
    6.5625   -4.3500    0.0000 O   0  0  0  0  0  0           0  0  0
    5.4500   -6.8625    0.0000 C   0  0  0  0  0  0           0  0  0
    8.9542   -7.2792    0.0000 C   0  0  0  0  0  0           0  0  0
    8.7000   -6.5000    0.0000 C   0  0  0  0  0  0           0  0  0
    3.7042   -6.0125    0.0000 N   0  0  0  0  0  0           0  0  0
    4.4167   -4.7667    0.0000 C   0  0  0  0  0  0           0  0  0
    8.3000   -8.5917    0.0000 C   0  0  0  0  0  0           0  0  0
    4.4167   -5.6000    0.0000 C   0  0  0  0  0  0           0  0  0
    2.9917   -5.6000    0.0000 C   0  0  0  0  0  0           0  0  0
    3.7042   -4.3542    0.0000 C   0  0  0  0  0  0           0  0  0
    2.9917   -4.7750    0.0000 C   0  0  0  0  0  0           0  0  0
  2  1  1  0     0  0
  3  1  1  0     0  0
  4  8  1  0     0  0
  5  3  2  0     0  0
  6  4  1  0     0  0
  7  3  1  0     0  0
  8  7  2  0     0  0
  9  5  1  0     0  0
 10  2  1  0     0  0
 11  1  1  0     0  0
 12  2  2  0     0  0
 13 11  1  0     0  0
 14 15  1  0     0  0
 15  8  1  0     0  0
 16 19  1  0     0  0
 17 10  1  0     0  0
 18  6  1  0     0  0
 19 17  2  0     0  0
 20 22  1  0     0  0
 21 17  1  0     0  0
 22 21  2  0     0  0
 13  5  1  0     0  0
  9  4  2  0     0  0
  6 14  1  0     0  0
 16 20  2  0     0  0
M  END