
  SciTegic05071317022D

 18 21  0  0  0  0            999 V2000
    5.4760  -16.2732    0.0000 N   0  0
    5.0674  -15.5600    0.0000 C   0  0
    5.4761  -14.8507    0.0000 N   0  0
    6.2971  -14.8507    0.0000 C   0  0
    6.7063  -14.1406    0.0000 C   0  0
    7.5271  -14.1406    0.0000 C   0  0
    7.9355  -14.8495    0.0000 C   0  0
    7.5270  -15.5584    0.0000 C   0  0
    7.9356  -16.2717    0.0000 C   0  0
    7.5270  -16.9808    0.0000 C   0  0
    6.7057  -16.9808    0.0000 C   0  0
    6.2972  -16.2717    0.0000 C   0  0
    6.7057  -15.5585    0.0000 C   0  0
    2.9848  -15.9685    0.0000 C   0  0
    2.9848  -15.1513    0.0000 N   0  0
    3.7661  -14.8966    0.0000 C   0  0
    4.2463  -15.5600    0.0000 C   0  0
    3.7661  -16.2231    0.0000 N   0  0
  1  2  1  0
  2  3  1  0
  3  4  1  0
  4  5  1  0
  5  6  2  0
  6  7  1  0
  7  8  2  0
  8  9  1  0
  9 10  2  0
 10 11  1  0
 11 12  2  0
  1 12  1  0
 12 13  1  0
  4 13  2  0
  8 13  1  0
 14 15  2  0
 15 16  1  0
 16 17  2  0
 17 18  1  0
 14 18  1  0
  2 17  1  0
M  END