
          11280714462D 1   1.00000     0.00000     0

 29 32  0     0  0            999 V2000
   11.3792   -0.6792    0.0000 C   0  0  0  0  0  0           0  0  0
    2.8250   -2.3500    0.0000 N   0  0  3  0  0  0           0  0  0
   12.1042   -1.9167    0.0000 N   0  0  0  0  0  0           0  0  0
   10.6750   -1.0917    0.0000 C   0  0  0  0  0  0           0  0  0
   12.1000   -1.0875    0.0000 C   0  0  0  0  0  0           0  0  0
    9.9625   -0.6792    0.0000 N   0  0  0  0  0  0           0  0  0
   11.3917   -2.3292    0.0000 C   0  0  0  0  0  0           0  0  0
   10.6750   -1.9167    0.0000 C   0  0  0  0  0  0           0  0  0
    6.3917   -1.9292    0.0000 C   0  0  0  0  0  0           0  0  0
    7.8250   -1.1042    0.0000 C   0  0  0  0  0  0           0  0  0
    7.1125   -2.3417    0.0000 C   0  0  0  0  0  0           0  0  0
    6.3917   -1.1042    0.0000 C   0  0  0  0  0  0           0  0  0
    7.1042   -0.6917    0.0000 C   0  0  0  0  0  0           0  0  0
    7.8250   -1.9292    0.0000 C   0  0  0  0  0  0           0  0  0
    3.5417   -1.9292    0.0000 C   0  0  0  0  0  0           0  0  0
    9.2500   -1.1000    0.0000 C   0  0  0  0  0  0           0  0  0
    4.2542   -2.3417    0.0000 C   0  0  0  0  0  0           0  0  0
    5.6792   -2.3417    0.0000 O   0  0  0  0  0  0           0  0  0
    2.8250   -3.1792    0.0000 C   0  0  0  0  0  0           0  0  0
    2.1042   -1.9375    0.0000 C   0  0  0  0  0  0           0  0  0
   11.3792    0.1375    0.0000 C   0  0  0  0  0  0           0  0  0
    8.5375   -0.6875    0.0000 C   0  0  0  0  0  0           0  0  0
    4.9667   -1.9292    0.0000 C   0  0  0  0  0  0           0  0  0
   12.8042   -0.6667    0.0000 C   0  0  0  0  0  0           0  0  0
    2.1042   -3.5917    0.0000 C   0  0  0  0  0  0           0  0  0
    1.3917   -2.3500    0.0000 C   0  0  0  0  0  0           0  0  0
   12.0792    0.5583    0.0000 C   0  0  0  0  0  0           0  0  0
   12.8000    0.1500    0.0000 C   0  0  0  0  0  0           0  0  0
    1.3917   -3.1792    0.0000 C   0  0  0  0  0  0           0  0  0
  2 15  1  0     0  0
  3  5  1  0     0  0
  4  1  1  0     0  0
  5  1  2  0     0  0
  6  4  1  0     0  0
  7  3  2  0     0  0
  8  4  2  0     0  0
  9 11  2  0     0  0
 10 22  1  0     0  0
 11 14  1  0     0  0
 12 13  2  0     0  0
 13 10  1  0     0  0
 14 10  2  0     0  0
 15 17  1  0     0  0
 16  6  1  0     0  0
 17 23  1  0     0  0
 18  9  1  0     0  0
 19  2  1  0     0  0
 20  2  1  0     0  0
 21  1  1  0     0  0
 22 16  1  0     0  0
 23 18  1  0     0  0
 24  5  1  0     0  0
 25 19  1  0     0  0
 26 20  1  0     0  0
 27 21  2  0     0  0
 28 27  1  0     0  0
 29 26  1  0     0  0
  7  8  1  0     0  0
 28 24  2  0     0  0
  9 12  1  0     0  0
 25 29  1  0     0  0
M  END