
  SciTegic02271217242D

 39 42  0  0  0  0            999 V2000
   28.9027  -24.2583    0.0000 C   0  0
   28.9016  -25.0857    0.0000 C   0  0
   29.6164  -25.4985    0.0000 C   0  0
   30.3328  -25.0852    0.0000 C   0  0
   30.3300  -24.2547    0.0000 C   0  0
   29.6146  -23.8455    0.0000 C   0  0
   31.0429  -23.8395    0.0000 O   0  0
   31.7589  -24.2493    0.0000 C   0  0
   31.7587  -25.0719    0.0000 C   0  0
   32.4738  -25.4817    0.0000 C   0  0
   33.1877  -25.0664    0.0000 C   0  0
   33.1820  -24.2372    0.0000 C   0  0
   32.4662  -23.8312    0.0000 C   0  0
   33.9043  -25.4753    0.0000 Cl  0  0
   32.4588  -23.0062    0.0000 N   0  0
   33.1696  -22.5873    0.0000 S   0  0
   33.8877  -22.9934    0.0000 C   0  0
   32.7500  -21.8667    0.0000 O   0  0
   33.5750  -21.8667    0.0000 O   0  0
   33.8921  -23.8177    0.0000 C   0  0
   34.6094  -24.2238    0.0000 C   0  0
   35.3211  -23.8048    0.0000 C   0  0
   35.3111  -22.9756    0.0000 C   0  0
   34.5932  -22.5733    0.0000 C   0  0
   36.0398  -24.2099    0.0000 Cl  0  0
   28.1868  -25.4976    0.0000 C   0  0
   27.4726  -25.0845    0.0000 N   0  0
   28.1861  -26.3226    0.0000 O   0  0
   27.4733  -24.2595    0.0000 C   0  0
   26.7591  -23.8465    0.0000 C   0  0
   26.0443  -24.2584    0.0000 N   0  0
   36.0203  -22.5542    0.0000 C   0  0
   36.7399  -22.9578    0.0000 F   0  0
   36.0100  -21.7293    0.0000 F   0  0
   36.7292  -22.1375    0.0000 F   0  0
   25.2937  -23.9235    0.0000 C   0  0
   24.7411  -24.5362    0.0000 C   0  0
   25.1531  -25.2510    0.0000 C   0  0
   25.9601  -25.0800    0.0000 C   0  0
 16 19  2  0
  4  5  1  0
 17 20  2  0
  9 10  1  0
 20 21  1  0
  2  3  1  0
 21 22  2  0
 10 11  2  0
 22 23  1  0
  5  6  2  0
 23 24  2  0
 24 17  1  0
 11 12  1  0
 22 25  1  0
  6  1  1  0
  2 26  1  0
 12 13  2  0
 26 27  1  0
 13  8  1  0
 26 28  2  0
  1  2  2  0
 27 29  1  0
 11 14  1  0
 29 30  1  0
  5  7  1  0
 30 31  1  0
 13 15  1  0
 23 32  1  0
  3  4  2  0
 32 33  1  0
 15 16  1  0
 32 34  1  0
  7  8  1  0
 32 35  1  0
 31 36  1  0
 16 17  1  0
 16 18  2  0
  8  9  2  0
 36 37  1  0
 37 38  1  0
 38 39  1  0
 39 31  1  0
M  END