
  SciTegic04071410272D

 28 31  0  0  0  0            999 V2000
    6.1711  -11.6934    0.0000 C   0  0  1  0  0  0
    7.2381  -12.4953    0.0000 C   0  0  2  0  0  0
    6.7219  -12.0666    0.0000 C   0  0
    5.7502  -12.0666    0.0000 C   0  0  1  0  0  0
    5.6105  -11.2535    0.0000 N   0  0
    7.0999  -11.6779    0.0000 C   0  0
    5.2303  -12.7789    0.0000 C   0  0
    5.8506  -12.4020    0.0000 C   0  0
    7.6499  -13.2102    0.0000 C   0  0
    7.2367  -13.9243    0.0000 C   0  0
    6.8235  -14.6383    0.0000 C   0  0
    7.9508  -14.3375    0.0000 C   0  0
    5.9812  -10.8906    0.0000 H   0  0
    5.1475  -11.5033    0.0000 H   0  0
    5.1879  -10.5450    0.0000 C   0  0
    6.5226  -13.5110    0.0000 C   0  0
    8.6656  -13.9257    0.0000 C   0  0
    9.3797  -14.3389    0.0000 C   0  0
    9.3789  -15.1639    0.0000 C   0  0
    8.6640  -15.5757    0.0000 C   0  0
    7.9499  -15.1625    0.0000 C   0  0
    7.2353  -15.3532    0.0000 C   0  0
    6.8221  -16.0673    0.0000 C   0  0
    5.9971  -16.0664    0.0000 C   0  0
    5.5853  -15.3516    0.0000 C   0  0
    5.9985  -14.6375    0.0000 C   0  0
    6.5234  -12.6860    0.0000 N   0  0
    5.8078  -13.9228    0.0000 O   0  0
  1  6  1  0
  4 14  1  1
  6  2  1  0
  5 15  1  0
  4  7  1  0
 10 16  1  0
  1  8  1  0
 12 17  2  0
  7  8  1  0
 17 18  1  0
 18 19  2  0
  2  9  1  6
 19 20  1  0
  2  3  1  0
 20 21  2  0
 21 12  1  0
  9 10  1  0
 11 22  2  0
  3  4  1  0
 22 23  1  0
 10 11  1  0
 23 24  2  0
  4  5  1  0
 24 25  1  0
 10 12  1  0
 25 26  2  0
 26 11  1  0
  1  5  1  0
 16 27  1  0
  1 13  1  6
 16 28  2  0
M  END