
          11280714572D 1   1.00000     0.00000     0

 15 15  0     0  0            999 V2000
   -1.9125   -1.9667    0.0000 N   0  0  0  0  0  0           0  0  0
    1.8917   -1.0792    0.0000 C   0  0  0  0  0  0           0  0  0
   -2.7500   -1.4792    0.0000 N   0  0  0  0  0  0           0  0  0
   -2.5083   -2.0292    0.0000 C   0  0  0  0  0  0           0  0  0
   -1.7833   -1.3792    0.0000 C   0  0  0  0  0  0           0  0  0
    1.8875   -0.4792    0.0000 S   0  0  0  0  0  0           0  0  0
   -2.3083   -1.0792    0.0000 C   0  0  0  0  0  0           0  0  0
    2.4250   -1.3875    0.0000 N   0  0  0  0  0  0           0  0  0
    1.3667   -1.3792    0.0000 N   0  0  0  0  0  0           0  0  0
   -1.2583   -1.0792    0.0000 C   0  0  0  0  0  0           0  0  0
    0.8417   -1.0792    0.0000 C   0  0  0  0  0  0           0  0  0
    2.9375   -1.0875    0.0000 C   0  0  0  0  0  0           0  0  0
   -0.7333   -1.3792    0.0000 C   0  0  0  0  0  0           0  0  0
    0.3167   -1.3792    0.0000 C   0  0  0  0  0  0           0  0  0
   -0.2083   -1.0792    0.0000 C   0  0  0  0  0  0           0  0  0
  2  9  1  0     0  0
  3  4  1  0     0  0
  4  1  2  0     0  0
  5  1  1  0     0  0
  6  2  1  0     0  0
  7  5  2  0     0  0
  8  2  2  0     0  0
  9 11  1  0     0  0
 10  5  1  0     0  0
 11 14  1  0     0  0
 12  8  1  0     0  0
 13 10  1  0     0  0
 14 15  1  0     0  0
 15 13  1  0     0  0
  7  3  1  0     0  0
M  END