
          03140815512D 1   1.00000     0.00000     0

 25 27  0     0  0            999 V2000
    2.1875  -10.2500    0.0000 N   0  0  3  0  0  0           0  0  0
    2.1875  -11.0750    0.0000 C   0  0  0  0  0  0           0  0  0
    2.8995  -11.4833    0.0000 C   0  0  0  0  0  0           0  0  0
    3.6115  -11.0750    0.0000 O   0  0  0  0  0  0           0  0  0
    3.6115  -10.2500    0.0000 C   0  0  0  0  0  0           0  0  0
    2.8995   -9.8333    0.0000 C   0  0  0  0  0  0           0  0  0
    1.4718   -9.8396    0.0000 C   0  0  0  0  0  0           0  0  0
    1.4694   -9.0146    0.0000 O   0  0  0  0  0  0           0  0  0
    0.7586  -10.2542    0.0000 C   0  0  0  0  0  0           0  0  0
    0.0429   -9.8438    0.0000 O   0  0  0  0  0  0           0  0  0
   -0.6704  -10.2584    0.0000 C   0  0  0  0  0  0           0  0  0
   -1.3853   -9.8446    0.0000 C   0  0  0  0  0  0           0  0  0
   -2.0981  -10.2585    0.0000 C   0  0  0  0  0  0           0  0  0
   -2.0961  -11.0844    0.0000 C   0  0  0  0  0  0           0  0  0
   -1.3754  -11.4946    0.0000 C   0  0  0  0  0  0           0  0  0
   -0.6656  -11.0784    0.0000 C   0  0  0  0  0  0           0  0  0
   -2.8088  -11.5000    0.0000 S   0  0  3  0  0  0           0  0  0
   -3.5292  -11.9042    0.0000 N   0  0  0  0  0  0           0  0  0
   -2.4042  -12.2083    0.0000 O   0  0  0  0  0  0           0  0  0
   -3.2292  -10.7792    0.0000 O   0  0  0  0  0  0           0  0  0
   -4.2385  -11.4830    0.0000 C   0  0  3  0  0  0           0  0  0
   -4.3190  -10.6608    0.0000 C   0  0  0  0  0  0           0  0  0
   -5.1238  -10.4794    0.0000 C   0  0  0  0  0  0           0  0  0
   -5.5450  -11.1888    0.0000 C   0  0  0  0  0  0           0  0  0
   -5.0005  -11.8085    0.0000 C   0  0  0  0  0  0           0  0  0
  5  6  1  0     0  0
 12 13  1  0     0  0
 13 14  2  0     0  0
  1  7  1  0     0  0
 14 15  1  0     0  0
  1  2  1  0     0  0
 15 16  2  0     0  0
 16 11  1  0     0  0
  7  8  2  0     0  0
 14 17  1  0     0  0
  1  6  1  0     0  0
 17 18  1  0     0  0
  7  9  1  0     0  0
 17 19  2  0     0  0
  2  3  1  0     0  0
 17 20  2  0     0  0
  9 10  1  0     0  0
 18 21  1  0     0  0
 21 22  1  0     0  0
  3  4  1  0     0  0
 10 11  1  0     0  0
  4  5  1  0     0  0
 11 12  2  0     0  0
 22 23  1  0     0  0
 23 24  1  0     0  0
 24 25  1  0     0  0
 25 21  1  0     0  0
M  END