
          11280715502D 1   1.00000     0.00000     0

 32 35  0     0  0            999 V2000
    1.2719   -4.2799    0.0000 C   0  0  0  0  0  0           0  0  0
   -0.8715   -5.5174    0.0000 C   0  0  3  0  0  0           0  0  0
   -0.1556   -5.9299    0.0000 C   0  0  0  0  0  0           0  0  0
    0.5561   -5.5174    0.0000 C   0  0  0  0  0  0           0  0  0
    0.5561   -4.6924    0.0000 N   0  0  3  0  0  0           0  0  0
   -0.1556   -4.2799    0.0000 C   0  0  0  0  0  0           0  0  0
   -0.8715   -4.6924    0.0000 C   0  0  0  0  0  0           0  0  0
   -1.5874   -5.9299    0.0000 C   0  0  0  0  0  0           0  0  0
   -2.2991   -5.5174    0.0000 C   0  0  0  0  0  0           0  0  0
   -2.3881   -4.6993    0.0000 C   0  0  0  0  0  0           0  0  0
   -3.1941   -4.5269    0.0000 N   0  0  0  0  0  0           0  0  0
   -3.6066   -5.2386    0.0000 C   0  0  0  0  0  0           0  0  0
   -3.0535   -5.8550    0.0000 N   0  0  0  0  0  0           0  0  0
    1.9861   -4.6930    0.0000 C   0  0  0  0  0  0           0  0  0
    2.6958   -4.2750    0.0000 C   0  0  0  0  0  0           0  0  0
    3.4138   -4.6813    0.0000 O   0  0  0  0  0  0           0  0  0
    4.1247   -4.2626    0.0000 C   0  0  0  0  0  0           0  0  0
    4.8460   -4.6736    0.0000 C   0  0  0  0  0  0           0  0  0
    5.5563   -4.2556    0.0000 C   0  0  0  0  0  0           0  0  0
    5.5496   -3.4298    0.0000 C   0  0  0  0  0  0           0  0  0
    4.8266   -3.0237    0.0000 C   0  0  0  0  0  0           0  0  0
    4.1192   -3.4440    0.0000 C   0  0  0  0  0  0           0  0  0
    6.2600   -3.0102    0.0000 C   0  0  0  0  0  0           0  0  0
    6.9785   -3.4155    0.0000 N   0  0  3  0  0  0           0  0  0
    6.9809   -4.2427    0.0000 C   0  0  0  0  0  0           0  0  0
    7.6954   -4.6480    0.0000 C   0  0  0  0  0  0           0  0  0
    8.4082   -4.2319    0.0000 C   0  0  3  0  0  0           0  0  0
    8.4019   -3.4060    0.0000 C   0  0  0  0  0  0           0  0  0
    7.6829   -2.9962    0.0000 C   0  0  0  0  0  0           0  0  0
    9.1252   -4.6400    0.0000 C   0  0  0  0  0  0           0  0  0
    9.1303   -5.4650    0.0000 O   0  0  0  0  0  0           0  0  0
    9.8371   -4.2230    0.0000 N   0  0  0  0  0  0           0  0  0
  5  6  1  0     0  0
 15 16  1  0     0  0
  6  7  1  0     0  0
 16 17  1  0     0  0
  2  8  1  0     0  0
 17 18  2  0     0  0
  8  9  1  0     0  0
 18 19  1  0     0  0
  9 10  2  0     0  0
 19 20  2  0     0  0
  2  3  1  0     0  0
 20 21  1  0     0  0
 10 11  1  0     0  0
 21 22  2  0     0  0
 22 17  1  0     0  0
 11 12  1  0     0  0
 20 23  1  0     0  0
 12 13  2  0     0  0
 23 24  1  0     0  0
 24 25  1  0     0  0
 13  9  1  0     0  0
  5  1  1  0     0  0
  2  7  1  0     0  0
  3  4  1  0     0  0
 24 29  1  0     0  0
 25 26  1  0     0  0
 26 27  1  0     0  0
 27 28  1  0     0  0
 28 29  1  0     0  0
  1 14  1  0     0  0
 27 30  1  0     0  0
  4  5  1  0     0  0
 30 31  2  0     0  0
 14 15  1  0     0  0
 30 32  1  0     0  0
M  END