
  SciTegic06051313522D

 32 37  0  0  0  0            999 V2000
   30.9982   -5.2663    0.0000 C   0  0
   30.9971   -6.0858    0.0000 C   0  0
   31.7051   -6.4948    0.0000 C   0  0
   31.7033   -4.8574    0.0000 C   0  0
   32.4119   -5.2627    0.0000 C   0  0
   32.4127   -6.0817    0.0000 C   0  0
   33.1212   -6.4888    0.0000 C   0  0
   33.8295   -6.0780    0.0000 C   0  0
   33.8248   -5.2558    0.0000 C   0  0
   33.1156   -4.8525    0.0000 C   0  0
   31.9171   -4.0612    0.0000 C   0  0
   32.8981   -4.0571    0.0000 C   0  0
   33.1974   -3.1228    0.0000 C   0  0
   32.4013   -2.5494    0.0000 C   0  0
   31.6101   -3.1295    0.0000 N   0  0
   32.3971   -1.5684    0.0000 O   0  0
   34.1291   -2.8157    0.0000 N   0  0
   34.8609   -3.4691    0.0000 C   0  0
   35.7927   -3.1620    0.0000 C   0  0
   36.5245   -3.8154    0.0000 C   0  0
   37.4562   -3.5084    0.0000 C   0  0
   38.1853   -4.1663    0.0000 C   0  0
   39.1163   -3.8599    0.0000 C   0  0
   39.3170   -2.8986    0.0000 C   0  0
   38.5793   -2.2442    0.0000 C   0  0
   37.6511   -2.5540    0.0000 C   0  0
   33.1226   -7.3037    0.0000 N   0  0
   32.4139   -7.7126    0.0000 C   0  0
   32.4137   -8.5262    0.0000 C   0  0
   33.1204   -8.9372    0.0000 S   0  0
   33.8291   -8.5283    0.0000 C   0  0
   33.8310   -7.7085    0.0000 C   0  0
  1  2  2  0
  2  3  1  0
  3  6  2  0
  5  4  2  0
  4  1  1  0
  5  6  1  0
  6  7  1  0
  7  8  2  0
  8  9  1  0
  9 10  2  0
 10  5  1  0
  4 11  1  0
 10 12  1  0
 11 12  1  0
 12 13  2  0
 13 14  1  0
 14 15  1  0
 15 11  2  0
 14 16  2  0
 13 17  1  0
 17 18  1  0
 18 19  1  0
 19 20  1  0
 20 21  1  0
 21 22  2  0
 22 23  1  0
 23 24  2  0
 24 25  1  0
 25 26  2  0
 26 21  1  0
 27 28  1  0
 27 32  1  0
 28 29  1  0
 29 30  1  0
 30 31  1  0
 31 32  1  0
  7 27  1  0
M  END