
  SciTegic01161211242D

 15 16  0  0  0  0            999 V2000
    1.7138   -1.2033    0.0000 O   0  0
    4.0896    0.0290    0.0000 C   0  0
    2.5889    0.0182    0.0000 C   0  0
    5.0305    1.1747    0.0000 N   0  0
    0.2917   -0.7475    0.0000 C   0  0
    1.7138    1.2033    0.0000 C   0  0
    0.2917    0.7475    0.0000 C   0  0
    4.8568   -1.2462    0.0000 N   0  0
    8.9203    0.0000    0.0000 Cl  0  0
    6.4203    0.6103    0.0000 C   0  0
    6.3129   -0.8859    0.0000 C   0  0
   -1.0028   -1.5132    0.0000 C   0  0
   -1.0028    1.5132    0.0000 C   0  0
   -2.3155    0.7475    0.0000 C   0  0
   -2.3155   -0.7475    0.0000 C   0  0
  1  3  1  0
  2  3  1  0
  2  4  2  0
  1  5  1  0
  3  6  1  0
  5  7  1  0
  6  7  1  0
  2  8  1  0
  4 10  1  0
  8 11  1  0
 10 11  1  0
  5 12  2  0
  7 13  2  0
 13 14  1  0
 12 15  1  0
 14 15  2  0
M  END