
  SciTegic01061414252D

 23 24  0  0  0  0            999 V2000
   23.0610  -14.0491    0.0000 O   0  0
   22.2361  -14.0491    0.0000 S   0  0
   22.6486  -14.7635    0.0000 O   0  0
   21.5264  -11.9867    0.0000 C   0  0
   21.5252  -12.8140    0.0000 C   0  0
   22.2400  -13.2269    0.0000 C   0  0
   22.9563  -12.8136    0.0000 C   0  0
   22.9535  -11.9831    0.0000 C   0  0
   22.2382  -11.5739    0.0000 C   0  0
   23.6664  -11.5679    0.0000 C   0  0
   24.3824  -11.9777    0.0000 C   0  0
   23.6633  -10.7430    0.0000 O   0  0
   25.0953  -11.5625    0.0000 S   0  0
   25.8112  -11.9723    0.0000 C   0  0
   25.8112  -12.7961    0.0000 N   0  0
   26.5263  -13.2058    0.0000 C   0  0
   27.2402  -12.7906    0.0000 C   0  0
   27.2344  -11.9614    0.0000 C   0  0
   26.5187  -11.5554    0.0000 N   0  0
   21.5253  -14.4641    0.0000 N   0  0
   27.9567  -13.1994    0.0000 C   0  0
   28.6691  -12.7833    0.0000 C   0  0
   29.3855  -13.1921    0.0000 C   0  0
  2  1  2  0
  3  2  2  0
  4  5  2  0
  5  6  1  0
  6  7  2  0
  7  8  1  0
  8  9  2  0
  9  4  1  0
  8 10  1  0
 10 11  1  0
 10 12  2  0
 11 13  1  0
 13 14  1  0
 14 15  2  0
 15 16  1  0
 16 17  2  0
 17 18  1  0
 18 19  2  0
 19 14  1  0
  6  2  1  0
  2 20  1  0
 17 21  1  0
 21 22  1  0
 22 23  1  0
M  END