
  SciTegic01161211252D

100108  0  0  0  0            999 V2000
   -4.9744  -24.9210    0.0000 C   0  0
   -4.9279  -26.5751    0.0000 O   0  0
   -1.1617  -22.8039    0.0000 N   0  0
   -1.9847  -22.8169    0.0000 C   0  0
   -2.3851  -23.5382    0.0000 N   0  0
   -2.4092  -22.1094    0.0000 S   0  0
   -3.2100  -23.5521    0.0000 C   0  0
   -3.6287  -22.8441    0.0000 C   0  0
   -4.4529  -22.8576    0.0000 C   0  0
   -3.6024  -24.2722    0.0000 C   0  0
   -4.4251  -24.2892    0.0000 C   0  0
   -4.8558  -23.5751    0.0000 C   0  0
   -5.6680  -23.7640    0.0000 C   0  0
   -5.7394  -24.5949    0.0000 O   0  0
   -6.2918  -23.2238    0.0000 O   0  0
   -4.2450  -25.3098    0.0000 C   0  0
   -4.2257  -26.1391    0.0000 C   0  0
   -3.4990  -26.5353    0.0000 C   0  0
   -2.7911  -26.1033    0.0000 C   0  0
   -2.8144  -25.2709    0.0000 C   0  0
   -3.5416  -24.8784    0.0000 C   0  0
   -5.6558  -26.1800    0.0000 C   0  0
   -5.6772  -25.3579    0.0000 C   0  0
   -6.4013  -24.9671    0.0000 C   0  0
   -7.1007  -25.3973    0.0000 C   0  0
   -7.0761  -26.2225    0.0000 C   0  0
   -6.3564  -26.6095    0.0000 C   0  0
   -2.0660  -26.4969    0.0000 O   0  0
   -7.7832  -26.6570    0.0000 O   0  0
    3.9494  -22.6448    0.0000 C   0  0  2  0  0  0
    4.2158  -21.8685    0.0000 C   0  0
    3.5577  -21.3710    0.0000 C   0  0
    2.8812  -21.8433    0.0000 C   0  0
    3.1201  -22.6325    0.0000 N   0  0
    2.4223  -23.0726    0.0000 C   0  0
    1.6923  -22.6884    0.0000 C   0  0
    2.4546  -23.8970    0.0000 O   0  0
    0.9945  -23.1286    0.0000 C   0  0
    0.2644  -22.7443    0.0000 C   0  0
   -0.4334  -23.1845    0.0000 C   0  0
   18.8064  -25.3479    0.0000 C   0  0
   19.5533  -24.9938    0.0000 C   0  0
   20.2297  -25.4662    0.0000 C   0  0
   20.1607  -26.2885    0.0000 O   0  0
   20.9788  -25.1170    0.0000 O   0  0
   18.1060  -24.9120    0.0000 C   0  0  2  0  0  0
   16.7029  -24.0760    0.0000 C   0  0
   17.4203  -23.6687    0.0000 C   0  0
   18.1318  -24.0863    0.0000 N   0  0
   17.4262  -22.8437    0.0000 O   0  0
   17.3775  -25.2992    0.0000 C   0  0
   17.3487  -26.1237    0.0000 N   0  0
   16.6779  -24.8620    0.0000 O   0  0
   13.3888  -27.2744    0.0000 C   0  0
    8.0743  -24.0468    0.0000 C   0  0
    8.8993  -24.0464    0.0000 N   0  0
    7.6621  -24.7615    0.0000 O   0  0
    9.3121  -24.7607    0.0000 C   0  0  2  0  0  0
   10.1371  -24.7603    0.0000 C   0  0
    8.9000  -25.4754    0.0000 C   0  0  1  0  0  0
    8.0750  -25.4758    0.0000 C   0  0
    9.3128  -26.1896    0.0000 O   0  0
   10.5500  -25.4746    0.0000 N   0  0
   10.5493  -24.0456    0.0000 O   0  0
    6.8415  -23.3320    0.0000 N   0  0
    7.6619  -23.3328    0.0000 C   0  0  1  0  0  0
    7.9159  -22.5526    0.0000 C   0  0
    7.2524  -22.0699    0.0000 C   0  0
    6.5884  -22.5518    0.0000 C   0  0
   11.3750  -25.4742    0.0000 C   0  0  2  0  0  0
   11.7878  -26.1884    0.0000 C   0  0
   11.7871  -24.7595    0.0000 C   0  0
   11.3756  -26.9031    0.0000 O   0  0
   12.6103  -26.1880    0.0000 N   0  0
   12.6067  -27.0117    0.0000 C   0  0
   13.8804  -26.6118    0.0000 C   0  0
   13.4023  -25.9381    0.0000 C   0  0  1  0  0  0
   13.7882  -25.2089    0.0000 C   0  0
   14.6118  -25.1785    0.0000 N   0  0
   13.3496  -24.5101    0.0000 O   0  0
   14.8948  -25.9527    0.0000 C   0  0
   15.7194  -25.9250    0.0000 C   0  0
   15.9478  -25.1322    0.0000 C   0  0
   15.2638  -24.6695    0.0000 C   0  0  1  0  0  0
   15.2496  -23.8446    0.0000 C   0  0
   16.0376  -23.5883    0.0000 N   0  0
   14.5281  -23.4445    0.0000 O   0  0
    9.7195  -24.0385    0.0000 H   0  0
    6.4351  -24.0499    0.0000 C   0  0
    5.6101  -24.0569    0.0000 C   0  0
    6.8536  -24.7609    0.0000 O   0  0
    5.1916  -23.3460    0.0000 N   0  0
    4.3666  -23.3529    0.0000 C   0  0
    3.9602  -24.0709    0.0000 O   0  0
   16.0333  -22.7625    0.0000 C   0  0
   15.3168  -22.3536    0.0000 C   0  0
   15.3126  -21.5286    0.0000 C   0  0
    5.1833  -22.5208    0.0000 C   0  0
    5.8936  -22.1012    0.0000 C   0  0
    5.8854  -21.2763    0.0000 C   0  0
 48 49  1  0
 22 23  2  0
 48 50  2  0
 49 46  1  0
 10  7  1  0
 46 51  1  0
 23 24  1  0
 51 52  1  0
 11 12  1  0
 51 53  2  0
 24 25  2  0
  1 16  1  0
 66 55  1  1
 25 26  1  0
 55 56  1  0
  4  5  1  0
 55 57  2  0
 26 27  2  0
 56 58  1  0
 27 22  1  0
 58 59  1  0
 22  2  1  0
 58 60  1  0
 19 28  1  0
 60 61  1  0
  4  6  2  0
 60 62  1  6
 26 29  1  0
 59 63  1  0
 12 13  1  0
 59 64  2  0
 65 66  1  0
 30 31  1  0
 13 14  1  0
 14  1  1  0
  1 11  1  0
  2 17  1  0
 66 67  1  0
 67 68  1  0
 68 69  1  0
 69 65  1  0
 31 32  1  0
 63 70  1  0
 32 33  1  0
 70 71  1  0
 33 34  1  0
 70 72  1  1
 34 30  1  0
 71 73  2  0
 13 15  2  0
 71 74  1  0
 74 75  1  0
 34 35  1  0
  5  7  1  0
 35 36  1  0
 75 54  1  0
 54 76  1  0
 76 77  1  0
 77 74  1  0
 77 78  1  6
 35 37  2  0
 78 79  1  0
 16 17  2  0
 78 80  2  0
 79 81  1  0
 36 38  1  0
  7  8  2  0
 38 39  1  0
 17 18  1  0
 81 82  1  0
 82 83  1  0
 83 84  1  0
 84 79  1  0
 39 40  1  0
 84 85  1  6
 40  3  1  0
 85 86  1  0
  1 23  1  0
 85 87  2  0
 18 19  2  0
 58 88  1  1
 41 42  1  0
 65 89  1  0
  8  9  1  0
 89 90  1  0
 42 43  1  0
 89 91  2  0
 19 20  1  0
 90 92  1  0
  9 12  2  0
 92 93  1  0
 43 44  1  0
 93 94  2  0
 86 47  1  0
 43 45  2  0
 86 95  1  0
 20 21  2  0
 95 96  1  0
 21 16  1  0
 96 97  2  0
 46 41  1  1
 30 93  1  1
  3  4  1  0
 92 98  1  0
 47 48  1  0
 98 99  1  0
 11 10  2  0
 99100  2  0
M  END