
  SciTegic11201309402D

 34 38  0  0  1  0            999 V2000
    1.1042   -6.4417    0.0000 C   0  0
    1.1125   -7.2667    0.0000 N   0  0
    3.2417   -5.1917    0.0000 N   0  0
    1.8167   -6.0250    0.0000 N   0  0
   -0.3208   -7.2750    0.0000 C   0  0
    3.9542   -4.7792    0.0000 C   0  0
    0.3917   -6.0292    0.0000 N   0  0
    0.4000   -7.6875    0.0000 C   0  0
   -0.3208   -6.4500    0.0000 C   0  0
    3.2417   -6.0167    0.0000 C   0  0  2  0  0  0
    2.5292   -6.4292    0.0000 C   0  0  1  0  0  0
   -1.0333   -7.6917    0.0000 C   0  0
    4.6667   -5.1917    0.0000 C   0  0
   -1.0333   -6.0375    0.0000 C   0  0
    2.5250   -4.7875    0.0000 C   0  0
    1.8125   -5.2000    0.0000 C   0  0
   -1.7458   -7.2792    0.0000 C   0  0
   -1.7458   -6.4500    0.0000 C   0  0
    5.4250   -4.8500    0.0000 O   0  0
    3.9542   -3.9542    0.0000 O   0  0
    4.7542   -6.0042    0.0000 C   0  0
    5.9792   -5.4625    0.0000 C   0  0
    5.5667   -6.1792    0.0000 C   0  0
    0.4000   -8.5125    0.0000 N   0  0
   -2.4625   -7.6917    0.0000 O   0  0
   -2.4583   -6.0417    0.0000 O   0  0
    3.9542   -6.4292    0.0000 C   0  0
    2.5292   -7.2500    0.0000 C   0  0
   -3.1750   -7.2792    0.0000 C   0  0
   -3.1750   -6.4542    0.0000 C   0  0
    3.9542   -7.2500    0.0000 C   0  0
    3.2417   -7.6625    0.0000 C   0  0
    1.6651   -6.9325    0.0000 H   0  0
    4.1080   -5.5172    0.0000 H   0  0
  2  1  1  0
  3 15  1  0
  4  1  1  0
  5  9  1  0
  6  3  1  0
  7  1  2  0
  8  2  2  0
  9  7  1  0
 10 11  1  0
 11  4  1  0
 12  5  2  0
 13  6  1  0
 14  9  2  0
 15 16  1  0
 16  4  1  0
 17 18  2  0
 18 14  1  0
 19 13  1  0
 20  6  2  0
 21 13  2  0
 22 19  1  0
 23 21  1  0
 24  8  1  0
 25 17  1  0
 26 18  1  0
 10 27  1  0
 11 28  1  0
 29 25  1  0
 30 26  1  0
 31 32  1  0
 32 28  1  0
  5  8  1  0
 10  3  1  0
 12 17  1  0
 31 27  1  0
 23 22  2  0
 11 33  1  6
 10 34  1  6
M  END