
          11280714552D 1   1.00000     0.00000     0

 21 19  0     0  0            999 V2000
    5.8375   -2.7417    0.0000 C   0  0  0  0  0  0           0  0  0
    6.3542   -2.4417    0.0000 C   0  0  0  0  0  0           0  0  0
    1.0417   -1.5542    0.0000 N   0  0  0  0  0  0           0  0  0
    5.3167   -2.4417    0.0000 O   0  0  0  0  0  0           0  0  0
    6.3542   -1.8417    0.0000 O   0  0  0  0  0  0           0  0  0
    3.6375   -1.2542    0.0000 N   0  0  0  0  0  0           0  0  0
    1.5542   -1.2542    0.0000 O   0  0  0  0  0  0           0  0  0
    0.4417   -1.5542    0.0000 C   0  0  0  0  0  0           0  0  0
    2.6000   -1.2542    0.0000 C   0  0  3  0  0  0           0  0  0
    5.8375   -3.3417    0.0000 O   0  0  0  0  0  0           0  0  0
    6.8750   -2.7417    0.0000 O   0  0  0  0  0  0           0  0  0
    2.0792   -1.5542    0.0000 C   0  0  0  0  0  0           0  0  0
    3.1167   -1.5542    0.0000 C   0  0  0  0  0  0           0  0  0
    2.6000   -0.6542    0.0000 O   0  0  0  0  0  0           0  0  0
    4.1542   -1.5542    0.0000 C   0  0  3  0  0  0           0  0  0
    0.1417   -1.0292    0.0000 C   0  0  0  0  0  0           0  0  0
    0.1375   -2.0667    0.0000 C   0  0  0  0  0  0           0  0  0
    4.6792   -1.2542    0.0000 C   0  0  0  0  0  0           0  0  0
    4.1542   -2.1542    0.0000 C   0  0  0  0  0  0           0  0  0
   -0.4583   -1.0250    0.0000 C   0  0  0  0  0  0           0  0  0
   -0.4625   -2.0667    0.0000 C   0  0  0  0  0  0           0  0  0
  2  1  1  0     0  0
  4  1  2  0     0  0
  5  2  2  0     0  0
  6 13  1  0     0  0
  7  3  1  0     0  0
  8  3  2  0     0  0
  9 12  1  0     0  0
 10  1  1  0     0  0
 11  2  1  0     0  0
 12  7  1  0     0  0
 13  9  1  0     0  0
 14  9  1  0     0  0
 15  6  1  0     0  0
 16  8  1  0     0  0
 17  8  1  0     0  0
 18 15  1  0     0  0
 19 15  1  0     0  0
 20 16  1  0     0  0
 21 17  1  0     0  0
M  END