
  SciTegic10191216002D

 27 30  0  0  0  0            999 V2000
   10.6491   -4.9582    0.0000 C   0  0
   10.6480   -5.7863    0.0000 C   0  0
   11.3634   -6.1996    0.0000 C   0  0
   12.0804   -5.7858    0.0000 C   0  0
   12.0776   -4.9546    0.0000 C   0  0
   11.3616   -4.5452    0.0000 C   0  0
   11.3660   -7.0243    0.0000 C   0  0
   11.3600   -8.6746    0.0000 C   0  0
   12.0770   -8.2632    0.0000 N   0  0
   12.0808   -7.4349    0.0000 C   0  0
   10.6469   -8.2577    0.0000 C   0  0
   10.6500   -7.4377    0.0000 C   0  0
    9.9426   -7.0268    0.0000 C   0  0
    9.2315   -7.4346    0.0000 N   0  0
    9.2323   -8.2578    0.0000 C   0  0
    9.9403   -8.6650    0.0000 C   0  0
    7.8022   -8.2596    0.0000 C   0  0
    7.0876   -8.6733    0.0000 C   0  0
    6.3720   -8.2614    0.0000 C   0  0
    5.6603   -8.6751    0.0000 N   0  0
    4.9459   -8.2667    0.0000 C   0  0
    4.2362   -8.6770    0.0000 C   0  0
    4.2344   -9.5005    0.0000 C   0  0
    4.9484   -9.9123    0.0000 C   0  0
    5.6643   -9.5003    0.0000 C   0  0
   12.7962   -6.1976    0.0000 Cl  0  0
    8.5178   -8.6715    0.0000 O   0  0
 12 13  1  0
  7 12  1  0
 13 14  2  0
  1  2  2  0
 14 15  1  0
  3  4  2  0
 15 16  2  0
 16 11  1  0
 15 27  1  0
  4  5  1  0
 27 17  1  0
  7 10  1  0
 17 18  1  0
 11  8  1  0
 18 19  1  0
  8  9  1  0
 19 20  1  0
 20 21  1  0
  9 10  1  0
  7  3  1  0
  2  3  1  0
  5  6  2  0
 11 12  2  0
 20 25  1  0
 21 22  1  0
 22 23  1  0
 23 24  1  0
 24 25  1  0
  6  1  1  0
  4 26  1  0
M  END