
  SciTegic10041313232D

 71 77  0  0  1  0            999 V2000
   -3.5537    1.2287    0.0000 C   0  0
   -4.2688    0.8143    0.0000 C   0  0
   -4.2691   -0.0108    0.0000 C   0  0  2  0  0  0
   -4.9843   -0.4211    0.0000 N   0  0
   -3.5541   -0.4214    0.0000 C   0  0
   -3.5543   -1.2465    0.0000 N   0  0
   -2.8389   -0.0111    0.0000 O   0  0
   -4.2218   -1.7361    0.0000 C   0  0
   -3.9642   -2.5211    0.0000 C   0  0
   -3.1391   -2.5213    0.0000 C   0  0
   -2.8854   -1.7364    0.0000 C   0  0  1  0  0  0
   -2.1725   -1.3185    0.0000 C   0  0
   -1.4537   -1.7223    0.0000 N   0  0
   -2.1802   -0.4935    0.0000 O   0  0
   -0.7424   -1.3053    0.0000 C   0  0  2  0  0  0
   -0.0278   -1.7091    0.0000 C   0  0
   -0.7501   -0.4802    0.0000 C   0  0
   -0.0429   -0.0591    0.0000 C   0  0
    0.6733   -0.4719    0.0000 C   0  0
    1.3840   -0.0513    0.0000 C   0  0
    1.3769    0.7746    0.0000 C   0  0
    0.6531    1.1783    0.0000 C   0  0
   -0.0548    0.7595    0.0000 C   0  0
   -0.0201   -2.5342    0.0000 O   0  0
    0.6835   -1.2921    0.0000 N   0  0
    1.4024   -1.6960    0.0000 C   0  0  2  0  0  0
    2.1136   -1.2748    0.0000 C   0  0
    2.8325   -1.6828    0.0000 N   0  0
    2.1060   -0.4498    0.0000 O   0  0
    3.5438   -1.2616    0.0000 C   0  0
    4.2626   -1.6696    0.0000 C   0  0
    4.9739   -1.2485    0.0000 N   0  0
    5.6886   -1.6565    0.0000 C   0  0
    6.3998   -1.2353    0.0000 O   0  0
    5.6962   -2.4815    0.0000 C   0  0
    4.9872   -2.8927    0.0000 C   0  0
    6.4189   -3.7061    0.0000 C   0  0
    6.4149   -2.8784    0.0000 N   0  0
    5.7058   -4.1260    0.0000 C   0  0
    4.9956   -3.7117    0.0000 C   0  0
    4.2832   -4.1256    0.0000 C   0  0
    4.2839   -4.9497    0.0000 C   0  0
    5.0030   -5.3581    0.0000 C   0  0
    5.7083   -4.9458    0.0000 C   0  0
    7.1255   -2.4604    0.0000 C   0  0
    7.8450   -2.8632    0.0000 C   0  0  2  0  0  0
    7.1168   -1.6353    0.0000 O   0  0
    7.8538   -3.6882    0.0000 C   0  0
    8.5556   -2.4451    0.0000 N   0  0
    8.5732   -4.0952    0.0000 C   0  0
    8.5801   -4.9183    0.0000 C   0  0
    9.2987   -5.3211    0.0000 C   0  0
   10.0103   -4.9030    0.0000 C   0  0
    9.9989   -4.0737    0.0000 C   0  0
    9.2797   -3.6705    0.0000 C   0  0
    7.8689   -5.3354    0.0000 C   0  0
    9.2672   -2.8456    0.0000 C   0  0
   10.7303   -5.3048    0.0000 O   0  0
    1.4100   -2.5210    0.0000 C   0  0
    2.1288   -2.9291    0.0000 C   0  0
    2.1318   -3.7533    0.0000 C   0  0
    2.8498   -4.1571    0.0000 C   0  0
    3.5620   -3.7359    0.0000 C   0  0
    3.5518   -2.9066    0.0000 C   0  0
    2.8331   -2.5066    0.0000 C   0  0
   -2.8397    0.8154    0.0000 C   0  0
   -2.1251    1.2291    0.0000 C   0  0
   -2.1258    2.0566    0.0000 C   0  0
   -2.8475    2.4685    0.0000 C   0  0
   -3.5591    2.0524    0.0000 C   0  0
   -1.4162    2.4691    0.0000 O   0  0
 35 33  1  0
 35 36  1  0
  3  5  1  0
 17 18  1  0
  3  2  1  1
 35 38  1  0
 36 40  1  0
 39 37  1  0
 37 38  1  0
 18 19  2  0
  8  9  1  0
 39 40  2  0
 19 20  1  0
 40 41  1  0
  9 10  1  0
 41 42  2  0
 20 21  2  0
 42 43  1  0
 10 11  1  0
 43 44  2  0
 44 39  1  0
 21 22  1  0
 38 45  1  0
 11  6  1  0
 45 46  1  0
 22 23  2  0
 45 47  2  0
 23 18  1  0
 46 48  1  1
  5  6  1  0
 46 49  1  0
 16 24  2  0
 48 50  1  0
 11 12  1  6
 50 51  2  0
 16 25  1  0
 51 52  1  0
  1  2  1  0
 52 53  2  0
 25 26  1  0
 53 54  1  0
 12 13  1  0
 54 55  2  0
 55 50  1  0
 26 27  1  0
 51 56  1  0
  5  7  2  0
 55 57  1  0
 27 28  1  0
 53 58  1  0
 12 14  2  0
 26 59  1  6
 27 29  2  0
 59 60  1  0
  6  8  1  0
 60 61  2  0
 28 30  1  0
 61 62  1  0
 15 13  1  0
 62 63  2  0
 30 31  1  0
 63 64  1  0
  3  4  1  0
 64 65  2  0
 65 60  1  0
 31 32  1  0
  1 66  2  0
 15 16  1  0
 66 67  1  0
 32 33  1  0
 67 68  2  0
 68 69  1  0
 33 34  2  0
 69 70  2  0
 70  1  1  0
 15 17  1  1
 68 71  1  0
M  END