
          11280715122D 1   1.00000     0.00000     0

 29 31  0     0  0            999 V2000
    8.1667   -2.2042    0.0000 C   0  0  0  0  0  0           0  0  0
    8.2042   -1.3792    0.0000 C   0  0  0  0  0  0           0  0  0
    2.7417   -0.7000    0.0000 N   0  0  3  0  0  0           0  0  0
    7.4375   -2.5792    0.0000 C   0  0  0  0  0  0           0  0  0
    8.8667   -2.6417    0.0000 N   0  0  0  0  0  0           0  0  0
    2.0292   -0.2875    0.0000 C   0  0  0  0  0  0           0  0  0
    4.3000   -1.2417    0.0000 N   0  0  3  0  0  0           0  0  0
    8.9375   -0.9917    0.0000 N   0  0  3  0  0  0           0  0  0
    7.5042   -0.9292    0.0000 O   0  0  0  0  0  0           0  0  0
    8.1000   -3.8500    0.0000 N   0  0  0  0  0  0           0  0  0
    2.9000   -1.5042    0.0000 C   0  0  0  0  0  0           0  0  0
    3.3667   -0.1667    0.0000 C   0  0  0  0  0  0           0  0  0
    2.0292    0.5458    0.0000 C   0  0  0  0  0  0           0  0  0
    8.8292   -3.4625    0.0000 C   0  0  0  0  0  0           0  0  0
    6.7250   -2.1750    0.0000 N   0  0  0  0  0  0           0  0  0
    3.6750   -1.7875    0.0000 C   0  0  0  0  0  0           0  0  0
    4.1417   -0.4292    0.0000 C   0  0  0  0  0  0           0  0  0
    7.4000   -3.4042    0.0000 C   0  0  0  0  0  0           0  0  0
    2.7417    0.9583    0.0000 O   0  0  0  0  0  0           0  0  0
    5.0792   -1.5125    0.0000 C   0  0  0  0  0  0           0  0  0
    5.2292   -2.3250    0.0000 C   0  0  0  0  0  0           0  0  0
    1.3125   -0.7000    0.0000 C   0  0  0  0  0  0           0  0  0
    8.9667   -0.1750    0.0000 C   0  0  0  0  0  0           0  0  0
    6.0125   -2.5917    0.0000 C   0  0  0  0  0  0           0  0  0
    9.6292   -1.4417    0.0000 C   0  0  0  0  0  0           0  0  0
    1.3125    0.9583    0.0000 C   0  0  0  0  0  0           0  0  0
    3.4542    0.5500    0.0000 C   0  0  0  0  0  0           0  0  0
    0.6000   -0.2875    0.0000 C   0  0  0  0  0  0           0  0  0
    0.6000    0.5458    0.0000 C   0  0  0  0  0  0           0  0  0
  2  1  1  0     0  0
  3 12  1  0     0  0
  4  1  2  0     0  0
  5  1  1  0     0  0
  6  3  1  0     0  0
  7 20  1  0     0  0
  8  2  1  0     0  0
  9  2  2  0     0  0
 10 14  1  0     0  0
 11 16  1  0     0  0
 12 17  1  0     0  0
 13  6  1  0     0  0
 14  5  2  0     0  0
 15  4  1  0     0  0
 16  7  1  0     0  0
 17  7  1  0     0  0
 18  4  1  0     0  0
 19 13  1  0     0  0
 20 21  1  0     0  0
 21 24  1  0     0  0
 22  6  2  0     0  0
 23  8  1  0     0  0
 24 15  1  0     0  0
 25  8  1  0     0  0
 26 13  2  0     0  0
 27 19  1  0     0  0
 28 22  1  0     0  0
 29 28  2  0     0  0
 10 18  2  0     0  0
 11  3  1  0     0  0
 29 26  1  0     0  0
M  END