
  SciTegic12231509382D

 22 23  0  0  1  0            999 V2000
    6.2542   -2.5167    0.0000 C   0  0
    4.8250   -2.5167    0.0000 N   0  0
    6.2542   -3.3417    0.0000 O   0  0
    5.5375   -2.1042    0.0000 C   0  0  1  0  0  0
    6.9667   -2.1000    0.0000 N   0  0
    1.2500   -3.7667    0.0000 O   0  0
    4.1042   -2.1125    0.0000 C   0  0
    1.9667   -3.3542    0.0000 C   0  0
    3.3917   -2.5292    0.0000 C   0  0
   -0.8958   -3.3542    0.0000 C   0  0
   -1.6083   -3.7667    0.0000 C   0  0
    0.5375   -3.3542    0.0000 C   0  0
   -0.1833   -3.7667    0.0000 C   0  0
   -2.3208   -3.3500    0.0000 F   0  0
    1.9667   -2.5292    0.0000 C   0  0
    2.6792   -3.7667    0.0000 C   0  0
    2.6792   -2.1167    0.0000 C   0  0
    3.3917   -3.3542    0.0000 C   0  0
   -0.8875   -5.0042    0.0000 C   0  0
   -1.6083   -4.5917    0.0000 C   0  0
   -0.1750   -4.5917    0.0000 C   0  0
    5.5292   -1.2792    0.0000 C   0  0
  2  4  1  0
  3  1  2  0
  4  1  1  0
  5  1  1  0
  6  8  1  0
  7  2  1  0
  8 16  1  0
  9  7  1  0
 10 13  2  0
 11 10  1  0
 12  6  1  0
 13 12  1  0
 14 11  1  0
 15 17  1  0
 16 18  2  0
 17  9  2  0
 18  9  1  0
 19 21  2  0
 20 19  1  0
 21 13  1  0
  4 22  1  1
  8 15  2  0
 20 11  2  0
M  END