
  SciTegic11201309402D

 26 29  0  0  0  0            999 V2000
   -8.1027    4.5375    0.0000 C   0  0
   -7.8892    5.3344    0.0000 C   0  0
   -7.3058    4.9573    0.0000 C   0  0
   -6.4219    4.9573    0.0000 C   0  0
   -6.0683    4.0366    0.0000 C   0  0  2  0  0  0
   -8.5152    3.8230    0.0000 N   0  0
   -7.7183    4.0366    0.0000 C   0  0
   -6.8357    4.6626    0.0000 C   0  0
   -5.2714    4.2501    0.0000 O   0  0
   -4.6880    3.6667    0.0000 C   0  0
   -3.8911    3.8802    0.0000 C   0  0
   -4.9016    2.8698    0.0000 O   0  0
   -3.3078    3.2969    0.0000 C   0  0
   -3.6776    4.6771    0.0000 C   0  0
   -4.1047    3.0834    0.0000 C   0  0
   -3.5213    2.5000    0.0000 C   0  0
   -2.9380    1.9166    0.0000 C   0  0
   -2.1411    2.1302    0.0000 C   0  0
   -1.9275    2.9271    0.0000 C   0  0
   -2.5109    3.5104    0.0000 C   0  0
   -2.8807    4.8907    0.0000 C   0  0
   -2.6672    5.6875    0.0000 C   0  0
   -3.2506    6.2709    0.0000 C   0  0
   -4.0475    6.0574    0.0000 C   0  0
   -4.2610    5.2605    0.0000 C   0  0
   -9.1697    3.3208    0.0000 C   0  0
  1  2  1  0
  2  3  1  0
  3  4  1  0
  4  5  1  0
  1  6  1  0
  6  7  1  0
  7  3  1  0
  5  8  1  0
  8  1  1  0
  5  9  1  1
  9 10  1  0
 10 11  1  0
 10 12  2  0
 11 13  1  0
 11 14  1  0
 11 15  1  0
 13 16  1  0
 13 20  2  0
 16 17  2  0
 17 18  1  0
 18 19  2  0
 19 20  1  0
 14 21  1  0
 14 25  2  0
 21 22  2  0
 22 23  1  0
 23 24  2  0
 24 25  1  0
  6 26  1  0
M  END