
  SciTegic12171312552D

 36 41  0  0  0  0            999 V2000
    4.1365  -12.9953    0.0000 C   0  0
    4.7226  -13.5812    0.0000 C   0  0
    5.5517  -13.5812    0.0000 C   0  0
    6.1335  -12.9953    0.0000 C   0  0
    4.1332  -12.1683    0.0000 C   0  0
    4.7225  -11.5845    0.0000 N   0  0
    4.3494  -10.8436    0.0000 N   0  0
    3.5286  -10.9698    0.0000 N   0  0
    3.3958  -11.7882    0.0000 C   0  0
    5.5517  -11.5844    0.0000 N   0  0
    6.1335  -12.1651    0.0000 C   0  0
    6.8656  -11.7912    0.0000 C   0  0
    6.7372  -10.9785    0.0000 N   0  0
    5.9242  -10.8516    0.0000 N   0  0
    3.1141  -10.2546    0.0000 C   0  0
    2.2875  -10.2561    0.0000 C   0  0
    0.6386  -10.2566    0.0000 C   0  0
    1.0575  -10.9741    0.0000 C   0  0
    1.8819  -10.9695    0.0000 C   0  0
    7.1378  -10.2554    0.0000 C   0  0
    7.9643  -10.2409    0.0000 C   0  0
    8.3876  -10.9482    0.0000 C   0  0
    9.2133  -10.9341    0.0000 C   0  0
    9.6147  -10.2105    0.0000 C   0  0
    1.0515   -9.5395    0.0000 C   0  0
    1.8765   -9.5396    0.0000 C   0  0
    2.2874   -8.8264    0.0000 C   0  0
    1.8743   -8.1124    0.0000 C   0  0
    1.0461   -8.1163    0.0000 C   0  0
    0.6390   -8.8301    0.0000 C   0  0
    8.3602   -9.5174    0.0000 C   0  0
    9.1806   -9.5023    0.0000 C   0  0
    9.5759   -8.7853    0.0000 C   0  0
    9.1519   -8.0830    0.0000 C   0  0
    8.3284   -8.1022    0.0000 C   0  0
    7.9367   -8.8197    0.0000 C   0  0
  1  5  1  0
  1  2  1  0
  2  3  1  0
  3  4  1  0
  4 11  1  0
  5  6  1  0
  6  7  2  0
  7  8  1  0
  8  9  1  0
  9  5  2  0
 10 11  1  0
 11 12  2  0
 12 13  1  0
 13 14  1  0
 14 10  2  0
  8 15  1  0
 15 16  1  0
 16 26  2  0
 25 17  2  0
 17 18  1  0
 18 19  2  0
 19 16  1  0
 13 20  1  0
 20 21  1  0
 21 22  2  0
 22 23  1  0
 23 24  2  0
 24 32  1  0
 31 21  1  0
 25 26  1  0
 26 27  1  0
 27 28  2  0
 28 29  1  0
 29 30  2  0
 30 25  1  0
 31 32  1  0
 32 33  2  0
 33 34  1  0
 34 35  2  0
 35 36  1  0
 36 31  2  0
M  END