
          11280715232D 1   1.00000     0.00000     0

 20 22  0     0  0            999 V2000
    9.2672  -18.2165    0.0000 C   0  0  0  0  0  0           0  0  0
    9.2660  -19.0437    0.0000 C   0  0  0  0  0  0           0  0  0
    9.9807  -19.4564    0.0000 C   0  0  0  0  0  0           0  0  0
    9.9789  -17.8038    0.0000 C   0  0  0  0  0  0           0  0  0
   10.6941  -18.2129    0.0000 C   0  0  0  0  0  0           0  0  0
   10.6990  -19.0437    0.0000 C   0  0  0  0  0  0           0  0  0
   11.4907  -19.2958    0.0000 N   0  0  0  0  0  0           0  0  0
   11.9752  -18.6208    0.0000 C   0  0  0  0  0  0           0  0  0
   11.4828  -17.9516    0.0000 N   0  0  0  0  0  0           0  0  0
   12.8000  -18.6159    0.0000 C   0  0  0  0  0  0           0  0  0
   13.2166  -19.3277    0.0000 O   0  0  0  0  0  0           0  0  0
   13.2081  -17.8992    0.0000 N   0  0  3  0  0  0           0  0  0
   14.0302  -17.8995    0.0000 C   0  0  0  0  0  0           0  0  0
   14.4383  -17.1868    0.0000 C   0  0  0  0  0  0           0  0  0
   14.0252  -16.4725    0.0000 N   0  0  3  0  0  0           0  0  0
   13.1994  -16.4754    0.0000 C   0  0  0  0  0  0           0  0  0
   12.7868  -17.1926    0.0000 C   0  0  0  0  0  0           0  0  0
   14.4361  -15.7574    0.0000 C   0  0  0  0  0  0           0  0  0
    9.9764  -16.9790    0.0000 Cl  0  0  0  0  0  0           0  0  0
    8.5514  -19.4555    0.0000 C   0  0  0  0  0  0           0  0  0
  4  1  2  0     0  0
  8 10  1  0     0  0
  5  6  2  0     0  0
 10 11  2  0     0  0
 10 12  1  0     0  0
 12 13  1  0     0  0
  2  3  2  0     0  0
  3  6  1  0     0  0
  1  2  1  0     0  0
  5  4  1  0     0  0
  6  7  1  0     0  0
 12 17  1  0     0  0
 13 14  1  0     0  0
 14 15  1  0     0  0
 15 16  1  0     0  0
 16 17  1  0     0  0
  7  8  1  0     0  0
 15 18  1  0     0  0
  8  9  2  0     0  0
  4 19  1  0     0  0
  9  5  1  0     0  0
  2 20  1  0     0  0
M  END