
  CDK    9/16/09,9:56

 90 92  0  0  0  0  0  0  0  0999 V2000
    4.2010   -2.2624    0.0000 C   0  0  0  0  0  0  0  0  0  0  0  0
    4.8423   -1.5788    0.0000 C   0  0  0  0  0  0  0  0  0  0  0  0
    5.0055   -2.0374    0.0000 C   0  0  0  0  0  0  0  0  0  0  0  0
    5.5536   -1.8414    0.0000 C   0  0  0  0  0  0  0  0  0  0  0  0
    5.7582   -2.3401    0.0000 C   0  0  0  0  0  0  0  0  0  0  0  0
    6.3015   -1.6559    0.0000 C   0  0  0  0  0  0  0  0  0  0  0  0
    5.0028   -1.1890    0.0000 C   0  0  0  0  0  0  0  0  0  0  0  0
    5.5594   -0.5270    0.0000 C   0  0  0  0  0  0  0  0  0  0  0  0
    4.8378   -0.7833    0.0000 C   0  0  0  0  0  0  0  0  0  0  0  0
    6.3073   -0.8370    0.0000 C   0  0  0  0  0  0  0  0  0  0  0  0
    5.5760    0.2875    0.0000 N   0  0  0  0  0  0  0  0  0  0  0  0
    6.2988    0.6853    0.0000 C   0  0  0  0  0  0  0  0  0  0  0  0
    6.3157    1.5102    0.0000 O   0  0  0  0  0  0  0  0  0  0  0  0
    7.0047    0.2583    0.0000 O   0  0  0  0  0  0  0  0  0  0  0  0
    7.0384    1.9080    0.0000 C   0  0  0  0  0  0  0  0  0  0  0  0
    7.7500    2.3250    0.0000 C   0  0  0  0  0  0  0  0  0  0  0  0
    7.4460    1.1906    0.0000 C   0  0  0  0  0  0  0  0  0  0  0  0
    6.6311    2.6254    0.0000 C   0  0  0  0  0  0  0  0  0  0  0  0
    7.0125   -2.0666    0.0000 C   0  0  0  0  0  0  0  0  0  0  0  0
    7.7270   -1.6543    0.0000 C   0  0  0  0  0  0  0  0  0  0  0  0
    8.4414   -2.0670    0.0000 C   0  0  0  0  0  0  0  0  0  0  0  0
    9.1560   -1.6547    0.0000 N   0  0  0  0  0  0  0  0  0  0  0  0
    4.1250   -1.1625    0.0000 C   0  0  0  0  0  0  0  0  0  0  0  0
    3.4096   -1.5733    0.0000 C   0  0  0  0  0  0  0  0  0  0  0  0
    2.6960   -1.1592    0.0000 C   0  0  0  0  0  0  0  0  0  0  0  0
    1.9806   -1.5701    0.0000 N   0  0  0  0  0  0  0  0  0  0  0  0
    2.6979   -0.3342    0.0000 O   0  0  0  0  0  0  0  0  0  0  0  0
    5.0000   -2.8583    0.0000 C   0  0  0  0  0  0  0  0  0  0  0  0
    5.7117   -3.2756    0.0000 C   0  0  0  0  0  0  0  0  0  0  0  0
    5.7061   -4.1006    0.0000 C   0  0  0  0  0  0  0  0  0  0  0  0
    6.4178   -4.5178    0.0000 O   0  0  0  0  0  0  0  0  0  0  0  0
    4.9889   -4.5083    0.0000 N   0  0  0  0  0  0  0  0  0  0  0  0
    1.9788   -2.3951    0.0000 C   0  0  0  0  0  0  0  0  0  0  0  0
    1.2634   -2.8060    0.0000 C   0  0  0  0  0  0  0  0  0  0  0  0
    2.6923   -2.8092    0.0000 C   0  0  0  0  0  0  0  0  0  0  0  0
    0.5498   -2.3919    0.0000 C   0  0  0  0  0  0  0  0  0  0  0  0
   -0.1656   -2.8028    0.0000 P   0  0  0  0  0  0  0  0  0  0  0  0
   -0.8834   -3.2083    0.0000 C   0  0  0  0  0  0  0  0  0  0  0  0
    0.2428   -3.5196    0.0000 O   0  0  0  0  0  0  0  0  0  0  0  0
   -0.5744   -2.0862    0.0000 O   0  0  0  0  0  0  0  0  0  0  0  0
   -1.5940   -2.7892    0.0000 C   0  0  0  0  0  0  0  0  0  0  0  0
   -2.3122   -3.1950    0.0000 C   0  0  0  0  0  0  0  0  0  0  0  0
   -1.5863   -1.9642    0.0000 C   0  0  0  0  0  0  0  0  0  0  0  0
   -0.8680   -1.5584    0.0000 C   0  0  0  0  0  0  0  0  0  0  0  0
   -0.8603   -0.7334    0.0000 C   0  0  0  0  0  0  0  0  0  0  0  0
   -0.1429   -0.3270    0.0000 O   0  0  0  0  0  0  0  0  0  0  0  0
   -1.5717   -0.3137    0.0000 O   0  0  0  0  0  0  0  0  0  0  0  0
   -3.0255   -2.7786    0.0000 O   0  0  0  0  0  0  0  0  0  0  0  0
   -2.3226   -4.0227    0.0000 O   0  0  0  0  0  0  0  0  0  0  0  0
    2.6935   -3.6333    0.0000 O   0  0  0  0  0  0  0  0  0  0  0  0
    3.4107   -2.3974    0.0000 O   0  0  0  0  0  0  0  0  0  0  0  0
    4.9834   -5.3332    0.0000 C   0  0  0  0  0  0  0  0  0  0  0  0
    4.2662   -5.7409    0.0000 C   0  0  0  0  0  0  0  0  0  0  0  0
    5.6951   -5.7505    0.0000 C   0  0  0  0  0  0  0  0  0  0  0  0
    6.4123   -5.3428    0.0000 C   0  0  0  0  0  0  0  0  0  0  0  0
    7.1240   -5.7601    0.0000 P   0  0  0  0  0  0  0  0  0  0  0  0
    7.8333   -6.1708    0.0000 C   0  0  0  0  0  0  0  0  0  0  0  0
    6.7087   -6.4729    0.0000 O   0  0  0  0  0  0  0  0  0  0  0  0
    7.5440   -5.0500    0.0000 O   0  0  0  0  0  0  0  0  0  0  0  0
    8.5483   -5.7592    0.0000 C   0  0  0  0  0  0  0  0  0  0  0  0
    9.2622   -6.1726    0.0000 C   0  0  0  0  0  0  0  0  0  0  0  0
    8.5493   -4.9342    0.0000 C   0  0  0  0  0  0  0  0  0  0  0  0
    9.2629   -4.5210    0.0000 O   0  0  0  0  0  0  0  0  0  0  0  0
    7.8339   -4.5192    0.0000 O   0  0  0  0  0  0  0  0  0  0  0  0
    9.2612   -6.9976    0.0000 C   0  0  0  0  0  0  0  0  0  0  0  0
    9.9752   -7.4110    0.0000 C   0  0  0  0  0  0  0  0  0  0  0  0
    9.9775   -8.2364    0.0000 O   0  0  0  0  0  0  0  0  0  0  0  0
   10.6935   -6.9998    0.0000 O   0  0  0  0  0  0  0  0  0  0  0  0
    8.4412   -2.8920    0.0000 O   0  0  0  0  0  0  0  0  0  0  0  0
    9.8704   -2.0673    0.0000 C   0  0  0  0  0  0  0  0  0  0  0  0
   10.5849   -1.6550    0.0000 C   0  0  0  0  0  0  0  0  0  0  0  0
    9.8701   -2.8923    0.0000 C   0  0  0  0  0  0  0  0  0  0  0  0
   11.2993   -2.0677    0.0000 C   0  0  0  0  0  0  0  0  0  0  0  0
   12.0139   -1.6554    0.0000 P   0  0  0  0  0  0  0  0  0  0  0  0
   12.7250   -1.2375    0.0000 C   0  0  0  0  0  0  0  0  0  0  0  0
   12.4290   -2.3683    0.0000 O   0  0  0  0  0  0  0  0  0  0  0  0
   11.5989   -0.9424    0.0000 O   0  0  0  0  0  0  0  0  0  0  0  0
   13.4426   -1.6444    0.0000 C   0  0  0  0  0  0  0  0  0  0  0  0
   14.1539   -1.2264    0.0000 C   0  0  0  0  0  0  0  0  0  0  0  0
   13.4490   -2.4694    0.0000 C   0  0  0  0  0  0  0  0  0  0  0  0
   14.8715   -1.6334    0.0000 C   0  0  0  0  0  0  0  0  0  0  0  0
   15.5828   -1.2154    0.0000 C   0  0  0  0  0  0  0  0  0  0  0  0
   16.3027   -1.6202    0.0000 O   0  0  0  0  0  0  0  0  0  0  0  0
   15.5787   -0.3882    0.0000 O   0  0  0  0  0  0  0  0  0  0  0  0
   12.7382   -2.8902    0.0000 O   0  0  0  0  0  0  0  0  0  0  0  0
   14.1671   -2.8791    0.0000 O   0  0  0  0  0  0  0  0  0  0  0  0
    9.1571   -3.3062    0.0000 O   0  0  0  0  0  0  0  0  0  0  0  0
   10.5860   -3.3065    0.0000 O   0  0  0  0  0  0  0  0  0  0  0  0
    3.5518   -5.3259    0.0000 O   0  0  0  0  0  0  0  0  0  0  0  0
    4.2580   -6.5681    0.0000 O   0  0  0  0  0  0  0  0  0  0  0  0
  2  9  1  0  0  0  0 
 43 44  1  0  0  0  0 
 20 21  1  0  0  0  0 
 44 45  1  0  0  0  0 
  6 10  1  0  0  0  0 
 21 22  1  0  0  0  0 
 45 46  1  0  0  0  0 
 45 47  2  0  0  0  0 
 10  8  1  0  0  0  0 
  2 23  1  0  0  0  0 
 42 48  1  0  0  0  0 
 42 49  2  0  0  0  0 
  8  9  1  0  0  0  0 
 23 24  1  0  0  0  0 
 35 50  1  0  0  0  0 
 35 51  2  0  0  0  0 
  8 11  1  0  0  0  0 
 52 32  1  1  0  0  0 
 24 25  1  0  0  0  0 
 52 53  1  0  0  0  0 
 52 54  1  0  0  0  0 
 25 26  1  0  0  0  0 
 54 55  1  0  0  0  0 
 11 12  1  0  0  0  0 
 55 56  1  0  0  0  0 
 25 27  2  0  0  0  0 
 56 57  1  0  0  0  0 
  1  2  1  0  0  0  0 
 56 58  1  0  0  0  0 
  3 28  1  0  0  0  0 
 56 59  2  0  0  0  0 
 12 13  1  0  0  0  0 
 57 60  1  0  0  0  0 
 28 29  1  0  0  0  0 
 60 61  1  0  0  0  0 
  1  3  1  0  0  0  0 
 60 62  1  0  0  0  0 
 29 30  1  0  0  0  0 
 12 14  2  0  0  0  0 
 62 63  1  0  0  0  0 
 62 64  2  0  0  0  0 
 30 31  2  0  0  0  0 
 61 65  1  0  0  0  0 
  2  4  1  0  0  0  0 
 65 66  1  0  0  0  0 
 30 32  1  0  0  0  0 
 13 15  1  0  0  0  0 
 66 67  1  0  0  0  0 
 66 68  2  0  0  0  0 
 33 26  1  6  0  0  0 
 21 69  2  0  0  0  0 
  3  5  1  0  0  0  0 
 70 22  1  1  0  0  0 
 33 34  1  0  0  0  0 
 70 71  1  0  0  0  0 
 15 16  1  0  0  0  0 
 70 72  1  0  0  0  0 
 33 35  1  0  0  0  0 
 71 73  1  0  0  0  0 
  4  6  1  0  0  0  0 
 73 74  1  0  0  0  0 
 34 36  1  0  0  0  0 
 74 75  1  0  0  0  0 
 15 17  1  0  0  0  0 
 74 76  1  0  0  0  0 
 36 37  1  0  0  0  0 
 74 77  2  0  0  0  0 
  5  6  1  0  0  0  0 
 75 78  1  0  0  0  0 
 37 38  1  0  0  0  0 
 78 79  1  0  0  0  0 
 15 18  1  0  0  0  0 
 78 80  1  0  0  0  0 
 37 39  1  0  0  0  0 
 79 81  1  0  0  0  0 
  7  8  1  0  0  0  0 
 81 82  1  0  0  0  0 
 37 40  2  0  0  0  0 
  6 19  1  0  0  0  0 
 82 83  1  0  0  0  0 
 82 84  2  0  0  0  0 
 38 41  1  0  0  0  0 
  3  7  1  0  0  0  0 
 80 85  1  0  0  0  0 
 80 86  2  0  0  0  0 
 41 42  1  0  0  0  0 
 19 20  1  0  0  0  0 
 72 87  1  0  0  0  0 
 72 88  2  0  0  0  0 
 41 43  1  0  0  0  0 
 53 89  1  0  0  0  0 
 53 90  2  0  0  0  0 
M  END