
          05080814032D 1   1.00000     0.00000     0

 29 33  0     1  0            999 V2000
    1.2696  -22.2791    0.0000 C   0  0  0  0  0  0           0  0  0
    1.2696  -23.1086    0.0000 C   0  0  0  0  0  0           0  0  0
    1.9840  -23.5211    0.0000 N   0  0  3  0  0  0           0  0  0
    2.7031  -23.1086    0.0000 C   0  0  0  0  0  0           0  0  0
    2.7031  -22.2791    0.0000 C   0  0  0  0  0  0           0  0  0
    1.9840  -21.8620    0.0000 O   0  0  0  0  0  0           0  0  0
    1.9828  -24.3461    0.0000 C   0  0  0  0  0  0           0  0  0
    2.6967  -24.7596    0.0000 C   0  0  0  0  0  0           0  0  0
    2.6956  -25.5846    0.0000 C   0  0  0  0  0  0           0  0  0
    3.4095  -25.9980    0.0000 O   0  0  0  0  0  0           0  0  0
    4.1245  -25.5865    0.0000 C   0  0  0  0  0  0           0  0  0
    4.8358  -26.0013    0.0000 C   0  0  0  0  0  0           0  0  0
    4.8330  -24.3514    0.0000 C   0  0  0  0  0  0           0  0  0
    4.1214  -24.7645    0.0000 C   0  0  0  0  0  0           0  0  0
    5.5519  -24.7646    0.0000 C   0  0  0  0  0  0           0  0  0
    5.5503  -25.5928    0.0000 C   0  0  0  0  0  0           0  0  0
    6.9829  -24.7675    0.0000 C   0  0  0  0  0  0           0  0  0
    6.2659  -24.3497    0.0000 C   0  0  1  0  0  0           0  0  0
    6.9812  -25.5956    0.0000 N   0  0  3  0  0  0           0  0  0
    6.2625  -26.0015    0.0000 C   0  0  2  0  0  0           0  0  0
    6.4264  -26.8106    0.0000 C   0  0  0  0  0  0           0  0  0
    7.2465  -26.9046    0.0000 C   0  0  0  0  0  0           0  0  0
    7.5894  -26.1538    0.0000 C   0  0  0  0  0  0           0  0  0
    6.2665  -23.5247    0.0000 C   0  0  0  0  0  0           0  0  0
    5.5457  -26.4086    0.0000 H   0  0  0  0  0  0           0  0  0
    6.9311  -23.0380    0.0000 S   0  0  0  0  0  0           0  0  0
    6.6765  -22.2533    0.0000 C   0  0  0  0  0  0           0  0  0
    5.8515  -22.2527    0.0000 C   0  0  0  0  0  0           0  0  0
    5.5962  -23.0372    0.0000 N   0  0  0  0  0  0           0  0  0
 13 14  2  0     0  0
 14 11  1  0     0  0
 15 16  2  0     0  0
  3  7  1  0     0  0
  1  2  1  0     0  0
  7  8  1  0     0  0
  1  6  1  0     0  0
 15 18  1  0     0  0
 16 20  1  0     0  0
 19 17  1  0     0  0
 17 18  1  0     0  0
 19 20  1  0     0  0
  8  9  1  0     0  0
  2  3  1  0     0  0
  9 10  1  0     0  0
  3  4  1  0     0  0
 10 11  1  0     0  0
 20 21  1  0     0  0
 21 22  1  0     0  0
 22 23  1  0     0  0
 23 19  1  0     0  0
  4  5  1  0     0  0
 18 24  1  6     0  0
 11 12  2  0     0  0
 20 25  1  1     0  0
 24 26  1  0     0  0
 12 16  1  0     0  0
  5  6  1  0     0  0
 15 13  1  0     0  0
 26 27  1  0     0  0
 27 28  2  0     0  0
 28 29  1  0     0  0
 29 24  2  0     0  0
M  END