
  SciTegic11201309402D

 21 22  0  0  1  0            999 V2000
   15.2667   -5.8500    0.0000 N   0  0
   14.5625   -6.2667    0.0000 C   0  0  1  0  0  0
   13.8417   -5.8542    0.0000 C   0  0  2  0  0  0
   13.8417   -5.0292    0.0000 O   0  0
    9.5542   -5.8667    0.0000 C   0  0
   12.4167   -5.8542    0.0000 O   0  0
   15.9792   -6.2667    0.0000 C   0  0
   13.1292   -6.2667    0.0000 C   0  0
   14.5625   -7.0917    0.0000 C   0  0
   10.2792   -6.2667    0.0000 C   0  0
   11.7000   -6.2667    0.0000 C   0  0
    9.5542   -5.0417    0.0000 C   0  0
    8.8542   -6.2792    0.0000 C   0  0
   10.9875   -5.8542    0.0000 C   0  0
   15.9792   -7.0917    0.0000 C   0  0
   15.2667   -7.5000    0.0000 C   0  0
    8.1292   -5.8792    0.0000 C   0  0
    8.8375   -4.6292    0.0000 C   0  0
    8.1250   -5.0542    0.0000 C   0  0
   13.1292   -5.4417    0.0000 H   0  0
   14.5542   -5.4417    0.0000 H   0  0
  2  1  1  0
  3  2  1  0
  3  4  1  0
  5 10  1  0
  6  8  1  0
  7  1  1  0
  8  3  1  0
  9  2  1  0
 10 14  1  0
 11  6  1  0
 12  5  2  0
 13  5  1  0
 14 11  1  0
 15  7  1  0
 16 15  1  0
 17 13  2  0
 18 12  1  0
 19 17  1  0
  3 20  1  6
  2 21  1  1
 16  9  1  0
 19 18  2  0
M  END