
  SciTegic01161211252D

 15 17  0  0  0  0            999 V2000
   -2.5125   -0.9724    0.0000 C   0  0
   -2.2053   -1.7327    0.0000 C   0  0
   -1.1918   -0.4338    0.0000 C   0  0
   -2.0114   -0.3150    0.0000 C   0  0
   -0.8763   -1.2024    0.0000 C   0  0
   -1.3890   -1.8525    0.0000 C   0  0
   -0.9262   -2.5307    0.0000 S   0  0
   -0.1017   -1.4838    0.0000 C   0  0
   -0.1356   -2.3052    0.0000 C   0  0
    0.5506   -2.7477    0.0000 N   0  0
    1.2794   -2.3614    0.0000 C   0  0
    1.3095   -1.5368    0.0000 N   0  0
    0.6143   -1.1063    0.0000 C   0  0
    0.6448   -0.2786    0.0000 N   0  0
    1.3781    0.1130    0.0000 N   0  0
  7  9  1  0
  8  5  1  0
  2  6  1  0
  5  3  1  0
  8  9  2  0
  3  4  1  0
  9 10  1  0
  5  6  2  0
 10 11  2  0
 11 12  1  0
  1  2  1  0
 12 13  2  0
 13  8  1  0
  1  4  1  0
 13 14  1  0
  6  7  1  0
 14 15  1  0
M  END