
  SciTegic11261311332D

 39 41  0  0  0  0            999 V2000
   -1.4412   -1.0979    0.0000 P   0  0
   -1.1057   -0.3443    0.0000 O   0  0
   -1.7768   -1.8516    0.0000 O   0  0
   -0.0201   -0.9486    0.0000 P   0  0
   -0.5051   -0.2811    0.0000 O   0  0
    0.4648   -1.6160    0.0000 O   0  0
   -0.6876   -1.4335    0.0000 O   0  0
    0.6473   -0.4637    0.0000 O   0  0
    1.4010   -0.7992    0.0000 C   0  0
    2.0684   -0.3143    0.0000 C   0  0  1  0  0  0
    2.0684    0.5107    0.0000 O   0  0
    2.8530   -0.5692    0.0000 C   0  0  1  0  0  0
    3.1080   -1.3539    0.0000 O   0  0
    3.3380    0.0982    0.0000 C   0  0  1  0  0  0
    4.1630    0.0982    0.0000 O   0  0
    2.8530    0.7656    0.0000 C   0  0  2  0  0  0
    3.1080    1.5503    0.0000 N   0  0
    2.6231    2.2177    0.0000 C   0  0
    3.1080    2.8851    0.0000 N   0  0
    3.8926    2.6302    0.0000 C   0  0
    4.6071    3.0427    0.0000 C   0  0
    4.6071    3.8677    0.0000 N   0  0
    5.3215    2.6302    0.0000 N   0  0
    5.3215    1.8052    0.0000 C   0  0
    4.6071    1.3927    0.0000 N   0  0
    3.8926    1.8052    0.0000 C   0  0
   -2.1949   -0.7624    0.0000 C   0  0
   -1.8594   -0.0087    0.0000 F   0  0
   -2.5305   -1.5161    0.0000 F   0  0
   -2.9486   -0.4268    0.0000 C   0  0
   -3.6160   -0.9118    0.0000 C   0  0
   -4.3697   -0.5762    0.0000 C   0  0
   -5.0372   -1.0611    0.0000 C   0  0
   -5.5221   -0.3937    0.0000 F   0  0
   -4.5522   -1.7286    0.0000 F   0  0
   -5.7046   -1.5460    0.0000 P   0  0
   -6.3720   -2.0310    0.0000 O   0  0
   -6.1895   -0.8786    0.0000 O   0  0
   -5.2197   -2.2135    0.0000 O   0  0
  1  2  1  0
  3  1  2  0
  1  7  1  0
 27  1  1  0
  4  5  1  0
  6  4  2  0
  4  7  1  0
  8  4  1  0
  9  8  1  0
 10  9  1  1
 10 11  1  0
 12 10  1  0
 16 11  1  0
 12 13  1  6
 14 12  1  0
 14 15  1  6
 16 14  1  0
 16 17  1  1
 18 17  1  0
 26 17  1  0
 18 19  2  0
 20 19  1  0
 20 21  1  0
 26 20  2  0
 21 22  1  0
 21 23  2  0
 24 23  1  0
 24 25  2  0
 26 25  1  0
 27 28  1  0
 27 29  1  0
 27 30  1  0
 30 31  1  0
 31 32  1  0
 32 33  1  0
 33 34  1  0
 33 35  1  0
 33 36  1  0
 37 36  1  0
 38 36  1  0
 39 36  2  0
M  END