
  SciTegic02271217242D

 37 40  0  0  0  0            999 V2000
   -0.8014  -18.8083    0.0000 C   0  0
   -0.8026  -19.6357    0.0000 C   0  0
   -0.0878  -20.0485    0.0000 C   0  0
    0.6287  -19.6352    0.0000 C   0  0
    0.6258  -18.8047    0.0000 C   0  0
   -0.0896  -18.3955    0.0000 C   0  0
    1.3387  -18.3895    0.0000 O   0  0
    2.0547  -18.7993    0.0000 C   0  0
    2.0545  -19.6219    0.0000 C   0  0
    2.7697  -20.0317    0.0000 C   0  0
    3.4836  -19.6164    0.0000 C   0  0
    3.4778  -18.7872    0.0000 C   0  0
    2.7620  -18.3812    0.0000 C   0  0
    4.2001  -20.0253    0.0000 Cl  0  0
    2.7547  -17.5562    0.0000 N   0  0
    3.4654  -17.1373    0.0000 S   0  0
    4.1835  -17.5434    0.0000 C   0  0
    3.0458  -16.4167    0.0000 O   0  0
    3.8708  -16.4167    0.0000 O   0  0
    4.1879  -18.3677    0.0000 C   0  0
    4.9052  -18.7738    0.0000 C   0  0
    5.6170  -18.3548    0.0000 C   0  0
    5.6069  -17.5256    0.0000 C   0  0
    4.8890  -17.1233    0.0000 C   0  0
    6.3162  -17.1042    0.0000 Cl  0  0
    6.3356  -18.7599    0.0000 Cl  0  0
   -1.5174  -20.0476    0.0000 C   0  0
   -2.2315  -19.6345    0.0000 N   0  0
   -1.5180  -20.8726    0.0000 O   0  0
   -2.2309  -18.8095    0.0000 C   0  0
   -2.9450  -18.3965    0.0000 C   0  0
   -3.6598  -18.8084    0.0000 N   0  0
   -4.3762  -18.3883    0.0000 C   0  0
   -5.0889  -18.7968    0.0000 C   0  0
   -5.0938  -19.6221    0.0000 C   0  0
   -4.3798  -20.0374    0.0000 C   0  0
   -3.6609  -19.6273    0.0000 C   0  0
 16 18  2  0
  8  9  2  0
 16 19  2  0
  4  5  1  0
 17 20  2  0
  9 10  1  0
 20 21  1  0
  2  3  1  0
 21 22  2  0
 10 11  2  0
 22 23  1  0
  5  6  2  0
 23 24  2  0
 24 17  1  0
 11 12  1  0
 23 25  1  0
  6  1  1  0
 22 26  1  0
 12 13  2  0
  2 27  1  0
 13  8  1  0
 27 28  1  0
  1  2  2  0
 27 29  2  0
 11 14  1  0
 28 30  1  0
  5  7  1  0
 30 31  1  0
 13 15  1  0
 31 32  1  0
 32 33  1  0
  3  4  2  0
 15 16  1  0
  7  8  1  0
 16 17  1  0
 32 37  1  0
 33 34  1  0
 34 35  1  0
 35 36  1  0
 36 37  1  0
M  END