
          11280714502D 1   1.00000     0.00000     0

 31 35  0     1  0            999 V2000
    1.7167   -1.3875    0.0000 C   0  0  1  0  0  0           0  0  0
    1.7250   -0.1917    0.0000 N   0  0  3  0  0  0           0  0  0
    1.7125   -1.9792    0.0000 C   0  0  2  0  0  0           0  0  0
    1.2042   -0.4917    0.0000 C   0  0  2  0  0  0           0  0  0
    0.6875   -0.1917    0.0000 C   0  0  0  0  0  0           0  0  0
    1.2000   -1.0875    0.0000 C   0  0  0  0  0  0           0  0  0
    0.6917    0.4083    0.0000 C   0  0  0  0  0  0           0  0  0
    2.2417   -1.0917    0.0000 C   0  0  1  0  0  0           0  0  0
    0.1750   -0.4917    0.0000 C   0  0  0  0  0  0           0  0  0
    1.1875   -2.2792    0.0000 C   0  0  0  0  0  0           0  0  0
    2.2417   -0.4917    0.0000 C   0  0  0  0  0  0           0  0  0
   -0.3458   -0.1917    0.0000 C   0  0  0  0  0  0           0  0  0
   -0.3458    0.4083    0.0000 C   0  0  0  0  0  0           0  0  0
    0.1750    0.7083    0.0000 C   0  0  0  0  0  0           0  0  0
   -0.8625   -0.4917    0.0000 O   0  0  0  0  0  0           0  0  0
    1.7250    0.4083    0.0000 C   0  0  0  0  0  0           0  0  0
   -0.8625    0.7083    0.0000 O   0  0  0  0  0  0           0  0  0
    2.2250   -2.2875    0.0000 C   0  0  1  0  0  0           0  0  0
   -1.4708    0.0958    0.0000 C   0  0  0  0  0  0           0  0  0
    1.2042    0.7083    0.0000 C   0  0  0  0  0  0           0  0  0
    1.1792   -2.8792    0.0000 O   0  0  0  0  0  0           0  0  0
    2.7542   -1.3917    0.0000 C   0  0  0  0  0  0           0  0  0
    2.7417   -1.9917    0.0000 C   0  0  0  0  0  0           0  0  0
    0.6750   -1.9667    0.0000 O   0  0  0  0  0  0           0  0  0
    2.5167   -2.8042    0.0000 O   0  0  0  0  0  0           0  0  0
    0.1542   -2.2667    0.0000 C   0  0  0  0  0  0           0  0  0
   -0.3625   -1.9542    0.0000 C   0  0  0  0  0  0           0  0  0
    1.9167   -2.8042    0.0000 H   0  0  0  0  0  0           0  0  0
    2.7542   -0.7917    0.0000 H   0  0  0  0  0  0           0  0  0
    1.2000   -1.6792    0.0000 H   0  0  0  0  0  0           0  0  0
    0.6792   -0.7875    0.0000 H   0  0  0  0  0  0           0  0  0
  2 11  1  0     0  0
  3  1  1  0     0  0
  4  6  1  0     0  0
  5  4  1  0     0  0
  6  1  1  0     0  0
  7  5  2  0     0  0
  8  1  1  0     0  0
  9  5  1  0     0  0
  3 10  1  1     0  0
 11  8  1  0     0  0
 12  9  2  0     0  0
 13 12  1  0     0  0
 14  7  1  0     0  0
 15 12  1  0     0  0
 16  2  1  0     0  0
 17 13  1  0     0  0
 18  3  1  0     0  0
 19 15  1  0     0  0
 20 16  1  0     0  0
 21 10  2  0     0  0
 22  8  1  0     0  0
 23 22  1  0     0  0
 24 10  1  0     0  0
 18 25  1  1     0  0
 26 24  1  0     0  0
 27 26  1  0     0  0
 18 28  1  6     0  0
  8 29  1  6     0  0
  1 30  1  6     0  0
  4 31  1  6     0  0
  4  2  1  0     0  0
 23 18  1  0     0  0
 20  7  1  0     0  0
 13 14  2  0     0  0
 17 19  1  0     0  0
M  END