
  SciTegic04151115542D

 25 27  0  0  0  0            999 V2000
   -5.6848  -10.9625    0.0000 C   0  0
   -5.6859  -11.7898    0.0000 C   0  0
   -4.9711  -12.2027    0.0000 C   0  0
   -4.2547  -11.7894    0.0000 C   0  0
   -4.2575  -10.9588    0.0000 C   0  0
   -4.9729  -10.5497    0.0000 C   0  0
   -3.5395  -12.2007    0.0000 C   0  0
   -3.5383  -13.0257    0.0000 O   0  0
   -2.8257  -11.7871    0.0000 N   0  0
   -2.1106  -12.1985    0.0000 C   0  0
   -1.3968  -11.7849    0.0000 C   0  0
   -2.1093  -13.0235    0.0000 C   0  0
   -2.8231  -13.4371    0.0000 C   0  0
   -2.8218  -14.2621    0.0000 C   0  0
   -1.3942  -13.4349    0.0000 C   0  0
   -0.6817  -12.1964    0.0000 N   0  0
   -1.3981  -10.9599    0.0000 O   0  0
   -0.6826  -13.0195    0.0000 C   0  0
    0.1017  -13.2757    0.0000 C   0  0
    0.1037  -11.9409    0.0000 C   0  0
    0.5853  -12.6097    0.0000 C   0  0
    1.4034  -12.5262    0.0000 C   0  0
    1.7409  -11.7746    0.0000 C   0  0
    1.2542  -11.1055    0.0000 C   0  0
    0.4378  -11.1924    0.0000 C   0  0
  6  1  1  0
 12 13  1  0
  1  2  2  0
 13 14  1  0
  4  7  1  0
 12 15  1  0
  3  4  2  0
 11 16  1  0
  7  8  2  0
 11 17  2  0
 16 18  1  0
  7  9  1  0
 18 19  1  0
 19 21  1  0
 20 16  1  0
  4  5  1  0
  9 10  1  0
 20 21  2  0
  2  3  1  0
 21 22  1  0
 10 11  1  0
 22 23  2  0
  5  6  2  0
 23 24  1  0
 10 12  1  0
 24 25  2  0
 25 20  1  0
M  END