
  SciTegic12131016252D

 20 23  0  0  0  0            999 V2000
   -2.1270   -9.5452    0.0000 C   0  0
   -2.1409   -8.7168    0.0000 S   0  0
   -2.9306   -8.4783    0.0000 C   0  0
   -2.9086   -9.8120    0.0000 C   0  0
   -3.4055   -9.1525    0.0000 C   0  0
   -3.3825  -10.4884    0.0000 C   0  0
   -4.1722  -10.2469    0.0000 C   0  0
   -4.1846   -9.4242    0.0000 C   0  0
   -4.9021   -9.0254    0.0000 C   0  0
   -5.6077   -9.4482    0.0000 C   0  0
   -5.5912  -10.2739    0.0000 C   0  0
   -4.8732  -10.6690    0.0000 C   0  0
   -3.1137  -11.2693    0.0000 O   0  0
   -1.4513  -10.0198    0.0000 N   0  0
   -3.3635   -7.7791    0.0000 C   0  0
   -2.9709   -7.0513    0.0000 C   0  0
   -3.4047   -6.3495    0.0000 N   0  0
   -4.2311   -6.3743    0.0000 C   0  0
   -4.6216   -7.1067    0.0000 N   0  0
   -4.1855   -7.8055    0.0000 C   0  0
  9 10  2  0
  4  1  2  0
 10 11  1  0
  1  2  1  0
 11 12  2  0
 12  7  1  0
  5  8  1  0
  6 13  2  0
  7  6  1  0
  1 14  1  0
  6  4  1  0
  2  3  1  0
 15 16  2  0
  3  5  2  0
 16 17  1  0
  7  8  2  0
 17 18  2  0
  4  5  1  0
 18 19  1  0
  8  9  1  0
 19 20  2  0
 20 15  1  0
  3 15  1  0
M  END