
          11280715462D 1   1.00000     0.00000     0

 30 33  0     0  0            999 V2000
    4.6167   -4.6167    0.0000 C   0  0  0  0  0  0           0  0  0
    4.6250   -3.7917    0.0000 C   0  0  0  0  0  0           0  0  0
    5.3292   -5.0292    0.0000 C   0  0  0  0  0  0           0  0  0
    5.3417   -3.3792    0.0000 O   0  0  0  0  0  0           0  0  0
    3.9042   -5.0250    0.0000 C   0  0  0  0  0  0           0  0  0
   -0.4083   -5.9167    0.0000 N   0  0  3  0  0  0           0  0  0
    6.0500   -4.6250    0.0000 C   0  0  0  0  0  0           0  0  0
    6.0542   -3.8000    0.0000 C   0  0  0  0  0  0           0  0  0
   -1.1125   -6.3292    0.0000 C   0  0  0  0  0  0           0  0  0
    1.0292   -5.0792    0.0000 N   0  0  3  0  0  0           0  0  0
    3.9125   -3.3792    0.0000 O   0  0  0  0  0  0           0  0  0
    0.3042   -6.3167    0.0000 C   0  0  0  0  0  0           0  0  0
   -0.4083   -5.0792    0.0000 C   0  0  0  0  0  0           0  0  0
    3.9167   -5.8542    0.0000 O   0  0  0  0  0  0           0  0  0
   -1.1083   -7.1542    0.0000 C   0  0  0  0  0  0           0  0  0
    3.1792   -4.6167    0.0000 N   0  0  0  0  0  0           0  0  0
    1.0292   -5.9167    0.0000 C   0  0  0  0  0  0           0  0  0
    0.3042   -4.6625    0.0000 C   0  0  0  0  0  0           0  0  0
    2.4667   -5.0500    0.0000 C   0  0  0  0  0  0           0  0  0
   -0.3958   -7.5667    0.0000 O   0  0  0  0  0  0           0  0  0
    1.7542   -4.6542    0.0000 C   0  0  0  0  0  0           0  0  0
   -1.8333   -5.9250    0.0000 C   0  0  0  0  0  0           0  0  0
    6.7667   -5.0417    0.0000 C   0  0  0  0  0  0           0  0  0
    6.7750   -3.3875    0.0000 C   0  0  0  0  0  0           0  0  0
   -1.8208   -7.5792    0.0000 C   0  0  0  0  0  0           0  0  0
   -0.3833   -8.4000    0.0000 C   0  0  0  0  0  0           0  0  0
   -2.5500   -6.3417    0.0000 C   0  0  0  0  0  0           0  0  0
    7.4792   -4.6292    0.0000 C   0  0  0  0  0  0           0  0  0
    7.4875   -3.8042    0.0000 C   0  0  0  0  0  0           0  0  0
   -2.5458   -7.1667    0.0000 C   0  0  0  0  0  0           0  0  0
  2  1  1  0     0  0
  3  1  2  0     0  0
  4  2  1  0     0  0
  5  1  1  0     0  0
  6 13  1  0     0  0
  7  3  1  0     0  0
  8  7  2  0     0  0
  9  6  1  0     0  0
 10 21  1  0     0  0
 11  2  2  0     0  0
 12 17  1  0     0  0
 13 18  1  0     0  0
 14  5  2  0     0  0
 15  9  1  0     0  0
 16  5  1  0     0  0
 17 10  1  0     0  0
 18 10  1  0     0  0
 19 16  1  0     0  0
 20 15  1  0     0  0
 21 19  1  0     0  0
 22  9  2  0     0  0
 23  7  1  0     0  0
 24  8  1  0     0  0
 25 15  2  0     0  0
 26 20  1  0     0  0
 27 22  1  0     0  0
 28 23  2  0     0  0
 29 28  1  0     0  0
 30 27  2  0     0  0
  4  8  1  0     0  0
 24 29  2  0     0  0
 12  6  1  0     0  0
 30 25  1  0     0  0
M  END