
  SciTegic06061311522D

 34 41  0  0  0  0            999 V2000
    4.4664   -2.9458    0.0000 C   0  0  2  0  0  0
    3.5972   -2.9494    0.0000 C   0  0
    3.3040   -2.1204    0.0000 C   0  0  1  0  0  0
    4.0335   -2.0399    0.0000 O   0  0
    4.7592   -2.1226    0.0000 C   0  0  2  0  0  0
    4.9823   -1.2618    0.0000 N   0  0
    3.0833   -1.2588    0.0000 N   0  0
    4.4602   -0.5784    0.0000 C   0  0
    3.6100   -0.5784    0.0000 C   0  0
    4.8834    0.1422    0.0000 C   0  0
    3.1800    0.1362    0.0000 C   0  0
    4.4416    0.8589    0.0000 C   0  0
    3.6166    0.8569    0.0000 C   0  0
    5.7532   -0.9123    0.0000 C   0  0
    2.3030   -0.9157    0.0000 C   0  0
    2.3680   -0.0933    0.0000 C   0  0
    5.6923   -0.0896    0.0000 C   0  0
    4.6947    1.6441    0.0000 C   0  0
    4.0261    2.1275    0.0000 N   0  0
    3.3598    1.6410    0.0000 C   0  0
    6.4962   -1.2709    0.0000 C   0  0
    1.5582   -1.2706    0.0000 C   0  0
    1.6883    0.3743    0.0000 C   0  0
    6.3744    0.3746    0.0000 C   0  0
    0.8785   -0.8031    0.0000 C   0  0
    0.9435    0.0193    0.0000 C   0  0
    7.1174    0.0159    0.0000 C   0  0
    7.1783   -0.8068    0.0000 C   0  0
    5.5479   -2.3645    0.0000 C   0  0
    2.5147   -2.3605    0.0000 H   0  0
    5.2112   -3.3007    0.0000 O   0  0
    4.5547   -3.7661    0.0000 C   0  0
    3.8885   -4.2527    0.0000 O   0  0
    2.5746    1.8941    0.0000 O   0  0
  5  1  1  0
  8  6  1  0
  9  8  1  0
 10  8  2  0
 11  9  2  0
 12 10  1  0
 13 12  2  0
 14  6  1  0
 15  7  1  0
 16 15  2  0
 17 14  2  0
 18 12  1  0
 19 18  1  0
 20 13  1  0
 21 14  1  0
 22 15  1  0
 23 16  1  0
 24 17  1  0
 25 22  2  0
 26 23  2  0
 27 28  1  0
 28 21  2  0
 10 17  1  0
  9  7  1  0
 11 16  1  0
 24 27  2  0
 11 13  1  0
 20 19  1  0
 25 26  1  0
  3  7  1  0
  5  6  1  0
  1  2  1  0
  5 29  1  1
  3 30  1  1
  2  3  1  0
  1 31  1  6
  3  4  1  0
  1 32  1  1
  4  5  1  0
 32 33  1  0
 20 34  2  0
M  END