
  SciTegic06051315212D

 40 44  0  0  0  0            999 V2000
   27.4484   -5.2579    0.0000 O   0  0
   28.8409   -4.3669    0.0000 O   0  0
   30.3092   -5.1281    0.0000 O   0  0
   30.3826   -6.7767    0.0000 O   0  0
   28.2203   -6.4646    0.0000 O   0  0
   29.7801   -7.9128    0.0000 O   0  0
   28.1807   -5.6396    0.0000 C   0  0  2  0  0  0
   28.8770   -5.1941    0.0000 C   0  0  1  0  0  0
   29.6130   -5.5736    0.0000 C   0  0  2  0  0  0
   29.6490   -6.4007    0.0000 C   0  0  1  0  0  0
   28.9527   -6.8461    0.0000 C   0  0  1  0  0  0
   28.9900   -7.6675    0.0000 C   0  0
   27.4325   -4.4339    0.0000 C   0  0  2  0  0  0
   28.1356   -4.0123    0.0000 O   0  0
   28.1197   -3.1884    0.0000 C   0  0
   27.4005   -2.7860    0.0000 C   0  0
   26.7135   -4.0399    0.0000 C   0  0  1  0  0  0
   26.6928   -3.2115    0.0000 C   0  0  2  0  0  0
   25.8986   -2.9751    0.0000 C   0  0  1  0  0  0
   25.9319   -4.3154    0.0000 C   0  0  2  0  0  0
   25.4251   -3.6544    0.0000 C   0  0  1  0  0  0
   25.1061   -4.4238    0.0000 O   0  0
   26.3886   -5.0013    0.0000 C   0  0
   26.0229   -5.7398    0.0000 O   0  0
   26.6689   -2.3839    0.0000 H   0  0
   26.7253   -4.8639    0.0000 H   0  0
   25.6266   -2.1972    0.0000 O   0  0
   24.8257   -3.0773    0.0000 H   0  0
   27.4727   -6.0608    0.0000 H   0  0
   26.1643   -1.5726    0.0000 C   0  0
   25.8923   -0.7947    0.0000 O   0  0
   26.9739   -1.7260    0.0000 C   0  0
   27.5116   -1.1015    0.0000 C   0  0
   28.3213   -1.2549    0.0000 C   0  0
   28.5916   -2.0323    0.0000 C   0  0
   29.4004   -2.1859    0.0000 C   0  0
   29.9390   -1.5610    0.0000 C   0  0
   29.6631   -0.7799    0.0000 C   0  0
   28.8550   -0.6301    0.0000 C   0  0
   30.7489   -1.7133    0.0000 O   0  0
  6 12  1  0
 11  5  1  0
  5  7  1  0
  7  8  1  0
  8  9  1  0
  9 10  1  0
 10 11  1  0
 11 12  1  1
  7  1  1  0
  8  2  1  6
  9  3  1  1
 10  4  1  6
 18 16  1  0
 17 13  1  0
 13 14  1  0
 14 15  1  0
 15 16  2  0
 17 18  1  0
 18 19  1  0
 19 21  1  0
 20 17  1  0
 21 20  1  0
 22 21  1  0
 20 22  1  0
 20 23  1  6
 23 24  1  0
 18 25  1  1
 17 26  1  1
 19 27  1  1
 21 28  1  6
 13  1  1  1
  7 29  1  6
 27 30  1  0
 30 31  2  0
 30 32  1  0
 32 33  2  0
 33 34  1  0
 34 35  2  0
 35 36  1  0
 36 37  2  0
 37 38  1  0
 38 39  2  0
 39 34  1  0
 37 40  1  0
M  END