
  SciTegic12231509382D

 28 31  0  0  0  0            999 V2000
   23.5560   -3.8466    0.0000 C   0  0
   24.3527   -4.0593    0.0000 C   0  0
   24.8011   -3.3674    0.0000 C   0  0
   24.2817   -2.7270    0.0000 C   0  0
   23.5123   -3.0232    0.0000 C   0  0
   16.4143   -6.3436    0.0000 C   0  0
   16.4131   -7.1717    0.0000 C   0  0
   17.1286   -7.5850    0.0000 C   0  0
   17.8458   -7.1713    0.0000 C   0  0
   17.8429   -6.3399    0.0000 C   0  0
   17.1268   -5.9304    0.0000 C   0  0
   18.5534   -5.9256    0.0000 N   0  0
   19.2704   -6.3376    0.0000 C   0  0
   19.9835   -5.9227    0.0000 C   0  0
   19.9808   -5.0960    0.0000 N   0  0
   19.2591   -4.6860    0.0000 C   0  0
   18.5489   -5.1032    0.0000 C   0  0
   17.1244   -5.1046    0.0000 O   0  0
   16.4080   -4.6938    0.0000 C   0  0
   20.6939   -4.6795    0.0000 C   0  0
   21.4112   -5.0887    0.0000 C   0  0
   22.1242   -4.6722    0.0000 N   0  0
   22.8426   -5.0882    0.0000 C   0  0
   23.5535   -4.6752    0.0000 C   0  0
   22.8365   -3.4376    0.0000 C   0  0
   22.1194   -3.8523    0.0000 C   0  0
   21.4029   -3.4417    0.0000 O   0  0
   22.8432   -5.9140    0.0000 O   0  0
  2  3  1  0
 14 15  1  0
  7  8  1  0
 15 16  1  0
  3  4  1  0
 16 17  1  0
 17 12  1  0
 10 12  1  0
  8  9  2  0
 11 18  1  0
  4  5  1  0
 18 19  1  0
  9 10  1  0
 15 20  1  0
  5  1  1  0
 20 21  1  0
 10 11  2  0
 21 22  1  0
 22 23  1  0
 11  6  1  0
  1  2  1  0
 12 13  1  0
 22 26  1  0
 23 24  1  0
 24  1  1  0
  1 25  1  0
 25 26  1  0
  6  7  2  0
 26 27  2  0
 13 14  1  0
 23 28  2  0
M  END