
  SciTegic04091415032D

 39 42  0  0  0  0            999 V2000
   13.1727  -26.1336    0.0000 C   0  0
   13.1716  -26.9572    0.0000 C   0  0
   13.8837  -27.3703    0.0000 C   0  0
   13.8819  -25.7247    0.0000 C   0  0
   14.5947  -26.1300    0.0000 C   0  0
   14.5954  -26.9531    0.0000 C   0  0
   15.3081  -27.3643    0.0000 N   0  0
   16.0205  -26.9494    0.0000 C   0  0
   16.0158  -26.1231    0.0000 C   0  0
   15.3025  -25.7197    0.0000 C   0  0
   12.4689  -25.7209    0.0000 C   0  0
   15.2982  -24.8984    0.0000 C   0  0
   16.0078  -24.4820    0.0000 O   0  0
   14.5842  -24.4895    0.0000 O   0  0
   16.7339  -27.3593    0.0000 C   0  0
   16.7371  -28.1806    0.0000 N   0  0
   17.4442  -26.9439    0.0000 O   0  0
   17.4505  -28.5865    0.0000 C   0  0  2  0  0  0
   17.4537  -29.4078    0.0000 C   0  0
   18.1566  -28.1751    0.0000 C   0  0
   18.8700  -28.5810    0.0000 C   0  0
   18.1630  -29.8178    0.0000 O   0  0
   16.7434  -29.8233    0.0000 O   0  0
   18.1661  -30.6391    0.0000 C   0  0
   18.8701  -29.3993    0.0000 C   0  0
   19.5827  -29.8092    0.0000 C   0  0
   20.2939  -29.3937    0.0000 C   0  0
   20.2881  -28.5682    0.0000 C   0  0
   19.5749  -28.1661    0.0000 C   0  0
   21.0079  -29.8027    0.0000 F   0  0
   12.4777  -24.9000    0.0000 C   0  0
   11.7706  -24.4833    0.0000 C   0  0
   11.0562  -24.8906    0.0000 C   0  0
   11.0533  -25.7148    0.0000 C   0  0
   11.7610  -26.1237    0.0000 C   0  0
   10.3402  -26.1212    0.0000 C   0  0
    9.6297  -25.7103    0.0000 F   0  0
   10.3376  -26.9425    0.0000 F   0  0
    9.6247  -26.5257    0.0000 F   0  0
  1  2  2  0
  2  3  1  0
  3  6  2  0
  5  4  2  0
  4  1  1  0
  5  6  1  0
  6  7  1  0
  7  8  2  0
  8  9  1  0
  9 10  2  0
 10  5  1  0
  1 11  1  0
 10 12  1  0
 12 13  2  0
 12 14  1  0
  8 15  1  0
 15 16  1  0
 15 17  2  0
 16 18  1  0
 18 19  1  1
 18 20  1  0
 20 21  1  0
 19 22  1  0
 19 23  2  0
 22 24  1  0
 21 25  2  0
 25 26  1  0
 26 27  2  0
 27 28  1  0
 28 29  2  0
 29 21  1  0
 27 30  1  0
 11 31  2  0
 31 32  1  0
 32 33  2  0
 33 34  1  0
 34 35  2  0
 35 11  1  0
 34 36  1  0
 36 37  1  0
 36 38  1  0
 36 39  1  0
M  END