
  SciTegic12231509382D

 35 40  0  0  0  0            999 V2000
    0.4831   -1.9610    0.0000 N   0  0
    1.1995   -1.5477    0.0000 C   0  0
    1.1966   -0.7172    0.0000 N   0  0
    0.4813   -0.3080    0.0000 C   0  0
   -0.2318   -1.5482    0.0000 C   0  0
   -0.2305   -0.7192    0.0000 C   0  0
   -1.0185   -0.4619    0.0000 S   0  0
   -1.5068   -1.1318    0.0000 C   0  0
   -1.0205   -1.8031    0.0000 C   0  0
    0.4799    0.5169    0.0000 N   0  0
    1.1953    0.9297    0.0000 C   0  0
    1.1954    1.7511    0.0000 C   0  0
    0.4819    2.1659    0.0000 O   0  0
   -0.2335    1.7531    0.0000 C   0  0
   -0.2353    0.9254    0.0000 C   0  0
    1.9111   -1.9583    0.0000 C   0  0
    1.9110   -2.7844    0.0000 C   0  0
    2.6253   -3.1957    0.0000 C   0  0
    3.3401   -2.7820    0.0000 C   0  0
    2.6213   -1.5452    0.0000 C   0  0
    3.3327   -1.9526    0.0000 C   0  0
    3.9400   -1.4019    0.0000 N   0  0
    3.6039   -0.6541    0.0000 N   0  0
    2.7890   -0.7428    0.0000 C   0  0
   -2.3318   -1.1306    0.0000 C   0  0
   -2.7432   -0.4155    0.0000 N   0  0
   -2.3284    0.3001    0.0000 C   0  0
   -2.7363    1.0130    0.0000 C   0  0
   -3.5617    1.0185    0.0000 N   0  0
   -3.9774    0.3048    0.0000 C   0  0
   -3.5678   -0.4144    0.0000 C   0  0
   -3.9704    1.7351    0.0000 S   0  0
   -3.5542    2.4474    0.0000 C   0  0
   -4.7708    1.5250    0.0000 O   0  0
   -4.3875    2.4542    0.0000 O   0  0
 16 17  2  0
  7  8  1  0
 17 18  1  0
  8  9  2  0
 18 19  2  0
 19 21  1  0
 20 16  1  0
  2 16  1  0
 20 21  2  0
  9  5  1  0
 10 11  1  0
  4  6  1  0
  5  6  2  0
  1  2  2  0
 21 22  1  0
 22 23  1  0
 23 24  2  0
 24 20  1  0
  5  1  1  0
  8 25  1  0
  2  3  1  0
 25 26  1  0
 26 27  1  0
 10 15  1  0
 11 12  1  0
 12 13  1  0
 13 14  1  0
 26 31  1  0
 27 28  1  0
 28 29  1  0
 29 30  1  0
 30 31  1  0
 14 15  1  0
 29 32  1  0
  4 10  1  0
 32 33  1  0
  3  4  2  0
 32 34  2  0
  6  7  1  0
 32 35  2  0
M  END