
  SciTegic12231509382D

 40 44  0  0  0  0            999 V2000
   21.0499  -22.2023    0.0000 C   0  0
   20.6413  -22.9072    0.0000 C   0  0
   21.0499  -23.6163    0.0000 C   0  0
   21.8671  -23.6163    0.0000 C   0  0
   22.2757  -22.9072    0.0000 C   0  0
   21.8671  -22.2023    0.0000 O   0  0
   23.0929  -22.9072    0.0000 C   0  0
   23.5015  -23.6163    0.0000 C   0  0
   23.0929  -24.3254    0.0000 C   0  0
   22.2757  -24.3254    0.0000 C   0  0
   20.6413  -24.3254    0.0000 O   0  0
   19.8241  -22.9072    0.0000 C   0  0
   19.4155  -23.6163    0.0000 N   0  0
   18.5983  -23.6163    0.0000 C   0  0
   18.1897  -22.9072    0.0000 C   0  0
   17.3725  -22.9072    0.0000 N   0  0
   16.9639  -22.2023    0.0000 C   0  0
   14.8695  -21.9013    0.0000 N   0  0
   15.6334  -21.6102    0.0000 C   0  0
   16.1484  -22.2423    0.0000 C   0  0
   15.7011  -22.9299    0.0000 C   0  0
   15.9142  -23.7173    0.0000 C   0  0
   15.3359  -24.2956    0.0000 C   0  0
   14.5444  -24.0866    0.0000 C   0  0
   14.3354  -23.2951    0.0000 C   0  0
   14.9137  -22.7168    0.0000 C   0  0
   14.1861  -21.4580    0.0000 C   0  0
   13.4584  -21.8262    0.0000 C   0  0
   12.7708  -21.3829    0.0000 C   0  0
   12.8150  -20.5674    0.0000 C   0  0
   13.5426  -20.1952    0.0000 C   0  0
   14.2261  -20.6425    0.0000 C   0  0
   12.0432  -21.7552    0.0000 C   0  0
   11.3341  -22.1638    0.0000 F   0  0
   11.3341  -21.3466    0.0000 F   0  0
   12.0432  -22.5724    0.0000 F   0  0
   16.9639  -23.6163    0.0000 C   0  0
   19.8241  -24.3254    0.0000 C   0  0
   24.3187  -23.6163    0.0000 C   0  0
   23.5015  -25.0345    0.0000 C   0  0
  1  2  2  0
  2  3  1  0
  3  4  1  0
  4  5  1  0
  5  6  1  0
  1  6  1  0
  7  8  1  0
  8  9  2  0
  9 10  1  0
  4 10  2  0
  5  7  2  0
  3 11  2  0
 14 15  1  0
 18 19  1  0
 19 20  2  0
 20 21  1  0
 21 22  1  0
 22 23  2  0
 23 24  1  0
 24 25  2  0
 25 26  1  0
 18 26  1  0
 21 26  2  0
 27 28  1  0
 28 29  2  0
 29 30  1  0
 30 31  2  0
 31 32  1  0
 27 32  2  0
 33 34  1  0
 33 35  1  0
 33 36  1  0
 29 33  1  0
 18 27  1  0
 17 20  1  0
 16 17  1  0
 16 37  1  0
 15 16  1  0
 13 14  1  0
 13 38  1  0
 12 13  1  0
  2 12  1  0
  8 39  1  0
  9 40  1  0
M  END