
  SciTegic12201612092D

 21 24  0  0  0  0            999 V2000
   -2.3155    0.7475    0.0000 C   0  0
   -2.3155   -0.7475    0.0000 C   0  0
   -1.0028   -1.5132    0.0000 C   0  0
   -1.0028    1.5132    0.0000 C   0  0
    0.2917    0.7475    0.0000 C   0  0
    0.2917   -0.7475    0.0000 C   0  0
    1.7138   -1.2033    0.0000 N   0  0
    2.5889    0.0182    0.0000 C   0  0
    1.7138    1.2033    0.0000 C   0  0
    2.1855   -2.6254    0.0000 C   0  0
    1.3877   -3.5218    0.0000 C   0  0
    3.3606   -2.8684    0.0000 O   0  0
    2.1749    2.6315    0.0000 C   0  0
    3.7307    4.4741    0.0000 N   0  0
    3.6098    2.9673    0.0000 C   0  0
    4.5195    2.1847    0.0000 C   0  0
    2.3244    5.0398    0.0000 N   0  0
    1.3792    3.8944    0.0000 C   0  0
    0.0007    4.4539    0.0000 O   0  0
    0.0875    5.9391    0.0000 C   0  0
    1.5619    6.3222    0.0000 C   0  0
  1  2  2  0
  2  3  1  0
  3  6  2  0
  5  4  2  0
  4  1  1  0
  5  6  1  0
  6  7  1  0
  7  8  1  0
  8  9  2  0
  9  5  1  0
  7 10  1  0
 10 11  1  0
 10 12  2  0
  9 13  1  0
 13 18  2  0
 17 14  1  0
 14 15  2  0
 15 13  1  0
 15 16  1  0
 17 18  1  0
 18 19  1  0
 19 20  1  0
 20 21  1  0
 21 17  1  0
M  END