
  CDK    9/16/09,9:55

 21 25  0  0  0  0  0  0  0  0999 V2000
    9.3397  -14.7724    0.0000 C   0  0  0  0  0  0  0  0  0  0  0  0
   10.0578  -14.3621    0.0000 C   0  0  0  0  0  0  0  0  0  0  0  0
   10.8827  -13.5371    0.0000 C   0  0  0  0  0  0  0  0  0  0  0  0
   11.2971  -12.8164    0.0000 C   0  0  0  0  0  0  0  0  0  0  0  0
   10.0620  -13.5414    0.0000 C   0  0  0  0  0  0  0  0  0  0  0  0
   10.8870  -14.3663    0.0000 C   0  0  0  0  0  0  0  0  0  0  0  0
    8.9293  -15.4864    0.0000 O   0  0  0  0  0  0  0  0  0  0  0  0
   10.4638  -15.0717    0.0000 Cl  0  0  0  0  0  0  0  0  0  0  0  0
    9.5832  -13.0583    0.0000 C   0  0  0  0  0  0  0  0  0  0  0  0
    9.5832  -13.8833    0.0000 C   0  0  0  0  0  0  0  0  0  0  0  0
   10.4082  -13.8833    0.0000 C   0  0  0  0  0  0  0  0  0  0  0  0
   10.4082  -13.0583    0.0000 C   0  0  0  0  0  0  0  0  0  0  0  0
    8.9986  -12.4717    0.0000 Cl  0  0  0  0  0  0  0  0  0  0  0  0
   11.4673  -14.9487    0.0000 Cl  0  0  0  0  0  0  0  0  0  0  0  0
   10.8742  -12.0967    0.0000 Cl  0  0  0  0  0  0  0  0  0  0  0  0
    9.9894  -12.3360    0.0000 Cl  0  0  0  0  0  0  0  0  0  0  0  0
    8.9378  -13.2037    0.0000 Cl  0  0  0  0  0  0  0  0  0  0  0  0
   12.0026  -12.3958    0.0000 Cl  0  0  0  0  0  0  0  0  0  0  0  0
   11.5923  -13.1182    0.0000 Cl  0  0  0  0  0  0  0  0  0  0  0  0
   11.6008  -13.8919    0.0000 Cl  0  0  0  0  0  0  0  0  0  0  0  0
    8.8609  -14.2895    0.0000 Cl  0  0  0  0  0  0  0  0  0  0  0  0
  6  3  1  0  0  0  0 
 10 11  1  0  0  0  0 
 11 12  1  0  0  0  0 
 12  9  1  0  0  0  0 
  4 12  1  0  0  0  0 
 11  6  1  0  0  0  0 
 10  1  1  0  0  0  0 
  5  9  1  0  0  0  0 
  3  5  1  0  0  0  0 
  9 13  1  0  0  0  0 
  2  1  1  0  0  0  0 
  6 14  1  0  0  0  0 
  1  7  2  0  0  0  0 
  4 15  1  0  0  0  0 
  5  2  1  0  0  0  0 
 12 16  1  0  0  0  0 
  2  8  1  0  0  0  0 
  5 17  1  0  0  0  0 
  9 10  1  0  0  0  0 
  4 18  1  0  0  0  0 
  4  3  1  0  0  0  0 
  3 19  1  0  0  0  0 
 11 20  1  0  0  0  0 
  2  6  1  0  0  0  0 
 10 21  1  0  0  0  0 
M  END