
  CDK    9/16/09,9:50

 46 49  0  0  0  0  0  0  0  0999 V2000
   -2.6353  -18.4700    0.0000 C   0  0  0  0  0  0  0  0  0  0  0  0
   -1.9089  -18.0719    0.0000 C   0  0  0  0  0  0  0  0  0  0  0  0
   -1.2073  -18.5034    0.0000 C   0  0  0  0  0  0  0  0  0  0  0  0
   -1.2233  -19.3231    0.0000 C   0  0  0  0  0  0  0  0  0  0  0  0
   -1.9497  -19.7212    0.0000 C   0  0  0  0  0  0  0  0  0  0  0  0
   -2.6601  -19.2994    0.0000 O   0  0  0  0  0  0  0  0  0  0  0  0
   -0.4810  -18.1053    0.0000 N   0  0  0  0  0  0  0  0  0  0  0  0
   -1.8913  -17.2444    0.0000 O   0  0  0  0  0  0  0  0  0  0  0  0
   -3.3440  -18.0383    0.0000 C   0  0  0  0  0  0  0  0  0  0  0  0
   -1.9713  -22.2155    0.0000 O   0  0  0  0  0  0  0  0  0  0  0  0
   -3.3247  -17.2144    0.0000 O   0  0  0  0  0  0  0  0  0  0  0  0
   -0.4625  -17.2813    0.0000 C   0  0  0  0  0  0  0  0  0  0  0  0
    0.2602  -16.8853    0.0000 C   0  0  0  0  0  0  0  0  0  0  0  0
   -1.1669  -16.8535    0.0000 O   0  0  0  0  0  0  0  0  0  0  0  0
    0.2741  -16.0602    0.0000 C   0  0  0  0  0  0  0  0  0  0  0  0
    0.9961  -15.6642    0.0000 C   0  0  0  0  0  0  0  0  0  0  0  0
    1.7013  -16.0923    0.0000 C   0  0  0  0  0  0  0  0  0  0  0  0
    1.6803  -16.9204    0.0000 C   0  0  0  0  0  0  0  0  0  0  0  0
    0.9578  -17.3126    0.0000 C   0  0  0  0  0  0  0  0  0  0  0  0
    2.4289  -15.6987    0.0000 N   0  0  0  0  0  0  0  0  0  0  0  0
    3.1326  -16.1275    0.0000 O   0  0  0  0  0  0  0  0  0  0  0  0
    2.4484  -14.8747    0.0000 O   0  0  0  0  0  0  0  0  0  0  0  0
   -4.1165  -20.9699    0.0000 C   0  0  0  0  0  0  0  0  0  0  0  0
   -4.1165  -21.7981    0.0000 C   0  0  0  0  0  0  0  0  0  0  0  0
   -3.4011  -22.2061    0.0000 C   0  0  0  0  0  0  0  0  0  0  0  0
   -2.6898  -21.7981    0.0000 C   0  0  0  0  0  0  0  0  0  0  0  0
   -2.6898  -20.9699    0.0000 C   0  0  0  0  0  0  0  0  0  0  0  0
   -3.4011  -20.5494    0.0000 O   0  0  0  0  0  0  0  0  0  0  0  0
   -1.9707  -20.5557    0.0000 S   0  0  0  0  0  0  0  0  0  0  0  0
   -3.4011  -23.0343    0.0000 N   0  0  0  0  0  0  0  0  0  0  0  0
   -4.8339  -22.2113    0.0000 O   0  0  0  0  0  0  0  0  0  0  0  0
   -4.8357  -20.5557    0.0000 C   0  0  0  0  0  0  0  0  0  0  0  0
   -5.5489  -20.9686    0.0000 O   0  0  0  0  0  0  0  0  0  0  0  0
   -4.1148  -23.4464    0.0000 C   0  0  0  0  0  0  0  0  0  0  0  0
   -4.1148  -24.2706    0.0000 C   0  0  0  0  0  0  0  0  0  0  0  0
   -4.8286  -23.0343    0.0000 O   0  0  0  0  0  0  0  0  0  0  0  0
   -4.8318  -24.6793    0.0000 C   0  0  0  0  0  0  0  0  0  0  0  0
   -4.8321  -25.5027    0.0000 C   0  0  0  0  0  0  0  0  0  0  0  0
   -4.1178  -25.9155    0.0000 C   0  0  0  0  0  0  0  0  0  0  0  0
   -3.4018  -25.4991    0.0000 C   0  0  0  0  0  0  0  0  0  0  0  0
   -3.4049  -24.6770    0.0000 C   0  0  0  0  0  0  0  0  0  0  0  0
   -4.1134  -26.7427    0.0000 N   0  0  0  0  0  0  0  0  0  0  0  0
   -3.3991  -27.1539    0.0000 O   0  0  0  0  0  0  0  0  0  0  0  0
   -4.8266  -27.1557    0.0000 O   0  0  0  0  0  0  0  0  0  0  0  0
   -1.2404  -20.1291    0.0000 H   0  0  0  0  0  0  0  0  0  0  0  0
   -0.5184  -19.7500    0.0000 O   0  0  0  0  0  0  0  0  0  0  0  0
  4  5  1  0  0  0  0 
  7 12  1  0  0  0  0 
  5  6  1  0  0  0  0 
 12 13  1  0  0  0  0 
 12 14  2  0  0  0  0 
 23 28  1  0  0  0  0 
 24 25  1  0  0  0  0 
 25 26  1  0  0  0  0 
 26 27  1  0  0  0  0 
 27 28  1  0  0  0  0 
  3  7  1  1  0  0  0 
 27 29  1  1  0  0  0 
 13 15  2  0  0  0  0 
 25 30  1  1  0  0  0 
  1  2  1  0  0  0  0 
 24 31  1  1  0  0  0 
 15 16  1  0  0  0  0 
 23 32  1  1  0  0  0 
 29  5  1  0  0  0  0 
 26 10  1  6  0  0  0 
  2  8  1  1  0  0  0 
 32 33  1  0  0  0  0 
 16 17  2  0  0  0  0 
 30 34  1  0  0  0  0 
  1  6  1  0  0  0  0 
 34 35  1  0  0  0  0 
 17 18  1  0  0  0  0 
 34 36  2  0  0  0  0 
  1  9  1  1  0  0  0 
 35 37  2  0  0  0  0 
 18 19  2  0  0  0  0 
 37 38  1  0  0  0  0 
 19 13  1  0  0  0  0 
 38 39  2  0  0  0  0 
  2  3  1  0  0  0  0 
 39 40  1  0  0  0  0 
  3  4  1  0  0  0  0 
 40 41  2  0  0  0  0 
 41 35  1  0  0  0  0 
  9 11  1  0  0  0  0 
 20 21  2  0  0  0  0 
 20 22  1  0  0  0  0 
 42 43  2  0  0  0  0 
 42 44  1  0  0  0  0 
 39 42  1  0  0  0  0 
 17 20  1  0  0  0  0 
  5 45  1  6  0  0  0 
 23 24  1  0  0  0  0 
  4 46  1  6  0  0  0 
M  CHG  1  20   1
M  CHG  1  22  -1
M  CHG  1  42   1
M  CHG  1  44  -1
M  END