
  SciTegic01161211212D

 52 57  0  0  0  0            999 V2000
    7.6958   -4.2583    0.0000 N   0  3
    8.2500   -4.8708    0.0000 C   0  0
    7.8417   -5.5875    0.0000 N   0  0
    6.9375   -4.6000    0.0000 C   0  0
    7.0292   -5.4167    0.0000 C   0  0
    9.0542   -5.0417    0.0000 S   0  0
    1.2250   -4.6000    0.0000 C   0  0
    0.3292   -5.5958    0.0000 C   0  0
    1.1375   -5.4250    0.0000 S   0  0
    2.6542   -4.6000    0.0000 C   0  0
    1.9375   -4.1875    0.0000 N   0  0
    8.3958   -6.1958    0.0000 C   0  0
   -0.0042   -6.3500    0.0000 C   0  0
    9.1458   -5.8583    0.0000 C   0  0
    4.7958   -4.1875    0.0000 C   0  0
    3.3667   -4.1875    0.0000 N   0  0
   -0.0833   -4.8833    0.0000 C   0  0
    7.8667   -3.4500    0.0000 C   0  0
    4.0833   -4.6000    0.0000 C   0  0  1  0  0  0
    0.4708   -4.2667    0.0000 C   0  0
    5.5083   -4.6000    0.0000 N   0  0
    6.2250   -4.1875    0.0000 C   0  0
   -0.8250   -6.4375    0.0000 O   0  0
    2.6542   -5.4250    0.0000 O   0  0
    8.6500   -3.1958    0.0000 C   0  0
    0.4792   -7.0167    0.0000 O   0  0
   10.0458   -3.4875    0.0000 C   0  0
    4.0833   -5.4250    0.0000 C   0  0
    9.2667   -3.7500    0.0000 C   0  0
    4.7958   -3.3625    0.0000 O   0  0
   10.2208   -2.6833    0.0000 C   0  0
    9.6000   -2.1333    0.0000 C   0  0
    4.7958   -5.8375    0.0000 C   0  0
    8.8208   -2.3917    0.0000 C   0  0
    6.2208   -6.6625    0.0000 C   0  0
   -1.1625   -7.1917    0.0000 C   0  0
    5.5042   -5.4250    0.0000 C   0  0
    4.7917   -6.6625    0.0000 C   0  0
    5.5042   -7.0750    0.0000 C   0  0
    6.2167   -5.8333    0.0000 C   0  0
    6.9333   -7.0750    0.0000 O   0  0
    9.8625   -6.2667    0.0000 C   0  0
   10.6542   -4.0375    0.0000 C   0  0
   10.9958   -2.4333    0.0000 C   0  0
   -1.9792   -7.2750    0.0000 C   0  0
   -0.6792   -7.8583    0.0000 C   0  0
   11.4375   -3.7875    0.0000 C   0  0
   11.6083   -2.9792    0.0000 C   0  0
   -1.0125   -8.6125    0.0000 C   0  0
   -2.3167   -8.0250    0.0000 C   0  0
   -1.8333   -8.6958    0.0000 C   0  0
    6.0458   -9.0208    0.0000 I   0  5
  2  1  2  0
  3  2  1  0
  4  1  1  0
  5  4  2  0
  6  2  1  0
  7 11  1  0
  8  9  1  0
  9  7  1  0
 10 16  1  0
 11 10  1  0
 12  3  1  0
 13  8  1  0
 14  6  1  0
 15 21  1  0
 16 19  1  0
 17 20  1  0
 18  1  1  0
 19 15  1  0
 20  7  2  0
 21 22  1  0
 22  4  1  0
 23 13  1  0
 24 10  2  0
 25 18  1  0
 26 13  2  0
 27 29  1  0
 19 28  1  6
 29 25  2  0
 30 15  2  0
 31 32  1  0
 32 34  2  0
 33 28  1  0
 34 25  1  0
 35 39  2  0
 36 23  1  0
 37 33  1  0
 38 33  2  0
 39 38  1  0
 40 37  2  0
 41 35  1  0
 42 14  1  0
 43 27  2  0
 44 31  2  0
 45 36  1  0
 46 36  1  0
 47 43  1  0
 48 44  1  0
 49 46  1  0
 50 45  1  0
 51 49  1  0
  3  5  1  0
 14 12  2  0
 27 31  1  0
 48 47  2  0
 40 35  1  0
  8 17  2  0
 51 50  1  0
M  CHG  2   1   1  52  -1
M  END