
  CDK    9/16/09,9:48

 27 30  0  0  0  0  0  0  0  0999 V2000
   14.4751   -5.0730    0.0000 N   0  0  0  0  0  0  0  0  0  0  0  0
   13.6853   -5.3310    0.0000 C   0  0  0  0  0  0  0  0  0  0  0  0
   13.6892   -6.1600    0.0000 C   0  0  0  0  0  0  0  0  0  0  0  0
   14.4788   -6.4131    0.0000 N   0  0  0  0  0  0  0  0  0  0  0  0
   14.9639   -5.7408    0.0000 C   0  0  0  0  0  0  0  0  0  0  0  0
   13.0181   -4.8503    0.0000 C   0  0  0  0  0  0  0  0  0  0  0  0
   13.1033   -4.0286    0.0000 C   0  0  0  0  0  0  0  0  0  0  0  0
   12.4352   -3.5459    0.0000 C   0  0  0  0  0  0  0  0  0  0  0  0
   11.6816   -3.8837    0.0000 N   0  0  0  0  0  0  0  0  0  0  0  0
   11.6001   -4.7090    0.0000 C   0  0  0  0  0  0  0  0  0  0  0  0
   12.2691   -5.1880    0.0000 C   0  0  0  0  0  0  0  0  0  0  0  0
   13.0247   -6.6482    0.0000 C   0  0  0  0  0  0  0  0  0  0  0  0
   12.2692   -6.3142    0.0000 C   0  0  0  0  0  0  0  0  0  0  0  0
   11.6042   -6.8012    0.0000 C   0  0  0  0  0  0  0  0  0  0  0  0
   13.1155   -7.4648    0.0000 C   0  0  0  0  0  0  0  0  0  0  0  0
   12.4537   -7.9539    0.0000 C   0  0  0  0  0  0  0  0  0  0  0  0
   11.6889   -7.6221    0.0000 C   0  0  0  0  0  0  0  0  0  0  0  0
   11.1370   -8.2470    0.0000 C   0  0  0  0  0  0  0  0  0  0  0  0
   11.5608   -8.9650    0.0000 C   0  0  0  0  0  0  0  0  0  0  0  0
   12.3745   -8.7838    0.0000 C   0  0  0  0  0  0  0  0  0  0  0  0
   10.3157   -8.1686    0.0000 N   0  0  0  0  0  0  0  0  0  0  0  0
    9.8372   -8.8407    0.0000 O   0  0  0  0  0  0  0  0  0  0  0  0
   15.7889   -5.7380    0.0000 C   0  0  0  0  0  0  0  0  0  0  0  0
   16.6125   -5.7375    0.0000 C   0  0  0  0  0  0  0  0  0  0  0  0
   15.7873   -4.9130    0.0000 C   0  0  0  0  0  0  0  0  0  0  0  0
   15.7920   -6.5630    0.0000 C   0  0  0  0  0  0  0  0  0  0  0  0
   17.0254   -6.4517    0.0000 N   0  0  0  0  0  0  0  0  0  0  0  0
  6  7  2  0  0  0  0 
 13 14  1  0  0  0  0 
 14 17  2  0  0  0  0 
  1  2  1  0  0  0  0 
 16 15  2  0  0  0  0 
 15 12  1  0  0  0  0 
  3 12  1  0  0  0  0 
 16 17  1  0  0  0  0 
  7  8  1  0  0  0  0 
  3  4  1  0  0  0  0 
  8  9  2  0  0  0  0 
  4  5  2  0  0  0  0 
  9 10  1  0  0  0  0 
 17 18  1  0  0  0  0 
 18 19  1  0  0  0  0 
 19 20  1  0  0  0  0 
 20 16  1  0  0  0  0 
  5  1  1  0  0  0  0 
 18 21  2  0  0  0  0 
 10 11  2  0  0  0  0 
 21 22  1  0  0  0  0 
 11  6  1  0  0  0  0 
  5 23  1  0  0  0  0 
  2  6  1  0  0  0  0 
 23 24  1  0  0  0  0 
  2  3  2  0  0  0  0 
 23 25  1  0  0  0  0 
 23 26  1  0  0  0  0 
 12 13  2  0  0  0  0 
 24 27  1  0  0  0  0 
M  END