
  SciTegic04091415222D

 24 26  0  0  0  0            999 V2000
   16.4465  -29.9596    0.0000 C   0  0
   17.1518  -29.5551    0.0000 C   0  0
   17.1518  -28.7379    0.0000 C   0  0
   16.4465  -28.3252    0.0000 C   0  0
   16.4465  -30.7767    0.0000 O   0  0
   16.4465  -27.5080    0.0000 O   0  0
   15.7412  -29.5551    0.0000 C   0  0
   15.7438  -28.7397    0.0000 C   0  0
   15.0400  -28.3316    0.0000 C   0  0
   14.3333  -28.7377    0.0000 C   0  0
   14.3347  -29.5562    0.0000 C   0  0
   15.0390  -29.9607    0.0000 N   0  0
   17.8589  -29.9647    0.0000 N   0  0
   18.5672  -29.5571    0.0000 C   0  0
   19.2743  -29.9668    0.0000 C   0  0
   19.9826  -29.5592    0.0000 C   0  0
   20.6900  -29.9705    0.0000 C   0  0
   21.3978  -29.5636    0.0000 C   0  0
   21.3995  -28.7456    0.0000 C   0  0
   20.6874  -28.3361    0.0000 C   0  0
   19.9825  -28.7454    0.0000 C   0  0
   22.1072  -28.3371    0.0000 O   0  0
   20.6857  -27.5189    0.0000 F   0  0
   22.1047  -29.9736    0.0000 F   0  0
  8  4  1  0
  7  1  1  0
  1  2  1  0
  2  3  2  0
  3  4  1  0
  1  5  2  0
  4  6  2  0
  7  8  2  0
  8  9  1  0
  9 10  2  0
 10 11  1  0
 11 12  2  0
 12  7  1  0
  2 13  1  0
 13 14  1  0
 14 15  1  0
 15 16  1  0
 16 17  2  0
 17 18  1  0
 18 19  2  0
 19 20  1  0
 20 21  2  0
 21 16  1  0
 19 22  1  0
 20 23  1  0
 18 24  1  0
M  END