
  CDK    9/16/09,9:56

 69 71  0  0  0  0  0  0  0  0999 V2000
   17.0465   -6.8000    0.0000 N   0  0  0  0  0  0  0  0  0  0  0  0
   17.7649   -7.2167    0.0000 C   0  0  0  0  0  0  0  0  0  0  0  0
   18.4793   -6.8042    0.0000 C   0  0  0  0  0  0  0  0  0  0  0  0
   17.7649   -8.0417    0.0000 C   0  0  0  0  0  0  0  0  0  0  0  0
   19.1938   -7.2167    0.0000 N   0  0  0  0  0  0  0  0  0  0  0  0
   18.4793   -5.9792    0.0000 O   0  0  0  0  0  0  0  0  0  0  0  0
   19.9083   -6.8042    0.0000 C   0  0  0  0  0  0  0  0  0  0  0  0
   20.6228   -7.2167    0.0000 C   0  0  0  0  0  0  0  0  0  0  0  0
   19.9083   -5.9792    0.0000 C   0  0  0  0  0  0  0  0  0  0  0  0
   20.6228   -5.5667    0.0000 C   0  0  0  0  0  0  0  0  0  0  0  0
   20.6228   -4.7417    0.0000 C   0  0  0  0  0  0  0  0  0  0  0  0
   21.3372   -4.3292    0.0000 N   0  0  0  0  0  0  0  0  0  0  0  0
   21.3372   -3.5042    0.0000 C   0  0  0  0  0  0  0  0  0  0  0  0
   22.0517   -3.0917    0.0000 N   0  0  0  0  0  0  0  0  0  0  0  0
   20.6227   -3.0917    0.0000 N   0  0  0  0  0  0  0  0  0  0  0  0
   20.6228   -8.0417    0.0000 O   0  0  0  0  0  0  0  0  0  0  0  0
   21.3372   -6.8042    0.0000 N   0  0  0  0  0  0  0  0  0  0  0  0
   18.4793   -8.4542    0.0000 C   0  0  0  0  0  0  0  0  0  0  0  0
   18.4793   -9.2792    0.0000 C   0  0  0  0  0  0  0  0  0  0  0  0
   19.1938   -9.6917    0.0000 N   0  0  0  0  0  0  0  0  0  0  0  0
   19.1938  -10.5167    0.0000 C   0  0  0  0  0  0  0  0  0  0  0  0
   19.9083  -10.9292    0.0000 N   0  0  0  0  0  0  0  0  0  0  0  0
   18.4793  -10.9292    0.0000 N   0  0  0  0  0  0  0  0  0  0  0  0
    3.5054   -7.2082    0.0000 O   0  0  0  0  0  0  0  0  0  0  0  0
    3.5019   -8.0306    0.0000 C   0  0  0  0  0  0  0  0  0  0  0  0
    2.7666   -8.4050    0.0000 C   0  0  0  0  0  0  0  0  0  0  0  0
    2.0334   -8.0285    0.0000 C   0  0  0  0  0  0  0  0  0  0  0  0
    1.9042   -7.2121    0.0000 O   0  0  0  0  0  0  0  0  0  0  0  0
    1.4486   -8.6121    0.0000 C   0  0  0  0  0  0  0  0  0  0  0  0
    0.6326   -8.4796    0.0000 O   0  0  0  0  0  0  0  0  0  0  0  0
    1.8230   -9.3474    0.0000 C   0  0  0  0  0  0  0  0  0  0  0  0
    2.6342   -9.2210    0.0000 O   0  0  0  0  0  0  0  0  0  0  0  0
    1.4464  -10.0806    0.0000 N   0  0  0  0  0  0  0  0  0  0  0  0
    0.6301  -10.2098    0.0000 C   0  0  0  0  0  0  0  0  0  0  0  0
    0.4977  -11.0258    0.0000 N   0  0  0  0  0  0  0  0  0  0  0  0
    1.2360  -11.3994    0.0000 C   0  0  0  0  0  0  0  0  0  0  0  0
    1.4476  -12.1981    0.0000 C   0  0  0  0  0  0  0  0  0  0  0  0
    0.8628  -12.7817    0.0000 N   0  0  0  0  0  0  0  0  0  0  0  0
    2.2441  -12.4131    0.0000 N   0  0  0  0  0  0  0  0  0  0  0  0
    2.8289  -11.8295    0.0000 C   0  0  0  0  0  0  0  0  0  0  0  0
    2.6162  -11.0349    0.0000 N   0  0  0  0  0  0  0  0  0  0  0  0
    1.8197  -10.8199    0.0000 C   0  0  0  0  0  0  0  0  0  0  0  0
    4.2044   -8.4633    0.0000 N   0  0  0  0  0  0  0  0  0  0  0  0
    7.7583   -7.2125    0.0000 C   0  0  0  0  0  0  0  0  0  0  0  0
    8.4728   -6.8000    0.0000 N   0  0  0  0  0  0  0  0  0  0  0  0
    7.0397   -6.8000    0.0000 C   0  0  0  0  0  0  0  0  0  0  0  0
    7.7583   -8.0417    0.0000 O   0  0  0  0  0  0  0  0  0  0  0  0
    6.3211   -7.2125    0.0000 C   0  0  0  0  0  0  0  0  0  0  0  0
    5.6024   -6.8000    0.0000 C   0  0  0  0  0  0  0  0  0  0  0  0
    4.8867   -7.2058    0.0000 C   0  0  0  0  0  0  0  0  0  0  0  0
    4.9077   -8.0341    0.0000 C   0  0  0  0  0  0  0  0  0  0  0  0
    9.1873   -7.2125    0.0000 C   0  0  0  0  0  0  0  0  0  0  0  0
    9.9017   -6.8000    0.0000 C   0  0  0  0  0  0  0  0  0  0  0  0
   10.6162   -7.2125    0.0000 N   0  0  0  0  0  0  0  0  0  0  0  0
    9.1873   -8.0375    0.0000 C   0  0  0  0  0  0  0  0  0  0  0  0
    9.9017   -5.9750    0.0000 O   0  0  0  0  0  0  0  0  0  0  0  0
    9.9017   -8.4500    0.0000 C   0  0  0  0  0  0  0  0  0  0  0  0
    9.8972   -9.2761    0.0000 C   0  0  0  0  0  0  0  0  0  0  0  0
   10.6109   -9.6885    0.0000 C   0  0  0  0  0  0  0  0  0  0  0  0
   10.6105  -10.5135    0.0000 N   0  0  0  0  0  0  0  0  0  0  0  0
   11.3307   -6.8000    0.0000 C   0  0  0  0  0  0  0  0  0  0  0  0
   12.0452   -7.2125    0.0000 C   0  0  0  0  0  0  0  0  0  0  0  0
   12.7596   -6.8000    0.0000 C   0  0  0  0  0  0  0  0  0  0  0  0
   13.4741   -7.2125    0.0000 C   0  0  0  0  0  0  0  0  0  0  0  0
   14.1886   -6.8000    0.0000 C   0  0  0  0  0  0  0  0  0  0  0  0
   14.9030   -7.2125    0.0000 C   0  0  0  0  0  0  0  0  0  0  0  0
   15.6175   -6.8000    0.0000 C   0  0  0  0  0  0  0  0  0  0  0  0
   16.3320   -7.2125    0.0000 C   0  0  0  0  0  0  0  0  0  0  0  0
   16.3320   -8.0375    0.0000 O   0  0  0  0  0  0  0  0  0  0  0  0
 27 29  1  0  0  0  0 
 29 30  1  6  0  0  0 
 29 31  1  0  0  0  0 
 31 32  1  0  0  0  0 
 26 32  1  0  0  0  0 
 31 33  1  1  0  0  0 
 33 34  1  0  0  0  0 
 34 35  2  0  0  0  0 
 35 36  1  0  0  0  0 
 36 37  1  0  0  0  0 
 37 38  1  0  0  0  0 
 37 39  2  0  0  0  0 
 39 40  1  0  0  0  0 
 40 41  2  0  0  0  0 
 41 42  1  0  0  0  0 
 36 42  2  0  0  0  0 
 33 42  1  0  0  0  0 
 10 11  1  0  0  0  0 
 25 43  1  0  0  0  0 
 21 22  1  0  0  0  0 
  3  6  2  0  0  0  0 
 44 45  1  0  0  0  0 
 21 23  2  0  0  0  0 
 44 46  1  0  0  0  0 
 11 12  1  0  0  0  0 
 44 47  2  0  0  0  0 
  1  2  1  0  0  0  0 
 46 48  1  0  0  0  0 
 12 13  1  0  0  0  0 
 48 49  1  0  0  0  0 
  5  7  1  0  0  0  0 
 49 50  1  0  0  0  0 
 13 14  2  0  0  0  0 
 50 51  1  0  0  0  0 
 51 43  1  0  0  0  0 
  2  4  1  1  0  0  0 
 45 52  1  0  0  0  0 
 13 15  1  0  0  0  0 
 52 53  1  0  0  0  0 
  7  8  1  0  0  0  0 
 53 54  1  0  0  0  0 
  8 16  2  0  0  0  0 
 52 55  1  1  0  0  0 
 53 56  2  0  0  0  0 
  8 17  1  0  0  0  0 
 55 57  1  0  0  0  0 
  7  9  1  6  0  0  0 
 57 58  1  0  0  0  0 
  4 18  1  0  0  0  0 
 58 59  1  0  0  0  0 
  3  5  1  0  0  0  0 
 59 60  1  0  0  0  0 
 18 19  1  0  0  0  0 
 54 61  1  0  0  0  0 
  9 10  1  0  0  0  0 
 61 62  1  0  0  0  0 
 19 20  1  0  0  0  0 
 62 63  1  0  0  0  0 
  2  3  1  0  0  0  0 
 63 64  1  0  0  0  0 
 20 21  1  0  0  0  0 
 64 65  1  0  0  0  0 
 24 25  2  0  0  0  0 
 65 66  1  0  0  0  0 
 26 25  1  1  0  0  0 
 66 67  1  0  0  0  0 
 26 27  1  0  0  0  0 
 67 68  1  0  0  0  0 
 68  1  1  0  0  0  0 
 27 28  1  6  0  0  0 
 68 69  2  0  0  0  0 
M  END