
          11280715462D 1   1.00000     0.00000     0

 28 31  0     0  0            999 V2000
    9.8792   -0.9042    0.0000 C   0  0  0  0  0  0           0  0  0
   10.6292   -1.2292    0.0000 O   0  0  0  0  0  0           0  0  0
    9.9500   -0.0917    0.0000 C   0  0  0  0  0  0           0  0  0
    4.8667   -2.2250    0.0000 N   0  0  3  0  0  0           0  0  0
    4.1542   -2.6375    0.0000 C   0  0  0  0  0  0           0  0  0
    9.1750   -1.3292    0.0000 C   0  0  0  0  0  0           0  0  0
   11.1667   -0.6125    0.0000 C   0  0  0  0  0  0           0  0  0
    4.1625   -3.4625    0.0000 C   0  0  0  0  0  0           0  0  0
   10.7417    0.0958    0.0000 C   0  0  0  0  0  0           0  0  0
    6.3000   -1.3792    0.0000 N   0  0  3  0  0  0           0  0  0
    3.4375   -2.2292    0.0000 C   0  0  0  0  0  0           0  0  0
    3.4500   -3.8875    0.0000 C   0  0  0  0  0  0           0  0  0
    5.5792   -2.6167    0.0000 C   0  0  0  0  0  0           0  0  0
    4.8667   -1.3792    0.0000 C   0  0  0  0  0  0           0  0  0
    9.1917   -2.1542    0.0000 O   0  0  0  0  0  0           0  0  0
    8.4500   -0.9250    0.0000 N   0  0  0  0  0  0           0  0  0
    5.5792   -0.9667    0.0000 C   0  0  0  0  0  0           0  0  0
    6.3000   -2.2250    0.0000 C   0  0  0  0  0  0           0  0  0
    2.7167   -2.6417    0.0000 C   0  0  0  0  0  0           0  0  0
    2.7250   -3.4750    0.0000 C   0  0  0  0  0  0           0  0  0
    7.7375   -1.3542    0.0000 C   0  0  0  0  0  0           0  0  0
    7.0292   -0.9542    0.0000 C   0  0  0  0  0  0           0  0  0
    4.8792   -3.8667    0.0000 C   0  0  0  0  0  0           0  0  0
   11.9792   -0.6000    0.0000 C   0  0  0  0  0  0           0  0  0
   11.1417    0.8000    0.0000 C   0  0  0  0  0  0           0  0  0
    2.0042   -3.8917    0.0000 C   0  0  0  0  0  0           0  0  0
   11.9542    0.8208    0.0000 C   0  0  0  0  0  0           0  0  0
   12.3792    0.1125    0.0000 C   0  0  0  0  0  0           0  0  0
  2  1  1  0     0  0
  3  1  2  0     0  0
  4 13  1  0     0  0
  5  4  1  0     0  0
  6  1  1  0     0  0
  7  2  1  0     0  0
  8  5  1  0     0  0
  9  3  1  0     0  0
 10 22  1  0     0  0
 11  5  2  0     0  0
 12  8  2  0     0  0
 13 18  1  0     0  0
 14 17  1  0     0  0
 15  6  2  0     0  0
 16  6  1  0     0  0
 17 10  1  0     0  0
 18 10  1  0     0  0
 19 11  1  0     0  0
 20 19  2  0     0  0
 21 16  1  0     0  0
 22 21  1  0     0  0
 23  8  1  0     0  0
 24  7  1  0     0  0
 25  9  1  0     0  0
 26 20  1  0     0  0
 27 25  2  0     0  0
 28 24  2  0     0  0
  7  9  2  0     0  0
 27 28  1  0     0  0
 14  4  1  0     0  0
 12 20  1  0     0  0
M  END