
  SciTegic06211117172D

 43 48  0  0  1  0            999 V2000
    6.4046   -2.5488    0.0000 C   0  0
    7.0575   -2.0492    0.0000 N   0  0
    5.7226   -2.0772    0.0000 C   0  0
    5.9609   -1.2871    0.0000 C   0  0
    6.7844   -1.2726    0.0000 C   0  0
    7.1815   -0.5562    0.0000 C   0  0
    6.7594    0.1505    0.0000 C   0  0
    5.9359    0.1359    0.0000 C   0  0
    5.5344   -0.5851    0.0000 C   0  0
    5.6113   -3.8982    0.0000 C   0  0
    5.6286   -4.7233    0.0000 N   0  0
    6.3518   -5.1210    0.0000 C   0  0  1  0  0  0
    6.3691   -5.9460    0.0000 C   0  0
    7.0577   -4.6934    0.0000 C   0  0
    7.7810   -5.0909    0.0000 C   0  0
    7.7964   -5.9155    0.0000 C   0  0
    8.5187   -6.3130    0.0000 C   0  0
    9.2257   -5.8854    0.0000 C   0  0
    9.2056   -5.0560    0.0000 C   0  0
    8.4827   -4.6623    0.0000 C   0  0
    9.9493   -6.2820    0.0000 N   0  0
    9.9099   -4.6260    0.0000 I   0  0
    5.6647   -6.3765    0.0000 C   0  0
    6.4355   -3.8972    0.0000 O   0  0
    5.0212   -3.3212    0.0000 C   0  0  1  0  0  0
    3.6090   -4.1767    0.0000 O   0  0
    4.3322   -4.5743    0.0000 C   0  0
    5.0381   -4.1467    0.0000 N   0  0
    4.2976   -2.9241    0.0000 C   0  0
    0.8180   -6.0562    0.0000 C   0  0
    1.4595   -5.3723    0.0000 C   0  0
    1.6228   -5.8311    0.0000 C   0  0
    2.1710   -5.6350    0.0000 C   0  0
    2.3757   -6.1340    0.0000 C   0  0
    2.9192   -5.4495    0.0000 C   0  0
    1.6201   -4.9783    0.0000 C   0  0
    2.1768   -4.3202    0.0000 C   0  0
    1.4550   -4.5767    0.0000 C   0  0
    2.9250   -4.6303    0.0000 C   0  0
    4.3495   -5.3995    0.0000 O   0  0
    5.7312   -2.9010    0.0000 C   0  0
    5.6854   -7.2015    0.0000 O   0  0
    4.9400   -5.9818    0.0000 O   0  0
 19 22  1  0
  4  3  1  0
 11 12  1  0
 13 23  1  0
  3  1  2  0
 12 13  1  6
 10 24  2  0
  4  5  2  0
 10 25  1  0
 12 14  1  0
  4  9  1  0
 26 27  1  0
 14 15  1  0
 27 28  1  0
 28 25  1  0
  5  6  1  0
 25 29  1  1
 15 16  2  0
  6  7  2  0
 16 17  1  0
  7  8  1  0
 17 18  2  0
  8  9  2  0
 18 19  1  0
 19 20  2  0
 20 15  1  0
 30 31  1  0
 30 32  1  0
 31 33  1  0
 32 34  1  0
 33 35  1  0
 34 35  1  0
 36 37  1  0
 32 36  1  0
 31 38  1  0
 35 39  1  0
 39 37  1  0
 37 38  1  0
 39 26  1  0
  1  2  1  0
 27 40  2  0
 18 21  1  0
 10 11  1  0
 25 41  1  6
 41  3  1  0
 23 42  1  0
  2  5  1  0
 23 43  2  0
M  ISO  1  22 125
M  END