
  Mrv0541 04051115152D          

 35 38  0  0  0  0            999 V2000
   -0.3655    0.0709    0.0000 N   0  0  0  0  0  0  0  0  0  0  0  0
    0.0470   -0.6436    0.0000 C   0  0  0  0  0  0  0  0  0  0  0  0
    0.8720   -0.6436    0.0000 N   0  0  0  0  0  0  0  0  0  0  0  0
   -0.3655   -1.3581    0.0000 N   0  0  0  0  0  0  0  0  0  0  0  0
   -1.1905   -1.3581    0.0000 C   0  0  0  0  0  0  0  0  0  0  0  0
   -1.1905   -2.7870    0.0000 C   0  0  0  0  0  0  0  0  0  0  0  0
   -1.6030   -2.0725    0.0000 N   0  0  0  0  0  0  0  0  0  0  0  0
   -2.4280   -2.0725    0.0000 C   0  0  0  0  0  0  0  0  0  0  0  0
   -2.8405   -2.7870    0.0000 O   0  0  0  0  0  0  0  0  0  0  0  0
   -2.8405   -1.3581    0.0000 N   0  0  0  0  0  0  0  0  0  0  0  0
   -2.4280   -0.6436    0.0000 C   0  0  0  0  0  0  0  0  0  0  0  0
   -1.6030   -0.6436    0.0000 C   0  0  0  0  0  0  0  0  0  0  0  0
   -1.1905    0.0709    0.0000 C   0  0  0  0  0  0  0  0  0  0  0  0
    1.2845    0.0709    0.0000 C   0  0  0  0  0  0  0  0  0  0  0  0
    0.8720    0.7854    0.0000 C   0  0  0  0  0  0  0  0  0  0  0  0
    1.2845    1.4998    0.0000 C   0  0  0  0  0  0  0  0  0  0  0  0
    2.1095    1.4998    0.0000 C   0  0  0  0  0  0  0  0  0  0  0  0
    2.5220    2.2143    0.0000 O   0  0  0  0  0  0  0  0  0  0  0  0
    2.5220    0.7854    0.0000 C   0  0  0  0  0  0  0  0  0  0  0  0
    2.1095    0.0709    0.0000 C   0  0  0  0  0  0  0  0  0  0  0  0
    3.3470    2.2143    0.0000 C   0  0  0  0  0  0  0  0  0  0  0  0
    3.7595    2.9288    0.0000 C   0  0  0  0  0  0  0  0  0  0  0  0
    4.5845    2.9288    0.0000 N   0  0  0  0  0  0  0  0  0  0  0  0
    4.9970    3.6432    0.0000 C   0  0  0  0  0  0  0  0  0  0  0  0
    5.8220    3.6432    0.0000 C   0  0  0  0  0  0  0  0  0  0  0  0
    4.9970    2.2143    0.0000 C   0  0  0  0  0  0  0  0  0  0  0  0
    4.5845    1.4998    0.0000 C   0  0  0  0  0  0  0  0  0  0  0  0
   -3.6655   -1.3581    0.0000 C   0  0  0  0  0  0  0  0  0  0  0  0
   -4.0780   -2.0725    0.0000 C   0  0  0  0  0  0  0  0  0  0  0  0
   -3.6655   -2.7870    0.0000 Cl  0  0  0  0  0  0  0  0  0  0  0  0
   -4.9030   -2.0725    0.0000 C   0  0  0  0  0  0  0  0  0  0  0  0
   -5.3155   -1.3581    0.0000 C   0  0  0  0  0  0  0  0  0  0  0  0
   -4.9030   -0.6436    0.0000 C   0  0  0  0  0  0  0  0  0  0  0  0
   -4.0780   -0.6436    0.0000 C   0  0  0  0  0  0  0  0  0  0  0  0
   -3.6655    0.0709    0.0000 Cl  0  0  0  0  0  0  0  0  0  0  0  0
  2  1  2  0  0  0  0
 13  1  1  0  0  0  0
  2  3  1  0  0  0  0
  2  4  1  0  0  0  0
 14  3  1  0  0  0  0
  5  4  2  0  0  0  0
  5  7  1  0  0  0  0
  5 12  1  0  0  0  0
  6  7  1  0  0  0  0
  8  7  1  0  0  0  0
  8  9  2  0  0  0  0
  8 10  1  0  0  0  0
 11 10  1  0  0  0  0
 28 10  1  0  0  0  0
 11 12  1  0  0  0  0
 13 12  2  0  0  0  0
 14 15  2  0  0  0  0
 14 20  1  0  0  0  0
 15 16  1  0  0  0  0
 16 17  2  0  0  0  0
 17 18  1  0  0  0  0
 17 19  1  0  0  0  0
 21 18  1  0  0  0  0
 19 20  2  0  0  0  0
 21 22  1  0  0  0  0
 22 23  1  0  0  0  0
 24 23  1  0  0  0  0
 26 23  1  0  0  0  0
 24 25  1  0  0  0  0
 26 27  1  0  0  0  0
 28 29  2  0  0  0  0
 28 34  1  0  0  0  0
 29 30  1  0  0  0  0
 29 31  1  0  0  0  0
 31 32  2  0  0  0  0
 32 33  1  0  0  0  0
 33 34  2  0  0  0  0
 34 35  1  0  0  0  0
M  END