
          11280715332D 1   1.00000     0.00000     0

 29 31  0     1  0            999 V2000
    4.1542   -3.5000    0.0000 N   0  0  3  0  0  0           0  0  0
    5.4667   -4.0667    0.0000 C   0  0  3  0  0  0           0  0  0
    3.4625   -3.9000    0.0000 C   0  0  0  0  0  0           0  0  0
    4.6500   -4.1667    0.0000 C   0  0  0  0  0  0           0  0  0
    2.7667   -3.5042    0.0000 C   0  0  2  0  0  0           0  0  0
    3.5167   -1.6542    0.0000 C   0  0  0  0  0  0           0  0  0
    5.7917   -3.3042    0.0000 C   0  0  0  0  0  0           0  0  0
    2.7667   -2.4250    0.0000 C   0  0  0  0  0  0           0  0  0
    5.9667   -4.7250    0.0000 C   0  0  0  0  0  0           0  0  0
    4.4792   -2.7417    0.0000 C   0  0  0  0  0  0           0  0  0
    5.2917   -2.6417    0.0000 C   0  0  0  0  0  0           0  0  0
    4.3042   -1.5500    0.0000 C   0  0  0  0  0  0           0  0  0
    3.0292   -1.0292    0.0000 C   0  0  0  0  0  0           0  0  0
    2.0792   -3.9000    0.0000 N   0  0  3  0  0  0           0  0  0
    3.4625   -4.7000    0.0000 O   0  0  0  0  0  0           0  0  0
    3.3292   -0.2917    0.0000 C   0  0  0  0  0  0           0  0  0
    4.6042   -0.8125    0.0000 C   0  0  0  0  0  0           0  0  0
    4.1167   -0.1792    0.0000 C   0  0  0  0  0  0           0  0  0
    5.6417   -5.4792    0.0000 O   0  0  0  0  0  0           0  0  0
    6.7792   -4.6250    0.0000 O   0  0  0  0  0  0           0  0  0
    4.4167    0.5583    0.0000 O   0  0  0  0  0  0           0  0  0
    6.6125   -3.2042    0.0000 C   0  0  0  0  0  0           0  0  0
    5.6167   -1.8875    0.0000 C   0  0  0  0  0  0           0  0  0
    2.2417   -1.1417    0.0000 C   0  0  0  0  0  0           0  0  0
    4.8000   -2.1792    0.0000 C   0  0  0  0  0  0           0  0  0
    2.0792   -4.7000    0.0000 C   0  0  0  0  0  0           0  0  0
    1.3917   -3.5042    0.0000 C   0  0  0  0  0  0           0  0  0
    6.9375   -2.4500    0.0000 C   0  0  0  0  0  0           0  0  0
    6.4375   -1.7875    0.0000 C   0  0  0  0  0  0           0  0  0
  2  4  1  0     0  0
  3  1  1  0     0  0
  4  1  1  0     0  0
  5  3  1  0     0  0
  6  8  1  0     0  0
  7 11  1  0     0  0
  5  8  1  1     0  0
  9  2  1  0     0  0
 10  1  1  0     0  0
 11 10  1  0     0  0
 12  6  2  0     0  0
 13  6  1  0     0  0
 14  5  1  0     0  0
 15  3  2  0     0  0
 16 13  2  0     0  0
 17 12  1  0     0  0
 18 16  1  0     0  0
 19  9  2  0     0  0
 20  9  1  0     0  0
 21 18  1  0     0  0
 22  7  2  0     0  0
 23 11  2  0     0  0
 24 13  1  0     0  0
 25 12  1  0     0  0
 26 14  1  0     0  0
 27 14  1  0     0  0
 28 29  2  0     0  0
 29 23  1  0     0  0
  7  2  1  0     0  0
 22 28  1  0     0  0
 18 17  2  0     0  0
M  END