
  CDK    9/16/09,9:47

 33 35  0  0  0  0  0  0  0  0999 V2000
   12.0536    0.1646    0.0000 C   0  0  0  0  0  0  0  0  0  0  0  0
   11.5710    0.8336    0.0000 N   0  0  0  0  0  0  0  0  0  0  0  0
   10.7868    0.5796    0.0000 C   0  0  0  0  0  0  0  0  0  0  0  0
   12.8744    0.1611    0.0000 C   0  0  0  0  0  0  0  0  0  0  0  0
   13.2883   -0.5506    0.0000 C   0  0  0  0  0  0  0  0  0  0  0  0
   14.1153   -0.5527    0.0000 C   0  0  0  0  0  0  0  0  0  0  0  0
   14.5302   -1.2611    0.0000 C   0  0  0  0  0  0  0  0  0  0  0  0
   15.3552   -1.2649    0.0000 C   0  0  0  0  0  0  0  0  0  0  0  0
   15.7692   -1.9723    0.0000 C   0  0  0  0  0  0  0  0  0  0  0  0
   16.5971   -1.9735    0.0000 C   0  0  0  0  0  0  0  0  0  0  0  0
   17.0068   -2.6869    0.0000 O   0  0  0  0  0  0  0  0  0  0  0  0
   17.0098   -1.2576    0.0000 O   0  0  0  0  0  0  0  0  0  0  0  0
   14.5303    0.1653    0.0000 O   0  0  0  0  0  0  0  0  0  0  0  0
   15.7682   -0.5472    0.0000 O   0  0  0  0  0  0  0  0  0  0  0  0
   10.0777    1.0014    0.0000 C   0  0  0  0  0  0  0  0  0  0  0  0
    9.3521    0.5910    0.0000 N   0  0  0  0  0  0  0  0  0  0  0  0
   10.0844    1.8295    0.0000 O   0  0  0  0  0  0  0  0  0  0  0  0
    8.6305    1.0163    0.0000 C   0  0  0  0  0  0  0  0  0  0  0  0
   11.5598   -0.5003    0.0000 C   0  0  0  0  0  0  0  0  0  0  0  0
   10.7811   -0.2477    0.0000 C   0  0  0  0  0  0  0  0  0  0  0  0
    8.6340    1.8466    0.0000 C   0  0  0  0  0  0  0  0  0  0  0  0
    7.9211    2.2590    0.0000 C   0  0  0  0  0  0  0  0  0  0  0  0
    7.2038    1.8464    0.0000 C   0  0  0  0  0  0  0  0  0  0  0  0
    7.2040    1.0172    0.0000 C   0  0  0  0  0  0  0  0  0  0  0  0
    7.9218    0.6044    0.0000 C   0  0  0  0  0  0  0  0  0  0  0  0
   10.1031   -0.7347    0.0000 C   0  0  0  0  0  0  0  0  0  0  0  0
   11.5561   -1.3201    0.0000 C   0  0  0  0  0  0  0  0  0  0  0  0
   10.8382   -1.7270    0.0000 C   0  0  0  0  0  0  0  0  0  0  0  0
   10.8326   -2.5501    0.0000 C   0  0  0  0  0  0  0  0  0  0  0  0
   11.5441   -2.9673    0.0000 C   0  0  0  0  0  0  0  0  0  0  0  0
   12.2626   -2.5556    0.0000 C   0  0  0  0  0  0  0  0  0  0  0  0
   12.2647   -1.7338    0.0000 C   0  0  0  0  0  0  0  0  0  0  0  0
   11.5399   -3.7912    0.0000 F   0  0  0  0  0  0  0  0  0  0  0  0
  8 14  1  1  0  0  0 
  3 15  1  0  0  0  0 
 15 16  1  0  0  0  0 
 15 17  2  0  0  0  0 
 16 18  1  0  0  0  0 
 19 20  1  0  0  0  0 
 19  1  2  0  0  0  0 
  1  2  1  0  0  0  0 
 18 21  2  0  0  0  0 
  2  3  1  0  0  0  0 
 21 22  1  0  0  0  0 
  3 20  2  0  0  0  0 
 22 23  2  0  0  0  0 
  1  4  1  0  0  0  0 
 23 24  1  0  0  0  0 
  4  5  1  0  0  0  0 
 24 25  2  0  0  0  0 
 25 18  1  0  0  0  0 
  5  6  1  0  0  0  0 
 20 26  1  0  0  0  0 
  6  7  1  0  0  0  0 
  7  8  1  0  0  0  0 
 27 28  2  0  0  0  0 
  8  9  1  0  0  0  0 
 28 29  1  0  0  0  0 
  9 10  1  0  0  0  0 
 29 30  2  0  0  0  0 
 10 11  1  0  0  0  0 
 30 31  1  0  0  0  0 
 10 12  2  0  0  0  0 
 31 32  2  0  0  0  0 
 32 27  1  0  0  0  0 
 19 27  1  0  0  0  0 
  6 13  1  1  0  0  0 
 30 33  1  0  0  0  0 
M  END