
  SciTegic04191617032D

 29 33  0  0  0  0            999 V2000
   -2.3155    0.7475    0.0000 C   0  0
   -2.3155   -0.7475    0.0000 C   0  0
   -1.0028   -1.5132    0.0000 C   0  0
   -1.0028    1.5132    0.0000 C   0  0
    0.2917    0.7475    0.0000 C   0  0
    0.2917   -0.7475    0.0000 C   0  0
    1.7138   -1.2033    0.0000 C   0  0
    2.5889    0.0182    0.0000 N   0  0
    1.7138    1.2033    0.0000 C   0  0
    2.0825    2.3453    0.0000 O   0  0
   -0.9971    3.0138    0.0000 C   0  0
    0.0446    3.6095    0.0000 N   0  0
   -2.0337    3.6184    0.0000 O   0  0
    4.0896    0.0290    0.0000 C   0  0
    4.9234    1.2700    0.0000 C   0  0
    6.4199    1.1671    0.0000 C   0  0
    7.0791   -0.1803    0.0000 N   0  0
    6.2418   -1.4248    0.0000 C   0  0
    4.7453   -1.3220    0.0000 C   0  0
    8.5761   -0.2862    0.0000 C   0  0
    9.2338   -1.6353    0.0000 C   0  0
   10.5674   -4.3493    0.0000 C   0  0
    9.0516   -4.2405    0.0000 C   0  0
    8.3927   -2.8986    0.0000 C   0  0
   11.3919   -3.0914    0.0000 C   0  0
   10.7329   -1.7494    0.0000 C   0  0
   11.8085   -0.7135    0.0000 C   0  0
   13.1324   -1.4242    0.0000 C   0  0
   12.8693   -2.8737    0.0000 N   0  0
  1  2  2  0
  2  3  1  0
  3  6  2  0
  5  4  2  0
  4  1  1  0
  5  6  1  0
  6  7  1  0
  7  8  1  0
  8  9  1  0
  9  5  1  0
  9 10  2  0
 11 12  1  0
 11 13  2  0
  4 11  1  0
 14 15  1  0
 14 19  1  0
 15 16  1  0
 16 17  1  0
 17 18  1  0
 18 19  1  0
  8 14  1  0
 17 20  1  0
 20 21  1  0
 21 26  2  0
 25 22  2  0
 22 23  1  0
 23 24  2  0
 24 21  1  0
 25 26  1  0
 26 27  1  0
 27 28  2  0
 28 29  1  0
 29 25  1  0
M  END