
  SciTegic11201309402D

 56 57  0  0  1  0            999 V2000
    6.1042   -1.1042    0.0000 C   0  0
    2.5167    0.9333    0.0000 N   0  0
    6.8167   -1.5167    0.0000 N   0  0
    6.8042    0.1208    0.0000 N   0  0
    1.1125   -2.3500    0.0000 P   0  0
    7.5292   -0.2875    0.0000 C   0  0
    5.3917   -1.5125    0.0000 C   0  0  2  0  0  0
    7.5375   -1.1125    0.0000 C   0  0
    6.8042    0.9458    0.0000 C   0  0  2  0  0  0
    6.0917    1.3583    0.0000 C   0  0
    1.8042    1.3458    0.0000 C   0  0
    5.3750    0.9375    0.0000 N   0  0
    2.5167    0.1125    0.0000 C   0  0
    1.0875    0.9333    0.0000 C   0  0
    7.5167    1.3625    0.0000 C   0  0
    4.6792   -1.0917    0.0000 C   0  0  1  0  0  0
    1.8000   -0.3042    0.0000 C   0  0
    8.2375    0.9500    0.0000 C   0  0
    4.9667   -3.0417    0.0000 C   0  0
    3.2292    1.3500    0.0000 C   0  0
    5.3792   -2.3375    0.0000 C   0  0
    1.8042    2.1750    0.0000 C   0  0
    1.3250   -3.1417    0.0000 O   0  5
    0.4042   -2.7667    0.0000 O   0  5
    3.9667   -1.5125    0.0000 C   0  0
    1.1042   -1.5250    0.0000 O   0  0
    5.8917   -0.3042    0.0000 O   0  0
    4.2042   -0.6167    0.0000 C   0  0
    7.5250    0.5375    0.0000 O   0  0
    0.3750    1.3458    0.0000 C   0  0
    6.0875    2.1833    0.0000 O   0  0
    4.7917   -0.0292    0.0000 C   0  0
    1.8292   -2.7542    0.0000 C   0  0
    5.3667   -3.7625    0.0000 O   0  5
    8.2375    0.1250    0.0000 O   0  0
    4.1417   -3.0292    0.0000 O   0  0
    3.9417    0.9375    0.0000 C   0  0  1  0  0  0
    4.6625    1.3500    0.0000 C   0  0
    3.9542   -2.3250    0.0000 C   0  0
    3.2500   -1.1000    0.0000 C   0  0
    8.9500    1.3708    0.0000 N   0  0
    2.5417   -2.3417    0.0000 C   0  0
    1.0875    2.5875    0.0000 C   0  0
    0.3750    2.1750    0.0000 C   0  0
    2.5375   -1.5125    0.0000 C   0  0
    3.2667   -2.7500    0.0000 C   0  0
    7.2042   -3.9375    0.0000 Na  0  3
    0.4625   -4.2500    0.0000 Na  0  3
   -1.3208   -2.4375    0.0000 Na  0  3
    8.2500   -0.7000    0.0000 C   0  0
    7.5292   -1.9375    0.0000 C   0  0
    3.9917    0.1750    0.0000 C   0  0
   -0.3375    2.5833    0.0000 C   0  0
    8.9625   -1.1167    0.0000 C   0  0
    8.2417   -2.3500    0.0000 C   0  0
    8.9542   -1.9417    0.0000 C   0  0
  2 20  1  0
  3  1  1  0
  4  6  1  0
  5 33  1  0
  6  8  1  0
  7  1  1  0
  8  3  1  0
  9  4  1  0
 10  9  1  0
 11  2  1  0
 12 10  1  0
 13  2  1  0
 14 11  2  0
  9 15  1  6
 16  7  1  0
 17 13  2  0
 18 15  1  0
 19 21  1  0
 37 20  1  1
  7 21  1  1
 22 11  1  0
 23  5  1  0
 24  5  1  0
 16 25  1  1
 26  5  2  0
 27  1  2  0
 16 28  1  0
 29  6  2  0
 30 14  1  0
 31 10  2  0
 32 28  2  0
 33 42  1  0
 34 19  1  0
 35 18  2  0
 36 19  2  0
 37 52  1  0
 38 37  1  0
 39 25  1  0
 40 25  2  0
 41 18  1  0
 42 45  2  0
 43 22  2  0
 44 43  1  0
 45 40  1  0
 46 39  2  0
 50  8  1  0
 51  8  1  0
 52 32  1  0
 53 44  1  0
 54 50  1  0
 55 51  1  0
 56 54  1  0
 46 42  1  0
 55 56  1  0
 38 12  1  0
 14 17  1  0
 44 30  2  0
M  CHG  6  23  -1  24  -1  34  -1  47   1  48   1  49   1
M  END