
  Mrv0541 04051115152D          

 11 11  0  0  0  0            999 V2000
    1.0446   -1.3652    0.0000 C   0  0  0  0  0  0  0  0  0  0  0  0
    0.3302   -1.7777    0.0000 C   0  0  0  0  0  0  0  0  0  0  0  0
   -0.3843   -1.3652    0.0000 C   0  0  0  0  0  0  0  0  0  0  0  0
   -0.3843   -0.5402    0.0000 C   0  0  0  0  0  0  0  0  0  0  0  0
    0.3302   -0.1277    0.0000 C   0  0  0  0  0  0  0  0  0  0  0  0
    1.0446   -0.5402    0.0000 C   0  0  0  0  0  0  0  0  0  0  0  0
    0.3302    0.6973    0.0000 O   0  0  0  0  0  0  0  0  0  0  0  0
   -0.3843    1.1098    0.0000 P   0  0  0  0  0  0  0  0  0  0  0  0
   -1.0988    1.5223    0.0000 O   0  0  0  0  0  0  0  0  0  0  0  0
    0.0282    1.8242    0.0000 O   0  0  0  0  0  0  0  0  0  0  0  0
   -0.7968    0.3953    0.0000 O   0  0  0  0  0  0  0  0  0  0  0  0
  1  2  1  0  0  0  0
  1  6  2  0  0  0  0
  2  3  2  0  0  0  0
  3  4  1  0  0  0  0
  4  5  2  0  0  0  0
  5  6  1  0  0  0  0
  5  7  1  0  0  0  0
  7  8  1  0  0  0  0
  9  8  1  0  0  0  0
 10  8  1  0  0  0  0
 11  8  2  0  0  0  0
M  END