
  SciTegic12211612392D

 24 26  0  0  0  0            999 V2000
   -1.2964    1.4973    0.0000 C   0  0
   -2.6111    0.7486    0.0000 N   0  0
   -2.6111   -0.7486    0.0000 C   0  0
   -1.2964   -1.4973    0.0000 C   0  0
    0.0000    0.7486    0.0000 C   0  0
    0.0000   -0.7486    0.0000 C   0  0
    1.2964   -1.4973    0.0000 C   0  0
    2.5929   -0.7486    0.0000 C   0  0
    2.5929    0.7486    0.0000 C   0  0
    1.2964    1.4973    0.0000 C   0  0
   -1.2907    2.9981    0.0000 C   0  0
   -2.5870    3.7544    0.0000 C   0  0
   -3.6288    3.1588    0.0000 O   0  0
   -2.5824    4.9544    0.0000 O   0  0
   -3.9122    1.4966    0.0000 C   0  0
   -5.2109    0.7445    0.0000 N   0  0
   -3.9141    2.6966    0.0000 O   0  0
   -6.5121    1.4924    0.0000 C   0  0
   -7.8113    0.7426    0.0000 C   0  0
   -9.1103    1.4927    0.0000 C   0  0
   -9.1101    2.9927    0.0000 C   0  0
   -7.8110    3.7426    0.0000 C   0  0
   -6.5121    2.9924    0.0000 C   0  0
  -10.1496    0.8928    0.0000 F   0  0
  6  4  1  0
  5  1  1  0
  1  2  1  0
  2  3  1  0
  3  4  1  0
  5  6  2  0
  6  7  1  0
  7  8  2  0
  8  9  1  0
  9 10  2  0
 10  5  1  0
  1 11  1  0
 11 12  1  0
 12 13  1  0
 12 14  2  0
  2 15  1  0
 15 16  1  0
 15 17  2  0
 16 18  1  0
 18 19  2  0
 19 20  1  0
 20 21  2  0
 21 22  1  0
 22 23  2  0
 23 18  1  0
 20 24  1  0
M  END