
  SciTegic08041117222D

 20 22  0  0  0  0            999 V2000
   -2.7137  -20.0138    0.0000 N   0  0
   -2.7148  -20.8410    0.0000 C   0  0
   -2.0004  -21.2539    0.0000 C   0  0
   -1.2847  -20.8407    0.0000 C   0  0
   -1.2874  -20.0105    0.0000 N   0  0
   -2.0021  -19.6011    0.0000 C   0  0
   -2.0045  -18.7762    0.0000 N   0  0
   -3.3792  -21.3296    0.0000 N   0  0
   -0.6193  -21.3286    0.0000 N   0  0
   -0.6219  -22.1505    0.0000 C   0  0
    0.1617  -22.4085    0.0000 C   0  0
    0.6493  -21.7430    0.0000 C   0  0  2  0  0  0
    0.1669  -21.0737    0.0000 C   0  0
    1.4742  -21.7461    0.0000 N   0  0
    1.8840  -22.4622    0.0000 C   0  0
   -4.1348  -20.9982    0.0000 C   0  0
   -4.3147  -20.1954    0.0000 C   0  0
   -5.1356  -20.1138    0.0000 C   0  0
   -5.4669  -20.8694    0.0000 C   0  0
   -4.8507  -21.4179    0.0000 C   0  0
  4  5  1  0
  2  3  1  0
  5  6  2  0
  6  1  1  0
 10 11  1  0
 11 12  1  0
 12 13  1  0
 13  9  1  0
  1  2  2  0
 12 14  1  6
  6  7  1  0
 14 15  1  0
  3  4  2  0
  8 16  1  0
 16 17  1  0
  2  8  1  0
  4  9  1  0
  9 10  1  0
 17 18  1  0
 18 19  1  0
 19 20  1  0
 20 16  1  0
M  END