
          03140815512D 1   1.00000     0.00000     0

 26 28  0     0  0            999 V2000
   12.6777  -14.6083    0.0000 C   0  0  0  0  0  0           0  0  0
   12.6766  -15.4357    0.0000 C   0  0  0  0  0  0           0  0  0
   13.3914  -15.8485    0.0000 C   0  0  0  0  0  0           0  0  0
   14.1078  -15.4352    0.0000 C   0  0  0  0  0  0           0  0  0
   14.1050  -14.6047    0.0000 C   0  0  0  0  0  0           0  0  0
   13.3896  -14.1955    0.0000 C   0  0  0  0  0  0           0  0  0
   14.8179  -14.1895    0.0000 O   0  0  0  0  0  0           0  0  0
   14.8148  -13.3645    0.0000 C   0  0  0  0  0  0           0  0  0
   15.5295  -12.9541    0.0000 C   0  0  0  0  0  0           0  0  0
   15.5267  -12.1299    0.0000 C   0  0  0  0  0  0           0  0  0
   14.8101  -11.7193    0.0000 C   0  0  0  0  0  0           0  0  0
   14.0949  -12.1389    0.0000 C   0  0  0  0  0  0           0  0  0
   14.1011  -12.9617    0.0000 C   0  0  0  0  0  0           0  0  0
   14.8230  -15.8466    0.0000 C   0  0  0  0  0  0           0  0  0
   14.8242  -16.6716    0.0000 N   0  0  0  0  0  0           0  0  0
   15.5394  -17.0829    0.0000 C   0  0  0  0  0  0           0  0  0
   11.9618  -15.8476    0.0000 C   0  0  0  0  0  0           0  0  0
   11.2417  -16.2542    0.0000 C   0  0  0  0  0  0           0  0  0
   10.5250  -16.6625    0.0000 C   0  0  0  0  0  0           0  0  0
    9.8129  -16.2459    0.0000 C   0  0  0  0  0  0           0  0  0
    9.0961  -16.6543    0.0000 N   0  0  3  0  0  0           0  0  0
    8.3821  -16.2394    0.0000 C   0  0  0  0  0  0           0  0  0
    7.6675  -16.6443    0.0000 C   0  0  0  0  0  0           0  0  0
    7.6585  -17.4696    0.0000 O   0  0  0  0  0  0           0  0  0
    8.3704  -17.8884    0.0000 C   0  0  0  0  0  0           0  0  0
    9.0914  -17.4818    0.0000 C   0  0  0  0  0  0           0  0  0
 12 13  2  0     0  0
 13  8  1  0     0  0
  1  2  2  0     0  0
  4 14  1  0     0  0
  5  7  1  0     0  0
 14 15  1  0     0  0
  3  4  2  0     0  0
 15 16  1  0     0  0
  7  8  1  0     0  0
  2 17  1  0     0  0
 17 18  3  0     0  0
  8  9  2  0     0  0
 18 19  1  0     0  0
  4  5  1  0     0  0
 19 20  1  0     0  0
  9 10  1  0     0  0
 20 21  1  0     0  0
 21 22  1  0     0  0
  2  3  1  0     0  0
 10 11  2  0     0  0
  5  6  2  0     0  0
 11 12  1  0     0  0
  6  1  1  0     0  0
 21 26  1  0     0  0
 22 23  1  0     0  0
 23 24  1  0     0  0
 24 25  1  0     0  0
 25 26  1  0     0  0
M  END