
          11280715182D 1   1.00000     0.00000     0

 42 46  0     1  0            999 V2000
    4.4417   -4.6750    0.0000 N   0  0  3  0  0  0           0  0  0
    4.4417   -3.0250    0.0000 N   0  0  3  0  0  0           0  0  0
    3.7292   -4.2542    0.0000 C   0  0  2  0  0  0           0  0  0
    4.4417   -2.2000    0.0000 C   0  0  0  0  0  0           0  0  0
    5.1542   -1.7917    0.0000 C   0  0  0  0  0  0           0  0  0
    3.7250   -3.4375    0.0000 C   0  0  0  0  0  0           0  0  0
    4.4417   -5.5000    0.0000 C   0  0  0  0  0  0           0  0  0
    3.0167   -4.6792    0.0000 C   0  0  0  0  0  0           0  0  0
    5.1542   -4.2542    0.0000 C   0  0  0  0  0  0           0  0  0
    8.0167   -6.7375    0.0000 N   0  0  3  0  0  0           0  0  0
    2.3042   -4.2667    0.0000 C   0  0  0  0  0  0           0  0  0
    1.5917   -4.6792    0.0000 C   0  0  0  0  0  0           0  0  0
    5.1542   -3.4375    0.0000 C   0  0  0  0  0  0           0  0  0
    5.7167   -2.3917    0.0000 C   0  0  0  0  0  0           0  0  0
    5.3917   -1.0000    0.0000 C   0  0  0  0  0  0           0  0  0
    3.7250   -1.7875    0.0000 O   0  0  0  0  0  0           0  0  0
    1.5917   -5.5042    0.0000 C   0  0  0  0  0  0           0  0  0
    5.1625   -5.9125    0.0000 C   0  0  0  0  0  0           0  0  0
    3.7292   -5.9125    0.0000 O   0  0  0  0  0  0           0  0  0
    3.0167   -5.5042    0.0000 C   0  0  0  0  0  0           0  0  0
    5.8750   -5.5000    0.0000 N   0  0  0  0  0  0           0  0  0
    6.1917   -0.8125    0.0000 C   0  0  0  0  0  0           0  0  0
    6.5167   -2.2042    0.0000 C   0  0  0  0  0  0           0  0  0
    2.3042   -5.9167    0.0000 C   0  0  0  0  0  0           0  0  0
    8.7292   -7.1542    0.0000 C   0  0  0  0  0  0           0  0  0
    7.3000   -5.4917    0.0000 C   0  0  0  0  0  0           0  0  0
    6.5875   -6.7375    0.0000 C   0  0  0  0  0  0           0  0  0
    7.3000   -7.1500    0.0000 C   0  0  0  0  0  0           0  0  0
    8.0167   -5.9125    0.0000 C   0  0  0  0  0  0           0  0  0
    6.5917   -5.9125    0.0000 C   0  0  3  0  0  0           0  0  0
    6.7542   -1.4125    0.0000 C   0  0  0  0  0  0           0  0  0
    0.8792   -4.2667    0.0000 Cl  0  0  0  0  0  0           0  0  0
    0.8750   -5.9167    0.0000 Cl  0  0  0  0  0  0           0  0  0
    9.4417   -6.7417    0.0000 C   0  0  0  0  0  0           0  0  0
    6.4250   -0.0167    0.0000 C   0  0  0  0  0  0           0  0  0
    7.0792   -2.8042    0.0000 C   0  0  0  0  0  0           0  0  0
    9.3042   -5.9292    0.0000 C   0  0  0  0  0  0           0  0  0
   10.2042   -7.0375    0.0000 C   0  0  0  0  0  0           0  0  0
    9.9500   -5.4042    0.0000 C   0  0  0  0  0  0           0  0  0
   10.8500   -6.5167    0.0000 C   0  0  0  0  0  0           0  0  0
   10.7167   -5.7000    0.0000 C   0  0  0  0  0  0           0  0  0
    3.1417   -3.6750    0.0000 H   0  0  0  0  0  0           0  0  0
  2 13  1  0     0  0
  3  1  1  0     0  0
  4  2  1  0     0  0
  5  4  1  0     0  0
  6  3  1  0     0  0
  7  1  1  0     0  0
  3  8  1  1     0  0
  9  1  1  0     0  0
 10 28  1  0     0  0
 11  8  2  0     0  0
 12 11  1  0     0  0
 13  9  1  0     0  0
 14  5  2  0     0  0
 15  5  1  0     0  0
 16  4  2  0     0  0
 17 24  1  0     0  0
 18  7  1  0     0  0
 19  7  2  0     0  0
 20  8  1  0     0  0
 21 18  1  0     0  0
 22 15  2  0     0  0
 23 14  1  0     0  0
 24 20  2  0     0  0
 25 10  1  0     0  0
 26 30  1  0     0  0
 27 30  1  0     0  0
 28 27  1  0     0  0
 29 26  1  0     0  0
 30 21  1  0     0  0
 31 22  1  0     0  0
 32 12  1  0     0  0
 33 17  1  0     0  0
 34 25  1  0     0  0
 35 22  1  0     0  0
 36 23  1  0     0  0
 37 34  1  0     0  0
 38 34  2  0     0  0
 39 37  2  0     0  0
 40 38  1  0     0  0
 41 40  2  0     0  0
  3 42  1  6     0  0
  6  2  1  0     0  0
 17 12  2  0     0  0
 10 29  1  0     0  0
 31 23  2  0     0  0
 39 41  1  0     0  0
M  END