
          11280714542D 1   1.00000     0.00000     0

 30 34  0     0  0            999 V2000
   -1.1958    0.3000    0.0000 N   0  0  3  0  0  0           0  0  0
   -0.4083    0.5833    0.0000 C   0  0  0  0  0  0           0  0  0
   -1.2458    1.6375    0.0000 N   0  0  0  0  0  0           0  0  0
   -0.4500    1.4083    0.0000 C   0  0  0  0  0  0           0  0  0
   -1.7000    0.9500    0.0000 C   0  0  0  0  0  0           0  0  0
    1.8500   -2.9875    0.0000 C   0  0  0  0  0  0           0  0  0
    2.8625   -2.1125    0.0000 N   0  0  0  0  0  0           0  0  0
    2.0417   -2.1792    0.0000 N   0  0  0  0  0  0           0  0  0
    3.1792   -2.8750    0.0000 N   0  0  0  0  0  0           0  0  0
    2.5542   -3.4125    0.0000 N   0  0  0  0  0  0           0  0  0
    1.0875   -3.3042    0.0000 C   0  0  0  0  0  0           0  0  0
    0.2667   -3.3167    0.0000 C   0  0  0  0  0  0           0  0  0
    0.2625    0.1000    0.0000 C   0  0  0  0  0  0           0  0  0
   -1.4208   -0.4917    0.0000 C   0  0  0  0  0  0           0  0  0
   -0.1583   -2.6125    0.0000 C   0  0  0  0  0  0           0  0  0
    0.1167   -0.7125    0.0000 O   0  0  0  0  0  0           0  0  0
    0.2417   -1.8875    0.0000 C   0  0  0  0  0  0           0  0  0
   -0.9833   -2.6250    0.0000 C   0  0  0  0  0  0           0  0  0
   -1.0000   -1.2000    0.0000 C   0  0  0  0  0  0           0  0  0
    0.1667    1.9458    0.0000 C   0  0  0  0  0  0           0  0  0
   -2.5250    0.9208    0.0000 C   0  0  0  0  0  0           0  0  0
   -0.1750   -1.1792    0.0000 C   0  0  0  0  0  0           0  0  0
   -1.4083   -1.9167    0.0000 C   0  0  0  0  0  0           0  0  0
    1.5125   -4.0042    0.0000 C   0  0  0  0  0  0           0  0  0
   -0.1375   -4.0375    0.0000 C   0  0  0  0  0  0           0  0  0
    1.0542    0.3250    0.0000 C   0  0  0  0  0  0           0  0  0
    0.9792    1.8083    0.0000 C   0  0  0  0  0  0           0  0  0
    1.1125   -4.7292    0.0000 C   0  0  0  0  0  0           0  0  0
    0.2875   -4.7417    0.0000 C   0  0  0  0  0  0           0  0  0
    1.3667    1.0875    0.0000 C   0  0  0  0  0  0           0  0  0
  2  1  1  0     0  0
  3  5  2  0     0  0
  4  2  2  0     0  0
  5  1  1  0     0  0
  6 11  1  0     0  0
  7  8  2  0     0  0
  8  6  1  0     0  0
  9 10  1  0     0  0
 10  6  2  0     0  0
 11 12  2  0     0  0
 12 15  1  0     0  0
 13  2  1  0     0  0
 14  1  1  0     0  0
 15 18  2  0     0  0
 16 13  2  0     0  0
 17 22  2  0     0  0
 18 23  1  0     0  0
 19 14  1  0     0  0
 20  4  1  0     0  0
 21  5  1  0     0  0
 22 19  1  0     0  0
 23 19  2  0     0  0
 24 11  1  0     0  0
 25 12  1  0     0  0
 26 13  1  0     0  0
 27 20  1  0     0  0
 28 29  1  0     0  0
 29 25  2  0     0  0
 30 26  1  0     0  0
  4  3  1  0     0  0
 15 17  1  0     0  0
 27 30  1  0     0  0
 24 28  2  0     0  0
  9  7  1  0     0  0
M  END