
          11280714452D 1   1.00000     0.00000     0

 30 33  0     0  0            999 V2000
    1.0667   -4.0417    0.0000 C   0  0  0  0  0  0           0  0  0
    1.8750   -3.8667    0.0000 N   0  0  0  0  0  0           0  0  0
    1.9625   -3.0500    0.0000 C   0  0  0  0  0  0           0  0  0
    1.2042   -2.7167    0.0000 N   0  0  0  0  0  0           0  0  0
    0.6542   -3.3292    0.0000 C   0  0  0  0  0  0           0  0  0
    0.7292   -4.7917    0.0000 C   0  0  0  0  0  0           0  0  0
    1.1417   -5.5125    0.0000 S   0  0  0  0  0  0           0  0  0
    2.6792   -2.6375    0.0000 C   0  0  0  0  0  0           0  0  0
   -0.0750   -4.9667    0.0000 C   0  0  0  0  0  0           0  0  0
    0.5917   -6.1250    0.0000 C   0  0  0  0  0  0           0  0  0
   11.2542   -2.6000    0.0000 N   0  0  0  0  0  0           0  0  0
   -0.1583   -5.7917    0.0000 C   0  0  0  0  0  0           0  0  0
    3.3917   -3.0500    0.0000 C   0  0  0  0  0  0           0  0  0
    2.6792   -1.8125    0.0000 C   0  0  0  0  0  0           0  0  0
    4.8167   -1.3917    0.0000 O   0  0  0  0  0  0           0  0  0
    4.1042   -1.8042    0.0000 C   0  0  0  0  0  0           0  0  0
    6.2500   -1.3875    0.0000 C   0  0  3  0  0  0           0  0  0
    5.5375   -1.8000    0.0000 C   0  0  0  0  0  0           0  0  0
    4.1042   -2.6375    0.0000 C   0  0  0  0  0  0           0  0  0
    3.3917   -1.3917    0.0000 C   0  0  0  0  0  0           0  0  0
    7.6792   -1.3792    0.0000 N   0  0  0  0  0  0           0  0  0
    6.2417   -0.5625    0.0000 O   0  0  0  0  0  0           0  0  0
    9.8167   -1.7792    0.0000 C   0  0  0  0  0  0           0  0  0
    6.9667   -1.7917    0.0000 C   0  0  0  0  0  0           0  0  0
   10.5375   -3.0167    0.0000 C   0  0  0  0  0  0           0  0  0
   11.2417   -1.7667    0.0000 C   0  0  0  0  0  0           0  0  0
    8.3917   -1.7917    0.0000 C   0  0  0  0  0  0           0  0  0
    9.1042   -1.3750    0.0000 C   0  0  0  0  0  0           0  0  0
    9.8250   -2.6042    0.0000 C   0  0  0  0  0  0           0  0  0
   10.5292   -1.3667    0.0000 C   0  0  0  0  0  0           0  0  0
  2  1  1  0     0  0
  3  2  2  0     0  0
  4  5  1  0     0  0
  5  1  2  0     0  0
  6  1  1  0     0  0
  7  6  1  0     0  0
  8  3  1  0     0  0
  9  6  2  0     0  0
 10  7  1  0     0  0
 11 26  1  0     0  0
 12  9  1  0     0  0
 13  8  2  0     0  0
 14  8  1  0     0  0
 15 16  1  0     0  0
 16 20  1  0     0  0
 17 18  1  0     0  0
 18 15  1  0     0  0
 19 13  1  0     0  0
 20 14  2  0     0  0
 21 24  1  0     0  0
 22 17  1  0     0  0
 23 28  1  0     0  0
 24 17  1  0     0  0
 25 29  1  0     0  0
 26 30  2  0     0  0
 27 21  1  0     0  0
 28 27  1  0     0  0
 29 23  2  0     0  0
 30 23  1  0     0  0
  3  4  1  0     0  0
 12 10  2  0     0  0
 19 16  2  0     0  0
 25 11  2  0     0  0
M  END