
          11280715462D 1   1.00000     0.00000     0

 33 36  0     1  0            999 V2000
   -0.2375   -0.0125    0.0000 N   0  0  3  0  0  0           0  0  0
   -0.4708    0.7250    0.0000 C   0  0  0  0  0  0           0  0  0
    0.1375    1.1875    0.0000 N   0  0  3  0  0  0           0  0  0
   -0.8458   -0.4542    0.0000 C   0  0  0  0  0  0           0  0  0
    0.7417    0.7458    0.0000 C   0  0  0  0  0  0           0  0  0
    0.5125   -0.0125    0.0000 C   0  0  1  0  0  0           0  0  0
   -1.2125    0.7458    0.0000 N   0  0  0  0  0  0           0  0  0
   -0.8458   -1.2375    0.0000 S   0  0  3  0  0  0           0  0  0
   -1.4458    0.0000    0.0000 C   0  0  0  0  0  0           0  0  0
    0.1375    1.9833    0.0000 C   0  0  0  0  0  0           0  0  0
    0.7875    2.3625    0.0000 C   0  0  0  0  0  0           0  0  0
   -0.5083    2.3625    0.0000 C   0  0  0  0  0  0           0  0  0
    1.2250   -0.2125    0.0000 C   0  0  0  0  0  0           0  0  0
    1.4542    0.9833    0.0000 O   0  0  0  0  0  0           0  0  0
   -0.1083   -1.2417    0.0000 O   0  0  0  0  0  0           0  0  0
   -1.5958   -1.2375    0.0000 O   0  0  0  0  0  0           0  0  0
    0.7875    3.1458    0.0000 C   0  0  0  0  0  0           0  0  0
   -0.5083    3.1458    0.0000 C   0  0  0  0  0  0           0  0  0
    0.1375    3.5250    0.0000 C   0  0  0  0  0  0           0  0  0
   -0.8500   -2.0167    0.0000 C   0  0  0  0  0  0           0  0  0
    0.5042   -0.7792    0.0000 C   0  0  0  0  0  0           0  0  0
    1.2250   -0.9792    0.0000 C   0  0  0  0  0  0           0  0  0
    1.2125   -2.5375    0.0000 C   0  0  0  0  0  0           0  0  0
   -1.1583    3.5250    0.0000 Cl  0  0  0  0  0  0           0  0  0
    1.4292    3.5250    0.0000 Cl  0  0  0  0  0  0           0  0  0
    1.2042   -3.3125    0.0000 Br  0  0  0  0  0  0           0  0  0
   -2.8833   -2.3792    0.0000 N   0  0  0  0  0  0           0  0  0
    1.8625   -1.3750    0.0000 C   0  0  0  0  0  0           0  0  0
    0.5667   -1.3542    0.0000 C   0  0  0  0  0  0           0  0  0
    1.8625   -2.1500    0.0000 C   0  0  0  0  0  0           0  0  0
    0.5667   -2.1500    0.0000 C   0  0  0  0  0  0           0  0  0
   -1.5333   -2.4000    0.0000 C   0  0  0  0  0  0           0  0  0
   -2.2000   -2.0125    0.0000 C   0  0  0  0  0  0           0  0  0
  2  1  1  0     0  0
  3  2  1  0     0  0
  4  1  1  0     0  0
  5  6  1  0     0  0
  6  1  1  0     0  0
  7  2  2  0     0  0
  8  4  1  0     0  0
  9  4  2  0     0  0
 10  3  1  0     0  0
 11 10  2  0     0  0
 12 10  1  0     0  0
  6 13  1  1     0  0
 14  5  2  0     0  0
 15  8  2  0     0  0
 16  8  2  0     0  0
 17 11  1  0     0  0
 18 12  2  0     0  0
 19 18  1  0     0  0
 20  8  1  0     0  0
  6 21  1  6     0  0
 22 13  1  0     0  0
 23 31  2  0     0  0
 24 18  1  0     0  0
 25 17  1  0     0  0
 26 23  1  0     0  0
 27 33  1  0     0  0
 28 22  1  0     0  0
 29 22  2  0     0  0
 30 28  2  0     0  0
 31 29  1  0     0  0
 32 20  1  0     0  0
 33 32  1  0     0  0
  3  5  1  0     0  0
  7  9  1  0     0  0
 30 23  1  0     0  0
 17 19  2  0     0  0
M  END