
          11280715452D 1   1.00000     0.00000     0

 41 46  0     1  0            999 V2000
   -1.5500   -0.2000    0.0000 N   0  0  3  0  0  0           0  0  0
   -1.5625   -1.0250    0.0000 S   0  0  3  0  0  0           0  0  0
   -0.8250    0.2125    0.0000 C   0  0  1  0  0  0           0  0  0
   -0.8250    1.0458    0.0000 C   0  0  0  0  0  0           0  0  0
   -1.5458    1.4708    0.0000 N   0  0  0  0  0  0           0  0  0
   -2.2708    0.2125    0.0000 C   0  0  0  0  0  0           0  0  0
   -2.2708   -1.4375    0.0000 C   0  0  0  0  0  0           0  0  0
   -0.1125   -0.2042    0.0000 C   0  0  0  0  0  0           0  0  0
   -2.2625    1.0458    0.0000 C   0  0  0  0  0  0           0  0  0
    5.5792    1.4833    0.0000 C   0  0  0  0  0  0           0  0  0
    5.6542    2.3000    0.0000 N   0  0  0  0  0  0           0  0  0
   -0.9708   -1.6042    0.0000 O   0  0  0  0  0  0           0  0  0
   -0.8458   -0.6042    0.0000 O   0  0  0  0  0  0           0  0  0
    0.6000    0.2125    0.0000 C   0  0  0  0  0  0           0  0  0
   -2.9833   -1.0250    0.0000 C   0  0  0  0  0  0           0  0  0
    6.3375    1.1500    0.0000 N   0  0  0  0  0  0           0  0  0
    4.8667    1.0625    0.0000 C   0  0  0  0  0  0           0  0  0
   -0.1125    1.4625    0.0000 O   0  0  0  0  0  0           0  0  0
   -3.6958   -1.4292    0.0000 C   0  0  0  0  0  0           0  0  0
   -2.2708   -2.2625    0.0000 C   0  0  0  0  0  0           0  0  0
    0.5917    1.0375    0.0000 O   0  0  0  0  0  0           0  0  0
   -3.7000   -2.2542    0.0000 C   0  0  0  0  0  0           0  0  0
   -2.9833   -2.6667    0.0000 C   0  0  0  0  0  0           0  0  0
    1.3167   -0.1917    0.0000 N   0  0  0  0  0  0           0  0  0
    4.8750    0.2375    0.0000 C   0  0  0  0  0  0           0  0  0
    4.1500    1.4708    0.0000 C   0  0  0  0  0  0           0  0  0
    4.1667   -0.1792    0.0000 C   0  0  0  0  0  0           0  0  0
    3.4375    1.0500    0.0000 C   0  0  0  0  0  0           0  0  0
    3.4500    0.2333    0.0000 C   0  0  0  0  0  0           0  0  0
   -2.9833   -0.1917    0.0000 C   0  0  0  0  0  0           0  0  0
    2.0250    0.2250    0.0000 C   0  0  0  0  0  0           0  0  0
    6.4667    2.4750    0.0000 C   0  0  0  0  0  0           0  0  0
   -2.9833    1.4625    0.0000 C   0  0  0  0  0  0           0  0  0
    6.8792    1.7708    0.0000 C   0  0  0  0  0  0           0  0  0
   -4.4083   -1.0167    0.0000 C   0  0  0  0  0  0           0  0  0
    2.7375   -0.1875    0.0000 C   0  0  0  0  0  0           0  0  0
   -4.4083   -2.6667    0.0000 C   0  0  0  0  0  0           0  0  0
   -3.6958    0.2208    0.0000 C   0  0  0  0  0  0           0  0  0
   -3.6958    1.0458    0.0000 C   0  0  0  0  0  0           0  0  0
   -5.1208   -1.4292    0.0000 C   0  0  0  0  0  0           0  0  0
   -5.1208   -2.2542    0.0000 C   0  0  0  0  0  0           0  0  0
  2  1  1  0     0  0
  3  1  1  0     0  0
  4  3  1  0     0  0
  5  9  1  0     0  0
  6  1  1  0     0  0
  7  2  1  0     0  0
  3  8  1  1     0  0
  9  6  1  0     0  0
 10 17  1  0     0  0
 11 10  2  0     0  0
 12  2  2  0     0  0
 13  2  2  0     0  0
 14  8  1  0     0  0
 15  7  2  0     0  0
 16 10  1  0     0  0
 17 26  1  0     0  0
 18  4  2  0     0  0
 19 15  1  0     0  0
 20  7  1  0     0  0
 21 14  2  0     0  0
 22 23  1  0     0  0
 23 20  2  0     0  0
 24 14  1  0     0  0
 25 27  1  0     0  0
 26 28  2  0     0  0
 27 29  2  0     0  0
 28 29  1  0     0  0
 29 36  1  0     0  0
 30  6  2  0     0  0
 31 24  1  0     0  0
 32 11  1  0     0  0
 33  9  2  0     0  0
 34 16  1  0     0  0
 35 19  2  0     0  0
 36 31  1  0     0  0
 37 22  2  0     0  0
 38 30  1  0     0  0
 39 38  2  0     0  0
 40 35  1  0     0  0
 41 37  1  0     0  0
  4  5  1  0     0  0
 33 39  1  0     0  0
 19 22  1  0     0  0
 40 41  2  0     0  0
 25 17  2  0     0  0
 34 32  1  0     0  0
M  END