
  Mrv0541 05211314572D          

 24 25  0  0  0  0            999 V2000
    1.2717   -0.6118    0.0000 C   0  0  0  0  0  0  0  0  0  0  0  0
    0.4467   -0.6110    0.0000 N   0  0  0  0  0  0  0  0  0  0  0  0
   -2.8295    2.0614    0.0000 N   0  0  0  0  0  0  0  0  0  0  0  0
    0.0349    0.1039    0.0000 C   0  0  0  0  0  0  0  0  0  0  0  0
    1.6835   -1.3267    0.0000 C   0  0  0  0  0  0  0  0  0  0  0  0
   -2.2689    1.6215    0.0000 C   0  0  0  0  0  0  0  0  0  0  0  0
   -2.6898    1.2483    0.0000 C   0  0  0  0  0  0  0  0  0  0  0  0
   -1.2019    0.8196    0.0000 C   0  0  0  0  0  0  0  0  0  0  0  0
   -1.3401    1.6370    0.0000 C   0  0  0  0  0  0  0  0  0  0  0  0
   -1.7181    1.2483    0.0000 C   0  0  0  0  0  0  0  0  0  0  0  0
   -0.7901    0.1047    0.0000 N   0  0  0  0  0  0  0  0  0  0  0  0
    1.6849    0.1023    0.0000 O   0  0  0  0  0  0  0  0  0  0  0  0
    2.5085   -1.3275    0.0000 C   0  0  0  0  0  0  0  0  0  0  0  0
    0.4481    0.8180    0.0000 O   0  0  0  0  0  0  0  0  0  0  0  0
   -2.5894    0.9129    0.0000 C   0  0  0  0  0  0  0  0  0  0  0  0
   -3.2097    0.5360    0.0000 C   0  0  0  0  0  0  0  0  0  0  0  0
   -3.2521    2.7699    0.0000 C   0  0  0  0  0  0  0  0  0  0  0  0
    5.1610    0.0000    0.0000 Cl  0  0  0  0  0  0  0  0  0  0  0  0
    1.2703   -2.0407    0.0000 C   0  0  0  0  0  0  0  0  0  0  0  0
    2.9217   -0.6134    0.0000 O   0  0  0  0  0  0  0  0  0  0  0  0
    2.9203   -2.0423    0.0000 C   0  0  0  0  0  0  0  0  0  0  0  0
    2.5099    0.1015    0.0000 C   0  0  0  0  0  0  0  0  0  0  0  0
    1.6821   -2.7556    0.0000 C   0  0  0  0  0  0  0  0  0  0  0  0
    2.5071   -2.7564    0.0000 C   0  0  0  0  0  0  0  0  0  0  0  0
  1  2  1  0  0  0  0
  2  4  1  0  0  0  0
  1  5  1  0  0  0  0
  3  6  1  0  0  0  0
  3  7  1  0  0  0  0
  6  9  1  0  0  0  0
  8  9  1  0  0  0  0
  7 10  1  0  0  0  0
  8 10  1  0  0  0  0
  4 11  1  0  0  0  0
  8 11  1  0  0  0  0
  1 12  2  0  0  0  0
  5 13  2  0  0  0  0
  4 14  2  0  0  0  0
  6 15  1  0  0  0  0
  7 16  1  0  0  0  0
 15 16  1  0  0  0  0
  3 17  1  0  0  0  0
  5 19  1  0  0  0  0
 13 20  1  0  0  0  0
 13 21  1  0  0  0  0
 20 22  1  0  0  0  0
 19 23  2  0  0  0  0
 21 24  2  0  0  0  0
 23 24  1  0  0  0  0
M  END