
  SciTegic09261414462D

141149  0  0  0  0            999 V2000
    7.1278   -7.2247    0.0000 C   0  0
    7.0898   -9.6711    0.0000 C   0  0
    9.2309   -8.4833    0.0000 C   0  0
    8.5392   -7.2428    0.0000 C   0  0
    8.5070   -9.7001    0.0000 C   0  0
    5.6837   -8.8322    0.0000 C   0  0
    7.8096   -8.4592    0.0000 C   0  0
    7.1005   -8.8562    0.0000 C   0  0
    9.4501   -7.6965    0.0000 C   0  0
    8.8756   -7.1133    0.0000 O   0  0
    7.8621   -5.1756    0.0000 O   0  0
    7.8259   -7.6428    0.0000 C   0  0
    9.2117  -10.1190    0.0000 C   0  0
   10.2418   -7.4886    0.0000 O   0  0
    6.4054   -7.6167    0.0000 O   0  0
    7.8539   -6.0020    0.0000 C   0  0
    7.1371   -6.4039    0.0000 C   0  0
    9.9183   -9.7244    0.0000 C   0  0
    8.5556   -6.4265    0.0000 C   0  0
    8.5160   -8.8803    0.0000 C   0  0
   10.6193  -10.1411    0.0000 N   0  0
    4.9445  -10.0478    0.0000 O   0  0
    6.3982   -8.4340    0.0000 C   0  0
    6.3689  -10.0691    0.0000 C   0  0
    5.6706   -9.6510    0.0000 C   0  0
    9.9355   -8.9044    0.0000 C   0  0
   11.3321   -9.7416    0.0000 C   0  0
   12.0346  -10.1591    0.0000 N   0  0
   11.3425   -8.9244    0.0000 S   0  0
   23.4893  -12.1144    0.0000 O   0  0
   26.1847   -9.7811    0.0000 N   0  0
   38.3134   -9.0216    0.0000 C   0  0
   27.5325  -11.3382    0.0000 C   0  0
   34.9466  -10.9641    0.0000 C   0  0
   36.9625   -9.0216    0.0000 C   0  0
   31.5716  -11.3436    0.0000 C   0  0
   28.2048  -12.5088    0.0000 O   0  0
   36.9625   -9.7954    0.0000 C   0  0  1  0  0  0
   13.3819  -10.9356    0.0000 O   0  0
   16.7501  -11.3299    0.0000 C   0  0
   22.8170  -10.1706    0.0000 C   0  0  2  0  0  0
   31.5716   -9.7883    0.0000 C   0  0
   12.7077   -8.9895    0.0000 C   0  0
   30.8993  -10.1772    0.0000 C   0  0  1  0  0  0
   32.9235   -9.0162    0.0000 C   0  0
   32.8042  -11.6069    0.0000 N   0  0
   33.5989   -8.6255    0.0000 C   0  0
   25.5124   -8.6148    0.0000 C   0  0
   21.7411   -8.8157    0.0000 C   0  0
   31.6513  -12.1211    0.0000 C   0  0
   21.9373   -8.0628    0.0000 C   0  0
   28.4858   -6.4120    0.0000 C   0  0
   15.4071   -9.7672    0.0000 C   0  0
   35.6191   -9.7937    0.0000 C   0  0
   21.4692  -10.1689    0.0000 C   0  0
   20.9908   -9.0219    0.0000 C   0  0
   18.0983   -9.7704    0.0000 N   0  0
   33.5989  -10.9623    0.0000 O   0  0
   34.2736   -9.0181    0.0000 C   0  0
   15.4071   -8.9930    0.0000 O   0  0
   19.4461   -8.9983    0.0000 O   0  0
   26.8571  -12.5105    0.0000 O   0  0
   31.5716   -9.0144    0.0000 O   0  0
   13.3828   -8.6030    0.0000 C   0  0
   32.4132  -12.2846    0.0000 C   0  0
   26.8601  -10.1760    0.0000 C   0  0  1  0  0  0
   26.1837   -9.0055    0.0000 C   0  0
   33.6009   -7.8513    0.0000 C   0  0
   25.5124  -10.1743    0.0000 C   0  0
   29.5557  -10.1755    0.0000 C   0  0
   14.0622   -8.9896    0.0000 O   0  0
   35.6191   -9.0197    0.0000 O   0  0
   28.4881   -9.1053    0.0000 C   0  0
   26.8601  -10.9534    0.0000 C   0  0
   37.6380   -8.6308    0.0000 C   0  0
   15.4049  -12.1040    0.0000 C   0  0
   27.5325  -12.1198    0.0000 C   0  0
   30.2280   -9.7865    0.0000 N   0  0
   33.5989  -10.1809    0.0000 C   0  0
   17.4259   -8.6082    0.0000 O   0  0
   16.0782   -8.6099    0.0000 C   0  0
   22.1415   -9.7758    0.0000 N   0  0
   27.5325   -9.0090    0.0000 O   0  0
   32.6578  -13.0249    0.0000 C   0  0
   29.4306   -9.2263    0.0000 C   0  0
   20.7938   -9.7740    0.0000 C   0  0  2  0  0  0
   17.4259  -10.9409    0.0000 O   0  0
   30.8993  -10.9588    0.0000 C   0  0
   34.9484   -8.6290    0.0000 C   0  0
   34.2712   -9.7918    0.0000 N   0  0
   24.8370   -9.0055    0.0000 C   0  0
   15.4068  -11.3265    0.0000 C   0  0
   25.5124   -7.8410    0.0000 C   0  0
   23.4893   -9.0037    0.0000 O   0  0
   17.4259  -10.1636    0.0000 C   0  0
   23.4893  -11.3370    0.0000 C   0  0
   24.1647  -10.1725    0.0000 N   0  0
   20.3987   -9.0970    0.0000 C   0  0
   13.3819  -10.1604    0.0000 C   0  0
   29.5557  -10.9570    0.0000 O   0  0
   14.7342  -10.1606    0.0000 C   0  0  1  0  0  0
   37.6380  -10.1862    0.0000 C   0  0
   21.4692  -10.9463    0.0000 O   0  0
   37.6380   -7.8570    0.0000 C   0  0
   27.5325   -9.7828    0.0000 C   0  0
   24.1616  -10.9481    0.0000 O   0  0
   20.1256  -10.1671    0.0000 N   0  0
   38.3104   -9.7972    0.0000 O   0  0
   25.5124  -10.9516    0.0000 O   0  0
   13.3828   -7.8248    0.0000 O   0  0
   32.9235   -9.7900    0.0000 C   0  0  1  0  0  0
   23.4893   -9.7775    0.0000 C   0  0
   14.0600   -9.7664    0.0000 N   0  0
   28.8753   -8.4317    0.0000 C   0  0
   16.0765  -10.9390    0.0000 C   0  0
   16.0781  -10.1619    0.0000 N   0  0
   32.2470  -10.1790    0.0000 N   0  0
   34.9466  -10.1826    0.0000 C   0  0  1  0  0  0
   36.2902  -10.1844    0.0000 N   0  0
   16.7506   -8.9948    0.0000 C   0  0  2  0  0  0
   34.2757   -7.4580    0.0000 C   0  0
   28.8803   -9.7847    0.0000 C   0  0  2  0  0  0
   32.2842  -11.0329    0.0000 C   0  0
   32.1322  -13.6015    0.0000 C   0  0
   16.7491  -12.1059    0.0000 C   0  0
   16.0743  -12.4951    0.0000 C   0  0
   12.7077   -9.7662    0.0000 C   0  0  1  0  0  0
   16.7506   -9.7687    0.0000 C   0  0  1  0  0  0
   28.8742   -7.0851    0.0000 C   0  0
   18.7737  -10.1653    0.0000 C   0  0  2  0  0  0
   24.8370   -9.7793    0.0000 C   0  0  2  0  0  0
   31.3702  -13.4422    0.0000 C   0  0
   28.4869   -7.7587    0.0000 C   0  0
   37.6380  -10.9677    0.0000 O   0  0
   19.4461   -9.7721    0.0000 C   0  0
   18.7737  -10.9427    0.0000 C   0  0
   22.8170  -10.9481    0.0000 C   0  0
   28.2079  -10.1737    0.0000 N   0  0
   14.7342  -10.9374    0.0000 C   0  0
   31.1339  -12.6978    0.0000 C   0  0
   34.9494   -7.8531    0.0000 C   0  0
 25 24  1  0
  9 10  2  0
 16 19  1  0
 13  5  1  0
 26  3  2  0
 17  1  2  0
  3  9  1  0
  5 20  2  0
 13 18  2  0
 24  2  2  0
 17 16  1  0
  6 25  2  0
  4 12  1  0
  3 20  1  0
  6 23  1  0
 23  8  2  0
  2  8  1  0
 19  4  2  0
 11 16  2  0
 12  7  2  0
  9 14  1  0
 23 15  1  0
  8  7  1  0
  1 12  1  0
 22 25  1  0
 15  1  1  0
 18 21  1  0
 20  7  1  0
 18 26  1  0
 21 27  1  0
 27 28  1  0
 27 29  2  0
128116  1  1
 70 78  1  0
 96106  1  0
 44 88  1  6
126 76  1  0
 65 46  1  0
119 38  1  0
 31 66  1  0
127 99  1  0
 79 58  2  0
107 86  1  0
138122  1  0
 54 72  2  0
 69 31  1  0
 88 36  1  0
 97131  1  0
135 61  2  0
 95 57  1  0
122 70  1  0
121 68  1  0
 66105  1  0
 68 47  2  0
 90118  1  0
 56 49  1  0
 59 89  2  0
 35 75  1  0
 48 67  1  0
102108  1  0
 54119  1  0
105138  1  0
135107  1  0
 64 71  1  0
128120  1  0
 38 35  1  1
 84124  2  0
 46123  1  0
 55103  2  0
 40125  1  0
 89141  1  0
 47 59  1  0
 69109  2  0
113101  1  0
139 92  1  0
 86 56  1  0
 42117  1  0
 48 93  1  0
 50 65  2  0
 53 60  2  0
 92115  1  0
130136  1  6
132140  2  0
 75104  1  0
125126  2  0
 75 32  1  0
115 40  2  0
 99113  1  0
114133  1  0
133129  1  0
 91 48  1  0
137 96  1  0
111 79  1  0
124132  1  0
 86 98  1  1
122 73  1  0
 95 87  2  0
 28127  1  0
117111  1  0
130135  1  0
112 97  1  0
 66 74  1  6
122 85  1  1
 43 64  1  0
118 34  1  6
 55 82  1  0
 36 50  1  0
127 43  1  1
 77 37  2  0
 38102  1  0
120 80  1  1
 82 41  1  0
 64110  2  0
 73114  1  0
105 83  2  0
129 52  2  0
 33 77  1  0
 57130  1  0
141121  2  0
 51 52  1  0
112 94  2  0
140 50  1  0
118 54  1  0
102134  2  0
 96 30  2  0
 44 42  1  0
 65 84  1  0
 49 51  1  0
 76 92  2  0
 53116  1  0
131 91  1  1
 45 47  1  0
101 53  1  0
131 69  1  0
 99 39  2  0
120 81  1  0
 86 55  1  0
111 45  1  1
 42 63  2  0
 79 90  1  0
101139  1  6
 74 33  1  0
 70100  2  0
128 95  1  0
123 36  2  0
 77 62  1  0
 78 44  1  0
 41137  1  6
 41112  1  0
M  END