
          11280715152D 1   1.00000     0.00000     0

 20 23  0     0  0            999 V2000
    5.3167   -4.0875    0.0000 C   0  0  0  0  0  0           0  0  0
    4.6042   -3.6750    0.0000 N   0  0  3  0  0  0           0  0  0
    5.9292   -3.5292    0.0000 N   0  0  0  0  0  0           0  0  0
    4.7750   -2.8667    0.0000 N   0  0  0  0  0  0           0  0  0
    5.6000   -2.7792    0.0000 C   0  0  0  0  0  0           0  0  0
    5.3167   -4.9167    0.0000 C   0  0  0  0  0  0           0  0  0
    3.8917   -4.0917    0.0000 C   0  0  0  0  0  0           0  0  0
    4.6042   -5.3292    0.0000 N   0  0  0  0  0  0           0  0  0
    3.8875   -4.9167    0.0000 C   0  0  0  0  0  0           0  0  0
    6.0125   -2.0667    0.0000 C   0  0  0  0  0  0           0  0  0
    3.1750   -3.6792    0.0000 C   0  0  0  0  0  0           0  0  0
    5.6750   -1.3167    0.0000 O   0  0  0  0  0  0           0  0  0
    6.0292   -5.3292    0.0000 O   0  0  0  0  0  0           0  0  0
    6.8417   -1.9792    0.0000 C   0  0  0  0  0  0           0  0  0
    6.2917   -0.7667    0.0000 C   0  0  0  0  0  0           0  0  0
    3.1750   -5.3292    0.0000 C   0  0  0  0  0  0           0  0  0
    7.0042   -1.1792    0.0000 C   0  0  0  0  0  0           0  0  0
    2.4625   -4.0917    0.0000 C   0  0  0  0  0  0           0  0  0
    2.4625   -4.9167    0.0000 C   0  0  0  0  0  0           0  0  0
    1.7500   -3.6792    0.0000 Cl  0  0  0  0  0  0           0  0  0
  2  1  1  0     0  0
  3  1  2  0     0  0
  4  2  1  0     0  0
  5  3  1  0     0  0
  6  1  1  0     0  0
  7  2  1  0     0  0
  8  6  2  0     0  0
  9  8  1  0     0  0
 10  5  1  0     0  0
 11  7  2  0     0  0
 12 10  1  0     0  0
 13  6  1  0     0  0
 14 10  2  0     0  0
 15 12  1  0     0  0
 16  9  2  0     0  0
 17 14  1  0     0  0
 18 11  1  0     0  0
 19 16  1  0     0  0
 20 18  1  0     0  0
  4  5  2  0     0  0
  9  7  1  0     0  0
 19 18  2  0     0  0
 15 17  2  0     0  0
M  END