
  -ISIS-  03291115432D

 52 48  0  0  1  0  0  0  0  0999 V2000
    3.9292   -5.0792    0.0000 C   0  0  2  0  0  0  0  0  0  0  0  0
    4.6417   -4.6750    0.0000 C   0  0  2  0  0  0  0  0  0  0  0  0
    1.0667   -5.0750    0.0000 C   0  0  1  0  0  0  0  0  0  0  0  0
    1.7792   -4.6625    0.0000 C   0  0  2  0  0  0  0  0  0  0  0  0
    3.2042   -6.3167    0.0000 S   0  0  3  0  0  0  0  0  0  0  0  0
    6.0667   -4.6792    0.0000 S   0  0  3  0  0  0  0  0  0  0  0  0
    0.3542   -6.3125    0.0000 S   0  0  3  0  0  0  0  0  0  0  0  0
    3.2042   -4.6667    0.0000 C   0  0  1  0  0  0  0  0  0  0  0  0
    3.2167   -2.1917    0.0000 S   0  0  3  0  0  0  0  0  0  0  0  0
    0.3417   -1.3667    0.0000 S   0  0  3  0  0  0  0  0  0  0  0  0
    0.3542   -4.6625    0.0000 C   0  0  2  0  0  0  0  0  0  0  0  0
    1.7792   -3.8375    0.0000 O   0  0  0  0  0  0  0  0  0  0  0  0
    3.2167   -3.8417    0.0000 C   0  0  2  0  0  0  0  0  0  0  0  0
    2.4917   -5.0792    0.0000 O   0  0  0  0  0  0  0  0  0  0  0  0
    4.6417   -3.8500    0.0000 C   0  0  1  0  0  0  0  0  0  0  0  0
    3.9292   -3.4292    0.0000 O   0  0  0  0  0  0  0  0  0  0  0  0
    1.0667   -3.4292    0.0000 C   0  0  1  0  0  0  0  0  0  0  0  0
    0.3542   -3.8417    0.0000 C   0  0  2  0  0  0  0  0  0  0  0  0
    3.9167   -5.9042    0.0000 O   0  0  0  0  0  0  0  0  0  0  0  0
    5.3542   -5.0917    0.0000 O   0  0  0  0  0  0  0  0  0  0  0  0
    1.0667   -5.9000    0.0000 O   0  0  0  0  0  0  0  0  0  0  0  0
    2.4917   -3.4292    0.0000 C   0  0  0  0  0  0  0  0  0  0  0  0
    1.0667   -2.6042    0.0000 C   0  0  0  0  0  0  0  0  0  0  0  0
    0.3542   -2.1917    0.0000 O   0  0  0  0  0  0  0  0  0  0  0  0
    2.5042   -2.6042    0.0000 O   0  0  0  0  0  0  0  0  0  0  0  0
   -0.3583   -6.7375    0.0000 O   0  5  0  0  0  0  0  0  0  0  0  0
    2.4917   -6.7417    0.0000 O   0  5  0  0  0  0  0  0  0  0  0  0
    6.7917   -4.2917    0.0000 O   0  5  0  0  0  0  0  0  0  0  0  0
    3.9417   -1.7917    0.0000 O   0  5  0  0  0  0  0  0  0  0  0  0
    0.3417   -0.5417    0.0000 O   0  5  0  0  0  0  0  0  0  0  0  0
    0.7542   -7.0250    0.0000 O   0  0  0  0  0  0  0  0  0  0  0  0
   -0.0708   -5.5917    0.0000 O   0  0  0  0  0  0  0  0  0  0  0  0
    3.6167   -7.0292    0.0000 O   0  0  0  0  0  0  0  0  0  0  0  0
    2.7917   -5.6000    0.0000 O   0  0  0  0  0  0  0  0  0  0  0  0
    6.4792   -5.3917    0.0000 O   0  0  0  0  0  0  0  0  0  0  0  0
    5.6542   -3.9667    0.0000 O   0  0  0  0  0  0  0  0  0  0  0  0
    3.6292   -2.9042    0.0000 O   0  0  0  0  0  0  0  0  0  0  0  0
    1.1667   -1.3667    0.0000 O   0  0  0  0  0  0  0  0  0  0  0  0
   -0.4833   -1.3667    0.0000 O   0  0  0  0  0  0  0  0  0  0  0  0
    2.8042   -1.4792    0.0000 O   0  0  0  0  0  0  0  0  0  0  0  0
   -0.3583   -5.0792    0.0000 O   0  0  0  0  0  0  0  0  0  0  0  0
   -0.3583   -3.4292    0.0000 O   0  0  0  0  0  0  0  0  0  0  0  0
    5.3667   -3.4417    0.0000 O   0  0  0  0  0  0  0  0  0  0  0  0
    4.1167   -0.5875    0.0000 Na  0  3  0  0  0  0  0  0  0  0  0  0
    0.2542    0.4458    0.0000 Na  0  3  0  0  0  0  0  0  0  0  0  0
    7.4000   -2.6792    0.0000 Na  0  3  0  0  0  0  0  0  0  0  0  0
    5.6792   -6.8000    0.0000 Na  0  3  0  0  0  0  0  0  0  0  0  0
    1.2542   -8.0500    0.0000 Na  0  3  0  0  0  0  0  0  0  0  0  0
   -1.0708   -4.6667    0.0000 C   0  0  0  0  0  0  0  0  0  0  0  0
   -0.3583   -2.6042    0.0000 C   0  0  0  0  0  0  0  0  0  0  0  0
    5.3667   -2.6167    0.0000 C   0  0  0  0  0  0  0  0  0  0  0  0
    2.4917   -4.2417    0.0000 H   0  0  0  0  0  0  0  0  0  0  0  0
  2  1  1  0  0  0  0
  3  4  1  0  0  0  0
  4 14  1  0  0  0  0
  5 19  1  0  0  0  0
  6 20  1  0  0  0  0
  7 21  1  0  0  0  0
  8  1  1  0  0  0  0
  9 25  1  0  0  0  0
 10 24  1  0  0  0  0
 11  3  1  0  0  0  0
 12  4  1  0  0  0  0
 13  8  1  0  0  0  0
  8 14  1  6  0  0  0
 15  2  1  0  0  0  0
 16 13  1  0  0  0  0
 17 12  1  0  0  0  0
 18 17  1  0  0  0  0
  1 19  1  1  0  0  0
  2 20  1  6  0  0  0
  3 21  1  6  0  0  0
 13 22  1  1  0  0  0
 17 23  1  1  0  0  0
 24 23  1  0  0  0  0
 25 22  1  0  0  0  0
 26  7  1  0  0  0  0
 27  5  1  0  0  0  0
 28  6  1  0  0  0  0
 29  9  1  0  0  0  0
 30 10  1  0  0  0  0
 31  7  2  0  0  0  0
 32  7  2  0  0  0  0
 33  5  2  0  0  0  0
 34  5  2  0  0  0  0
 35  6  2  0  0  0  0
 36  6  2  0  0  0  0
 37  9  2  0  0  0  0
 38 10  2  0  0  0  0
 39 10  2  0  0  0  0
 40  9  2  0  0  0  0
 11 41  1  1  0  0  0
 18 42  1  1  0  0  0
 15 43  1  1  0  0  0
 49 41  1  0  0  0  0
 50 42  1  0  0  0  0
 51 43  1  0  0  0  0
  4 52  1  1  0  0  0
 16 15  1  0  0  0  0
 11 18  1  0  0  0  0
M  CHG  8  26  -1  27  -1  28  -1  29  -1  30  -1  44   1  45   1  46   1
M  CHG  2  47   1  48   1
M  END