
          11280715422D 1   1.00000     0.00000     0

 29 32  0     0  0            999 V2000
   -0.4583    0.2625    0.0000 C   0  0  0  0  0  0           0  0  0
   -0.4583    1.1000    0.0000 N   0  0  0  0  0  0           0  0  0
   -1.8958    1.1000    0.0000 C   0  0  0  0  0  0           0  0  0
   -1.1833    1.5208    0.0000 C   0  0  0  0  0  0           0  0  0
   -1.1833   -0.1500    0.0000 N   0  0  0  0  0  0           0  0  0
   -1.8958    0.2625    0.0000 C   0  0  0  0  0  0           0  0  0
    0.2542   -0.1542    0.0000 N   0  0  3  0  0  0           0  0  0
    2.3917   -1.4000    0.0000 C   0  0  0  0  0  0           0  0  0
    1.6792   -0.9917    0.0000 N   0  0  3  0  0  0           0  0  0
   -2.6083    1.5083    0.0000 C   0  0  0  0  0  0           0  0  0
   -2.6083   -0.1375    0.0000 C   0  0  0  0  0  0           0  0  0
    3.1042   -1.0167    0.0000 C   0  0  0  0  0  0           0  0  0
   -3.3208    1.1000    0.0000 C   0  0  0  0  0  0           0  0  0
   -3.3208    0.2708    0.0000 C   0  0  0  0  0  0           0  0  0
    4.4167   -1.6792    0.0000 S   0  0  0  0  0  0           0  0  0
    5.2042   -1.4167    0.0000 S   0  0  0  0  0  0           0  0  0
    0.9667    0.2625    0.0000 C   0  0  0  0  0  0           0  0  0
    0.2417   -0.9792    0.0000 C   0  0  0  0  0  0           0  0  0
    1.6792   -0.1542    0.0000 C   0  0  0  0  0  0           0  0  0
    0.9542   -1.3917    0.0000 C   0  0  0  0  0  0           0  0  0
    2.3792   -2.2292    0.0000 O   0  0  0  0  0  0           0  0  0
    3.9375   -1.0125    0.0000 C   0  0  3  0  0  0           0  0  0
   -1.1833    2.3458    0.0000 N   0  0  0  0  0  0           0  0  0
   -4.0333    1.5083    0.0000 O   0  0  0  0  0  0           0  0  0
   -4.0458   -0.1375    0.0000 O   0  0  0  0  0  0           0  0  0
    4.4167   -0.3375    0.0000 C   0  0  0  0  0  0           0  0  0
    5.2042   -0.5917    0.0000 C   0  0  0  0  0  0           0  0  0
   -4.7583    0.2708    0.0000 C   0  0  0  0  0  0           0  0  0
   -4.0333    2.3333    0.0000 C   0  0  0  0  0  0           0  0  0
  2  1  1  0     0  0
  3  6  1  0     0  0
  4  2  2  0     0  0
  5  1  2  0     0  0
  6  5  1  0     0  0
  7  1  1  0     0  0
  8  9  1  0     0  0
  9 20  1  0     0  0
 10  3  2  0     0  0
 11  6  2  0     0  0
 12  8  1  0     0  0
 13 14  2  0     0  0
 14 11  1  0     0  0
 15 22  1  0     0  0
 16 15  1  0     0  0
 17  7  1  0     0  0
 18  7  1  0     0  0
 19 17  1  0     0  0
 20 18  1  0     0  0
 21  8  2  0     0  0
 22 12  1  0     0  0
 23  4  1  0     0  0
 24 13  1  0     0  0
 25 14  1  0     0  0
 26 22  1  0     0  0
 27 26  1  0     0  0
 28 25  1  0     0  0
 29 24  1  0     0  0
  3  4  1  0     0  0
  9 19  1  0     0  0
 10 13  1  0     0  0
 16 27  1  0     0  0
M  END