
  SciTegic05071317032D

 32 30  0  0  0  0            999 V2000
   -0.6485  -18.8708    0.0000 C   0  0
   -0.6474  -19.6981    0.0000 C   0  0
    0.0706  -20.1110    0.0000 C   0  0
    0.7870  -19.6976    0.0000 C   0  0
    0.7841  -18.8671    0.0000 C   0  0
    0.0688  -18.4580    0.0000 C   0  0
    1.4971  -18.4519    0.0000 O   0  0
    2.2130  -18.8617    0.0000 C   0  0
    2.9260  -18.4466    0.0000 C   0  0
    3.6420  -18.8563    0.0000 C   0  0
    4.3549  -18.4412    0.0000 C   0  0
    5.0709  -18.8510    0.0000 C   0  0
    5.7838  -18.4358    0.0000 C   0  0
    6.4998  -18.8455    0.0000 C   0  0
    7.2128  -18.4304    0.0000 C   0  0
    7.9288  -18.8402    0.0000 C   0  0
    8.6417  -18.4251    0.0000 N   0  0
    9.3575  -18.8371    0.0000 C   0  0
   10.0683  -18.4254    0.0000 C   0  0
   10.0694  -17.6001    0.0000 N   0  0
    9.3535  -17.1881    0.0000 C   0  0
    8.6365  -17.6014    0.0000 C   0  0
   10.7840  -17.1876    0.0000 C   0  0
   11.4984  -17.6001    0.0000 C   0  0
   12.2129  -17.1876    0.0000 C   0  0
   12.9273  -17.6001    0.0000 C   0  0
   13.6418  -17.1876    0.0000 N   0  0
   14.3563  -17.6001    0.0000 C   0  0
   13.6418  -16.3625    0.0000 C   0  0
    8.1535  -20.6322    0.0000 Cl  0  0
    9.9884  -20.1536    0.0000 Cl  0  0
    9.9589  -21.2143    0.0000 Cl  0  0
  1  2  2  0
  2  3  1  0
  3  4  2  0
  4  5  1  0
  5  6  2  0
  6  1  1  0
  5  7  1  0
  7  8  1  0
  8  9  1  0
  9 10  1  0
 10 11  1  0
 11 12  1  0
 12 13  1  0
 13 14  1  0
 14 15  1  0
 15 16  1  0
 16 17  1  0
 17 18  1  0
 17 22  1  0
 18 19  1  0
 19 20  1  0
 20 21  1  0
 21 22  1  0
 20 23  1  0
 23 24  1  0
 24 25  1  0
 25 26  1  0
 26 27  1  0
 27 28  1  0
 27 29  1  0
M  END