
  Mrv0541 04051115152D          

 13 13  0  0  0  0            999 V2000
    0.6110   -0.4735    0.0000 C   0  0  1  0  0  0  0  0  0  0  0  0
   -0.1034   -0.8860    0.0000 C   0  0  2  0  0  0  0  0  0  0  0  0
   -0.8179   -0.4735    0.0000 C   0  0  2  0  0  0  0  0  0  0  0  0
   -0.8179    0.3515    0.0000 C   0  0  1  0  0  0  0  0  0  0  0  0
   -0.1034    0.7640    0.0000 C   0  0  1  0  0  0  0  0  0  0  0  0
   -0.1034    1.5890    0.0000 C   0  0  0  0  0  0  0  0  0  0  0  0
    2.0400   -0.4735    0.0000 C   0  0  0  0  0  0  0  0  0  0  0  0
    1.3255   -0.8860    0.0000 O   0  0  0  0  0  0  0  0  0  0  0  0
   -0.1034   -1.7110    0.0000 O   0  0  0  0  0  0  0  0  0  0  0  0
   -1.5324   -0.8860    0.0000 O   0  0  0  0  0  0  0  0  0  0  0  0
   -1.5324    0.7640    0.0000 O   0  0  0  0  0  0  0  0  0  0  0  0
    0.6110    0.3515    0.0000 O   0  0  0  0  0  0  0  0  0  0  0  0
    0.6110    2.0015    0.0000 O   0  0  0  0  0  0  0  0  0  0  0  0
  1  2  1  0  0  0  0
  1  8  1  6  0  0  0
  1 12  1  0  0  0  0
  2  3  1  0  0  0  0
  2  9  1  1  0  0  0
  3  4  1  0  0  0  0
  3 10  1  1  0  0  0
  4  5  1  0  0  0  0
  4 11  1  6  0  0  0
  5  6  1  1  0  0  0
  5 12  1  0  0  0  0
  6 13  1  0  0  0  0
  7  8  1  0  0  0  0
M  END