
  CDK    9/16/09,9:44

 16 16  0  0  0  0  0  0  0  0999 V2000
   11.6486  -12.8125    0.0000 C   0  0  0  0  0  0  0  0  0  0  0  0
   11.6474  -13.6398    0.0000 C   0  0  0  0  0  0  0  0  0  0  0  0
   12.3622  -14.0527    0.0000 C   0  0  0  0  0  0  0  0  0  0  0  0
   13.0787  -13.6394    0.0000 C   0  0  0  0  0  0  0  0  0  0  0  0
   13.0758  -12.8088    0.0000 C   0  0  0  0  0  0  0  0  0  0  0  0
   12.3604  -12.3997    0.0000 C   0  0  0  0  0  0  0  0  0  0  0  0
   12.3580  -11.5747    0.0000 O   0  0  0  0  0  0  0  0  0  0  0  0
   12.3620  -14.8777    0.0000 O   0  0  0  0  0  0  0  0  0  0  0  0
   13.7887  -12.3936    0.0000 C   0  0  0  0  0  0  0  0  0  0  0  0
   14.5047  -12.8034    0.0000 C   0  0  0  0  0  0  0  0  0  0  0  0
   15.2177  -12.3883    0.0000 N   0  0  0  0  0  0  0  0  0  0  0  0
   14.5079  -13.6284    0.0000 C   0  0  0  0  0  0  0  0  0  0  0  0
   13.0712  -11.1601    0.0000 C   0  0  0  0  0  0  0  0  0  0  0  0
   11.6475  -15.2900    0.0000 C   0  0  0  0  0  0  0  0  0  0  0  0
   10.9326  -14.0518    0.0000 C   0  0  0  0  0  0  0  0  0  0  0  0
   10.2185  -13.6387    0.0000 C   0  0  0  0  0  0  0  0  0  0  0  0
  3  8  1  0  0  0  0 
  5  9  1  0  0  0  0 
  4  5  1  0  0  0  0 
  9 10  1  0  0  0  0 
  2  3  1  0  0  0  0 
 10 11  1  0  0  0  0 
  5  6  2  0  0  0  0 
 10 12  1  0  0  0  0 
  6  1  1  0  0  0  0 
  7 13  1  0  0  0  0 
  1  2  2  0  0  0  0 
  8 14  1  0  0  0  0 
  6  7  1  0  0  0  0 
  2 15  1  0  0  0  0 
  3  4  2  0  0  0  0 
 15 16  1  0  0  0  0 
M  END