
  SciTegic06271217572D

 21 22  0  0  0  0            999 V2000
    5.7745  -11.4819    0.0000 S   0  0
    6.1868  -12.1964    0.0000 O   0  0
    6.5995  -11.4821    0.0000 O   0  0
    5.0611   -9.4166    0.0000 C   0  0
    5.0599  -10.2440    0.0000 C   0  0
    5.7747  -10.6569    0.0000 C   0  0
    6.4912  -10.2435    0.0000 C   0  0
    6.4883   -9.4130    0.0000 C   0  0
    5.7729   -9.0039    0.0000 C   0  0
    7.2012   -8.9978    0.0000 C   0  0
    7.9172   -9.4076    0.0000 C   0  0
    7.1981   -8.1728    0.0000 O   0  0
    8.6302   -8.9924    0.0000 S   0  0
    9.3462   -9.4022    0.0000 C   0  0
    9.3462  -10.2261    0.0000 N   0  0
   10.0613  -10.6358    0.0000 C   0  0
   10.7752  -10.2206    0.0000 C   0  0
   10.7695   -9.3913    0.0000 C   0  0
   10.0537   -8.9853    0.0000 N   0  0
    4.3451  -10.6559    0.0000 Cl  0  0
    5.0600  -11.8942    0.0000 N   0  0
 10 11  1  0
 10 12  2  0
  6  7  2  0
 11 13  1  0
  2  1  2  0
 13 14  1  0
  7  8  1  0
 14 15  2  0
  4  5  2  0
 15 16  1  0
  8  9  2  0
 16 17  2  0
  9  4  1  0
 17 18  1  0
  1  3  2  0
 18 19  2  0
 19 14  1  0
  8 10  1  0
  5 20  1  0
  6  1  1  0
  5  6  1  0
  1 21  1  0
M  END