
          11280715012D 1   1.00000     0.00000     0

 30 33  0     0  0            999 V2000
   -3.9958   -5.7292    0.0000 N   0  0  3  0  0  0           0  0  0
   -3.2083   -5.4792    0.0000 C   0  0  0  0  0  0           0  0  0
   -3.2083   -6.8125    0.0000 N   0  0  0  0  0  0           0  0  0
   -2.7208   -6.1417    0.0000 N   0  0  3  0  0  0           0  0  0
   -3.9875   -6.5542    0.0000 C   0  0  0  0  0  0           0  0  0
    1.1667   -8.4375    0.0000 C   0  0  3  0  0  0           0  0  0
    1.8667   -8.8750    0.0000 C   0  0  0  0  0  0           0  0  0
   -0.2375   -7.5542    0.0000 N   0  0  3  0  0  0           0  0  0
   -2.9500   -4.6917    0.0000 O   0  0  0  0  0  0           0  0  0
    1.1917   -7.6167    0.0000 C   0  0  0  0  0  0           0  0  0
    0.4292   -8.8292    0.0000 C   0  0  0  0  0  0           0  0  0
    1.8375   -9.6917    0.0000 C   0  0  0  0  0  0           0  0  0
    2.5917   -8.4792    0.0000 O   0  0  0  0  0  0           0  0  0
    0.4875   -7.1750    0.0000 C   0  0  0  0  0  0           0  0  0
   -0.2708   -8.3875    0.0000 C   0  0  0  0  0  0           0  0  0
   -4.6458   -5.2167    0.0000 C   0  0  0  0  0  0           0  0  0
    2.5292  -10.1292    0.0000 C   0  0  0  0  0  0           0  0  0
    1.1042  -10.0792    0.0000 C   0  0  0  0  0  0           0  0  0
   -1.8958   -6.1375    0.0000 C   0  0  0  0  0  0           0  0  0
   -1.4833   -6.8500    0.0000 C   0  0  0  0  0  0           0  0  0
    1.7667   -7.8667    0.0000 O   0  0  0  0  0  0           0  0  0
    1.7792  -11.3417    0.0000 C   0  0  0  0  0  0           0  0  0
   -4.6333   -7.0792    0.0000 C   0  0  0  0  0  0           0  0  0
    1.0792  -10.9042    0.0000 C   0  0  0  0  0  0           0  0  0
    2.5042  -10.9500    0.0000 C   0  0  0  0  0  0           0  0  0
   -0.6583   -6.8417    0.0000 C   0  0  0  0  0  0           0  0  0
    1.7500  -12.1667    0.0000 F   0  0  0  0  0  0           0  0  0
   -5.4458   -5.4042    0.0000 C   0  0  0  0  0  0           0  0  0
   -5.4375   -6.9000    0.0000 C   0  0  0  0  0  0           0  0  0
   -5.8083   -6.1542    0.0000 C   0  0  0  0  0  0           0  0  0
  2  1  1  0     0  0
  3  5  2  0     0  0
  4  2  1  0     0  0
  5  1  1  0     0  0
  6 11  1  0     0  0
  7  6  1  0     0  0
  8 26  1  0     0  0
  9  2  2  0     0  0
 10 14  1  0     0  0
 11 15  1  0     0  0
 12  7  1  0     0  0
 13  7  2  0     0  0
 14  8  1  0     0  0
 15  8  1  0     0  0
 16  1  1  0     0  0
 17 12  1  0     0  0
 18 12  2  0     0  0
 19  4  1  0     0  0
 20 19  1  0     0  0
 21  6  1  0     0  0
 22 24  2  0     0  0
 23  5  1  0     0  0
 24 18  1  0     0  0
 25 17  2  0     0  0
 26 20  1  0     0  0
 27 22  1  0     0  0
 28 16  1  0     0  0
 29 23  1  0     0  0
 30 28  1  0     0  0
  3  4  1  0     0  0
 30 29  1  0     0  0
 10  6  1  0     0  0
 25 22  1  0     0  0
M  END