
  SciTegic02211115552D

 35 39  0  0  0  0            999 V2000
   -1.4520  -12.4427    0.0000 C   0  0
   -1.4532  -13.2703    0.0000 C   0  0
   -0.7381  -13.6834    0.0000 N   0  0
   -0.7399  -12.0297    0.0000 C   0  0
   -0.0242  -12.4390    0.0000 C   0  0
   -0.0239  -13.2704    0.0000 C   0  0
    0.7668  -13.5271    0.0000 N   0  0
    1.2554  -12.8544    0.0000 C   0  0
    0.7659  -12.1827    0.0000 C   0  0
   -2.1648  -12.0303    0.0000 C   0  0
   -2.1637  -11.2039    0.0000 C   0  0
   -2.8777  -10.7914    0.0000 C   0  0
   -3.5933  -11.2044    0.0000 C   0  0
   -3.5905  -12.0339    0.0000 C   0  0
   -2.8759  -12.4426    0.0000 C   0  0
   -2.8775   -9.9661    0.0000 N   0  0
   -2.1626   -9.5536    0.0000 S   0  0
   -2.1624   -8.7282    0.0000 C   0  0
   -1.4479   -9.9665    0.0000 O   0  0
   -1.4506   -9.1330    0.0000 O   0  0
   -1.4480   -8.3204    0.0000 C   0  0
   -1.4474   -7.4958    0.0000 C   0  0
   -2.1626   -7.0822    0.0000 C   0  0
   -2.8799   -7.4990    0.0000 C   0  0
   -2.8769   -8.3223    0.0000 C   0  0
    1.1975  -11.4810    0.0000 C   0  0
    2.0236  -11.5051    0.0000 C   0  0
    2.4557  -10.8028    0.0000 C   0  0
    2.0629  -10.0759    0.0000 C   0  0
    1.2335  -10.0557    0.0000 C   0  0
    0.8051  -10.7587    0.0000 C   0  0
    3.2780  -10.8282    0.0000 O   0  0
    3.7105  -10.1253    0.0000 C   0  0
    2.4923   -9.3750    0.0000 O   0  0
    2.0986   -8.6497    0.0000 C   0  0
  6  7  1  0
 16 17  1  0
  7  8  1  0
 17 18  1  0
  8  9  2  0
 17 19  2  0
  9  5  1  0
 17 20  2  0
  4  1  1  0
 18 21  2  0
  5  6  1  0
 21 22  1  0
 10 11  2  0
 22 23  2  0
 23 24  1  0
 11 12  1  0
 24 25  2  0
 25 18  1  0
  2  3  1  0
 12 13  2  0
 26 27  2  0
  3  6  2  0
 27 28  1  0
 13 14  1  0
 28 29  2  0
  1  2  2  0
 29 30  1  0
 14 15  2  0
 30 31  2  0
 31 26  1  0
  9 26  1  0
 15 10  1  0
  1 10  1  0
 32 33  1  0
 28 32  1  0
  5  4  2  0
 12 16  1  0
 34 35  1  0
 29 34  1  0
M  END