
          03140815512D 1   1.00000     0.00000     0

 29 31  0     0  0            999 V2000
    0.6902  -22.5125    0.0000 C   0  0  0  0  0  0           0  0  0
    0.6891  -23.3398    0.0000 C   0  0  0  0  0  0           0  0  0
    1.4039  -23.7527    0.0000 C   0  0  0  0  0  0           0  0  0
    2.1203  -23.3394    0.0000 C   0  0  0  0  0  0           0  0  0
    2.1175  -22.5088    0.0000 C   0  0  0  0  0  0           0  0  0
    1.4021  -22.0997    0.0000 C   0  0  0  0  0  0           0  0  0
    2.8304  -22.0936    0.0000 O   0  0  0  0  0  0           0  0  0
    2.8273  -21.2686    0.0000 C   0  0  0  0  0  0           0  0  0
    3.5420  -20.8583    0.0000 C   0  0  0  0  0  0           0  0  0
    3.5392  -20.0341    0.0000 C   0  0  0  0  0  0           0  0  0
    2.8226  -19.6234    0.0000 C   0  0  0  0  0  0           0  0  0
    2.1074  -20.0431    0.0000 C   0  0  0  0  0  0           0  0  0
    2.1136  -20.8659    0.0000 C   0  0  0  0  0  0           0  0  0
    2.8355  -23.7507    0.0000 C   0  0  0  0  0  0           0  0  0
    2.8367  -24.5757    0.0000 N   0  0  0  0  0  0           0  0  0
    3.5519  -24.9871    0.0000 C   0  0  0  0  0  0           0  0  0
   -0.0257  -23.7518    0.0000 C   0  0  0  0  0  0           0  0  0
   -0.7458  -24.1583    0.0000 C   0  0  0  0  0  0           0  0  0
   -1.4625  -24.5667    0.0000 C   0  0  0  0  0  0           0  0  0
   -2.1746  -24.1501    0.0000 C   0  0  0  0  0  0           0  0  0
   -2.8914  -24.5585    0.0000 N   0  0  3  0  0  0           0  0  0
   -3.6054  -24.1435    0.0000 C   0  0  0  0  0  0           0  0  0
   -4.3200  -24.5485    0.0000 C   0  0  0  0  0  0           0  0  0
   -4.3290  -25.3738    0.0000 C   0  0  3  0  0  0           0  0  0
   -3.6171  -25.7925    0.0000 C   0  0  0  0  0  0           0  0  0
   -2.8961  -25.3860    0.0000 C   0  0  0  0  0  0           0  0  0
    2.8184  -18.7984    0.0000 S   0  0  0  0  0  0           0  0  0
    3.5308  -18.3823    0.0000 C   0  0  0  0  0  0           0  0  0
   -5.0473  -25.7795    0.0000 F   0  0  0  0  0  0           0  0  0
  4 14  1  0     0  0
  5  7  1  0     0  0
 14 15  1  0     0  0
  3  4  2  0     0  0
 15 16  1  0     0  0
  7  8  1  0     0  0
  2 17  1  0     0  0
 17 18  3  0     0  0
  8  9  2  0     0  0
 18 19  1  0     0  0
  4  5  1  0     0  0
 19 20  1  0     0  0
  9 10  1  0     0  0
 20 21  1  0     0  0
 21 22  1  0     0  0
  2  3  1  0     0  0
 10 11  2  0     0  0
  5  6  2  0     0  0
 11 12  1  0     0  0
  6  1  1  0     0  0
 21 26  1  0     0  0
 22 23  1  0     0  0
 23 24  1  0     0  0
 24 25  1  0     0  0
 25 26  1  0     0  0
 12 13  2  0     0  0
 11 27  1  0     0  0
 13  8  1  0     0  0
 27 28  1  0     0  0
  1  2  2  0     0  0
 24 29  1  0     0  0
M  END