
          11280715432D 1   1.00000     0.00000     0

 23 25  0     1  0            999 V2000
   -0.5583   -1.1792    0.0000 C   0  0  0  0  0  0           0  0  0
    0.5792   -0.4667    0.0000 C   0  0  0  0  0  0           0  0  0
   -0.0583    0.0583    0.0000 C   0  0  0  0  0  0           0  0  0
    0.2667   -1.2292    0.0000 N   0  0  0  0  0  0           0  0  0
   -0.7458   -0.3792    0.0000 S   0  0  0  0  0  0           0  0  0
   -1.0958   -1.8042    0.0000 N   0  0  0  0  0  0           0  0  0
   -1.9083   -1.6542    0.0000 C   0  0  0  0  0  0           0  0  0
    1.3542   -0.1875    0.0000 C   0  0  0  0  0  0           0  0  0
   -0.0333    0.8833    0.0000 C   0  0  0  0  0  0           0  0  0
   -2.4333   -2.2792    0.0000 O   0  0  0  0  0  0           0  0  0
   -2.1708   -0.8792    0.0000 C   0  0  1  0  0  0           0  0  0
   -2.9833   -0.7292    0.0000 N   0  0  0  0  0  0           0  0  0
    1.9792   -0.7167    0.0000 C   0  0  0  0  0  0           0  0  0
    0.6917    1.2833    0.0000 C   0  0  0  0  0  0           0  0  0
   -0.7375    1.3083    0.0000 C   0  0  0  0  0  0           0  0  0
    1.4917    0.6208    0.0000 C   0  0  0  0  0  0           0  0  0
   -1.6458   -0.2542    0.0000 C   0  0  0  0  0  0           0  0  0
    2.7542   -0.4292    0.0000 C   0  0  0  0  0  0           0  0  0
    0.7167    2.1083    0.0000 C   0  0  0  0  0  0           0  0  0
   -0.7208    2.1458    0.0000 C   0  0  0  0  0  0           0  0  0
    2.2542    0.9083    0.0000 C   0  0  0  0  0  0           0  0  0
    2.8917    0.3833    0.0000 C   0  0  0  0  0  0           0  0  0
    0.0042    2.5458    0.0000 C   0  0  0  0  0  0           0  0  0
  2  4  1  0     0  0
  3  5  1  0     0  0
  4  1  2  0     0  0
  5  1  1  0     0  0
  6  1  1  0     0  0
  7  6  1  0     0  0
  8  2  1  0     0  0
  9  3  1  0     0  0
 10  7  2  0     0  0
 11  7  1  0     0  0
 12 11  1  0     0  0
 13  8  2  0     0  0
 14  9  2  0     0  0
 15  9  1  0     0  0
 16  8  1  0     0  0
 11 17  1  1     0  0
 18 13  1  0     0  0
 19 14  1  0     0  0
 20 15  2  0     0  0
 21 16  2  0     0  0
 22 21  1  0     0  0
 23 20  1  0     0  0
  3  2  2  0     0  0
 23 19  2  0     0  0
 22 18  2  0     0  0
M  END