
  SciTegic11201309402D

 74 75  0  0  1  0            999 V2000
    2.6875   -0.2625    0.0000 N   0  0
   -0.5208    0.4750    0.0000 N   0  0
    1.2542    0.8833    0.0000 N   0  0
    0.6375    0.9208    0.0000 C   0  0
    2.3375    0.2583    0.0000 C   0  0
    1.8000    3.7833    0.0000 P   0  0
   -0.9500    0.0083    0.0000 C   0  0
    3.4917   -0.7667    0.0000 C   0  0
   -2.2833   -0.8000    0.0000 C   0  0
    2.8792   -0.8625    0.0000 C   0  0  1  0  0  0
    0.6375   -3.2750    0.0000 C   0  0
    0.0167    0.7875    0.0000 C   0  0  2  0  0  0
    3.7167   -0.1792    0.0000 N   0  0
   -1.8208   -0.3667    0.0000 N   0  0
    1.8417    0.6500    0.0000 C   0  0  1  0  0  0
    1.2542   -3.2292    0.0000 N   0  0
   -2.8833   -0.6042    0.0000 C   0  0  1  0  0  0
    4.3417   -0.0792    0.0000 C   0  0  2  0  0  0
   -5.4708   -1.5250    0.0000 C   0  0
    4.5750    0.4958    0.0000 C   0  0
   -3.3458   -1.0375    0.0000 N   0  0
   -1.2208   -0.5542    0.0000 C   0  0  1  0  0  0
    2.8792   -1.4917    0.0000 C   0  0
   -3.9458   -0.8542    0.0000 C   0  0
    0.0167   -3.1292    0.0000 N   0  0
   -5.0083   -1.1000    0.0000 N   0  0
    1.3542    3.3333    0.0000 O   0  0
   -5.8833    0.3208    0.0000 C   0  0
    2.3375    3.4708    0.0000 O   0  0
    2.3375   -2.6042    0.0000 C   0  0
    0.6375    1.4208    0.0000 O   0  0
    2.7917    0.6833    0.0000 O   0  0
   -1.4708    0.3625    0.0000 O   0  0
   -0.2083    1.3708    0.0000 C   0  0
    3.8792   -1.2542    0.0000 O   0  0
    0.5875   -3.9000    0.0000 O   0  0
   -2.1458   -1.4042    0.0000 O   0  0
   -5.3208   -2.1375    0.0000 O   0  0
    4.1792    0.9875    0.0000 O   0  0
   -3.0208    0.0000    0.0000 C   0  0
    4.7375   -0.5792    0.0000 C   0  0
   -6.0542   -1.3375    0.0000 C   0  0  2  0  0  0
   -4.0833   -0.2375    0.0000 O   0  0
   -5.4208    0.7458    0.0000 O   0  0
    2.7917   -3.0375    0.0000 O   0  0
    1.2542    4.0917    0.0000 O   0  0
    2.2417    4.2167    0.0000 O   0  0
   -4.4083   -1.2792    0.0000 C   0  0
    1.8417   -3.0000    0.0000 C   0  0
   -6.2000   -0.7292    0.0000 C   0  0
   -5.7458   -0.2917    0.0000 C   0  0
    0.9667    2.8458    0.0000 C   0  0
    0.1792    1.8625    0.0000 C   0  0
    5.1917    0.5875    0.0000 O   0  0
    2.1542    1.1958    0.0000 C   0  0
   -6.5167   -1.7667    0.0000 N   0  0
   -6.4792    0.5000    0.0000 O   0  0
    3.1000    1.7375    0.0000 S   0  0
    0.8042    1.7708    0.0000 C   0  0
   -0.0458    2.4583    0.0000 C   0  0
    0.3417    2.9375    0.0000 C   0  0
    1.1917    2.2708    0.0000 C   0  0
   -0.5208   -2.8167    0.0000 C   0  0
   -2.8500    0.7083    0.0000 C   0  0
    5.3542   -0.4792    0.0000 C   0  0
   -1.3208   -1.1792    0.0000 C   0  0
    2.7792    1.1958    0.0000 C   0  0
    3.7292    1.7375    0.0000 C   0  0
    5.7542   -0.9792    0.0000 C   0  0
    5.5917    0.0958    0.0000 C   0  0
   -2.2583    1.0208    0.0000 C   0  0
   -3.1125    1.3000    0.0000 C   0  0
   -0.9500   -2.3625    0.0000 C   0  0
   -1.2208   -1.7917    0.0000 C   0  0
  2 12  1  0
  3 15  1  0
  4  3  1  0
  5  1  1  0
  6 27  1  0
  7  2  1  0
 10  8  1  1
  9 14  1  0
 10  1  1  0
 11 16  1  0
 12  4  1  0
 13  8  1  0
 22 14  1  6
 15  5  1  0
 16 49  1  0
 17  9  1  0
 18 13  1  6
 19 26  1  0
 20 18  1  0
 17 21  1  1
 22  7  1  0
 10 23  1  0
 24 21  1  0
 25 11  1  0
 26 48  1  0
 27 52  1  0
 28 51  1  0
 29  6  2  0
 30 23  1  0
 31  4  2  0
 32  5  2  0
 33  7  2  0
 12 34  1  1
 35  8  2  0
 36 11  2  0
 37  9  2  0
 38 19  2  0
 39 20  2  0
 17 40  1  0
 18 41  1  0
 42 19  1  0
 43 24  2  0
 44 28  2  0
 45 30  2  0
 46  6  1  0
 47  6  1  0
 48 24  1  0
 49 30  1  0
 42 50  1  0
 51 50  1  0
 52 61  1  0
 53 34  1  0
 54 20  1  0
 15 55  1  6
 42 56  1  1
 57 28  1  0
 58 67  1  0
 59 53  2  0
 60 53  1  0
 61 60  2  0
 62 59  1  0
 63 25  1  0
 64 40  1  0
 65 41  1  0
 22 66  1  0
 67 55  1  0
 68 58  1  0
 69 65  1  0
 70 65  1  0
 71 64  1  0
 72 64  1  0
 73 63  1  0
 74 73  1  0
 52 62  2  0
 74 66  1  0
M  END