
  SciTegic06051313522D

 37 40  0  0  0  0            999 V2000
   15.8958  -20.3468    0.0000 O   0  0
   16.3124  -21.0634    0.0000 S   0  0
   16.7247  -20.3443    0.0000 O   0  0
    9.8943  -21.5134    0.0000 C   0  0
    9.8932  -22.3408    0.0000 C   0  0
   10.6080  -22.7536    0.0000 C   0  0
   11.3244  -22.3403    0.0000 C   0  0
   11.3216  -21.5098    0.0000 C   0  0
   10.6062  -21.1006    0.0000 C   0  0
   12.0345  -21.0946    0.0000 C   0  0
   12.7505  -21.5044    0.0000 C   0  0
   12.7502  -22.3270    0.0000 C   0  0
   13.4654  -22.7368    0.0000 C   0  0
   14.1793  -22.3215    0.0000 C   0  0
   14.1735  -21.4923    0.0000 C   0  0
   13.4578  -21.0863    0.0000 N   0  0
   12.0395  -22.7517    0.0000 O   0  0
   12.0408  -23.5767    0.0000 C   0  0
   12.7560  -23.9880    0.0000 C   0  0
   12.7526  -24.8104    0.0000 C   0  0
   13.4669  -25.2217    0.0000 C   0  0
   14.1817  -24.8080    0.0000 C   0  0
   14.1777  -23.9787    0.0000 C   0  0
   13.4629  -23.5712    0.0000 C   0  0
   12.0375  -25.2218    0.0000 F   0  0
   14.8974  -25.2184    0.0000 Cl  0  0
    9.1798  -21.1011    0.0000 Cl  0  0
   14.8872  -21.0739    0.0000 C   0  0
   15.6046  -21.4812    0.0000 N   0  0
   14.8811  -20.2489    0.0000 O   0  0
   17.0335  -21.4707    0.0000 C   0  0
   17.0365  -22.2937    0.0000 C   0  0
   17.7531  -22.7009    0.0000 C   0  0
   18.4655  -22.2831    0.0000 C   0  0
   18.4568  -21.4539    0.0000 C   0  0
   17.7397  -21.0504    0.0000 C   0  0
   19.1835  -22.6894    0.0000 Cl  0  0
  2  1  2  0
  3  2  2  0
  4  5  2  0
  5  6  1  0
  6  7  2  0
  7  8  1  0
  8  9  2  0
  9  4  1  0
  8 10  1  0
 10 11  1  0
 11 12  2  0
 12 13  1  0
 13 14  2  0
 14 15  1  0
 15 16  2  0
 16 11  1  0
  7 17  1  0
 17 18  1  0
 18 19  1  0
 19 20  2  0
 20 21  1  0
 21 22  2  0
 22 23  1  0
 23 24  2  0
 24 19  1  0
 20 25  1  0
 22 26  1  0
  4 27  1  0
 28 29  1  0
 28 30  2  0
 15 28  1  0
 29  2  1  0
  2 31  1  0
 31 32  2  0
 32 33  1  0
 33 34  2  0
 34 35  1  0
 35 36  2  0
 36 31  1  0
 34 37  1  0
M  END