
          11280715122D 1   1.00000     0.00000     0

 33 35  0     0  0            999 V2000
    5.1167   -5.3542    0.0000 C   0  0  0  0  0  0           0  0  0
    5.1167   -6.1792    0.0000 C   0  0  0  0  0  0           0  0  0
    4.4042   -4.9417    0.0000 C   0  0  0  0  0  0           0  0  0
    4.4042   -6.5917    0.0000 N   0  0  3  0  0  0           0  0  0
    1.4375   -5.8292    0.0000 C   0  0  3  0  0  0           0  0  0
    5.8375   -6.5917    0.0000 N   0  0  0  0  0  0           0  0  0
    4.4042   -4.1167    0.0000 N   0  0  3  0  0  0           0  0  0
    3.6917   -5.3542    0.0000 O   0  0  0  0  0  0           0  0  0
    4.4042   -7.4167    0.0000 C   0  0  0  0  0  0           0  0  0
    3.6917   -6.1792    0.0000 C   0  0  0  0  0  0           0  0  0
    0.0042   -5.8292    0.0000 O   0  0  0  0  0  0           0  0  0
   -0.7083   -6.2500    0.0000 C   0  0  0  0  0  0           0  0  0
    0.7250   -6.2417    0.0000 C   0  0  0  0  0  0           0  0  0
   -0.7083   -7.0792    0.0000 C   0  0  0  0  0  0           0  0  0
    3.6917   -7.8292    0.0000 C   0  0  0  0  0  0           0  0  0
    2.9792   -6.5917    0.0000 C   0  0  0  0  0  0           0  0  0
    2.1542   -6.2375    0.0000 F   0  0  0  0  0  0           0  0  0
    1.4292   -5.0042    0.0000 F   0  0  0  0  0  0           0  0  0
    2.1500   -5.4125    0.0000 F   0  0  0  0  0  0           0  0  0
    2.9792   -7.4167    0.0000 C   0  0  3  0  0  0           0  0  0
    5.8292   -4.9417    0.0000 C   0  0  0  0  0  0           0  0  0
    2.1875   -7.6375    0.0000 N   0  0  0  0  0  0           0  0  0
    0.0125   -7.4917    0.0000 O   0  0  0  0  0  0           0  0  0
    6.5542   -6.1792    0.0000 C   0  0  0  0  0  0           0  0  0
    5.1167   -3.7042    0.0000 C   0  0  0  0  0  0           0  0  0
    3.6917   -3.7042    0.0000 C   0  0  0  0  0  0           0  0  0
   -1.4208   -5.8375    0.0000 C   0  0  0  0  0  0           0  0  0
   -1.4208   -7.4917    0.0000 C   0  0  0  0  0  0           0  0  0
    1.3917   -7.8542    0.0000 C   0  0  0  0  0  0           0  0  0
    0.8042   -7.2750    0.0000 C   0  0  0  0  0  0           0  0  0
    6.5500   -5.3542    0.0000 C   0  0  0  0  0  0           0  0  0
   -2.1333   -7.0792    0.0000 C   0  0  0  0  0  0           0  0  0
   -2.1333   -6.2500    0.0000 C   0  0  0  0  0  0           0  0  0
  2  1  2  0     0  0
  3  1  1  0     0  0
  4  2  1  0     0  0
  5 13  1  0     0  0
  6  2  1  0     0  0
  7  3  1  0     0  0
  8  3  2  0     0  0
  9  4  1  0     0  0
 10  4  1  0     0  0
 11 12  1  0     0  0
 12 14  1  0     0  0
 13 11  1  0     0  0
 14 23  1  0     0  0
 15  9  1  0     0  0
 16 10  1  0     0  0
 17  5  1  0     0  0
 18  5  1  0     0  0
 19  5  1  0     0  0
 20 16  1  0     0  0
 21  1  1  0     0  0
 22 20  1  0     0  0
 23 30  1  0     0  0
 24 31  1  0     0  0
 25  7  1  0     0  0
 26  7  1  0     0  0
 27 12  2  0     0  0
 28 14  2  0     0  0
 29 22  1  0     0  0
 30 29  1  0     0  0
 31 21  2  0     0  0
 32 28  1  0     0  0
 33 32  2  0     0  0
 24  6  2  0     0  0
 15 20  1  0     0  0
 33 27  1  0     0  0
M  END