
          11280714552D 1   1.00000     0.00000     0

 51 58  0     0  0            999 V2000
   -0.0750  -18.6500    0.0000 N   0  0  3  0  0  0           0  0  0
    0.4042  -17.9792    0.0000 C   0  0  0  0  0  0           0  0  0
    1.3625  -12.7792    0.0000 C   0  0  0  0  0  0           0  0  0
    0.6375  -12.3750    0.0000 N   0  0  0  0  0  0           0  0  0
    0.3667  -13.6917    0.0000 N   0  0  3  0  0  0           0  0  0
    1.1917  -13.6000    0.0000 C   0  0  0  0  0  0           0  0  0
    0.0167  -12.9375    0.0000 C   0  0  0  0  0  0           0  0  0
   -0.8625  -18.4042    0.0000 N   0  0  0  0  0  0           0  0  0
   -0.8708  -17.5792    0.0000 N   0  0  0  0  0  0           0  0  0
   -0.0875  -17.3167    0.0000 N   0  0  0  0  0  0           0  0  0
    0.1875  -19.4292    0.0000 C   0  0  3  0  0  0           0  0  0
    1.2292  -17.9667    0.0000 C   0  0  0  0  0  0           0  0  0
    1.6375  -17.2542    0.0000 C   0  0  0  0  0  0           0  0  0
    2.1042  -12.4167    0.0000 C   0  0  0  0  0  0           0  0  0
   -0.0375  -14.4125    0.0000 C   0  0  0  0  0  0           0  0  0
    1.2167  -16.5417    0.0000 C   0  0  0  0  0  0           0  0  0
    0.1750  -20.2542    0.0000 C   0  0  0  0  0  0           0  0  0
    1.0042  -19.4292    0.0000 C   0  0  0  0  0  0           0  0  0
   -0.6458  -19.4292    0.0000 C   0  0  0  0  0  0           0  0  0
    2.0917  -11.5917    0.0000 O   0  0  0  0  0  0           0  0  0
    1.6250  -15.8167    0.0000 C   0  0  0  0  0  0           0  0  0
    0.3917  -16.5500    0.0000 C   0  0  0  0  0  0           0  0  0
    0.3792  -15.1250    0.0000 C   0  0  0  0  0  0           0  0  0
    1.7250  -14.2292    0.0000 C   0  0  0  0  0  0           0  0  0
   -0.7875  -12.7667    0.0000 C   0  0  0  0  0  0           0  0  0
   -0.0250  -15.8417    0.0000 C   0  0  0  0  0  0           0  0  0
    1.2042  -15.1125    0.0000 C   0  0  0  0  0  0           0  0  0
    1.6500  -18.6792    0.0000 C   0  0  0  0  0  0           0  0  0
    2.4542  -17.2417    0.0000 C   0  0  0  0  0  0           0  0  0
    2.8500  -12.7667    0.0000 C   0  0  0  0  0  0           0  0  0
   -0.5375  -20.6667    0.0000 C   0  0  0  0  0  0           0  0  0
    0.8917  -20.6667    0.0000 C   0  0  0  0  0  0           0  0  0
    1.0042  -20.2542    0.0000 C   0  0  0  0  0  0           0  0  0
    1.7167  -19.0167    0.0000 C   0  0  0  0  0  0           0  0  0
   -1.0500  -18.7042    0.0000 C   0  0  0  0  0  0           0  0  0
   -1.0583  -20.1375    0.0000 C   0  0  0  0  0  0           0  0  0
   -1.0500  -11.9917    0.0000 C   0  0  0  0  0  0           0  0  0
    2.5500  -14.2167    0.0000 C   0  0  0  0  0  0           0  0  0
    2.4792  -18.6667    0.0000 C   0  0  0  0  0  0           0  0  0
    2.8792  -17.9500    0.0000 C   0  0  0  0  0  0           0  0  0
    3.0500  -13.5625    0.0000 C   0  0  0  0  0  0           0  0  0
   -1.8583  -11.8292    0.0000 C   0  0  0  0  0  0           0  0  0
    0.8917  -21.4917    0.0000 C   0  0  0  0  0  0           0  0  0
    1.7167  -20.6667    0.0000 C   0  0  0  0  0  0           0  0  0
    2.4292  -19.4292    0.0000 C   0  0  0  0  0  0           0  0  0
   -1.8833  -18.7000    0.0000 C   0  0  0  0  0  0           0  0  0
   -1.8875  -20.1375    0.0000 C   0  0  0  0  0  0           0  0  0
   -0.5375  -21.4917    0.0000 C   0  0  0  0  0  0           0  0  0
   -2.3000  -19.4125    0.0000 C   0  0  0  0  0  0           0  0  0
    0.1750  -21.9042    0.0000 C   0  0  0  0  0  0           0  0  0
    2.4375  -20.2542    0.0000 C   0  0  0  0  0  0           0  0  0
  2  1  1  0     0  0
  3  6  2  0     0  0
  4  7  2  0     0  0
  5 15  1  0     0  0
  6  5  1  0     0  0
  7  5  1  0     0  0
  8  1  1  0     0  0
  9  8  2  0     0  0
 10  2  2  0     0  0
 11  1  1  0     0  0
 12  2  1  0     0  0
 13 12  2  0     0  0
 14  3  1  0     0  0
 15 23  1  0     0  0
 16 13  1  0     0  0
 17 11  1  0     0  0
 18 11  1  0     0  0
 19 11  1  0     0  0
 20 14  2  0     0  0
 21 16  1  0     0  0
 22 16  2  0     0  0
 23 26  2  0     0  0
 24  6  1  0     0  0
 25  7  1  0     0  0
 26 22  1  0     0  0
 27 21  2  0     0  0
 28 12  1  0     0  0
 29 13  1  0     0  0
 30 14  1  0     0  0
 31 17  1  0     0  0
 32 17  2  0     0  0
 33 18  2  0     0  0
 34 18  1  0     0  0
 35 19  2  0     0  0
 36 19  1  0     0  0
 37 25  1  0     0  0
 38 24  1  0     0  0
 39 28  2  0     0  0
 40 39  1  0     0  0
 41 38  1  0     0  0
 42 37  1  0     0  0
 43 32  1  0     0  0
 44 33  1  0     0  0
 45 34  2  0     0  0
 46 35  1  0     0  0
 47 36  2  0     0  0
 48 31  2  0     0  0
 49 47  1  0     0  0
 50 43  2  0     0  0
 51 45  1  0     0  0
 10  9  1  0     0  0
 46 49  2  0     0  0
 44 51  2  0     0  0
 48 50  1  0     0  0
 40 29  2  0     0  0
 27 23  1  0     0  0
  3  4  1  0     0  0
 30 41  1  0     0  0
M  END