
          11280715262D 1   1.00000     0.00000     0

 16 16  0     0  0            999 V2000
    2.2792   -2.9292    0.0000 N   0  0  3  0  0  0           0  0  0
    7.2792   -2.5292    0.0000 C   0  0  3  0  0  0           0  0  0
    2.9917   -2.5167    0.0000 C   0  0  0  0  0  0           0  0  0
    3.7042   -2.9292    0.0000 C   0  0  0  0  0  0           0  0  0
    1.5667   -2.5125    0.0000 C   0  0  0  0  0  0           0  0  0
    2.2792   -3.7542    0.0000 C   0  0  0  0  0  0           0  0  0
    5.1375   -2.9375    0.0000 O   0  0  0  0  0  0           0  0  0
    6.5667   -2.9417    0.0000 C   0  0  0  0  0  0           0  0  0
    4.4250   -2.5250    0.0000 C   0  0  0  0  0  0           0  0  0
    7.9917   -2.9417    0.0000 C   0  0  0  0  0  0           0  0  0
    7.2792   -1.7042    0.0000 C   0  0  0  0  0  0           0  0  0
    7.9917   -2.1125    0.0000 C   0  0  0  0  0  0           0  0  0
    5.8542   -2.5292    0.0000 C   0  0  0  0  0  0           0  0  0
    1.5625   -4.1625    0.0000 C   0  0  0  0  0  0           0  0  0
    0.8542   -2.9167    0.0000 C   0  0  0  0  0  0           0  0  0
    0.8500   -3.7417    0.0000 C   0  0  0  0  0  0           0  0  0
  2  8  1  0     0  0
  3  1  1  0     0  0
  4  3  1  0     0  0
  5  1  1  0     0  0
  6  1  1  0     0  0
  7  9  1  0     0  0
  8 13  1  0     0  0
  9  4  1  0     0  0
 10  2  1  0     0  0
 11  2  1  0     0  0
 12  2  1  0     0  0
 13  7  1  0     0  0
 14  6  1  0     0  0
 15  5  1  0     0  0
 16 14  1  0     0  0
 16 15  1  0     0  0
M  END