
          11280715012D 1   1.00000     0.00000     0

 32 36  0     0  0            999 V2000
    0.9500  -10.5167    0.0000 N   0  0  3  0  0  0           0  0  0
    1.7292  -10.2667    0.0000 C   0  0  0  0  0  0           0  0  0
    2.2167  -10.9292    0.0000 N   0  0  3  0  0  0           0  0  0
    1.7292  -11.6000    0.0000 N   0  0  0  0  0  0           0  0  0
    0.9500  -11.3417    0.0000 C   0  0  0  0  0  0           0  0  0
    6.7625  -10.2042    0.0000 C   0  0  0  0  0  0           0  0  0
    5.9375  -10.2125    0.0000 C   0  0  0  0  0  0           0  0  0
    3.0417  -10.9250    0.0000 C   0  0  0  0  0  0           0  0  0
    4.2792  -10.2125    0.0000 N   0  0  3  0  0  0           0  0  0
    1.9875   -9.4792    0.0000 O   0  0  0  0  0  0           0  0  0
    7.1792  -10.9125    0.0000 C   0  0  0  0  0  0           0  0  0
    7.1667   -9.4792    0.0000 C   0  0  0  0  0  0           0  0  0
    5.5250   -9.5000    0.0000 C   0  0  0  0  0  0           0  0  0
    5.5250  -10.9292    0.0000 C   0  0  0  0  0  0           0  0  0
    3.4542  -10.2125    0.0000 C   0  0  0  0  0  0           0  0  0
    0.1667  -10.2667    0.0000 C   0  0  0  0  0  0           0  0  0
    6.7500   -8.7667    0.0000 C   0  0  0  0  0  0           0  0  0
    6.7667  -11.6250    0.0000 C   0  0  0  0  0  0           0  0  0
    8.0042  -10.9042    0.0000 C   0  0  0  0  0  0           0  0  0
    7.9917   -9.4792    0.0000 C   0  0  0  0  0  0           0  0  0
    4.6917  -10.9292    0.0000 C   0  0  0  0  0  0           0  0  0
    4.6917   -9.5000    0.0000 C   0  0  0  0  0  0           0  0  0
    0.1667  -11.6000    0.0000 C   0  0  0  0  0  0           0  0  0
    8.0042  -12.3292    0.0000 C   0  0  0  0  0  0           0  0  0
    7.9875   -8.0375    0.0000 C   0  0  0  0  0  0           0  0  0
    8.4167  -11.6167    0.0000 C   0  0  0  0  0  0           0  0  0
    7.1542   -8.0417    0.0000 C   0  0  0  0  0  0           0  0  0
    7.1792  -12.3417    0.0000 C   0  0  0  0  0  0           0  0  0
    8.4042   -8.7667    0.0000 C   0  0  0  0  0  0           0  0  0
    8.4250  -13.0542    0.0000 F   0  0  0  0  0  0           0  0  0
    8.3917   -7.3042    0.0000 F   0  0  0  0  0  0           0  0  0
   -0.3208  -10.9292    0.0000 C   0  0  0  0  0  0           0  0  0
  2  1  1  0     0  0
  3  2  1  0     0  0
  4  5  2  0     0  0
  5  1  1  0     0  0
  6  7  2  0     0  0
  7 13  1  0     0  0
  8  3  1  0     0  0
  9 15  1  0     0  0
 10  2  2  0     0  0
 11  6  1  0     0  0
 12  6  1  0     0  0
 13 22  1  0     0  0
 14 21  1  0     0  0
 15  8  1  0     0  0
 16  1  1  0     0  0
 17 12  1  0     0  0
 18 11  2  0     0  0
 19 11  1  0     0  0
 20 12  2  0     0  0
 21  9  1  0     0  0
 22  9  1  0     0  0
 23  5  1  0     0  0
 24 26  1  0     0  0
 25 29  2  0     0  0
 26 19  2  0     0  0
 27 17  2  0     0  0
 28 18  1  0     0  0
 29 20  1  0     0  0
 30 24  1  0     0  0
 31 25  1  0     0  0
 32 16  1  0     0  0
 32 23  1  0     0  0
  4  3  1  0     0  0
 14  7  1  0     0  0
 27 25  1  0     0  0
 28 24  2  0     0  0
M  END