
  SciTegic12211613262D

 18 19  0  0  0  0            999 V2000
    2.5973   -1.5031    0.0000 C   0  0
    1.2990   -0.7500    0.0000 C   0  0
    1.2990    0.7500    0.0000 C   0  0
    0.0000    1.5000    0.0000 C   0  0
   -1.2990    0.7500    0.0000 C   0  0
   -1.2990   -0.7500    0.0000 C   0  0
    0.0000   -1.5000    0.0000 C   0  0
    2.5956   -2.7031    0.0000 O   0  0
    3.6375   -0.9049    0.0000 N   0  0
   -2.6012    3.0004    0.0000 C   0  0
   -2.5987    1.5004    0.0000 C   0  0
   -3.8967    0.7484    0.0000 C   0  0
   -5.1969    1.4963    0.0000 C   0  0
   -5.1993    2.9963    0.0000 C   0  0
   -3.9015    3.7484    0.0000 N   0  0
   -6.2395    3.5946    0.0000 O   0  0
   -6.2352    0.8946    0.0000 C   0  0
   -3.9034    4.9484    0.0000 C   0  0
  1  2  1  0
  2  3  1  0
  3  4  2  0
  4  5  1  0
  5  6  2  0
  6  7  1  0
  2  7  2  0
  1  8  2  0
  1  9  1  0
 10 11  2  0
 11 12  1  0
 12 13  2  0
 13 14  1  0
 14 15  1  0
 10 15  1  0
 14 16  2  0
 13 17  1  0
 15 18  1  0
  5 11  1  0
M  END