
  SciTegic09171211542D

140130  0  0  0  0            999 V2000
    9.0207  -12.5327    0.0000 C   0  0
    9.7289  -12.9560    0.0000 N   0  0
   10.4495  -12.5544    0.0000 C   0  0
   11.1577  -12.9776    0.0000 C   0  0
   10.4620  -11.7294    0.0000 O   0  0
   11.8783  -12.5760    0.0000 C   0  0
   12.5865  -12.9992    0.0000 C   0  0
   13.3071  -12.5976    0.0000 C   0  0
   14.0152  -13.0208    0.0000 C   0  0
   14.7359  -12.6192    0.0000 C   0  0
   15.4440  -13.0424    0.0000 C   0  0
   16.1646  -12.6408    0.0000 C   0  0
   16.8728  -13.0640    0.0000 C   0  0
   17.5934  -12.6624    0.0000 C   0  0
   18.3016  -13.0857    0.0000 C   0  0
   19.0222  -12.6840    0.0000 C   0  0
   19.0347  -11.8591    0.0000 C   0  0
   18.3265  -11.4358    0.0000 C   0  0
   17.6059  -11.8375    0.0000 C   0  0
   16.8977  -11.4142    0.0000 C   0  0
   16.1771  -11.8159    0.0000 C   0  0
    6.8838  -12.9776    0.0000 O   0  0
    6.9022  -13.7783    0.0000 O   0  0
    6.1967  -14.2068    0.0000 S   0  0
    6.9205  -14.6035    0.0000 O   0  0
    4.9797  -14.1936    0.0000 S   0  0
    3.4456  -14.4149    0.0000 O   0  0
    4.0234  -13.8219    0.0000 S   0  0
    3.2210  -13.6181    0.0000 O   0  0
    1.0850  -14.0415    0.0000 O   0  0
    1.8885  -14.2449    0.0000 S   0  0
    1.6628  -13.4473    0.0000 O   0  0
   -1.7650  -14.0679    0.0000 O   0  0
   -0.9615  -14.2713    0.0000 S   0  0
   -1.1871  -13.4738    0.0000 O   0  0
   -2.9984  -12.0631    0.0000 O   0  0
   -2.4012  -12.6408    0.0000 S   0  0
   -2.1995  -11.8348    0.0000 O   0  0
   -2.3378  -11.1895    0.0000 O   0  0
   -3.1299  -11.4194    0.0000 S   0  0
   -3.4522  -10.0787    0.0000 O   0  0
   -3.8650   -9.3767    0.0000 S   0  0
   -4.2681  -10.0923    0.0000 O   0  0
   -2.8724   -8.4267    0.0000 O   0  0
   -2.4695   -7.7065    0.0000 S   0  0
   -3.2989   -7.7135    0.0000 O   0  0
   -0.4144   -9.3157    0.0000 O   0  0
    0.4105   -9.3062    0.0000 S   0  0
   -0.0102   -8.5965    0.0000 O   0  0
    1.2038   -7.6386    0.0000 O   0  0
    0.3789   -7.6523    0.0000 S   0  0
    0.8032   -8.3599    0.0000 O   0  0
    1.4208   -9.4145    0.0000 O   0  0
    1.8493  -10.1241    0.0000 S   0  0
    2.2496   -9.3982    0.0000 O   0  0
    7.2889  -11.2091    0.0000 O   0  0
    6.8688  -10.5034    0.0000 S   0  0
    6.4677  -11.2201    0.0000 O   0  0
   -1.0169   -9.3305    0.0000 C   0  0  2  0  0  0
   -1.7378   -8.9294    0.0000 C   0  0  2  0  0  0
   -2.4408   -9.3530    0.0000 C   0  0  1  0  0  0
   -2.4302  -10.1738    0.0000 C   0  0  2  0  0  0
   -1.7093  -10.5749    0.0000 C   0  0  2  0  0  0
   -0.9990  -10.1553    0.0000 O   0  0
   -1.6986  -11.3998    0.0000 O   0  0
   -3.1386  -10.5965    0.0000 O   0  0
   -3.1604   -8.9525    0.0000 O   0  0
   -1.7520   -8.1045    0.0000 O   0  0
   -0.3103   -8.9047    0.0000 C   0  0
   -0.9789  -11.8031    0.0000 C   0  0  1  0  0  0
   -0.9708  -12.6267    0.0000 C   0  0  1  0  0  0
   -0.2551  -13.0299    0.0000 C   0  0  2  0  0  0
    0.4564  -12.6117    0.0000 C   0  0  2  0  0  0
    0.4478  -11.7858    0.0000 O   0  0
   -0.2725  -11.3781    0.0000 C   0  0  2  0  0  0
   -0.3257   -8.0798    0.0000 O   0  0
   -0.2834  -10.5532    0.0000 C   0  0
   -1.6810  -13.0465    0.0000 O   0  0
   -0.2476  -13.8549    0.0000 O   0  0
    1.1746  -13.0177    0.0000 O   0  0
    1.8853  -12.5987    0.0000 C   0  0  1  0  0  0
    2.5979  -13.0075    0.0000 C   0  0  1  0  0  0
    3.3064  -12.5921    0.0000 C   0  0  2  0  0  0
    3.3032  -11.7667    0.0000 C   0  0  2  0  0  0
    2.5851  -11.3585    0.0000 O   0  0
    1.8703  -11.7757    0.0000 C   0  0  2  0  0  0
    1.1512  -11.3715    0.0000 C   0  0
    0.4255  -10.1312    0.0000 O   0  0
    1.1417  -10.5465    0.0000 O   0  0
    2.6017  -13.8325    0.0000 O   0  0
    4.0231  -13.0007    0.0000 O   0  0
    4.0154  -11.3504    0.0000 O   0  0
    4.7321  -11.7591    0.0000 C   0  0  1  0  0  0
    4.7371  -12.5808    0.0000 C   0  0  1  0  0  0
    5.4496  -12.9894    0.0000 C   0  0  2  0  0  0
    6.1643  -12.5766    0.0000 C   0  0  1  0  0  0
    6.1619  -11.7506    0.0000 O   0  0
    5.4448  -11.3375    0.0000 C   0  0  2  0  0  0
    4.7551  -13.4053    0.0000 O   0  0
    6.1772  -13.3860    0.0000 O   0  0
    5.4400  -10.5125    0.0000 C   0  0
    6.1521  -10.0959    0.0000 O   0  0
   -0.9848  -10.9696    0.0000 H   0  0
    0.4750  -13.4364    0.0000 H   0  0
   -1.6837  -12.2257    0.0000 H   0  0
    4.0303  -12.1628    0.0000 H   0  0
    1.1715  -12.1932    0.0000 H   0  0
    6.8754  -12.1485    0.0000 H   0  0
    4.7280  -10.9346    0.0000 H   0  0
    7.5810  -10.0876    0.0000 O   0  5
    5.7798  -14.3946    0.0000 O   0  5
    2.5705  -10.5301    0.0000 O   0  5
    1.1236   -8.8844    0.0000 O   0  5
    0.3654   -6.8292    0.0000 O   0  5
   -2.4842   -6.8813    0.0000 O   0  5
   -4.5838   -8.9778    0.0000 O   0  5
   -3.8353  -11.8441    0.0000 O   0  5
   -3.1099  -13.0610    0.0000 O   0  5
   -0.9508  -15.0988    0.0000 O   0  5
    1.8931  -15.0734    0.0000 O   0  5
    4.2491  -14.6141    0.0000 O   0  5
   -3.8533  -11.0188    0.0000 O   0  0
    4.2563  -13.7930    0.0000 O   0  0
    4.7763  -14.9929    0.0000 O   0  0
    5.9933  -15.0061    0.0000 O   0  5
    7.5920  -12.5544    0.0000 C   0  0
    8.3126  -12.9560    0.0000 C   0  0
    5.0000   -7.5313    0.0000 Na  0  3
    6.2813   -7.4687    0.0000 Na  0  3
    7.2812   -7.5625    0.0000 Na  0  3
    6.2500   -8.3750    0.0000 Na  0  3
    7.6875   -8.4688    0.0000 Na  0  3
    8.7812   -8.3437    0.0000 Na  0  3
    8.2500   -9.2188    0.0000 Na  0  3
    9.6250   -9.1563    0.0000 Na  0  3
   10.7500   -9.1250    0.0000 Na  0  3
    9.8125  -10.0000    0.0000 Na  0  3
   11.0625  -10.0313    0.0000 Na  0  3
   12.0313  -10.0000    0.0000 Na  0  3
   11.9063  -10.9688    0.0000 Na  0  3
  9 10  1  0
 19 20  1  0
 42 41  2  0
 43 42  2  0
  2  3  1  0
 70 75  1  0
 71 72  1  0
 72 73  1  0
 73 74  1  0
 74 75  1  0
 20 21  1  0
 69 76  1  0
 10 11  1  0
 75 77  1  1
 45 44  2  0
 71 78  1  1
 46 45  2  0
 72 79  1  6
 24 23  2  0
 73 80  1  0
 25 24  2  0
 80 81  1  0
 81 82  1  0
  4  6  1  0
 48 47  2  0
 49 48  2  0
 11 12  1  0
  1  2  1  0
 81 86  1  0
 82 83  1  0
 83 84  1  0
 84 85  1  0
 85 86  1  0
 12 13  1  0
 86 87  1  1
 51 50  2  0
 77 88  1  0
 52 51  2  0
 87 89  1  0
 28 27  2  0
 82 90  1  1
 29 28  2  0
 83 91  1  6
  6  7  1  0
 84 92  1  0
 54 53  2  0
 92 93  1  0
 93 94  1  0
 55 54  2  0
 13 14  1  0
  3  4  1  0
 31 30  2  0
 57 56  2  0
 93 98  1  0
 94 95  1  0
 95 96  1  0
 96 97  1  0
 97 98  1  0
 58 57  2  0
 94 99  1  1
 32 31  2  0
 95100  1  6
 14 15  1  0
 98101  1  1
  7  8  1  0
101102  1  0
 59 60  1  0
 63103  1  1
 15 16  1  0
 73104  1  1
 34 33  2  0
 70105  1  1
 35 34  2  0
 84106  1  1
 81107  1  1
 16 17  1  0
 96108  1  6
  8  9  1  0
 93109  1  1
102 57  1  0
 59 64  1  0
 57110  1  0
 91 28  1  0
 99 26  1  0
 60 61  1  0
 26111  1  0
 89 54  1  0
 61 62  1  0
 54112  1  0
 88 48  1  0
 62 63  1  0
 48113  1  0
 76 51  1  0
 63 64  1  0
 51114  1  0
 68 45  1  0
 37 36  2  0
 45115  1  0
 67 42  1  0
 63 65  1  0
 42116  1  0
 66 40  1  0
 38 37  2  0
 40117  1  0
 78 37  1  0
 62 66  1  6
 37118  1  0
 79 34  1  0
 17 18  1  0
 34119  1  0
 90 31  1  0
 61 67  1  1
 31120  1  0
  3  5  2  0
 28121  1  0
 60 68  1  6
 40122  2  0
 18 19  1  0
 26123  2  0
 59 69  1  1
 26124  2  0
100 24  1  0
 40 39  2  0
 24125  1  0
 96 22  1  0
 65 70  1  0
 22126  1  0
 70 71  1  0
126127  1  0
127  1  1  0
M  CHG  8 110  -1 111  -1 112  -1 113  -1 114  -1 115  -1 116  -1 117  -1
M  CHG  8 118  -1 119  -1 120  -1 121  -1 125  -1 128   1 129   1 130   1
M  CHG  8 131   1 132   1 133   1 134   1 135   1 136   1 137   1 138   1
M  CHG  2 139   1 140   1
M  END