
  SciTegic09081514192D

 34 37  0  0  0  0            999 V2000
    4.2010   -3.2956    0.0000 C   0  0
    4.9531   -1.9978    0.0000 C   0  0
    3.9511   -0.8815    0.0000 C   0  0
    2.5987   -1.5004    0.0000 N   0  0
    2.7343   -2.9815    0.0000 N   0  0
    4.8054   -4.6666    0.0000 C   0  0
    5.9984   -4.7960    0.0000 O   0  0
    4.0971   -5.6353    0.0000 O   0  0
    4.2567    0.5878    0.0000 C   0  0
    1.2990   -0.7500    0.0000 C   0  0
    1.2990    0.7500    0.0000 C   0  0
    0.0000    1.5000    0.0000 C   0  0
   -1.2990    0.7500    0.0000 C   0  0
   -1.2990   -0.7500    0.0000 C   0  0
    0.0000   -1.5000    0.0000 C   0  0
    0.0000    2.7000    0.0000 Cl  0  0
   -2.3383    1.3500    0.0000 Cl  0  0
    3.2235    1.6679    0.0000 C   0  0
    3.6446    3.1076    0.0000 C   0  0
    5.1019    3.4627    0.0000 C   0  0
    6.1382    2.3782    0.0000 C   0  0
    5.7171    0.9385    0.0000 C   0  0
    5.5263    4.9023    0.0000 C   0  0
    6.9849    5.2556    0.0000 N   0  0
    7.4092    6.6952    0.0000 C   0  0
    8.8679    7.0484    0.0000 C   0  0
    9.2941    8.4866    0.0000 C   0  0
   10.7527    8.8367    0.0000 C   0  0
   11.7851    7.7486    0.0000 C   0  0
   11.3590    6.3104    0.0000 C   0  0
    9.9005    5.9603    0.0000 C   0  0
    6.5818    7.5643    0.0000 O   0  0
   13.2452    8.0959    0.0000 O   0  0
   14.0700    7.2242    0.0000 C   0  0
  1  2  1  0
  2  3  2  0
  3  4  1  0
  4  5  1  0
  5  1  2  0
  6  7  1  0
  6  8  2  0
  1  6  1  0
  3  9  1  0
 10 11  2  0
 11 12  1  0
 12 13  2  0
 13 14  1  0
 14 15  2  0
 15 10  1  0
  4 10  1  0
 12 16  1  0
 13 17  1  0
  9 18  2  0
 18 19  1  0
 19 20  2  0
 20 21  1  0
 21 22  2  0
 22  9  1  0
 20 23  1  0
 23 24  1  0
 24 25  1  0
 25 26  1  0
 26 27  2  0
 27 28  1  0
 28 29  2  0
 29 30  1  0
 30 31  2  0
 31 26  1  0
 25 32  2  0
 29 33  1  0
 33 34  1  0
M  END