
  Mrv0541 05211314572D          

 29 30  0  0  0  0            999 V2000
    1.4354   -1.1823    0.0000 N   0  0  0  0  0  0  0  0  0  0  0  0
    0.7209   -0.7698    0.0000 C   0  0  0  0  0  0  0  0  0  0  0  0
    2.1499    0.0552    0.0000 C   0  0  0  0  0  0  0  0  0  0  0  0
    2.1499   -0.7698    0.0000 C   0  0  0  0  0  0  0  0  0  0  0  0
    0.7209    0.0552    0.0000 N   0  0  0  0  0  0  0  0  0  0  0  0
    1.4354    0.4677    0.0000 C   0  0  0  0  0  0  0  0  0  0  0  0
   -2.8514   -1.1823    0.0000 C   0  0  0  0  0  0  0  0  0  0  0  0
    2.8643    0.4677    0.0000 C   0  0  0  0  0  0  0  0  0  0  0  0
   -3.5659   -0.7698    0.0000 C   0  0  0  0  0  0  0  0  0  0  0  0
    1.4354    1.2927    0.0000 C   0  0  0  0  0  0  0  0  0  0  0  0
    0.0065   -1.1823    0.0000 N   0  0  0  0  0  0  0  0  0  0  0  0
    2.8643    1.2927    0.0000 C   0  0  0  0  0  0  0  0  0  0  0  0
    2.1499    1.7052    0.0000 C   0  0  0  0  0  0  0  0  0  0  0  0
   -2.1370   -0.7698    0.0000 N   0  0  0  0  0  0  0  0  0  0  0  0
   -4.3196   -1.1054    0.0000 O   0  0  0  0  0  0  0  0  0  0  0  0
   -2.8514   -2.0073    0.0000 O   0  0  0  0  0  0  0  0  0  0  0  0
   -3.6521    0.0507    0.0000 C   0  0  0  0  0  0  0  0  0  0  0  0
   -4.8716   -0.4923    0.0000 C   0  0  0  0  0  0  0  0  0  0  0  0
   -0.7080   -0.7698    0.0000 C   0  0  0  0  0  0  0  0  0  0  0  0
   -1.4225   -1.1823    0.0000 C   0  0  0  0  0  0  0  0  0  0  0  0
   -4.4591    0.2222    0.0000 C   0  0  0  0  0  0  0  0  0  0  0  0
    2.8643   -1.1823    0.0000 N   0  0  0  0  0  0  0  0  0  0  0  0
    3.5788    1.7052    0.0000 O   0  0  0  0  0  0  0  0  0  0  0  0
    2.1499    2.5302    0.0000 O   0  0  0  0  0  0  0  0  0  0  0  0
    5.8181    0.0000    0.0000 Cl  0  0  0  0  0  0  0  0  0  0  0  0
    0.0065   -2.0073    0.0000 C   0  0  0  0  0  0  0  0  0  0  0  0
   -2.1370    0.0552    0.0000 C   0  0  0  0  0  0  0  0  0  0  0  0
    3.5788    2.5302    0.0000 C   0  0  0  0  0  0  0  0  0  0  0  0
    2.8643    2.9427    0.0000 C   0  0  0  0  0  0  0  0  0  0  0  0
  1  2  1  0  0  0  0
  1  4  2  0  0  0  0
  3  4  1  0  0  0  0
  2  5  2  0  0  0  0
  3  6  2  0  0  0  0
  5  6  1  0  0  0  0
  3  8  1  0  0  0  0
  7  9  1  0  0  0  0
  6 10  1  0  0  0  0
  2 11  1  0  0  0  0
  8 12  2  0  0  0  0
 10 13  2  0  0  0  0
 12 13  1  0  0  0  0
  7 14  1  0  0  0  0
  9 15  1  0  0  0  0
  7 16  2  0  0  0  0
  9 17  2  0  0  0  0
 15 18  1  0  0  0  0
 11 19  1  0  0  0  0
 14 20  1  0  0  0  0
 19 20  1  0  0  0  0
 17 21  1  0  0  0  0
 18 21  2  0  0  0  0
  4 22  1  0  0  0  0
 12 23  1  0  0  0  0
 13 24  1  0  0  0  0
 11 26  1  0  0  0  0
 14 27  1  0  0  0  0
 23 28  1  0  0  0  0
 24 29  1  0  0  0  0
M  END