
          11280714552D 1   1.00000     0.00000     0

 31 34  0     1  0            999 V2000
    0.6250   -1.4042    0.0000 C   0  0  2  0  0  0           0  0  0
   -0.0875   -1.8167    0.0000 C   0  0  0  0  0  0           0  0  0
   -0.0875   -2.6417    0.0000 C   0  0  0  0  0  0           0  0  0
    0.6250   -3.0625    0.0000 O   0  0  0  0  0  0           0  0  0
    5.6292   -2.6625    0.0000 C   0  0  0  0  0  0           0  0  0
    1.3417   -1.8167    0.0000 C   0  0  0  0  0  0           0  0  0
    1.3417   -2.6500    0.0000 C   0  0  1  0  0  0           0  0  0
    6.3375   -3.0792    0.0000 C   0  0  0  0  0  0           0  0  0
    5.6250   -1.8417    0.0000 C   0  0  0  0  0  0           0  0  0
    0.6250   -0.5792    0.0000 C   0  0  0  0  0  0           0  0  0
    4.9125   -3.0667    0.0000 O   0  0  0  0  0  0           0  0  0
    2.7750   -2.6542    0.0000 N   0  0  0  0  0  0           0  0  0
    6.3375   -3.9042    0.0000 O   0  0  0  0  0  0           0  0  0
    4.9125   -1.4292    0.0000 O   0  0  0  0  0  0           0  0  0
   -0.8000   -1.4042    0.0000 C   0  0  0  0  0  0           0  0  0
   -0.8000   -3.0625    0.0000 C   0  0  0  0  0  0           0  0  0
    2.0542   -3.0625    0.0000 C   0  0  0  0  0  0           0  0  0
    7.0625   -1.8417    0.0000 C   0  0  0  0  0  0           0  0  0
    7.0542   -2.6667    0.0000 C   0  0  0  0  0  0           0  0  0
    6.3375   -1.4292    0.0000 C   0  0  0  0  0  0           0  0  0
    1.3417   -0.1667    0.0000 C   0  0  0  0  0  0           0  0  0
   -0.0875   -0.1667    0.0000 C   0  0  0  0  0  0           0  0  0
    3.4875   -3.0667    0.0000 C   0  0  0  0  0  0           0  0  0
    4.2000   -2.6542    0.0000 C   0  0  0  0  0  0           0  0  0
    5.6167   -4.3125    0.0000 C   0  0  0  0  0  0           0  0  0
    4.9125   -0.6042    0.0000 C   0  0  0  0  0  0           0  0  0
   -1.5125   -1.8250    0.0000 C   0  0  0  0  0  0           0  0  0
   -1.5125   -2.6500    0.0000 C   0  0  0  0  0  0           0  0  0
   -0.0875    0.6500    0.0000 C   0  0  0  0  0  0           0  0  0
    1.3417    0.6583    0.0000 C   0  0  0  0  0  0           0  0  0
    0.6292    1.0708    0.0000 C   0  0  0  0  0  0           0  0  0
  2  1  1  0     0  0
  3  2  1  0     0  0
  4  7  1  0     0  0
  5 11  1  0     0  0
  6  1  1  0     0  0
  7  6  1  0     0  0
  8  5  2  0     0  0
  9  5  1  0     0  0
  1 10  1  1     0  0
 11 24  1  0     0  0
 12 17  1  0     0  0
 13  8  1  0     0  0
 14  9  1  0     0  0
 15  2  2  0     0  0
 16  3  2  0     0  0
  7 17  1  1     0  0
 18 20  1  0     0  0
 19  8  1  0     0  0
 20  9  2  0     0  0
 21 10  2  0     0  0
 22 10  1  0     0  0
 23 12  1  0     0  0
 24 23  1  0     0  0
 25 13  1  0     0  0
 26 14  1  0     0  0
 27 15  1  0     0  0
 28 27  2  0     0  0
 29 22  2  0     0  0
 30 21  1  0     0  0
 31 29  1  0     0  0
  4  3  1  0     0  0
 31 30  2  0     0  0
 28 16  1  0     0  0
 18 19  2  0     0  0
M  END