
          11280715122D 1   1.00000     0.00000     0

 41 44  0     0  0            999 V2000
    3.3000   -4.0292    0.0000 C   0  0  0  0  0  0           0  0  0
    2.9917   -5.1542    0.0000 N   0  0  0  0  0  0           0  0  0
    2.5875   -4.4417    0.0000 C   0  0  0  0  0  0           0  0  0
    4.0125   -2.7917    0.0000 C   0  0  0  0  0  0           0  0  0
    4.0292   -4.3542    0.0000 C   0  0  0  0  0  0           0  0  0
    3.3000   -3.2042    0.0000 C   0  0  0  0  0  0           0  0  0
    3.8167   -5.1542    0.0000 N   0  0  3  0  0  0           0  0  0
    4.0042   -1.9667    0.0000 C   0  0  0  0  0  0           0  0  0
    4.7292   -4.0292    0.0000 N   0  0  0  0  0  0           0  0  0
   -0.9958   -3.2625    0.0000 N   0  0  3  0  0  0           0  0  0
    4.7292   -3.2042    0.0000 C   0  0  0  0  0  0           0  0  0
    0.4292   -1.6042    0.0000 C   0  0  3  0  0  0           0  0  0
    2.0000   -5.0292    0.0000 C   0  0  3  0  0  0           0  0  0
   -1.7083   -2.8542    0.0000 C   0  0  0  0  0  0           0  0  0
    0.4417   -4.0542    0.0000 N   0  0  3  0  0  0           0  0  0
    4.7250   -1.5542    0.0000 N   0  0  3  0  0  0           0  0  0
    3.2917   -1.5542    0.0000 O   0  0  0  0  0  0           0  0  0
   -1.7083   -2.0250    0.0000 C   0  0  0  0  0  0           0  0  0
   -1.0000   -1.6125    0.0000 O   0  0  0  0  0  0           0  0  0
    2.5875   -2.7917    0.0000 N   0  0  0  0  0  0           0  0  0
   -0.2875   -2.8375    0.0000 C   0  0  0  0  0  0           0  0  0
   -0.9833   -4.0875    0.0000 C   0  0  0  0  0  0           0  0  0
   -0.2833   -2.0167    0.0000 C   0  0  0  0  0  0           0  0  0
    0.4250   -0.7792    0.0000 F   0  0  0  0  0  0           0  0  0
    1.1375   -1.1875    0.0000 F   0  0  0  0  0  0           0  0  0
    1.1417   -2.0167    0.0000 F   0  0  0  0  0  0           0  0  0
    0.4292   -3.2292    0.0000 C   0  0  0  0  0  0           0  0  0
   -0.2583   -4.4792    0.0000 C   0  0  0  0  0  0           0  0  0
    4.3167   -5.8125    0.0000 C   0  0  0  0  0  0           0  0  0
    1.1667   -4.4542    0.0000 C   0  0  0  0  0  0           0  0  0
    1.8792   -4.0375    0.0000 C   0  0  0  0  0  0           0  0  0
   -2.4250   -3.2667    0.0000 C   0  0  0  0  0  0           0  0  0
    1.2000   -4.8125    0.0000 C   0  0  0  0  0  0           0  0  0
    2.2042   -5.8292    0.0000 C   0  0  0  0  0  0           0  0  0
    1.4125   -5.6167    0.0000 C   0  0  0  0  0  0           0  0  0
    1.8750   -3.2125    0.0000 C   0  0  0  0  0  0           0  0  0
    4.7167   -0.7292    0.0000 C   0  0  0  0  0  0           0  0  0
    5.4375   -1.9625    0.0000 C   0  0  0  0  0  0           0  0  0
   -2.4250   -1.6125    0.0000 C   0  0  0  0  0  0           0  0  0
   -3.1375   -2.8542    0.0000 C   0  0  0  0  0  0           0  0  0
   -3.1375   -2.0292    0.0000 C   0  0  0  0  0  0           0  0  0
  2  3  2  0     0  0
  3  1  1  0     0  0
  4  6  1  0     0  0
  5  1  1  0     0  0
  6  1  2  0     0  0
  7  5  1  0     0  0
  8  4  1  0     0  0
  9  5  2  0     0  0
 10 22  1  0     0  0
 11  4  2  0     0  0
 12 23  1  0     0  0
 13  3  1  0     0  0
 14 10  1  0     0  0
 15 30  1  0     0  0
 16  8  1  0     0  0
 17  8  2  0     0  0
 18 14  1  0     0  0
 19 18  1  0     0  0
 20  6  1  0     0  0
 21 27  1  0     0  0
 22 28  1  0     0  0
 23 19  1  0     0  0
 24 12  1  0     0  0
 25 12  1  0     0  0
 26 12  1  0     0  0
 27 15  1  0     0  0
 28 15  1  0     0  0
 29  7  1  0     0  0
 30 31  1  0     0  0
 31 36  1  0     0  0
 32 14  2  0     0  0
 33 13  1  0     0  0
 34 13  1  0     0  0
 35 13  1  0     0  0
 36 20  1  0     0  0
 37 16  1  0     0  0
 38 16  1  0     0  0
 39 18  2  0     0  0
 40 32  1  0     0  0
 41 40  2  0     0  0
  7  2  1  0     0  0
 11  9  1  0     0  0
 10 21  1  0     0  0
 41 39  1  0     0  0
M  END