
          11280715492D 1   1.00000     0.00000     0

 25 26  0     1  0            999 V2000
   -4.1708   -6.3542    0.0000 C   0  0  0  0  0  0           0  0  0
   -4.1708   -7.1792    0.0000 C   0  0  0  0  0  0           0  0  0
   -3.4588   -7.5875    0.0000 N   0  0  3  0  0  0           0  0  0
   -2.7468   -7.1792    0.0000 C   0  0  0  0  0  0           0  0  0
   -2.7468   -6.3542    0.0000 N   0  0  3  0  0  0           0  0  0
   -3.4588   -5.9375    0.0000 C   0  0  0  0  0  0           0  0  0
   -3.4588   -5.1125    0.0000 O   0  0  0  0  0  0           0  0  0
   -2.0329   -7.5927    0.0000 O   0  0  0  0  0  0           0  0  0
   -2.0325   -5.9387    0.0000 C   0  0  0  0  0  0           0  0  0
   -1.3167   -6.3489    0.0000 C   0  0  0  0  0  0           0  0  0
   -1.3168   -7.1719    0.0000 C   0  0  0  0  0  0           0  0  0
   -0.6019   -7.5820    0.0000 C   0  0  0  0  0  0           0  0  0
    0.1123   -7.1672    0.0000 C   0  0  0  0  0  0           0  0  0
    0.1070   -6.3379    0.0000 C   0  0  0  0  0  0           0  0  0
   -0.6086   -5.9315    0.0000 C   0  0  0  0  0  0           0  0  0
   -3.4588   -8.4125    0.0000 C   0  0  0  0  0  0           0  0  0
   -4.1733   -8.8250    0.0000 C   0  0  1  0  0  0           0  0  0
   -4.1733   -9.6500    0.0000 C   0  0  0  0  0  0           0  0  0
   -4.8878   -8.4125    0.0000 N   0  0  0  0  0  0           0  0  0
   -4.8878  -10.0625    0.0000 O   0  0  0  0  0  0           0  0  0
   -3.4588  -10.0625    0.0000 O   0  0  0  0  0  0           0  0  0
   -0.6152   -5.1066    0.0000 C   0  0  0  0  0  0           0  0  0
    0.0960   -4.6884    0.0000 O   0  0  0  0  0  0           0  0  0
   -1.3329   -4.6998    0.0000 O   0  0  0  0  0  0           0  0  0
   -4.8865   -5.9438    0.0000 I   0  0  0  0  0  0           0  0  0
  5  6  1  0     0  0
 12 13  2  0     0  0
 13 14  1  0     0  0
  6  7  2  0     0  0
 14 15  2  0     0  0
 15 10  1  0     0  0
  1  2  2  0     0  0
  3 16  1  0     0  0
  4  8  2  0     0  0
 16 17  1  0     0  0
  1  6  1  0     0  0
 17 18  1  0     0  0
  5  9  1  0     0  0
 17 19  1  1     0  0
  2  3  1  0     0  0
 18 20  1  0     0  0
  9 10  1  0     0  0
 18 21  2  0     0  0
  3  4  1  0     0  0
 15 22  1  0     0  0
 10 11  2  0     0  0
 22 23  1  0     0  0
  4  5  1  0     0  0
 22 24  2  0     0  0
 11 12  1  0     0  0
  1 25  1  0     0  0
M  END