
  SciTegic01311317052D

 14 15  0  0  0  0            999 V2000
    6.6273    1.5239    0.0000 C   0  0
    6.6261    0.6972    0.0000 C   0  0
    7.3405    0.2846    0.0000 C   0  0
    7.3387    1.9365    0.0000 C   0  0
    7.3362    2.7609    0.0000 Cl  0  0
    8.0535    1.5276    0.0000 C   0  0
    8.0523    0.6951    0.0000 C   0  0
    8.7687    0.2801    0.0000 N   0  0
    9.4909    0.6930    0.0000 C   0  0
    9.4921    1.5255    0.0000 N   0  0
    8.7711    1.9452    0.0000 C   0  0
   10.2037    0.2788    0.0000 N   0  0
    8.7712    2.7696    0.0000 C   0  0
   10.9188    0.6890    0.0000 C   0  0
  3  7  2  0
  1  2  2  0
  6  4  2  0
  4  1  1  0
  6 11  1  0
  7  8  1  0
  8  9  2  0
  9 10  1  0
 10 11  1  0
  4  5  1  0
  9 12  1  0
  6  7  1  0
 11 13  1  0
  2  3  1  0
 12 14  1  0
M  END