
  SciTegic12171313032D

 25 27  0  0  0  0            999 V2000
   37.0528   -2.8519    0.0000 C   0  0
   37.0517   -3.6714    0.0000 C   0  0
   37.7597   -4.0804    0.0000 N   0  0
   38.4694   -3.6709    0.0000 C   0  0
   38.4666   -2.8483    0.0000 C   0  0
   37.7580   -2.4430    0.0000 N   0  0
   39.1777   -4.0784    0.0000 N   0  0
   39.1727   -2.4370    0.0000 N   0  0
   39.1697   -1.6198    0.0000 C   0  0  1  0  0  0
   39.8758   -1.2086    0.0000 C   0  0
   38.4604   -1.2139    0.0000 C   0  0
   40.5803   -1.6180    0.0000 C   0  0
   41.2860   -1.2075    0.0000 C   0  0
   41.2834   -0.3894    0.0000 C   0  0
   40.5692    0.0167    0.0000 C   0  0
   39.8664   -0.3966    0.0000 C   0  0
   36.3471   -2.4436    0.0000 C   0  0
   36.3482   -1.6253    0.0000 C   0  0
   35.6413   -1.2170    0.0000 C   0  0
   34.9327   -1.6258    0.0000 N   0  0
   34.9355   -2.4472    0.0000 C   0  0
   35.6431   -2.8519    0.0000 C   0  0
   34.2274   -2.8563    0.0000 C   0  0
   33.5182   -2.4504    0.0000 O   0  0
   34.2305   -3.6735    0.0000 O   0  0
  1  2  2  0
  2  3  1  0
  3  4  2  0
  4  5  1  0
  5  6  2  0
  6  1  1  0
  4  7  1  0
  5  8  1  0
  8  9  1  0
  9 10  1  0
  9 11  1  6
 10 12  2  0
 12 13  1  0
 13 14  2  0
 14 15  1  0
 15 16  2  0
 16 10  1  0
 17 18  2  0
 18 19  1  0
 19 20  2  0
 20 21  1  0
 21 22  2  0
 22 17  1  0
  1 17  1  0
 23 24  1  0
 23 25  2  0
 21 23  1  0
M  END