
  SciTegic02271514512D

 30 33  0  0  0  0            999 V2000
    5.5479  -14.6095    0.0000 N   0  0
    6.2501  -14.1836    0.0000 C   0  0
    6.2324  -13.3625    0.0000 N   0  0
    5.5124  -12.9673    0.0000 C   0  0
    4.8102  -13.3932    0.0000 C   0  0
    4.0902  -12.9980    0.0000 C   0  0
    3.3880  -13.4239    0.0000 C   0  0
    3.4057  -14.2450    0.0000 C   0  0
    4.1256  -14.6402    0.0000 C   0  0
    4.8279  -14.2143    0.0000 C   0  0
    5.4947  -12.1462    0.0000 N   0  0
    6.1970  -11.7203    0.0000 C   0  0
    6.1793  -10.8991    0.0000 C   0  0
    6.8816  -10.4732    0.0000 C   0  0
    6.8638   -9.6521    0.0000 C   0  0
    7.5661   -9.2262    0.0000 C   0  0
    7.5484   -8.4051    0.0000 N   0  0
    8.2023   -7.9081    0.0000 C   0  0
    7.9317   -7.1326    0.0000 C   0  0
    7.1106   -7.1504    0.0000 C   0  0
    6.8737   -7.9368    0.0000 C   0  0
    6.9701  -14.5789    0.0000 N   0  0
    7.0735  -15.3936    0.0000 C   0  0
    7.8804  -15.5470    0.0000 C   0  0
    8.2756  -14.8271    0.0000 C   0  0
    7.7130  -14.2287    0.0000 C   0  0
    2.7034  -14.6709    0.0000 O   0  0
    1.9834  -14.2757    0.0000 C   0  0
    2.6680  -13.0286    0.0000 O   0  0
    2.6504  -12.2116    0.0000 C   0  0
  1  2  1  0
  2  3  2  0
  3  4  1  0
  4  5  2  0
  5  6  1  0
  6  7  2  0
  7  8  1  0
  8  9  2  0
  9 10  1  0
  1 10  2  0
  5 10  1  0
  4 11  1  0
 12 13  1  0
 13 14  1  0
 14 15  1  0
 15 16  1  0
 17 18  1  0
 18 19  1  0
 19 20  1  0
 20 21  1  0
 17 21  1  0
 16 17  1  0
 11 12  1  0
 22 23  1  0
 23 24  1  0
 24 25  1  0
 25 26  1  0
 22 26  1  0
  2 22  1  0
 27 28  1  0
  8 27  1  0
  7 29  1  0
 29 30  1  0
M  END