
          11280715372D 1   1.00000     0.00000     0

 35 36  0     1  0            999 V2000
    3.0250   -2.8042    0.0000 P   0  0  3  0  0  0           0  0  0
    6.1667   -4.6292    0.0000 C   0  0  0  0  0  0           0  0  0
    6.6792   -4.3292    0.0000 N   0  0  0  0  0  0           0  0  0
    7.7250   -4.3417    0.0000 C   0  0  0  0  0  0           0  0  0
    5.6417   -4.3292    0.0000 C   0  0  1  0  0  0           0  0  0
    7.2042   -4.6417    0.0000 C   0  0  2  0  0  0           0  0  0
    5.1250   -4.6292    0.0000 N   0  0  0  0  0  0           0  0  0
    8.2500   -4.6417    0.0000 N   0  0  0  0  0  0           0  0  0
    4.6000   -4.3292    0.0000 C   0  0  0  0  0  0           0  0  0
    3.5500   -2.4917    0.0000 O   0  0  0  0  0  0           0  0  0
    2.7167   -2.2792    0.0000 O   0  0  0  0  0  0           0  0  0
    6.1667   -5.2417    0.0000 O   0  0  0  0  0  0           0  0  0
    5.6417   -3.7167    0.0000 C   0  0  0  0  0  0           0  0  0
    7.7250   -3.7292    0.0000 O   0  0  0  0  0  0           0  0  0
    7.2042   -5.2417    0.0000 C   0  0  0  0  0  0           0  0  0
    4.1875   -3.9917    0.0000 O   0  0  0  0  0  0           0  0  0
    2.5000   -3.1042    0.0000 O   0  0  0  0  0  0           0  0  0
    3.3292   -3.3292    0.0000 O   0  0  0  0  0  0           0  0  0
    4.0792   -2.8042    0.0000 C   0  0  0  0  0  0           0  0  0
    5.1167   -3.4167    0.0000 C   0  0  0  0  0  0           0  0  0
    8.7667   -4.3417    0.0000 C   0  0  0  0  0  0           0  0  0
    4.5917   -3.7042    0.0000 C   0  0  0  0  0  0           0  0  0
    5.1167   -2.8042    0.0000 C   0  0  0  0  0  0           0  0  0
    4.0792   -3.4042    0.0000 C   0  0  0  0  0  0           0  0  0
    4.5917   -2.5042    0.0000 C   0  0  0  0  0  0           0  0  0
    9.2875   -4.6417    0.0000 C   0  0  0  0  0  0           0  0  0
    7.3625   -5.8167    0.0000 C   0  0  3  0  0  0           0  0  0
    4.0792   -4.6292    0.0000 C   0  0  0  0  0  0           0  0  0
    9.1042   -5.2167    0.0000 C   0  0  0  0  0  0           0  0  0
    9.8750   -4.5167    0.0000 C   0  0  0  0  0  0           0  0  0
    7.8792   -6.1167    0.0000 C   0  0  0  0  0  0           0  0  0
    6.9375   -6.2417    0.0000 C   0  0  0  0  0  0           0  0  0
    9.5125   -5.6542    0.0000 C   0  0  0  0  0  0           0  0  0
   10.2792   -4.9542    0.0000 C   0  0  0  0  0  0           0  0  0
   10.0917   -5.5292    0.0000 C   0  0  0  0  0  0           0  0  0
  2  5  1  0     0  0
  3  2  1  0     0  0
  4  6  1  0     0  0
  5 13  1  1     0  0
  6  3  1  0     0  0
  7  5  1  0     0  0
  8  4  1  0     0  0
  9  7  1  0     0  0
 10  1  1  0     0  0
 11  1  2  0     0  0
 12  2  2  0     0  0
 13 20  1  0     0  0
 14  4  2  0     0  0
  6 15  1  6     0  0
 16  9  2  0     0  0
 17  1  1  0     0  0
 18  1  1  0     0  0
 19 10  1  0     0  0
 20 23  1  0     0  0
 21  8  1  0     0  0
 22 24  1  0     0  0
 23 25  2  0     0  0
 24 19  2  0     0  0
 25 19  1  0     0  0
 26 21  1  0     0  0
 27 15  1  0     0  0
 28  9  1  0     0  0
 29 26  1  0     0  0
 30 26  2  0     0  0
 31 27  1  0     0  0
 32 27  1  0     0  0
 33 29  2  0     0  0
 34 30  1  0     0  0
 35 34  2  0     0  0
 22 20  2  0     0  0
 33 35  1  0     0  0
M  END