
  SciTegic05171617272D

 35 38  0  0  1  0            999 V2000
   -0.5977   -2.7044    0.0000 C   0  0
   -0.2107   -3.6265    0.0000 O   0  0
    1.2781   -3.8165    0.0000 C   0  0
    1.8565   -5.2005    0.0000 C   0  0
    3.3443   -5.3916    0.0000 C   0  0
    4.2537   -4.1987    0.0000 C   0  0
    3.6753   -2.8147    0.0000 C   0  0
    2.1852   -2.6281    0.0000 C   0  0
    1.7138   -1.2033    0.0000 C   0  0
    0.2828   -0.7447    0.0000 N   0  0
    0.2786    0.7285    0.0000 N   0  0
   -0.6984    1.4253    0.0000 C   0  0
    1.6919    1.2107    0.0000 C   0  0
    2.2743    2.5974    0.0000 N   0  0
    3.7847    2.7656    0.0000 C   0  0
    4.3926    4.1378    0.0000 O   0  0
    5.8848    4.2983    0.0000 C   0  0
    6.4927    5.6705    0.0000 C   0  0
    5.7853    6.6398    0.0000 O   0  0
    7.9849    5.8310    0.0000 N   0  0
    8.5929    7.2032    0.0000 C   0  0  1  0  0  0
    7.8855    8.1725    0.0000 C   0  0
   10.0851    7.3637    0.0000 C   0  0
   10.6948    8.7342    0.0000 C   0  0
   12.1865    8.8916    0.0000 C   0  0
   13.0687    7.6785    0.0000 C   0  0
   12.4591    6.3079    0.0000 C   0  0
   10.9674    6.1505    0.0000 C   0  0
    4.6763    1.5655    0.0000 C   0  0
    4.0793    0.1680    0.0000 C   0  0
    2.5835    0.0107    0.0000 C   0  0
    4.9671   -1.0417    0.0000 C   0  0
    6.1600   -0.9113    0.0000 F   0  0
    4.5644   -1.9570    0.0000 F   0  0
    5.5584   -1.8482    0.0000 F   0  0
  1  2  1  0
  2  3  1  0
  3  4  2  0
  4  5  1  0
  5  6  2  0
  6  7  1  0
  7  8  2  0
  3  8  1  0
  8  9  1  0
  9 10  2  0
 10 11  1  0
 11 12  1  0
 11 13  1  0
 13 14  2  0
 14 15  1  0
 15 16  1  0
 16 17  1  0
 17 18  1  0
 18 19  2  0
 18 20  1  0
 20 21  1  0
 21 22  1  1
 21 23  1  0
 23 24  2  0
 24 25  1  0
 25 26  2  0
 26 27  1  0
 27 28  2  0
 23 28  1  0
 15 29  2  0
 29 30  1  0
 30 31  2  0
  9 31  1  0
 13 31  1  0
 30 32  1  0
 32 33  1  0
 32 34  1  0
 32 35  1  0
M  END