
  SciTegic12201609472D

 37 41  0  0  0  0            999 V2000
  -11.4502    5.8421    0.0000 C   0  0
  -10.4096    5.2445    0.0000 N   0  0
  -10.4061    3.7445    0.0000 C   0  0
   -9.1054    2.9975    0.0000 C   0  0
   -9.1123    5.9975    0.0000 C   0  0
   -7.8115    5.2505    0.0000 C   0  0
   -7.8080    3.7504    0.0000 N   0  0
   -6.5078    3.0010    0.0000 C   0  0
   -5.2092    3.7519    0.0000 C   0  0
   -5.2072    5.2527    0.0000 N   0  0
   -3.9069    6.0022    0.0000 C   0  0
   -3.9049    7.5030    0.0000 C   0  0
   -5.2045    8.2522    0.0000 C   0  0
   -5.2055    9.7522    0.0000 N   0  0
   -3.9069   10.5031    0.0000 C   0  0
   -2.6074    9.7540    0.0000 C   0  0
   -2.6064    8.2540    0.0000 C   0  0
   -3.9077   11.7031    0.0000 O   0  0
   -2.8683    5.4011    0.0000 O   0  0
   -3.9097    3.0028    0.0000 C   0  0
   -3.9086    1.5029    0.0000 C   0  0
   -2.6111    0.7486    0.0000 C   0  0
   -2.6111   -0.7486    0.0000 C   0  0
   -1.2964   -1.4973    0.0000 N   0  0
    0.0000   -0.7486    0.0000 C   0  0
    1.2964   -1.4973    0.0000 C   0  0
    2.5929   -0.7486    0.0000 C   0  0
    2.5929    0.7486    0.0000 C   0  0
    1.2964    1.4973    0.0000 C   0  0
    0.0000    0.7486    0.0000 C   0  0
   -1.2964    1.4973    0.0000 C   0  0
   -5.2071    0.7519    0.0000 C   0  0
   -6.5067    1.5010    0.0000 C   0  0
   -1.3061    7.5045    0.0000 C   0  0
   -0.2669    8.1046    0.0000 F   0  0
   -1.3056    6.3045    0.0000 F   0  0
   -0.2667    6.9047    0.0000 F   0  0
  1  2  1  0
  2  3  1  0
  3  4  1  0
  2  5  1  0
  5  6  1  0
  6  7  1  0
  4  7  1  0
  7  8  1  0
  8  9  2  0
  9 10  1  0
 10 11  1  0
 11 12  1  0
 12 13  2  0
 13 14  1  0
 14 15  1  0
 15 16  1  0
 16 17  2  0
 12 17  1  0
 15 18  2  0
 11 19  2  0
  9 20  1  0
 20 21  2  0
 21 22  1  0
 22 23  2  0
 23 24  1  0
 24 25  2  0
 25 26  1  0
 26 27  2  0
 27 28  1  0
 28 29  2  0
 25 30  1  0
 29 30  1  0
 30 31  2  0
 22 31  1  0
 21 32  1  0
 32 33  2  0
  8 33  1  0
 17 34  1  0
 34 35  1  0
 34 36  1  0
 34 37  1  0
M  END