
          11280714442D 1   1.00000     0.00000     0

 19 19  0     0  0            999 V2000
    5.5500   -3.6417    0.0000 C   0  0  0  0  0  0           0  0  0
    4.8542   -4.0875    0.0000 C   0  0  0  0  0  0           0  0  0
    6.2792   -4.0250    0.0000 O   0  0  0  0  0  0           0  0  0
    9.1375   -3.8917    0.0000 N   0  0  0  0  0  0           0  0  0
    5.5125   -2.8167    0.0000 O   0  0  0  0  0  0           0  0  0
    9.8292   -3.4500    0.0000 C   0  0  3  0  0  0           0  0  0
    4.1167   -3.7042    0.0000 C   0  0  0  0  0  0           0  0  0
    4.8917   -4.9042    0.0000 C   0  0  0  0  0  0           0  0  0
    7.7042   -3.9542    0.0000 C   0  0  3  0  0  0           0  0  0
    6.9750   -3.5792    0.0000 C   0  0  0  0  0  0           0  0  0
    8.4042   -3.5125    0.0000 C   0  0  0  0  0  0           0  0  0
    3.4667   -4.9750    0.0000 C   0  0  0  0  0  0           0  0  0
    3.4292   -4.1542    0.0000 C   0  0  0  0  0  0           0  0  0
    4.2042   -5.3542    0.0000 C   0  0  0  0  0  0           0  0  0
    2.7667   -5.4167    0.0000 F   0  0  0  0  0  0           0  0  0
    7.7417   -4.7792    0.0000 O   0  0  0  0  0  0           0  0  0
    9.7917   -2.6250    0.0000 C   0  0  0  0  0  0           0  0  0
   10.3875   -2.8417    0.0000 C   0  0  0  0  0  0           0  0  0
   10.5625   -3.8292    0.0000 C   0  0  0  0  0  0           0  0  0
  2  1  1  0     0  0
  3  1  1  0     0  0
  4 11  1  0     0  0
  5  1  2  0     0  0
  6  4  1  0     0  0
  7  2  2  0     0  0
  8  2  1  0     0  0
  9 10  1  0     0  0
 10  3  1  0     0  0
 11  9  1  0     0  0
 12 14  1  0     0  0
 13  7  1  0     0  0
 14  8  2  0     0  0
 15 12  1  0     0  0
 16  9  1  0     0  0
 17  6  1  0     0  0
 18  6  1  0     0  0
 19  6  1  0     0  0
 12 13  2  0     0  0
M  END