
          11280715072D 1   1.00000     0.00000     0

 42 46  0     0  0            999 V2000
    3.2500   -3.4292    0.0000 C   0  0  0  0  0  0           0  0  0
    8.0125    0.2708    0.0000 C   0  0  0  0  0  0           0  0  0
    7.2792   -0.1250    0.0000 C   0  0  0  0  0  0           0  0  0
    3.6167   -2.6875    0.0000 C   0  0  0  0  0  0           0  0  0
    2.4250   -3.4792    0.0000 C   0  0  0  0  0  0           0  0  0
    8.0292    1.0958    0.0000 C   0  0  0  0  0  0           0  0  0
    1.9667   -2.7917    0.0000 C   0  0  0  0  0  0           0  0  0
    7.3250    1.5250    0.0000 C   0  0  0  0  0  0           0  0  0
    3.1542   -2.0000    0.0000 C   0  0  0  0  0  0           0  0  0
    6.5792    0.3083    0.0000 C   0  0  0  0  0  0           0  0  0
    6.6000    1.1333    0.0000 C   0  0  0  0  0  0           0  0  0
    2.3292   -2.0542    0.0000 C   0  0  0  0  0  0           0  0  0
    4.4417   -2.6667    0.0000 O   0  0  0  0  0  0           0  0  0
    7.2542   -0.9500    0.0000 O   0  0  0  0  0  0           0  0  0
    6.5375   -1.3417    0.0000 C   0  0  0  0  0  0           0  0  0
    5.1417   -2.2292    0.0000 C   0  0  0  0  0  0           0  0  0
    5.8667   -2.6167    0.0000 C   0  0  0  0  0  0           0  0  0
    6.5667   -2.1750    0.0000 C   0  0  0  0  0  0           0  0  0
    8.7167   -0.1542    0.0000 C   0  0  0  0  0  0           0  0  0
    3.7042   -4.1167    0.0000 C   0  0  0  0  0  0           0  0  0
    1.7417   -1.4792    0.0000 O   0  0  0  0  0  0           0  0  0
    6.0042    1.7083    0.0000 O   0  0  0  0  0  0           0  0  0
    7.1792    2.3375    0.0000 C   0  0  0  0  0  0           0  0  0
    1.1542   -2.6792    0.0000 C   0  0  0  0  0  0           0  0  0
    6.3625    2.4458    0.0000 C   0  0  0  0  0  0           0  0  0
    1.0125   -1.8667    0.0000 C   0  0  0  0  0  0           0  0  0
    5.8042   -0.9667    0.0000 C   0  0  0  0  0  0           0  0  0
    5.1167   -1.4042    0.0000 C   0  0  0  0  0  0           0  0  0
    9.4375    0.2375    0.0000 O   0  0  0  0  0  0           0  0  0
    3.3375   -4.8542    0.0000 O   0  0  0  0  0  0           0  0  0
    2.0625   -4.2167    0.0000 O   0  0  0  0  0  0           0  0  0
    8.7542    1.4875    0.0000 O   0  0  0  0  0  0           0  0  0
    5.8542   -0.0792    0.0000 O   0  0  0  0  0  0           0  0  0
    3.5167   -1.2625    0.0000 O   0  0  0  0  0  0           0  0  0
    5.9042   -3.4375    0.0000 C   0  0  0  0  0  0           0  0  0
    7.3000   -2.5542    0.0000 C   0  0  0  0  0  0           0  0  0
    8.6917   -0.9792    0.0000 C   0  0  0  0  0  0           0  0  0
    4.5292   -4.0667    0.0000 C   0  0  0  0  0  0           0  0  0
    1.2417   -4.2750    0.0000 C   0  0  0  0  0  0           0  0  0
    8.7792    2.3208    0.0000 C   0  0  0  0  0  0           0  0  0
    3.0542   -0.5792    0.0000 C   0  0  0  0  0  0           0  0  0
    5.1542    0.3583    0.0000 C   0  0  0  0  0  0           0  0  0
  2  3  1  0     0  0
  3 14  1  0     0  0
  4  1  1  0     0  0
  5  1  2  0     0  0
  6  2  2  0     0  0
  7  5  1  0     0  0
  8 11  2  0     0  0
  9  4  2  0     0  0
 10  3  2  0     0  0
 11 10  1  0     0  0
 12  7  2  0     0  0
 13  4  1  0     0  0
 14 15  1  0     0  0
 15 27  2  0     0  0
 16 13  1  0     0  0
 17 16  1  0     0  0
 18 17  2  0     0  0
 19  2  1  0     0  0
 20  1  1  0     0  0
 21 12  1  0     0  0
 22 11  1  0     0  0
 23  8  1  0     0  0
 24  7  1  0     0  0
 25 22  1  0     0  0
 26 24  2  0     0  0
 27 28  1  0     0  0
 28 16  2  0     0  0
 29 19  2  0     0  0
 30 20  2  0     0  0
 31  5  1  0     0  0
 32  6  1  0     0  0
 33 10  1  0     0  0
 34  9  1  0     0  0
 35 17  1  0     0  0
 36 18  1  0     0  0
 37 19  1  0     0  0
 38 20  1  0     0  0
 39 31  1  0     0  0
 40 32  1  0     0  0
 41 34  1  0     0  0
 42 33  1  0     0  0
  9 12  1  0     0  0
 21 26  1  0     0  0
 15 18  1  0     0  0
  8  6  1  0     0  0
 25 23  2  0     0  0
M  END