
  SciTegic09081514182D

 29 33  0  0  0  0            999 V2000
    1.6509    1.9313    0.0000 C   0  0
    0.1246    1.9313    0.0000 C   0  0
    0.8722   -1.3706    0.0000 C   0  0
    2.2272   -0.7320    0.0000 C   0  0
    2.5854    0.7009    0.0000 C   0  0
    4.0183    1.1214    0.0000 C   0  0
    5.1241    0.0934    0.0000 C   0  0
    4.7970   -1.3083    0.0000 C   0  0
    3.3486   -1.7444    0.0000 C   0  0
   -0.7943    0.7632    0.0000 C   0  0
   -0.4672   -0.7164    0.0000 C   0  0
   -1.5730   -1.7444    0.0000 N   0  0
   -3.0215   -1.2460    0.0000 C   0  0
   -3.3330    0.1557    0.0000 C   0  0
   -2.2272    1.1993    0.0000 C   0  0
    0.8617   -2.8713    0.0000 C   0  0
    2.1961   -3.5651    0.0000 C   0  0
    2.2635   -5.0636    0.0000 C   0  0
    0.9995   -5.8712    0.0000 N   0  0
   -0.3319   -5.1803    0.0000 C   0  0
   -0.3993   -3.6818    0.0000 C   0  0
    1.0638   -7.3706    0.0000 C   0  0
    2.1280   -7.9252    0.0000 O   0  0
   -0.2020   -8.1769    0.0000 N   0  0
   -0.2784   -9.6622    0.0000 C   0  0
   -1.7314  -10.0346    0.0000 N   0  0
   -2.5347   -8.7678    0.0000 C   0  0
   -1.5780   -7.6124    0.0000 N   0  0
    6.2718    0.4439    0.0000 Cl  0  0
  1  2  1  0
  2 10  1  0
  1  5  1  0
 11  3  1  0
  4  3  1  0
  4  5  2  0
  5  6  1  0
  6  7  2  0
  7  8  1  0
  8  9  2  0
  9  4  1  0
 10 11  2  0
 11 12  1  0
 12 13  2  0
 13 14  1  0
 14 15  2  0
 15 10  1  0
 16 17  1  0
 16 21  1  0
 17 18  1  0
 18 19  1  0
 19 20  1  0
 20 21  1  0
  3 16  2  0
 19 22  1  0
 22 23  2  0
 22 24  1  0
 24 25  1  0
 25 26  2  0
 26 27  1  0
 27 28  2  0
 28 24  1  0
  7 29  1  0
M  END