
  SciTegic05071317012D

 27 28  0  0  0  0            999 V2000
   23.9429  -10.1046    0.0000 C   0  0  1  0  0  0
   24.3602  -10.8163    0.0000 O   0  0
   25.1810  -10.8085    0.0000 C   0  0
   25.5888  -10.0961    0.0000 C   0  0  1  0  0  0
   25.1715   -9.3843    0.0000 C   0  0
   24.3464   -9.3849    0.0000 O   0  0
   26.4138  -10.0919    0.0000 S   0  3
   26.8300  -10.8042    0.0000 C   0  0
   26.8226   -9.3752    0.0000 C   0  0
   23.1179  -10.1125    0.0000 C   0  0
   22.6985   -9.4019    0.0000 C   0  0
   22.7123  -10.8309    0.0000 C   0  0
   23.1076   -8.6857    0.0000 C   0  0
   22.6889   -7.9756    0.0000 C   0  0
   21.8631   -7.9830    0.0000 C   0  0
   21.4576   -8.7065    0.0000 C   0  0
   21.8786   -9.4136    0.0000 C   0  0
   21.8871  -10.8337    0.0000 C   0  0
   21.4814  -11.5512    0.0000 C   0  0
   21.9008  -12.2628    0.0000 C   0  0
   22.7301  -12.2522    0.0000 C   0  0
   23.1320  -11.5340    0.0000 C   0  0
   27.7411  -12.7728    0.0000 Cl  0  0
   27.7411  -13.5979    0.0000 O   0  0
   26.9160  -12.7728    0.0000 O   0  0
   27.7411  -11.9478    0.0000 O   0  5
   28.5661  -12.7728    0.0000 O   0  0
  1  2  1  0
  1  6  1  0
  2  3  1  0
  3  4  1  0
  4  5  1  0
  5  6  1  0
  4  7  1  1
  7  8  1  0
  7  9  1  0
  1 10  1  6
 10 11  1  0
 10 12  1  0
 11 13  2  0
 13 14  1  0
 14 15  2  0
 15 16  1  0
 16 17  2  0
 17 11  1  0
 12 18  2  0
 18 19  1  0
 19 20  2  0
 20 21  1  0
 21 22  2  0
 22 12  1  0
 23 24  2  0
 23 25  2  0
 23 26  1  0
 23 27  2  0
M  CHG  2   7   1  26  -1
M  END