
  CDK    9/16/09,9:52

 35 38  0  0  0  0  0  0  0  0999 V2000
   -2.5836  -17.1110    0.0000 C   0  0  0  0  0  0  0  0  0  0  0  0
   -1.8672  -16.6977    0.0000 C   0  0  0  0  0  0  0  0  0  0  0  0
   -1.8700  -15.8672    0.0000 C   0  0  0  0  0  0  0  0  0  0  0  0
   -2.5854  -15.4580    0.0000 C   0  0  0  0  0  0  0  0  0  0  0  0
   -3.2984  -16.6982    0.0000 C   0  0  0  0  0  0  0  0  0  0  0  0
   -3.3018  -15.8693    0.0000 C   0  0  0  0  0  0  0  0  0  0  0  0
   -1.1571  -15.4520    0.0000 C   0  0  0  0  0  0  0  0  0  0  0  0
   -0.4411  -15.8618    0.0000 N   0  0  0  0  0  0  0  0  0  0  0  0
   -1.1602  -14.6270    0.0000 O   0  0  0  0  0  0  0  0  0  0  0  0
    0.2718  -15.4466    0.0000 C   0  0  0  0  0  0  0  0  0  0  0  0
    0.9878  -15.8564    0.0000 C   0  0  0  0  0  0  0  0  0  0  0  0
    0.9878  -16.6803    0.0000 C   0  0  0  0  0  0  0  0  0  0  0  0
    1.7030  -17.0900    0.0000 C   0  0  0  0  0  0  0  0  0  0  0  0
    2.4169  -16.6747    0.0000 C   0  0  0  0  0  0  0  0  0  0  0  0
    2.4111  -15.8455    0.0000 C   0  0  0  0  0  0  0  0  0  0  0  0
    1.6954  -15.4395    0.0000 C   0  0  0  0  0  0  0  0  0  0  0  0
    3.1186  -15.4291    0.0000 C   0  0  0  0  0  0  0  0  0  0  0  0
    3.8363  -15.8381    0.0000 C   0  0  0  0  0  0  0  0  0  0  0  0
    4.5473  -15.4211    0.0000 C   0  0  0  0  0  0  0  0  0  0  0  0
    4.5417  -14.5953    0.0000 C   0  0  0  0  0  0  0  0  0  0  0  0
    3.8192  -14.1882    0.0000 C   0  0  0  0  0  0  0  0  0  0  0  0
    3.1112  -14.6076    0.0000 C   0  0  0  0  0  0  0  0  0  0  0  0
    5.2645  -15.8288    0.0000 C   0  0  0  0  0  0  0  0  0  0  0  0
    5.9762  -15.4114    0.0000 N   0  0  0  0  0  0  0  0  0  0  0  0
    6.6898  -15.8207    0.0000 C   0  0  0  0  0  0  0  0  0  0  0  0
    7.3993  -15.4068    0.0000 C   0  0  0  0  0  0  0  0  0  0  0  0
    7.3979  -14.5815    0.0000 N   0  0  0  0  0  0  0  0  0  0  0  0
    6.6808  -14.1717    0.0000 C   0  0  0  0  0  0  0  0  0  0  0  0
    5.9650  -14.5872    0.0000 C   0  0  0  0  0  0  0  0  0  0  0  0
    3.1335  -17.0836    0.0000 F   0  0  0  0  0  0  0  0  0  0  0  0
    8.1150  -15.8172    0.0000 C   0  0  0  0  0  0  0  0  0  0  0  0
   -4.0166  -15.4573    0.0000 C   0  0  0  0  0  0  0  0  0  0  0  0
   -4.0173  -14.6323    0.0000 O   0  0  0  0  0  0  0  0  0  0  0  0
   -4.7276  -15.8704    0.0000 C   0  0  0  0  0  0  0  0  0  0  0  0
   -5.4378  -15.4585    0.0000 C   0  0  0  0  0  0  0  0  0  0  0  0
  3  4  2  0  0  0  0 
 17 18  2  0  0  0  0 
  7  9  2  0  0  0  0 
 18 19  1  0  0  0  0 
  4  6  1  0  0  0  0 
 19 20  2  0  0  0  0 
  8 10  1  0  0  0  0 
 20 21  1  0  0  0  0 
  5  6  2  0  0  0  0 
 21 22  2  0  0  0  0 
 22 17  1  0  0  0  0 
 15 17  1  0  0  0  0 
 10 11  1  0  0  0  0 
 19 23  1  0  0  0  0 
  1  2  2  0  0  0  0 
 23 24  1  0  0  0  0 
 24 25  1  0  0  0  0 
 11 12  2  0  0  0  0 
  5  1  1  0  0  0  0 
 12 13  1  0  0  0  0 
  2  3  1  0  0  0  0 
 13 14  2  0  0  0  0 
 24 29  1  0  0  0  0 
 25 26  1  0  0  0  0 
 26 27  1  0  0  0  0 
 27 28  1  0  0  0  0 
 28 29  1  0  0  0  0 
  3  7  1  0  0  0  0 
 14 30  1  0  0  0  0 
 14 15  1  0  0  0  0 
 26 31  1  1  0  0  0 
  6 32  1  0  0  0  0 
 15 16  2  0  0  0  0 
 32 33  2  0  0  0  0 
 16 11  1  0  0  0  0 
 32 34  1  0  0  0  0 
  7  8  1  0  0  0  0 
 34 35  1  0  0  0  0 
M  END