
          11280715042D 1   1.00000     0.00000     0

 23 24  0     0  0            999 V2000
    0.2792    1.4208    0.0000 N   0  3  3  0  0  0           0  0  0
   -2.2125    1.4250    0.0000 C   0  0  0  0  0  0           0  0  0
   -0.0333    1.9583    0.0000 C   0  0  3  0  0  0           0  0  0
    0.0250    0.8625    0.0000 C   0  0  3  0  0  0           0  0  0
   -2.5250    0.8833    0.0000 C   0  0  3  0  0  0           0  0  0
   -0.9583    1.4250    0.0000 C   0  0  3  0  0  0           0  0  0
   -1.5833    1.4208    0.0000 O   0  0  0  0  0  0           0  0  0
   -0.6500    1.9625    0.0000 C   0  0  0  0  0  0           0  0  0
   -0.6500    0.8833    0.0000 C   0  0  0  0  0  0           0  0  0
   -2.5208    1.9708    0.0000 O   0  0  0  0  0  0           0  0  0
   -0.3250    1.1958    0.0000 C   0  0  0  0  0  0           0  0  0
   -0.3250    1.5833    0.0000 C   0  0  0  0  0  0           0  0  0
   -3.1500    0.8833    0.0000 C   0  0  0  0  0  0           0  0  0
    1.5917    1.3833    0.0000 Br  0  5  0  0  0  0           0  0  0
    0.8417    0.9375    0.0000 C   0  0  0  0  0  0           0  0  0
    1.0000    1.9083    0.0000 C   0  0  0  0  0  0           0  0  0
   -2.2208    0.3375    0.0000 C   0  0  0  0  0  0           0  0  0
   -1.5875    0.3375    0.0000 O   0  0  0  0  0  0           0  0  0
   -3.4583    1.4250    0.0000 C   0  0  0  0  0  0           0  0  0
   -3.4625    0.3458    0.0000 C   0  0  0  0  0  0           0  0  0
   -4.0958    0.3500    0.0000 C   0  0  0  0  0  0           0  0  0
   -4.0833    1.4333    0.0000 C   0  0  0  0  0  0           0  0  0
   -4.3958    0.8958    0.0000 C   0  0  0  0  0  0           0  0  0
  2  7  1  0     0  0
  3  1  1  0     0  0
  4  1  1  0     0  0
  5  2  1  0     0  0
  6  9  1  0     0  0
  7  6  1  0     0  0
  8  3  1  0     0  0
  9  4  1  0     0  0
 10  2  2  0     0  0
 11  4  1  0     0  0
 12  3  1  0     0  0
 13  5  1  0     0  0
 15  1  1  0     0  0
 16  1  1  0     0  0
 17  5  1  0     0  0
 18 17  1  0     0  0
 19 13  1  0     0  0
 20 13  2  0     0  0
 21 20  1  0     0  0
 22 19  2  0     0  0
 23 22  1  0     0  0
 11 12  1  0     0  0
  6  8  1  0     0  0
 21 23  2  0     0  0
M  CHG  2   1   1  14  -1
M  END