
  SciTegic09081514162D

 24 26  0  0  0  0            999 V2000
    2.1855   -2.6254    0.0000 N   0  0
    3.6552   -2.9294    0.0000 C   0  0
    0.2917   -0.7475    0.0000 C   0  0
    0.2917    0.7475    0.0000 C   0  0
   -1.0028    1.5132    0.0000 C   0  0
   -2.3155    0.7475    0.0000 C   0  0
   -2.3155   -0.7475    0.0000 C   0  0
   -1.0028   -1.5132    0.0000 N   0  0
    2.5889    0.0182    0.0000 S   0  0
    1.7138    1.2033    0.0000 N   0  0
    1.7138   -1.2033    0.0000 C   0  0
   -3.6168    1.4950    0.0000 C   0  0
   -4.9144    0.7421    0.0000 C   0  0
   -6.2151    1.4892    0.0000 C   0  0
   -6.2185    2.9892    0.0000 C   0  0
   -4.9211    3.7421    0.0000 C   0  0
   -3.6204    2.9950    0.0000 C   0  0
   -7.5214    3.7340    0.0000 O   0  0
   -8.5585    3.1302    0.0000 C   0  0
   -4.9214    5.2429    0.0000 O   0  0
   -3.8826    5.8438    0.0000 C   0  0
    4.1277   -4.3539    0.0000 C   0  0
    5.5974   -4.6579    0.0000 O   0  0
    5.9752   -5.7969    0.0000 C   0  0
  1  2  1  0
  3  4  1  0
  4  5  1  0
  5  6  2  0
  6  7  1  0
  7  8  2  0
  3  8  1  0
  9 10  1  0
  9 11  1  0
  3 11  2  0
  4 10  2  0
  6 12  1  0
  1 11  1  0
 12 13  2  0
 13 14  1  0
 14 15  2  0
 15 16  1  0
 16 17  2  0
 17 12  1  0
 15 18  1  0
 18 19  1  0
 16 20  1  0
 20 21  1  0
  2 22  1  0
 22 23  1  0
 23 24  1  0
M  END