
          11280715412D 1   1.00000     0.00000     0

 42 45  0     0  0            999 V2000
   10.0125    1.8583    0.0000 S   0  0  3  0  0  0           0  0  0
   10.7375    0.6208    0.0000 C   0  0  0  0  0  0           0  0  0
   10.0167    0.2083    0.0000 N   0  0  0  0  0  0           0  0  0
   10.0167   -0.6167    0.0000 C   0  0  0  0  0  0           0  0  0
   10.7375   -1.0292    0.0000 N   0  0  0  0  0  0           0  0  0
   10.7292    1.4458    0.0000 N   0  0  0  0  0  0           0  0  0
   11.4542    0.2083    0.0000 C   0  0  0  0  0  0           0  0  0
   13.5667   -3.5500    0.0000 S   0  0  3  0  0  0           0  0  0
   11.4542   -0.6167    0.0000 C   0  0  0  0  0  0           0  0  0
    9.2917    1.4458    0.0000 C   0  0  0  0  0  0           0  0  0
   12.1667    0.6250    0.0000 O   0  0  0  0  0  0           0  0  0
    9.3042   -1.0292    0.0000 N   0  0  3  0  0  0           0  0  0
    8.5792    1.8708    0.0000 N   0  0  0  0  0  0           0  0  0
   10.4167    2.5708    0.0000 O   0  0  0  0  0  0           0  0  0
   12.8792    0.2208    0.0000 C   0  0  0  0  0  0           0  0  0
    9.2917    2.2708    0.0000 O   0  0  0  0  0  0           0  0  0
   13.2917   -4.3292    0.0000 O   0  0  0  0  0  0           0  0  0
   13.8375   -2.7667    0.0000 O   0  0  0  0  0  0           0  0  0
   12.8875   -3.0917    0.0000 N   0  0  0  0  0  0           0  0  0
    9.2875    0.6250    0.0000 C   0  0  0  0  0  0           0  0  0
   13.5875    0.6333    0.0000 C   0  0  0  0  0  0           0  0  0
    7.8792   -1.8417    0.0000 O   0  0  0  0  0  0           0  0  0
    7.8625    1.4625    0.0000 C   0  0  0  0  0  0           0  0  0
   12.1667   -1.0292    0.0000 O   0  0  0  0  0  0           0  0  0
   14.2625   -4.0042    0.0000 C   0  0  0  0  0  0           0  0  0
   12.8875   -2.2667    0.0000 C   0  0  0  0  0  0           0  0  0
    8.5667    0.2208    0.0000 C   0  0  0  0  0  0           0  0  0
    7.8542    0.6375    0.0000 C   0  0  0  0  0  0           0  0  0
   13.5792    1.4583    0.0000 O   0  0  0  0  0  0           0  0  0
    8.5917   -0.6125    0.0000 C   0  0  0  0  0  0           0  0  0
    9.3125   -1.8542    0.0000 C   0  0  0  0  0  0           0  0  0
   12.8792   -0.6042    0.0000 C   0  0  0  0  0  0           0  0  0
    8.5917   -2.2625    0.0000 C   0  0  0  0  0  0           0  0  0
    7.8792   -1.0167    0.0000 C   0  0  0  0  0  0           0  0  0
   12.1667   -1.8542    0.0000 C   0  0  0  0  0  0           0  0  0
   14.3042    0.2333    0.0000 C   0  0  0  0  0  0           0  0  0
    7.1667    0.2083    0.0000 C   0  0  0  0  0  0           0  0  0
   12.8667    1.8708    0.0000 C   0  0  0  0  0  0           0  0  0
   15.0000   -3.6417    0.0000 C   0  0  0  0  0  0           0  0  0
   13.5917   -1.0167    0.0000 C   0  0  0  0  0  0           0  0  0
   15.6875   -4.1000    0.0000 C   0  0  0  0  0  0           0  0  0
   14.3125   -0.6000    0.0000 C   0  0  0  0  0  0           0  0  0
  2  6  1  0     0  0
  3  2  1  0     0  0
  4  3  2  0     0  0
  5  9  2  0     0  0
  6  1  1  0     0  0
  7  2  2  0     0  0
  8 19  1  0     0  0
  9  7  1  0     0  0
 10  1  1  0     0  0
 11  7  1  0     0  0
 12  4  1  0     0  0
 13 10  2  0     0  0
 14  1  2  0     0  0
 15 11  1  0     0  0
 16  1  2  0     0  0
 17  8  2  0     0  0
 18  8  2  0     0  0
 19 26  1  0     0  0
 20 10  1  0     0  0
 21 15  1  0     0  0
 22 33  1  0     0  0
 23 13  1  0     0  0
 24  9  1  0     0  0
 25  8  1  0     0  0
 26 35  1  0     0  0
 27 20  2  0     0  0
 28 27  1  0     0  0
 29 21  1  0     0  0
 30 12  1  0     0  0
 31 12  1  0     0  0
 32 15  2  0     0  0
 33 31  1  0     0  0
 34 30  1  0     0  0
 35 24  1  0     0  0
 36 21  2  0     0  0
 37 28  1  0     0  0
 38 29  1  0     0  0
 39 25  1  0     0  0
 40 32  1  0     0  0
 41 39  1  0     0  0
 42 40  2  0     0  0
 28 23  2  0     0  0
  5  4  1  0     0  0
 22 34  1  0     0  0
 42 36  1  0     0  0
M  END