
          11280714582D 1   1.00000     0.00000     0

 28 31  0     0  0            999 V2000
    5.5417   -4.0667    0.0000 C   0  0  0  0  0  0           0  0  0
    6.2500   -2.8292    0.0000 C   0  0  0  0  0  0           0  0  0
    6.2542   -4.4750    0.0000 O   0  0  0  0  0  0           0  0  0
    6.9667   -4.0625    0.0000 C   0  0  0  0  0  0           0  0  0
    5.5417   -3.2375    0.0000 C   0  0  0  0  0  0           0  0  0
    6.9625   -3.2292    0.0000 C   0  0  0  0  0  0           0  0  0
   -0.8833   -5.3167    0.0000 N   0  0  3  0  0  0           0  0  0
    4.8292   -4.4792    0.0000 C   0  0  0  0  0  0           0  0  0
    0.5500   -4.4875    0.0000 N   0  0  3  0  0  0           0  0  0
    4.8167   -2.8292    0.0000 C   0  0  0  0  0  0           0  0  0
   -0.8750   -4.4917    0.0000 C   0  0  0  0  0  0           0  0  0
   -0.1708   -5.7167    0.0000 C   0  0  0  0  0  0           0  0  0
    7.6875   -4.4667    0.0000 O   0  0  0  0  0  0           0  0  0
   -1.5958   -5.7292    0.0000 C   0  0  0  0  0  0           0  0  0
    0.5542   -5.3125    0.0000 C   0  0  0  0  0  0           0  0  0
   -0.1708   -4.0792    0.0000 C   0  0  0  0  0  0           0  0  0
    4.1167   -4.0667    0.0000 C   0  0  0  0  0  0           0  0  0
    4.1125   -3.2500    0.0000 C   0  0  0  0  0  0           0  0  0
    6.2417   -2.0042    0.0000 C   0  0  0  0  0  0           0  0  0
    1.2625   -4.0667    0.0000 C   0  0  0  0  0  0           0  0  0
    1.9792   -4.4875    0.0000 C   0  0  0  0  0  0           0  0  0
    3.4042   -4.4792    0.0000 O   0  0  0  0  0  0           0  0  0
    2.6917   -4.0667    0.0000 C   0  0  0  0  0  0           0  0  0
   -2.3083   -5.3167    0.0000 C   0  0  0  0  0  0           0  0  0
   -1.5875   -6.5542    0.0000 C   0  0  0  0  0  0           0  0  0
   -2.3083   -6.9667    0.0000 C   0  0  0  0  0  0           0  0  0
   -3.0250   -5.7292    0.0000 C   0  0  0  0  0  0           0  0  0
   -3.0208   -6.5542    0.0000 C   0  0  0  0  0  0           0  0  0
  2  5  1  0     0  0
  3  1  1  0     0  0
  4  3  1  0     0  0
  5  1  2  0     0  0
  6  2  2  0     0  0
  7 11  1  0     0  0
  8  1  1  0     0  0
  9 20  1  0     0  0
 10  5  1  0     0  0
 11 16  1  0     0  0
 12 15  1  0     0  0
 13  4  2  0     0  0
 14  7  1  0     0  0
 15  9  1  0     0  0
 16  9  1  0     0  0
 17  8  2  0     0  0
 18 17  1  0     0  0
 19  2  1  0     0  0
 20 21  1  0     0  0
 21 23  1  0     0  0
 22 17  1  0     0  0
 23 22  1  0     0  0
 24 14  2  0     0  0
 25 14  1  0     0  0
 26 25  2  0     0  0
 27 24  1  0     0  0
 28 26  1  0     0  0
 10 18  2  0     0  0
  4  6  1  0     0  0
 12  7  1  0     0  0
 27 28  2  0     0  0
M  END