
  SciTegic09291412002D

 73 76  0  0  0  0            999 V2000
   14.9678   -6.8219    0.0000 C   0  0
   14.9678   -7.6541    0.0000 C   0  0
   15.6859   -8.0661    0.0000 C   0  0
   16.4043   -7.6541    0.0000 C   0  0
   16.4043   -6.8219    0.0000 C   0  0
   15.6859   -6.4016    0.0000 C   0  0
    9.9477   -6.1944    0.0000 C   0  0
   15.6841  -11.3651    0.0000 N   0  0
   14.9668  -10.9535    0.0000 C   0  0  2  0  0  0
   16.3929  -10.1301    0.0000 C   0  0  1  0  0  0
   15.6841  -12.6876    0.0000 C   0  0
   19.2491  -10.1301    0.0000 C   0  0
    9.2462   -5.7703    0.0000 N   0  0
    8.5526   -4.5200    0.0000 C   0  0
   10.6887  -10.1301    0.0000 C   0  0
   10.9858   -5.1533    0.0000 C   0  0
   12.0662   -5.9417    0.0000 C   0  0
   11.3974   -8.8951    0.0000 C   0  0
   10.7330   -5.9417    0.0000 C   0  0  2  0  0  0
   14.2537  -12.1927    0.0000 O   0  0
    9.9719   -3.7223    0.0000 C   0  0
   17.8146  -10.1301    0.0000 C   0  0
   19.2491  -10.9535    0.0000 C   0  0
   18.5363   -9.7185    0.0000 C   0  0
   12.1147   -8.4836    0.0000 N   0  0
   14.2537  -11.3651    0.0000 C   0  0
   19.9579  -11.3651    0.0000 O   0  0
   11.3974   -7.2483    0.0000 C   0  0
   13.6290  -12.4064    0.0000 O   0  0
   10.6878   -3.3055    0.0000 C   0  0
   15.6839   -9.7187    0.0000 N   0  0
   14.2537   -7.2483    0.0000 S   0  0
   12.8236  -12.1927    0.0000 C   0  0  2  0  0  0
   14.9668  -12.2715    0.0000 C   0  0  2  0  0  0
   12.1148  -12.6043    0.0000 C   0  0
    9.9714   -8.8951    0.0000 O   0  0
   11.3974   -6.4250    0.0000 N   0  0
   13.5409   -7.6601    0.0000 S   0  0
   10.6887   -7.6601    0.0000 O   0  0
   12.1146   -7.6601    0.0000 C   0  0  2  0  0  0
   12.8236  -11.3651    0.0000 C   0  0  2  0  0  0
   14.0394  -12.8101    0.0000 C   0  0
   11.8091   -5.1533    0.0000 C   0  0
    9.9289   -7.0152    0.0000 O   0  0
   11.3974   -9.7185    0.0000 C   0  0  1  0  0  0
   18.5363  -11.3651    0.0000 C   0  0
    5.7006   -4.4715    0.0000 N   0  0
   13.5409  -10.9535    0.0000 N   0  0
   10.6887   -8.4834    0.0000 O   0  0
    9.9714   -9.7185    0.0000 C   0  0
    9.2607   -4.9469    0.0000 C   0  0  2  0  0  0
    9.2626  -10.1301    0.0000 N   0  0
   17.1057   -9.7185    0.0000 C   0  0
   15.6841  -13.5110    0.0000 C   0  0
   14.9668   -8.4834    0.0000 C   0  0
   12.1147  -10.1299    0.0000 N   0  0
   15.6841   -8.8951    0.0000 C   0  0
    7.8278   -4.9188    0.0000 N   0  0
   12.1146  -10.9535    0.0000 C   0  0
   17.8147  -10.9535    0.0000 C   0  0
   16.3929  -10.9535    0.0000 C   0  0
    8.5670   -3.6992    0.0000 O   0  0
    6.4004   -4.8939    0.0000 C   0  0
    7.1265   -4.4987    0.0000 C   0  0
    6.3860   -5.7146    0.0000 O   0  0
    9.9773   -4.5431    0.0000 C   0  0
   16.3929   -8.4834    0.0000 O   0  0
   17.1057  -11.3651    0.0000 O   0  0
    9.2617   -3.3128    0.0000 C   0  0
   11.3974  -11.3651    0.0000 O   0  0
   12.8235   -7.2483    0.0000 C   0  0
   13.6890  -11.8662    0.0000 H   0  0
   15.4679  -11.8189    0.0000 H   0  0
  1  2  1  0
  1  6  1  0
  2  3  1  0
  3  4  1  0
  4  5  1  0
  5  6  1  0
 41 48  1  0
 70 59  2  0
 34 42  1  6
 39 28  2  0
 67 57  2  0
 52 50  1  0
 56 45  1  0
 68 61  2  0
 10 61  1  0
 48 26  1  0
 11 54  1  0
  9  8  1  0
 18 45  1  0
 55 57  1  0
 36 50  2  0
 19 16  1  0
  8 61  1  0
 58 64  1  0
 10 53  1  1
 12 23  2  0
 38 71  1  0
 43 17  1  0
  2 55  1  0
 25 40  1  0
 51 14  1  0
 40 28  1  6
 56 59  1  0
 38 32  1  0
 31 57  1  0
 24 12  1  0
 53 22  1  0
 13  7  1  0
 51 13  1  6
 22 60  1  0
 44  7  2  0
  9 26  1  0
 40 71  1  0
 45 15  1  1
 41 59  1  0
 22 24  2  0
 58 14  1  0
 34 11  1  0
 21 69  1  0
 32  2  1  0
 37 28  1  0
 51 66  1  0
 60 46  2  0
 31 10  1  0
 65 63  2  0
 15 50  1  0
 37 17  1  0
 62 14  2  0
 46 23  1  0
 49 18  2  0
 33 35  1  6
 25 18  1  0
 47 63  1  0
 20 26  2  0
 16 43  1  0
 41 33  1  0
 64 63  1  0
 21 30  1  0
 33 29  1  0
 34  9  1  0
 37 19  1  0
 19  7  1  6
 66 21  1  0
 27 23  1  0
 41 72  1  6
  9 73  1  6
M  END