
          11280715482D 1   1.00000     0.00000     0

 29 31  0     0  0            999 V2000
    4.4792   -1.6625    0.0000 C   0  0  0  0  0  0           0  0  0
    3.7292   -1.3167    0.0000 N   0  0  0  0  0  0           0  0  0
    3.1750   -1.9292    0.0000 C   0  0  0  0  0  0           0  0  0
    4.3875   -2.4792    0.0000 C   0  0  0  0  0  0           0  0  0
    3.5792   -2.6500    0.0000 N   0  0  0  0  0  0           0  0  0
    5.2000   -1.2542    0.0000 C   0  0  0  0  0  0           0  0  0
    2.3542   -1.8417    0.0000 C   0  0  0  0  0  0           0  0  0
    5.9125   -1.6667    0.0000 N   0  0  0  0  0  0           0  0  0
    8.7625   -1.6917    0.0000 C   0  0  0  0  0  0           0  0  0
    8.0542   -1.2792    0.0000 C   0  0  0  0  0  0           0  0  0
    5.2042   -0.4292    0.0000 O   0  0  0  0  0  0           0  0  0
    4.9917   -3.0375    0.0000 C   0  0  0  0  0  0           0  0  0
    6.6292   -1.2667    0.0000 C   0  0  0  0  0  0           0  0  0
    7.3375   -1.6875    0.0000 C   0  0  0  0  0  0           0  0  0
    9.4792   -1.2917    0.0000 O   0  0  0  0  0  0           0  0  0
    1.8667   -2.5042    0.0000 C   0  0  0  0  0  0           0  0  0
    8.7542   -2.5167    0.0000 O   0  0  0  0  0  0           0  0  0
    4.8167   -3.8417    0.0000 C   0  0  0  0  0  0           0  0  0
    8.0542   -0.4542    0.0000 C   0  0  0  0  0  0           0  0  0
    2.0250   -1.0792    0.0000 C   0  0  0  0  0  0           0  0  0
    7.3417   -0.0292    0.0000 C   0  0  0  0  0  0           0  0  0
    6.6292   -0.4417    0.0000 C   0  0  0  0  0  0           0  0  0
    2.2042   -3.2542    0.0000 C   0  0  0  0  0  0           0  0  0
    1.0500   -2.4167    0.0000 C   0  0  0  0  0  0           0  0  0
    5.4292   -4.4000    0.0000 C   0  0  3  0  0  0           0  0  0
    5.2542   -5.2042    0.0000 C   0  0  0  0  0  0           0  0  0
    6.2167   -4.1500    0.0000 C   0  0  0  0  0  0           0  0  0
    1.2042   -0.9917    0.0000 C   0  0  0  0  0  0           0  0  0
    0.7167   -1.6542    0.0000 C   0  0  0  0  0  0           0  0  0
  2  1  1  0     0  0
  3  2  2  0     0  0
  4  1  2  0     0  0
  5  4  1  0     0  0
  6  1  1  0     0  0
  7  3  1  0     0  0
  8  6  1  0     0  0
  9 10  1  0     0  0
 10 14  1  0     0  0
 11  6  2  0     0  0
 12  4  1  0     0  0
 13  8  1  0     0  0
 14 13  2  0     0  0
 15  9  2  0     0  0
 16  7  1  0     0  0
 17  9  1  0     0  0
 18 12  1  0     0  0
 19 21  1  0     0  0
 20  7  2  0     0  0
 21 22  2  0     0  0
 22 13  1  0     0  0
 23 16  1  0     0  0
 24 16  2  0     0  0
 25 18  1  0     0  0
 26 25  1  0     0  0
 27 25  1  0     0  0
 28 20  1  0     0  0
 29 28  2  0     0  0
  3  5  1  0     0  0
 10 19  2  0     0  0
 24 29  1  0     0  0
M  END