
  SciTegic11301210262D

 25 27  0  0  1  0            999 V2000
   -0.0833    0.5125    0.0000 N   0  0
   -0.9250    0.9958    0.0000 C   0  0  2  0  0  0
    0.7792    1.0083    0.0000 C   0  0  1  0  0  0
   -1.7958    0.4833    0.0000 C   0  0
    1.6667    0.5458    0.0000 C   0  0
   -1.7833   -0.5167    0.0000 C   0  0
    1.6542   -0.4417    0.0000 C   0  0  1  0  0  0
   -0.9375   -0.9917    0.0000 O   0  0
   -2.6333   -1.0042    0.0000 C   0  0
    2.6375   -0.9042    0.0000 C   0  0
   -0.0875   -0.4792    0.0000 C   0  0
    0.9125   -0.9792    0.0000 O   0  0
   -0.9250    1.9833    0.0000 C   0  0
    0.7750    2.0208    0.0000 C   0  0
   -0.0875    2.4833    0.0000 C   0  0
   -3.5000   -0.5375    0.0000 C   0  0
   -2.6333   -1.9917    0.0000 C   0  0
    2.6250   -1.8792    0.0000 C   0  0
    3.4542   -0.3875    0.0000 C   0  0
    3.6000   -2.3042    0.0000 C   0  0
    4.3417   -0.8167    0.0000 C   0  0
   -4.3458   -1.0167    0.0000 C   0  0
   -3.4708   -2.4792    0.0000 C   0  0
    4.3417   -1.7875    0.0000 C   0  0
   -4.3458   -1.9917    0.0000 C   0  0
  2  1  1  0
  3  1  1  0
  2  4  1  6
  3  5  1  6
  6  4  1  0
  7  5  1  0
  8  6  2  0
  9  6  1  0
 10  7  1  0
 11  1  1  0
  7 12  1  1
 13  2  1  0
 14  3  1  0
 15 14  1  0
 16  9  2  0
 17  9  1  0
 18 10  2  0
 19 10  1  0
 20 18  1  0
 21 19  2  0
 22 16  1  0
 23 17  2  0
 24 21  1  0
 25 23  1  0
 13 15  1  0
 20 24  2  0
 22 25  2  0
M  END