
  SciTegic03041510302D

150153  0  0  0  0            999 V2000
   21.2223   -3.1012    0.0000 C   0  0  1  0  0  0
   20.4035   -3.0810    0.0000 C   0  0
   20.8302   -2.3845    0.0000 C   0  0
   14.7058  -10.1492    0.0000 C   0  0  1  0  0  0
   15.1144   -9.4415    0.0000 C   0  0
   14.2972   -9.4415    0.0000 C   0  0
    1.1950  -10.5441    0.0000 N   0  0
    1.9039  -10.1361    0.0000 C   0  0  2  0  0  0
    2.6197  -11.3658    0.0000 O   0  0
    2.6197  -10.5449    0.0000 C   0  0
    1.9039   -9.3137    0.0000 C   0  0
    2.6188   -8.9002    0.0000 C   0  0
    2.6188   -8.0805    0.0000 C   0  0
    3.3336   -7.6711    0.0000 O   0  0
    1.9094   -7.6728    0.0000 N   0  0
    3.3276  -10.1363    0.0000 N   0  0
    4.0434  -10.5451    0.0000 C   0  0  2  0  0  0
    4.7482   -9.3172    0.0000 O   0  0
    4.7482  -10.1371    0.0000 C   0  0
    4.0434  -11.3676    0.0000 C   0  0
    4.7485  -11.7796    0.0000 O   0  0
    5.4631  -10.5464    0.0000 N   0  0
    6.1725  -10.1386    0.0000 C   0  0  2  0  0  0
    6.8872  -11.3711    0.0000 O   0  0
    6.8872  -10.5481    0.0000 C   0  0
    6.1725   -9.3190    0.0000 C   0  0
    6.8871   -8.9054    0.0000 C   0  0
    6.8871   -8.0859    0.0000 C   0  0
    7.6018   -7.6764    0.0000 O   0  0
    6.1777   -7.6781    0.0000 N   0  0
    7.5966  -10.1403    0.0000 N   0  0
    8.3113  -10.5498    0.0000 C   0  0  2  0  0  0
    9.0152   -9.3226    0.0000 O   0  0
    9.0152  -10.1421    0.0000 C   0  0
    8.3113  -11.3729    0.0000 C   0  0
    9.0152  -11.7847    0.0000 C   0  0
    9.0152  -12.6078    0.0000 C   0  0
    9.7255  -13.0155    0.0000 O   0  0
    8.3061  -13.0173    0.0000 N   0  0
    9.7286  -10.5516    0.0000 N   0  0
   10.4348  -10.1439    0.0000 C   0  0  2  0  0  0
   11.1482  -11.3765    0.0000 O   0  0
   11.1482  -10.5534    0.0000 C   0  0
   10.4348   -9.3243    0.0000 C   0  0  2  0  0  0
   11.1482   -8.9107    0.0000 O   0  0
    9.7286   -8.9125    0.0000 C   0  0
   11.8585  -10.1457    0.0000 N   0  0
   12.5718  -10.5551    0.0000 C   0  0  2  0  0  0
   13.2821   -9.3279    0.0000 O   0  0
   13.2821  -10.1474    0.0000 C   0  0
   12.5718  -11.3782    0.0000 C   0  0
   13.2801  -12.6132    0.0000 C   0  0
   13.2821  -11.7901    0.0000 C   0  0
   13.9934  -11.3800    0.0000 C   0  0
   14.7048  -11.7936    0.0000 C   0  0
   14.7037  -12.6149    0.0000 C   0  0
   13.9914  -13.0226    0.0000 C   0  0
   13.9955  -10.5569    0.0000 N   0  0
   15.4192  -11.3818    0.0000 O   0  0
   15.4192  -10.5587    0.0000 C   0  0
   16.1253  -10.1510    0.0000 N   0  0
   16.8387  -10.5605    0.0000 C   0  0  2  0  0  0
   17.5490   -9.3332    0.0000 O   0  0
   17.5490  -10.1528    0.0000 C   0  0
   16.8387  -11.3836    0.0000 C   0  0
   17.5490  -11.7954    0.0000 C   0  0
   17.5490  -12.6185    0.0000 O   0  0
   18.2593  -11.3836    0.0000 N   0  0
   18.2624  -10.5622    0.0000 N   0  0
   18.9727  -10.1545    0.0000 C   0  0  2  0  0  0
   19.6861  -11.3871    0.0000 O   0  0
   19.6861  -10.5640    0.0000 C   0  0
   18.9727   -9.3350    0.0000 C   0  0
   19.6861   -8.9214    0.0000 C   0  0
   19.6861   -8.1018    0.0000 C   0  0
   20.3994   -9.3350    0.0000 C   0  0
   20.3963  -10.1563    0.0000 N   0  0
   21.1056  -10.5658    0.0000 C   0  0  2  0  0  0
   22.5191  -10.5669    0.0000 O   0  0
   21.8089  -10.1561    0.0000 C   0  0
   21.1056  -11.3889    0.0000 C   0  0
   22.5659  -11.4669    0.0000 C   0  0
   21.8159  -11.8007    0.0000 C   0  0
   23.1161  -12.0790    0.0000 N   0  0
   21.8993  -12.6194    0.0000 C   0  0
   22.7025  -12.7904    0.0000 C   0  0
   22.9582  -13.5720    0.0000 C   0  0
   22.4065  -14.1827    0.0000 C   0  0
   21.6032  -14.0118    0.0000 C   0  0
   21.3517  -13.2302    0.0000 C   0  0
   25.3699   -8.9262    0.0000 N   0  0
   26.0801   -9.3370    0.0000 C   0  0
   26.0808  -10.1573    0.0000 N   0  0
   26.7963   -8.9278    0.0000 N   0  0
   21.8149   -9.3326    0.0000 N   0  0
   22.5244   -8.9231    0.0000 C   0  0  2  0  0  0
   21.8166   -7.6873    0.0000 O   0  0
   22.5303   -8.0996    0.0000 C   0  0
   23.2310   -9.3359    0.0000 C   0  0
   23.9507   -8.9247    0.0000 C   0  0
   24.6573   -9.3375    0.0000 C   0  0
   23.2362   -7.6922    0.0000 N   0  0
   23.2386   -6.8668    0.0000 C   0  0  2  0  0  0
   21.8193   -6.8370    0.0000 O   0  0
   22.5375   -6.4449    0.0000 C   0  0
   23.9559   -6.4625    0.0000 C   0  0
   24.2603   -5.7008    0.0000 C   0  0
   25.0734   -5.5830    0.0000 C   0  0
   23.7493   -5.0637    0.0000 C   0  0
   22.5644   -5.6226    0.0000 N   0  0
   21.8707   -5.1884    0.0000 C   0  0  2  0  0  0
   22.6244   -3.9750    0.0000 O   0  0
   21.8991   -4.3675    0.0000 C   0  0
   21.1491   -5.5741    0.0000 C   0  0
   20.4488   -5.1396    0.0000 C   0  0
   19.7238   -5.5191    0.0000 C   0  0
   20.4773   -4.3146    0.0000 C   0  0
   21.2056   -3.9250    0.0000 N   0  0
   22.6379   -3.1361    0.0000 O   0  0
   21.9409   -2.7115    0.0000 C   0  0
   21.9621   -1.8969    0.0000 N   0  0
   22.6809   -1.5008    0.0000 C   0  0  2  0  0  0
   22.0035   -0.2461    0.0000 O   0  0
   22.7040   -0.6776    0.0000 C   0  0
   23.3816   -1.9276    0.0000 C   0  0
   24.1045   -1.5445    0.0000 C   0  0
   24.8054   -1.9631    0.0000 C   0  0
   25.5272   -1.5690    0.0000 O   0  0
   24.7822   -2.7773    0.0000 N   0  0
   23.4227   -0.2814    0.0000 N   0  0
   23.4477    0.5433    0.0000 C   0  0  2  0  0  0
   24.8634    0.5058    0.0000 O   0  0
   24.1628    0.9292    0.0000 C   0  0
   22.7438    0.9762    0.0000 C   0  0
   22.7615    1.7950    0.0000 C   0  0
   23.4829    2.1886    0.0000 O   0  0
   22.0599    2.2149    0.0000 N   0  0
   24.1876    1.7524    0.0000 N   0  0
   14.7058   -8.7338    0.0000 C   0  0
   15.1144   -8.0261    0.0000 C   0  0
   14.7058   -7.3184    0.0000 C   0  0
   19.9776   -3.7785    0.0000 C   0  0
   19.1607   -3.7584    0.0000 C   0  0
   18.7348   -4.4559    0.0000 C   0  0
   17.9179   -4.4358    0.0000 C   0  0
   15.1020   -6.5075    0.0000 C   0  0
   17.7314   -5.3314    0.0000 C   0  0
    0.4878  -10.1346    0.0000 C   0  0
   -0.2253  -10.5423    0.0000 C   0  0
    0.4889   -9.3174    0.0000 O   0  0
  2  1  1  0
  1  3  1  1
  5  4  1  0
  4  6  1  1
 10 16  1  0
 19 22  1  0
 25 31  1  0
 34 40  1  0
 43 47  1  0
 50 58  1  0
 60 61  1  0
 64 69  1  0
 72 77  1  0
 80 95  1  0
 98102  1  0
105110  1  0
113118  1  0
120121  1  0
124130  1  0
133138  1  0
  7  8  1  0
  8 10  1  0
 10  9  2  0
  8 11  1  1
 11 12  1  0
 12 13  1  0
 13 14  2  0
 13 15  1  0
 16 17  1  0
 17 19  1  0
 19 18  2  0
 17 20  1  6
 20 21  1  0
 22 23  1  0
 23 25  1  0
 25 24  2  0
 23 26  1  1
 26 27  1  0
 27 28  1  0
 28 29  2  0
 28 30  1  0
 31 32  1  0
 32 34  1  0
 34 33  2  0
 32 35  1  6
 35 36  1  0
 36 37  1  0
 37 38  2  0
 37 39  1  0
 41 40  1  1
 41 43  1  0
 43 42  2  0
 41 44  1  0
 44 45  1  1
 44 46  1  0
 47 48  1  0
 48 50  1  0
 50 49  2  0
 48 51  1  6
 51 53  1  0
 52 53  2  0
 53 54  1  0
 54 55  2  0
 55 56  1  0
 56 57  2  0
 57 52  1  0
 58  4  1  0
  4 60  1  0
 60 59  2  0
 61 62  1  0
 62 64  1  0
 64 63  2  0
 62 65  1  6
 65 66  1  0
 66 67  2  0
 66 68  1  0
 69 70  1  0
 70 72  1  0
 72 71  2  0
 70 73  1  1
 73 74  1  0
 74 75  1  0
 74 76  1  0
 77 78  1  0
 78 80  1  0
 80 79  2  0
 78 81  1  6
 81 83  1  0
 82 83  2  0
 83 85  1  0
 84 82  1  0
 86 84  1  0
 85 86  2  0
 86 87  1  0
 87 88  2  0
 88 89  1  0
 89 90  2  0
 90 85  1  0
 91 92  1  0
 92 93  1  0
 92 94  2  0
 95 96  1  0
 96 98  1  0
 98 97  2  0
 96 99  1  6
 99100  1  0
100101  1  0
101 91  1  0
102103  1  0
103105  1  0
105104  2  0
103106  1  6
106107  1  0
107108  1  0
107109  1  0
110111  1  0
111113  1  0
113112  2  0
111114  1  1
114115  1  0
115116  1  0
115117  1  0
118  1  1  0
  1120  1  0
120119  2  0
121122  1  0
122124  1  0
124123  2  0
122125  1  6
125126  1  0
126127  1  0
127128  2  0
127129  1  0
130131  1  0
131133  1  0
133132  2  0
131134  1  1
134135  1  0
135136  2  0
135137  1  0
  5139  1  0
139140  1  0
140141  1  0
  2142  1  0
142143  1  0
143144  1  0
144145  2  0
141146  1  0
145147  1  0
146147  1  0
  7148  1  0
148149  1  0
148150  2  0
M  END