
          11280715152D 1   1.00000     0.00000     0

 23 24  0     0  0            999 V2000
   -0.4833   -2.3292    0.0000 C   0  0  0  0  0  0           0  0  0
   -0.6875   -3.1250    0.0000 C   0  0  3  0  0  0           0  0  0
    0.3417   -2.2792    0.0000 N   0  0  3  0  0  0           0  0  0
    0.7917   -1.5917    0.0000 C   0  0  3  0  0  0           0  0  0
    1.6167   -1.6292    0.0000 C   0  0  0  0  0  0           0  0  0
    2.4417   -1.6667    0.0000 C   0  0  0  0  0  0           0  0  0
    3.7125   -1.0167    0.0000 N   0  0  3  0  0  0           0  0  0
   -1.0083   -1.6917    0.0000 O   0  0  0  0  0  0           0  0  0
    0.4167   -0.8542    0.0000 C   0  0  0  0  0  0           0  0  0
   -1.4833   -3.3417    0.0000 F   0  0  0  0  0  0           0  0  0
   -0.1000   -3.7042    0.0000 F   0  0  0  0  0  0           0  0  0
   -1.4083   -2.7167    0.0000 F   0  0  0  0  0  0           0  0  0
    3.2667   -1.7125    0.0000 C   0  0  0  0  0  0           0  0  0
    0.6417   -3.0542    0.0000 C   0  0  0  0  0  0           0  0  0
    4.5292   -0.9792    0.0000 C   0  0  0  0  0  0           0  0  0
    3.4125   -0.2542    0.0000 C   0  0  0  0  0  0           0  0  0
   -0.4083   -0.8167    0.0000 C   0  0  0  0  0  0           0  0  0
    0.8667   -0.1667    0.0000 C   0  0  0  0  0  0           0  0  0
    4.0542    0.2708    0.0000 C   0  0  0  0  0  0           0  0  0
    4.7417   -0.1792    0.0000 C   0  0  0  0  0  0           0  0  0
    0.4917    0.5708    0.0000 C   0  0  0  0  0  0           0  0  0
   -0.7833   -0.0917    0.0000 C   0  0  0  0  0  0           0  0  0
   -0.3333    0.6083    0.0000 C   0  0  0  0  0  0           0  0  0
  2  1  1  0     0  0
  3  1  1  0     0  0
  4  3  1  0     0  0
  5  4  1  0     0  0
  6  5  3  0     0  0
  7 13  1  0     0  0
  8  1  2  0     0  0
  9  4  1  0     0  0
 10  2  1  0     0  0
 11  2  1  0     0  0
 12  2  1  0     0  0
 13  6  1  0     0  0
 14  3  1  0     0  0
 15  7  1  0     0  0
 16  7  1  0     0  0
 17  9  1  0     0  0
 18  9  2  0     0  0
 19 16  1  0     0  0
 20 15  1  0     0  0
 21 18  1  0     0  0
 22 17  2  0     0  0
 23 21  2  0     0  0
 22 23  1  0     0  0
 20 19  1  0     0  0
M  END