
          11280715142D 1   1.00000     0.00000     0

 35 38  0     1  0            999 V2000
    2.6167   -1.7625    0.0000 C   0  0  2  0  0  0           0  0  0
    3.0250   -2.4750    0.0000 C   0  0  1  0  0  0           0  0  0
    2.6000    0.1083    0.0000 N   0  0  3  0  0  0           0  0  0
    1.9542   -1.2500    0.0000 C   0  0  0  0  0  0           0  0  0
    1.9542   -0.4167    0.0000 C   0  0  0  0  0  0           0  0  0
    2.8167   -3.9792    0.0000 C   0  0  0  0  0  0           0  0  0
    3.4250   -1.5667    0.0000 N   0  0  0  0  0  0           0  0  0
    3.4042   -0.0750    0.0000 C   0  0  0  0  0  0           0  0  0
    3.8167   -2.6875    0.0000 C   0  0  0  0  0  0           0  0  0
    2.6042   -3.1875    0.0000 O   0  0  0  0  0  0           0  0  0
    2.2292   -4.5625    0.0000 N   0  0  0  0  0  0           0  0  0
    3.6042   -4.1917    0.0000 N   0  0  0  0  0  0           0  0  0
    2.3417    0.8958    0.0000 C   0  0  0  0  0  0           0  0  0
    3.7792   -0.8167    0.0000 C   0  0  0  0  0  0           0  0  0
    2.9000    1.5000    0.0000 C   0  0  0  0  0  0           0  0  0
    2.0292   -2.3417    0.0000 C   0  0  0  0  0  0           0  0  0
    2.4417   -5.3542    0.0000 C   0  0  0  0  0  0           0  0  0
    3.8250   -4.9792    0.0000 C   0  0  0  0  0  0           0  0  0
    3.2417   -5.5667    0.0000 C   0  0  0  0  0  0           0  0  0
    3.9167    0.5750    0.0000 O   0  0  0  0  0  0           0  0  0
    4.0292   -3.4792    0.0000 O   0  0  0  0  0  0           0  0  0
    2.6417    2.2875    0.0000 O   0  0  0  0  0  0           0  0  0
    4.6167   -2.4667    0.0000 O   0  0  0  0  0  0           0  0  0
    1.2417   -1.6625    0.0000 C   0  0  0  0  0  0           0  0  0
    3.7042    1.3333    0.0000 O   0  0  0  0  0  0           0  0  0
    1.2417   -0.0042    0.0000 C   0  0  0  0  0  0           0  0  0
    2.2375   -3.1417    0.0000 C   0  0  0  0  0  0           0  0  0
    1.2292   -2.1167    0.0000 C   0  0  0  0  0  0           0  0  0
    1.8625   -5.9417    0.0000 C   0  0  0  0  0  0           0  0  0
    4.6167   -5.1917    0.0000 C   0  0  0  0  0  0           0  0  0
    0.5292   -1.2500    0.0000 C   0  0  0  0  0  0           0  0  0
    0.5292   -0.4250    0.0000 C   0  0  0  0  0  0           0  0  0
    0.6417   -2.6917    0.0000 C   0  0  0  0  0  0           0  0  0
    1.6417   -3.7167    0.0000 C   0  0  0  0  0  0           0  0  0
    0.8417   -3.4917    0.0000 C   0  0  0  0  0  0           0  0  0
  2  1  1  0     0  0
  3  5  1  0     0  0
  4  1  1  0     0  0
  5  4  1  0     0  0
  6 10  1  0     0  0
  7  1  1  0     0  0
  8 14  1  0     0  0
  9  2  1  0     0  0
  2 10  1  1     0  0
 11  6  2  0     0  0
 12  6  1  0     0  0
 13  3  1  0     0  0
 14  7  1  0     0  0
 15 13  1  0     0  0
  1 16  1  1     0  0
 17 11  1  0     0  0
 18 12  2  0     0  0
 19 18  1  0     0  0
 20  8  2  0     0  0
 21  9  2  0     0  0
 22 15  2  0     0  0
 23  9  1  0     0  0
 24  4  2  0     0  0
 25 15  1  0     0  0
 26  5  2  0     0  0
 27 16  1  0     0  0
 28 16  2  0     0  0
 29 17  1  0     0  0
 30 18  1  0     0  0
 31 24  1  0     0  0
 32 31  2  0     0  0
 33 28  1  0     0  0
 34 27  2  0     0  0
 35 33  2  0     0  0
  3  8  1  0     0  0
 35 34  1  0     0  0
 26 32  1  0     0  0
 17 19  2  0     0  0
M  END