
          11280714492D 1   1.00000     0.00000     0

 24 26  0     0  0            999 V2000
    6.1250   -3.9292    0.0000 C   0  0  0  0  0  0           0  0  0
    6.8375   -3.5167    0.0000 C   0  0  3  0  0  0           0  0  0
    6.1250   -4.7625    0.0000 C   0  0  0  0  0  0           0  0  0
    7.5542   -3.9292    0.0000 N   0  0  0  0  0  0           0  0  0
    7.5542   -4.7625    0.0000 C   0  0  0  0  0  0           0  0  0
    6.8375   -5.1750    0.0000 N   0  0  0  0  0  0           0  0  0
    5.2917   -3.9292    0.0000 C   0  0  0  0  0  0           0  0  0
    7.2500   -2.8042    0.0000 C   0  0  0  0  0  0           0  0  0
    7.2500   -1.9750    0.0000 C   0  0  0  0  0  0           0  0  0
    6.8375   -1.2625    0.0000 S   0  0  0  0  0  0           0  0  0
    4.5792   -3.5167    0.0000 O   0  0  0  0  0  0           0  0  0
    5.0667   -4.7417    0.0000 O   0  0  0  0  0  0           0  0  0
    8.2750   -5.1792    0.0000 S   0  0  0  0  0  0           0  0  0
    5.4042   -5.1875    0.0000 C   0  0  0  0  0  0           0  0  0
    7.9625   -3.2167    0.0000 C   0  0  0  0  0  0           0  0  0
    6.1167   -0.8500    0.0000 C   0  0  0  0  0  0           0  0  0
    4.1667   -2.8042    0.0000 C   0  0  0  0  0  0           0  0  0
    7.9625   -1.5625    0.0000 C   0  0  0  0  0  0           0  0  0
    8.2667   -6.0125    0.0000 C   0  0  0  0  0  0           0  0  0
    8.6792   -2.8042    0.0000 C   0  0  0  0  0  0           0  0  0
    5.2917   -0.8500    0.0000 C   0  0  0  0  0  0           0  0  0
    4.1667   -1.9750    0.0000 C   0  0  0  0  0  0           0  0  0
    8.6792   -1.9750    0.0000 C   0  0  0  0  0  0           0  0  0
    4.5792   -1.2625    0.0000 C   0  0  0  0  0  0           0  0  0
  2  1  1  0     0  0
  3  1  1  0     0  0
  4  2  1  0     0  0
  5  6  1  0     0  0
  6  3  2  0     0  0
  7  1  2  0     0  0
  8  2  1  0     0  0
  9  8  1  0     0  0
 10  9  1  0     0  0
 11  7  1  0     0  0
 12  7  1  0     0  0
 13  5  1  0     0  0
 14  3  1  0     0  0
 15  8  2  0     0  0
 16 10  1  0     0  0
 17 11  1  0     0  0
 18  9  2  0     0  0
 19 13  1  0     0  0
 20 15  1  0     0  0
 21 24  1  0     0  0
 22 17  1  0     0  0
 23 20  2  0     0  0
 24 22  1  0     0  0
  4  5  2  0     0  0
 18 23  1  0     0  0
 16 21  1  0     0  0
M  END