
  SciTegic12231509382D

 28 30  0  0  1  0            999 V2000
    4.1917   -3.9625    0.0000 C   0  0
    4.9042   -4.3750    0.0000 N   0  0
    5.6167   -3.9625    0.0000 C   0  0  1  0  0  0
    5.6167   -3.1375    0.0000 C   0  0
    7.0500   -3.9542    0.0000 N   0  0
    6.3375   -4.3750    0.0000 C   0  0
    1.3292   -3.9667    0.0000 C   0  0
    3.4792   -4.3792    0.0000 C   0  0
    4.1917   -3.1375    0.0000 O   0  0
    1.3292   -3.1417    0.0000 C   0  0
    2.0417   -4.3792    0.0000 C   0  0
    6.3375   -2.7292    0.0000 C   0  0
    2.7625   -3.9667    0.0000 C   0  0
    2.0417   -2.7250    0.0000 C   0  0
    0.6167   -4.3792    0.0000 Cl  0  0
    6.3375   -1.9042    0.0000 C   0  0
    2.7625   -3.1375    0.0000 C   0  0
    0.6167   -2.7250    0.0000 Cl  0  0
    7.0500   -1.4917    0.0000 N   0  0
    4.9042   -5.2000    0.0000 C   0  0
    4.9042   -2.7292    0.0000 C   0  0
    7.1292   -3.1292    0.0000 C   0  0
    7.8042   -4.2875    0.0000 C   0  0
    4.9042   -1.9042    0.0000 C   0  0
    5.6167   -1.4917    0.0000 C   0  0
    8.3542   -3.6750    0.0000 C   0  0
    7.9417   -2.9625    0.0000 C   0  0
    6.3292   -3.5417    0.0000 H   0  0
  2  1  1  0
  3  2  1  0
  3  4  1  1
  5  6  1  0
  6  3  1  0
  7 11  1  0
  8  1  1  0
  9  1  2  0
 10 14  1  0
 11 13  2  0
 12  4  2  0
 13  8  1  0
 14 17  2  0
 15  7  1  0
 16 12  1  0
 17 13  1  0
 18 10  1  0
 19 16  1  0
 20  2  1  0
 21  4  1  0
 22  5  1  0
 23  5  1  0
 24 21  2  0
 25 24  1  0
 26 23  1  0
 27 22  1  0
  3 28  1  6
 10  7  2  0
 26 27  1  0
 16 25  2  0
M  END