
          11280715232D 1   1.00000     0.00000     0

 62 66  0     1  0            999 V2000
    4.1375   -7.6667    0.0000 N   0  0  0  0  0  0           0  0  0
    5.8500   -6.0000    0.0000 N   0  0  0  0  0  0           0  0  0
    1.8000   -7.1417    0.0000 N   0  0  0  0  0  0           0  0  0
    5.4750   -6.7375    0.0000 C   0  0  0  0  0  0           0  0  0
    6.1792   -7.9292    0.0000 C   0  0  0  0  0  0           0  0  0
    3.3167   -7.7542    0.0000 C   0  0  0  0  0  0           0  0  0
    1.2792   -6.5042    0.0000 C   0  0  0  0  0  0           0  0  0
    4.8792   -7.3167    0.0000 C   0  0  2  0  0  0           0  0  0
    5.9625   -5.1792    0.0000 C   0  0  1  0  0  0           0  0  0
    7.4792   -8.2292    0.0000 N   0  0  0  0  0  0           0  0  0
    5.8042   -4.3667    0.0000 C   0  0  0  0  0  0           0  0  0
    6.7167   -8.5542    0.0000 C   0  0  0  0  0  0           0  0  0
    2.5042   -7.5750    0.0000 C   0  0  1  0  0  0           0  0  0
    2.3792   -2.9792    0.0000 N   0  0  0  0  0  0           0  0  0
    0.9625   -4.9042    0.0000 N   0  0  0  0  0  0           0  0  0
    3.1750   -2.7542    0.0000 C   0  0  0  0  0  0           0  0  0
    5.3542   -7.9917    0.0000 C   0  0  0  0  0  0           0  0  0
    6.6042   -7.2167    0.0000 C   0  0  0  0  0  0           0  0  0
    0.9875   -5.7292    0.0000 C   0  0  1  0  0  0           0  0  0
    5.3917   -3.6542    0.0000 N   0  0  0  0  0  0           0  0  0
    7.4125   -7.4042    0.0000 C   0  0  0  0  0  0           0  0  0
   -1.2083   -6.2542    0.0000 C   0  0  0  0  0  0           0  0  0
    2.3917   -9.7625    0.0000 C   0  0  0  0  0  0           0  0  0
    6.1417   -7.2292    0.0000 O   0  0  0  0  0  0           0  0  0
    3.2667   -8.5792    0.0000 O   0  0  0  0  0  0           0  0  0
    0.5625   -6.9167    0.0000 O   0  0  0  0  0  0           0  0  0
    6.7917   -5.1542    0.0000 C   0  0  0  0  0  0           0  0  0
    4.0000   -2.8000    0.0000 C   0  0  0  0  0  0           0  0  0
   -2.0083   -6.0500    0.0000 N   0  0  0  0  0  0           0  0  0
    1.7042   -3.4500    0.0000 C   0  0  1  0  0  0           0  0  0
    6.4000   -4.1292    0.0000 O   0  0  0  0  0  0           0  0  0
    3.0792   -1.9292    0.0000 O   0  0  0  0  0  0           0  0  0
   -0.9958   -7.0542    0.0000 O   0  0  0  0  0  0           0  0  0
    1.5750   -9.8750    0.0000 O   0  0  0  0  0  0           0  0  0
    2.1917   -8.3417    0.0000 C   0  0  0  0  0  0           0  0  0
    1.2125   -4.1167    0.0000 C   0  0  0  0  0  0           0  0  0
    0.1750   -5.8917    0.0000 C   0  0  0  0  0  0           0  0  0
    4.7667   -3.1125    0.0000 C   0  0  0  0  0  0           0  0  0
   -0.6250   -5.6792    0.0000 C   0  0  0  0  0  0           0  0  0
    2.7042   -9.0000    0.0000 C   0  0  0  0  0  0           0  0  0
    2.9000  -10.4167    0.0000 N   0  0  0  0  0  0           0  0  0
   -2.2208   -5.2500    0.0000 C   0  0  0  0  0  0           0  0  0
    1.1250   -2.8542    0.0000 C   0  0  0  0  0  0           0  0  0
    7.1875   -4.4292    0.0000 C   0  0  0  0  0  0           0  0  0
   -2.2250   -4.4250    0.0000 C   0  0  0  0  0  0           0  0  0
    6.3667   -6.4292    0.0000 C   0  0  0  0  0  0           0  0  0
    7.9792   -6.8042    0.0000 C   0  0  0  0  0  0           0  0  0
    0.3250   -3.0625    0.0000 C   0  0  3  0  0  0           0  0  0
    8.0125   -4.4042    0.0000 C   0  0  0  0  0  0           0  0  0
    6.7500   -3.7250    0.0000 C   0  0  0  0  0  0           0  0  0
   -3.0000   -4.1292    0.0000 C   0  0  0  0  0  0           0  0  0
   -1.5958   -3.9000    0.0000 C   0  0  0  0  0  0           0  0  0
   -0.2583   -2.4667    0.0000 C   0  0  0  0  0  0           0  0  0
    0.1000   -3.8542    0.0000 C   0  0  0  0  0  0           0  0  0
    6.9375   -5.8250    0.0000 C   0  0  0  0  0  0           0  0  0
    7.7417   -6.0167    0.0000 C   0  0  0  0  0  0           0  0  0
   -1.7250   -3.0875    0.0000 C   0  0  0  0  0  0           0  0  0
    7.1417   -2.9917    0.0000 C   0  0  0  0  0  0           0  0  0
    8.4042   -3.6792    0.0000 C   0  0  0  0  0  0           0  0  0
   -3.1375   -3.3292    0.0000 C   0  0  0  0  0  0           0  0  0
   -2.5000   -2.8000    0.0000 C   0  0  0  0  0  0           0  0  0
    7.9667   -2.9792    0.0000 C   0  0  0  0  0  0           0  0  0
  2  4  1  0     0  0
  3 13  1  0     0  0
  4  8  1  0     0  0
  5 17  1  0     0  0
  6  1  1  0     0  0
  7  3  1  0     0  0
  8  1  1  0     0  0
  9  2  1  0     0  0
 10 12  1  0     0  0
 11  9  1  0     0  0
 12  5  2  0     0  0
 13  6  1  0     0  0
 14 30  1  0     0  0
 15 19  1  0     0  0
 16 28  1  0     0  0
  8 17  1  6     0  0
 18  5  1  0     0  0
 19  7  1  0     0  0
 20 11  1  0     0  0
 21 18  2  0     0  0
 22 39  1  0     0  0
 23 40  1  0     0  0
 24  4  2  0     0  0
 25  6  2  0     0  0
 26  7  2  0     0  0
  9 27  1  1     0  0
 28 38  1  0     0  0
 29 22  1  0     0  0
 30 36  1  0     0  0
 31 11  2  0     0  0
 32 16  2  0     0  0
 33 22  2  0     0  0
 34 23  2  0     0  0
 13 35  1  1     0  0
 36 15  1  0     0  0
 19 37  1  6     0  0
 38 20  1  0     0  0
 39 37  1  0     0  0
 40 35  1  0     0  0
 41 23  1  0     0  0
 42 29  1  0     0  0
 30 43  1  1     0  0
 44 27  1  0     0  0
 45 42  1  0     0  0
 46 18  1  0     0  0
 47 21  1  0     0  0
 48 43  1  0     0  0
 49 44  1  0     0  0
 50 44  2  0     0  0
 51 45  1  0     0  0
 52 45  2  0     0  0
 53 48  1  0     0  0
 54 48  1  0     0  0
 55 46  2  0     0  0
 56 55  1  0     0  0
 57 52  1  0     0  0
 58 50  1  0     0  0
 59 49  2  0     0  0
 60 51  2  0     0  0
 61 57  2  0     0  0
 62 58  2  0     0  0
 21 10  1  0     0  0
 47 56  2  0     0  0
 59 62  1  0     0  0
 14 16  1  0     0  0
 61 60  1  0     0  0
M  END