
  SciTegic05171617272D

 34 37  0  0  0  0            999 V2000
   -5.2232   12.5857    0.0000 C   0  0
   -6.2612   11.9837    0.0000 O   0  0
   -6.2593   10.4829    0.0000 C   0  0
   -7.5559    9.7286    0.0000 C   0  0
   -7.5509    8.2286    0.0000 C   0  0
   -6.2494    7.4828    0.0000 C   0  0
   -4.9528    8.2372    0.0000 C   0  0
   -4.9578    9.7372    0.0000 N   0  0
   -6.2413    5.9820    0.0000 C   0  0
   -7.2775    5.3768    0.0000 C   0  0
   -4.9380    5.2378    0.0000 N   0  0
   -4.9300    3.7369    0.0000 C   0  0
   -5.9662    3.1317    0.0000 O   0  0
   -3.6267    2.9927    0.0000 C   0  0
   -3.6187    1.4919    0.0000 O   0  0
   -2.3155    0.7475    0.0000 C   0  0
   -2.3155   -0.7475    0.0000 C   0  0
   -1.0028   -1.5132    0.0000 C   0  0
   -0.9971   -3.0138    0.0000 C   0  0
   -2.0337   -3.6184    0.0000 F   0  0
    0.0446   -3.6095    0.0000 F   0  0
    0.2917   -0.7475    0.0000 C   0  0
    1.7138   -1.2033    0.0000 C   0  0
    2.5889    0.0182    0.0000 N   0  0
    1.7138    1.2033    0.0000 N   0  0
    2.0825    2.3453    0.0000 C   0  0
    0.2917    0.7475    0.0000 C   0  0
   -1.0028    1.5132    0.0000 N   0  0
    2.1852   -2.6281    0.0000 C   0  0
    3.6221   -3.0405    0.0000 C   0  0
    3.9838   -4.4963    0.0000 C   0  0
    2.9039   -5.5373    0.0000 C   0  0
    1.4624   -5.1227    0.0000 C   0  0
    1.1007   -3.6669    0.0000 C   0  0
  1  2  1  0
  2  3  1  0
  3  4  2  0
  4  5  1  0
  5  6  2  0
  6  7  1  0
  7  8  2  0
  3  8  1  0
  6  9  1  0
  9 10  1  0
  9 11  1  0
 11 12  1  0
 12 13  2  0
 12 14  1  0
 14 15  1  0
 15 16  1  0
 16 17  2  0
 17 18  1  0
 18 19  1  0
 19 20  1  0
 19 21  1  0
 18 22  2  0
 22 23  1  0
 23 24  2  0
 24 25  1  0
 25 26  1  0
 25 27  1  0
 22 27  1  0
 27 28  2  0
 16 28  1  0
 23 29  1  0
 29 30  2  0
 30 31  1  0
 31 32  2  0
 32 33  1  0
 33 34  2  0
 29 34  1  0
M  END