
          11280715412D 1   1.00000     0.00000     0

 37 41  0     0  0            999 V2000
   -1.4000    0.6708    0.0000 N   0  0  3  0  0  0           0  0  0
   -1.0458    1.1625    0.0000 C   0  0  0  0  0  0           0  0  0
   -1.4000    1.6583    0.0000 C   0  0  0  0  0  0           0  0  0
   -1.9750    1.4625    0.0000 C   0  0  0  0  0  0           0  0  0
   -1.9750    0.8583    0.0000 C   0  0  0  0  0  0           0  0  0
   -0.4458    1.2250    0.0000 C   0  0  3  0  0  0           0  0  0
   -1.2458    0.0958    0.0000 C   0  0  0  0  0  0           0  0  0
   -2.4958    0.5583    0.0000 C   0  0  0  0  0  0           0  0  0
    0.4542    0.7083    0.0000 C   0  0  0  0  0  0           0  0  0
   -2.4958    1.7625    0.0000 C   0  0  0  0  0  0           0  0  0
   -0.1458    0.7083    0.0000 C   0  0  0  0  0  0           0  0  0
   -0.0083   -5.3500    0.0000 N   0  0  0  0  0  0           0  0  0
   -1.6750   -0.3292    0.0000 C   0  0  0  0  0  0           0  0  0
    0.7542    1.2250    0.0000 O   0  0  0  0  0  0           0  0  0
   -1.1583    2.2083    0.0000 C   0  0  0  0  0  0           0  0  0
   -3.0125    1.4625    0.0000 C   0  0  0  0  0  0           0  0  0
   -3.0125    0.8583    0.0000 C   0  0  0  0  0  0           0  0  0
   -1.6750   -0.9250    0.0000 C   0  0  0  0  0  0           0  0  0
    0.7500    0.1875    0.0000 O   0  0  0  0  0  0           0  0  0
   -2.1958   -1.2250    0.0000 C   0  0  0  0  0  0           0  0  0
   -3.5333    1.7625    0.0000 F   0  0  0  0  0  0           0  0  0
   -0.1958    1.7833    0.0000 C   0  0  0  0  0  0           0  0  0
   -2.1875   -1.8250    0.0000 O   0  0  0  0  0  0           0  0  0
   -0.6208   -4.5167    0.0000 C   0  0  0  0  0  0           0  0  0
   -0.5500    2.2708    0.0000 C   0  0  0  0  0  0           0  0  0
   -0.0708   -4.7542    0.0000 C   0  0  0  0  0  0           0  0  0
   -2.7125   -0.3250    0.0000 C   0  0  0  0  0  0           0  0  0
   -0.4875   -5.7042    0.0000 C   0  0  0  0  0  0           0  0  0
   -2.1958   -0.0292    0.0000 C   0  0  0  0  0  0           0  0  0
   -2.7125   -0.9250    0.0000 C   0  0  0  0  0  0           0  0  0
   -0.6208   -3.9167    0.0000 C   0  0  0  0  0  0           0  0  0
   -1.6708   -2.1167    0.0000 C   0  0  0  0  0  0           0  0  0
   -1.1083   -4.8667    0.0000 C   0  0  0  0  0  0           0  0  0
   -1.1458   -3.6167    0.0000 C   0  0  0  0  0  0           0  0  0
   -1.6625   -2.7167    0.0000 C   0  0  0  0  0  0           0  0  0
   -1.1458   -3.0167    0.0000 C   0  0  0  0  0  0           0  0  0
   -1.0375   -5.4625    0.0000 C   0  0  0  0  0  0           0  0  0
  2  1  1  0     0  0
  3  2  2  0     0  0
  4  5  1  0     0  0
  5  1  1  0     0  0
  6  2  1  0     0  0
  7  1  1  0     0  0
  8  5  2  0     0  0
  9 11  1  0     0  0
 10  4  2  0     0  0
 11  6  1  0     0  0
 12 26  2  0     0  0
 13  7  1  0     0  0
 14  9  2  0     0  0
 15  3  1  0     0  0
 16 17  2  0     0  0
 17  8  1  0     0  0
 18 13  1  0     0  0
 19  9  1  0     0  0
 20 18  2  0     0  0
 21 16  1  0     0  0
 22  6  1  0     0  0
 23 20  1  0     0  0
 24 31  1  0     0  0
 25 22  1  0     0  0
 26 24  1  0     0  0
 27 29  1  0     0  0
 28 37  2  0     0  0
 29 13  2  0     0  0
 30 27  2  0     0  0
 31 34  1  0     0  0
 32 23  1  0     0  0
 33 24  2  0     0  0
 34 36  1  0     0  0
 35 32  1  0     0  0
 36 35  1  0     0  0
 37 33  1  0     0  0
  4  3  1  0     0  0
 16 10  1  0     0  0
 15 25  1  0     0  0
 20 30  1  0     0  0
 12 28  1  0     0  0
M  END