
          11280715332D 1   1.00000     0.00000     0

 19 20  0     0  0            999 V2000
    4.0417   -4.2875    0.0000 C   0  0  0  0  0  0           0  0  0
    4.0417   -4.8875    0.0000 C   0  0  0  0  0  0           0  0  0
    4.5542   -3.9792    0.0000 N   0  0  0  0  0  0           0  0  0
    5.0750   -4.2792    0.0000 C   0  0  0  0  0  0           0  0  0
    4.5625   -5.1792    0.0000 C   0  0  0  0  0  0           0  0  0
    3.4750   -5.0750    0.0000 C   0  0  0  0  0  0           0  0  0
    5.0792   -4.8792    0.0000 O   0  0  0  0  0  0           0  0  0
    3.1167   -4.5917    0.0000 C   0  0  0  0  0  0           0  0  0
    3.4667   -4.1042    0.0000 S   0  0  0  0  0  0           0  0  0
    2.5167   -4.5917    0.0000 C   0  0  0  0  0  0           0  0  0
    5.5917   -3.9750    0.0000 N   0  0  3  0  0  0           0  0  0
    4.5667   -5.7792    0.0000 O   0  0  0  0  0  0           0  0  0
    2.2167   -5.1167    0.0000 O   0  0  0  0  0  0           0  0  0
    2.2167   -4.0792    0.0000 N   0  0  0  0  0  0           0  0  0
    3.2917   -5.6417    0.0000 C   0  0  0  0  0  0           0  0  0
    6.1125   -4.2750    0.0000 C   0  0  0  0  0  0           0  0  0
    5.5875   -3.3750    0.0000 C   0  0  0  0  0  0           0  0  0
    6.1042   -3.0750    0.0000 C   0  0  0  0  0  0           0  0  0
    6.6292   -3.9667    0.0000 C   0  0  0  0  0  0           0  0  0
  2  1  2  0     0  0
  3  1  1  0     0  0
  4  3  2  0     0  0
  5  2  1  0     0  0
  6  2  1  0     0  0
  7  4  1  0     0  0
  8  9  1  0     0  0
  9  1  1  0     0  0
 10  8  1  0     0  0
 11  4  1  0     0  0
 12  5  2  0     0  0
 13 10  2  0     0  0
 14 10  1  0     0  0
 15  6  1  0     0  0
 16 11  1  0     0  0
 17 11  1  0     0  0
 18 17  1  0     0  0
 19 16  1  0     0  0
  6  8  2  0     0  0
  7  5  1  0     0  0
M  END