
  SciTegic06051315212D

 27 29  0  0  0  0            999 V2000
   22.3805   -2.6496    0.0000 C   0  0
   22.3794   -3.4692    0.0000 C   0  0
   23.0874   -3.8781    0.0000 C   0  0
   23.7971   -3.4687    0.0000 C   0  0
   23.7943   -2.6460    0.0000 C   0  0
   23.0857   -2.2408    0.0000 C   0  0
   23.0839   -4.6927    0.0000 N   0  0
   22.3743   -5.0999    0.0000 C   0  0
   22.3721   -5.9135    0.0000 C   0  0
   23.0779   -6.3261    0.0000 N   0  0
   23.7875   -5.9189    0.0000 C   0  0
   23.7913   -5.0991    0.0000 C   0  0
   23.0746   -7.1433    0.0000 C   0  0
   23.0795   -1.4218    0.0000 N   0  3
   22.3705   -1.0154    0.0000 O   0  0
   23.7859   -1.0111    0.0000 O   0  5
   24.5055   -3.8762    0.0000 N   0  0
   25.2125   -3.4665    0.0000 C   0  0
   25.9209   -3.8740    0.0000 C   0  0
   25.2112   -2.6493    0.0000 O   0  0
   25.9175   -4.6896    0.0000 C   0  0
   26.6250   -5.0970    0.0000 C   0  0
   27.3331   -4.6873    0.0000 C   0  0
   27.3292   -3.8658    0.0000 C   0  0
   26.6211   -3.4621    0.0000 C   0  0
   26.6156   -2.6450    0.0000 Cl  0  0
   24.4937   -6.3300    0.0000 C   0  0
  1  2  2  0
  2  3  1  0
  3  4  2  0
  4  5  1  0
  5  6  2  0
  6  1  1  0
  7  8  1  0
  7 12  1  0
  8  9  1  0
  9 10  1  0
 10 11  1  0
 11 12  1  0
  3  7  1  0
 10 13  1  0
 14 15  2  0
 14 16  1  0
  6 14  1  0
  4 17  1  0
 17 18  1  0
 18 19  1  0
 18 20  2  0
 19 21  2  0
 21 22  1  0
 22 23  2  0
 23 24  1  0
 24 25  2  0
 25 19  1  0
 25 26  1  0
 11 27  1  0
M  CHG  2  14   1  16  -1
M  END