
          11280714452D 1   1.00000     0.00000     0

 25 27  0     0  0            999 V2000
   11.0125   -4.7667    0.0000 N   0  0  0  0  0  0           0  0  0
   11.4375   -5.6417    0.0000 N   0  0  0  0  0  0           0  0  0
   10.9042   -5.3542    0.0000 C   0  0  0  0  0  0           0  0  0
   11.6042   -4.6917    0.0000 C   0  0  0  0  0  0           0  0  0
   11.8667   -5.2292    0.0000 C   0  0  0  0  0  0           0  0  0
    8.3250   -5.7167    0.0000 C   0  0  3  0  0  0           0  0  0
    7.7875   -5.4292    0.0000 C   0  0  0  0  0  0           0  0  0
    8.3417   -6.3292    0.0000 C   0  0  0  0  0  0           0  0  0
   11.8875   -4.1542    0.0000 C   0  0  0  0  0  0           0  0  0
   11.8542   -3.1167    0.0000 N   0  0  0  0  0  0           0  0  0
   10.3917   -5.6667    0.0000 C   0  0  0  0  0  0           0  0  0
   11.5750   -3.6542    0.0000 C   0  0  0  0  0  0           0  0  0
    8.8292   -5.4042    0.0000 C   0  0  0  0  0  0           0  0  0
    7.7875   -4.8417    0.0000 C   0  0  0  0  0  0           0  0  0
    7.8375   -6.6417    0.0000 C   0  0  0  0  0  0           0  0  0
    8.8667   -6.6167    0.0000 C   0  0  0  0  0  0           0  0  0
    7.2625   -5.7417    0.0000 C   0  0  0  0  0  0           0  0  0
    9.8667   -5.3792    0.0000 C   0  0  0  0  0  0           0  0  0
    9.3625   -5.6917    0.0000 C   0  0  0  0  0  0           0  0  0
    7.8500   -7.2417    0.0000 C   0  0  0  0  0  0           0  0  0
    8.8875   -7.2042    0.0000 C   0  0  0  0  0  0           0  0  0
    7.2625   -4.5417    0.0000 C   0  0  0  0  0  0           0  0  0
    6.7417   -5.4417    0.0000 C   0  0  0  0  0  0           0  0  0
    8.3750   -7.5167    0.0000 C   0  0  0  0  0  0           0  0  0
    6.7417   -4.8417    0.0000 C   0  0  0  0  0  0           0  0  0
  2  3  1  0     0  0
  3  1  2  0     0  0
  4  1  1  0     0  0
  5  4  2  0     0  0
  6 13  1  0     0  0
  7  6  1  0     0  0
  8  6  1  0     0  0
  9  4  1  0     0  0
 10 12  1  0     0  0
 11  3  1  0     0  0
 12  9  1  0     0  0
 13 19  1  0     0  0
 14  7  2  0     0  0
 15  8  2  0     0  0
 16  8  1  0     0  0
 17  7  1  0     0  0
 18 11  1  0     0  0
 19 18  1  0     0  0
 20 15  1  0     0  0
 21 16  2  0     0  0
 22 14  1  0     0  0
 23 17  2  0     0  0
 24 21  1  0     0  0
 25 23  1  0     0  0
  5  2  1  0     0  0
 24 20  2  0     0  0
 25 22  2  0     0  0
M  END