
  SciTegic10011413212D

 54 58  0  0  0  0            999 V2000
    0.7052  -17.5238    0.0000 O   0  0
    1.1198  -18.2419    0.0000 P   0  0
    1.5342  -17.5213    0.0000 O   0  0
    7.6250  -19.0326    0.0000 C   0  0
    7.6207  -19.8575    0.0000 C   0  0
    8.3304  -20.2692    0.0000 C   0  0
    9.0446  -19.8649    0.0000 C   0  0
    9.0489  -19.0400    0.0000 C   0  0
    8.3389  -18.6194    0.0000 C   0  0
    2.5031  -13.1984    0.0000 C   0  0
    2.5020  -14.0257    0.0000 C   0  0
    3.9331  -13.1946    0.0000 C   0  0
    3.2162  -12.7835    0.0000 C   0  0
    3.9360  -14.0253    0.0000 C   0  0
    3.2194  -14.4435    0.0000 C   0  0
    3.3942  -15.2517    0.0000 C   0  0
    4.2173  -15.3334    0.0000 C   0  0
    4.5514  -14.5783    0.0000 N   0  0
    1.7872  -12.7840    0.0000 C   0  0
    5.3572  -14.4039    0.0000 C   0  0
    5.9127  -15.0139    0.0000 C   0  0  1  0  0  0
    6.7185  -14.8395    0.0000 C   0  0
    7.2741  -15.4538    0.0000 N   0  0
    8.0799  -15.2794    0.0000 C   0  0
    8.6354  -15.8894    0.0000 C   0  0  2  0  0  0
    8.3344  -14.4908    0.0000 O   0  0
    5.6581  -15.8025    0.0000 C   0  0
    4.8523  -15.9769    0.0000 C   0  0
    4.6020  -16.7612    0.0000 C   0  0
    5.1532  -17.3712    0.0000 C   0  0
    4.9028  -18.1598    0.0000 C   0  0  1  0  0  0
    5.4584  -18.7697    0.0000 C   0  0  2  0  0  0
    4.0970  -18.3342    0.0000 C   0  0
    5.2037  -19.5541    0.0000 C   0  0
    6.2642  -18.5953    0.0000 C   0  0
    6.8197  -19.2096    0.0000 N   0  0
    6.5145  -17.8110    0.0000 O   0  0
    3.5464  -17.7175    0.0000 C   0  0
    2.7412  -17.8914    0.0000 C   0  0
    2.4859  -18.6807    0.0000 C   0  0
    3.0464  -19.2920    0.0000 C   0  0
    3.8494  -19.1149    0.0000 C   0  0
    9.4412  -15.7150    0.0000 C   0  0
    8.3807  -16.6736    0.0000 N   0  0
    9.9966  -16.3292    0.0000 C   0  0
   10.8025  -16.1548    0.0000 N   0  0
    9.7421  -17.1135    0.0000 O   0  0
    7.5749  -16.8480    0.0000 C   0  0
    7.0194  -16.2380    0.0000 O   0  0
    5.7592  -20.1683    0.0000 C   0  0
    5.5059  -20.9548    0.0000 O   0  0
    6.5664  -19.9961    0.0000 O   0  0
    1.6803  -18.8561    0.0000 C   0  0
    0.3228  -18.4182    0.0000 C   0  0
  2  1  1  0
  3  2  2  0
  4  5  1  0
  4  9  1  0
  5  6  1  0
  6  7  1  0
  7  8  1  0
  8  9  1  0
 10 11  2  0
 11 15  1  0
 14 12  1  0
 12 13  2  0
 13 10  1  0
 14 15  2  0
 15 16  1  0
 16 17  2  0
 17 18  1  0
 18 14  1  0
 10 19  1  0
 18 20  1  0
 21 20  1  1
 21 22  1  0
 22 23  1  0
 23 24  1  0
 24 25  1  0
 24 26  2  0
 21 27  1  0
 27 28  1  0
 28 29  2  0
 29 30  1  0
 31 30  1  0
 31 32  1  0
 31 33  1  1
 32 34  1  1
 32 35  1  0
 35 36  1  0
 35 37  2  0
 33 38  2  0
 38 39  1  0
 39 40  2  0
 40 41  1  0
 41 42  2  0
 42 33  1  0
 25 43  1  6
 25 44  1  0
 43 45  1  0
 45 46  1  0
 45 47  2  0
 44 48  1  0
 48 49  2  0
 36  4  1  0
 48  4  1  0
 34 50  1  0
 50 51  1  0
 50 52  2  0
 40 53  1  0
 53  2  1  0
  2 54  1  0
M  END