
  SciTegic01161211212D

 17 16  0  0  0  0            999 V2000
    5.0292   -3.0667    0.0000 C   0  0
    4.3500   -3.4625    0.0000 C   0  0
    5.7042   -3.4625    0.0000 C   0  0
    3.6667   -3.0667    0.0000 P   0  0
    6.3917   -3.0667    0.0000 P   0  0
    3.1042   -3.9750    0.0000 O   0  0
    7.2292   -3.4792    0.0000 O   0  0
    3.6375   -2.2542    0.0000 O   0  0
    7.2292   -2.6667    0.0000 O   0  0
    6.3875   -2.2792    0.0000 O   0  0
    2.8917   -3.0542    0.0000 O   0  0
    4.7375   -4.1292    0.0000 F   0  0
    5.3042   -4.1292    0.0000 F   0  0
    6.0917   -4.1292    0.0000 F   0  0
    3.9500   -4.1292    0.0000 F   0  0
    5.4167   -2.3792    0.0000 O   0  0
    4.6292   -2.3792    0.0000 O   0  0
  2  1  1  0
  3  1  1  0
  4  2  1  0
  5  3  1  0
  6  4  1  0
  7  5  1  0
  8  4  1  0
  9  5  1  0
 10  5  2  0
 11  4  2  0
 12  2  1  0
 13  3  1  0
 14  3  1  0
 15  2  1  0
 16  1  1  0
 17  1  1  0
M  END