
  SciTegic02271217242D

 27 29  0  0  0  0            999 V2000
   -2.2583    2.5500    0.0000 O   0  0
   -1.8417    1.8333    0.0000 S   0  0
   -1.4293    2.5525    0.0000 O   0  0
   -3.9806    1.4125    0.0000 C   0  0
   -3.9818    0.5852    0.0000 C   0  0
   -3.2669    0.1723    0.0000 C   0  0
   -2.5505    0.5856    0.0000 C   0  0
   -2.5534    1.4162    0.0000 C   0  0
   -3.2687    1.8253    0.0000 C   0  0
   -1.1244    1.4216    0.0000 N   0  0
   -1.1213    0.5966    0.0000 C   0  0
   -1.8333    0.1845    0.0000 C   0  0
   -1.8306   -0.6397    0.0000 N   0  0
   -1.1140   -1.0503    0.0000 C   0  0
   -0.3988   -0.6307    0.0000 C   0  0
   -0.4050    0.1922    0.0000 C   0  0
    0.3187   -1.0380    0.0000 C   0  0
    0.3199   -1.8636    0.0000 C   0  0
    1.0365   -2.2708    0.0000 N   0  0
    1.0231   -0.6203    0.0000 C   0  0
    1.7389   -1.0207    0.0000 N   0  0
    1.7474   -1.8523    0.0000 C   0  0
    2.4657   -2.2581    0.0000 N   0  0
   -4.6966    0.1732    0.0000 C   0  0
   -4.6919    1.8269    0.0000 N   0  3
   -5.4063    1.4143    0.0000 O   0  0
   -4.6921    2.6519    0.0000 O   0  5
  2  1  2  0
 13 14  2  0
  7  8  1  0
 14 15  1  0
  4  5  2  0
 15 16  2  0
 16 11  1  0
  8  9  2  0
 15 17  1  0
  9  4  1  0
 17 18  2  0
  8  2  1  0
 18 19  1  0
 19 22  2  0
  3  2  2  0
 21 20  2  0
 20 17  1  0
 21 22  1  0
  2 10  1  0
  5  6  1  0
 10 11  1  0
 22 23  1  0
  5 24  1  0
 11 12  2  0
  6  7  2  0
 12 13  1  0
 25 26  2  0
 25 27  1  0
  4 25  1  0
M  CHG  2  25   1  27  -1
M  END