
  SciTegic12231509382D

 29 31  0  0  1  0            999 V2000
    2.8875    0.1833    0.0000 C   0  0
    2.5292   -0.3042    0.0000 O   0  0
    2.5292    0.6708    0.0000 O   0  0
    3.3125    0.6125    0.0000 C   0  0
    3.1792   -0.3375    0.0000 C   0  0
    1.9542   -0.1167    0.0000 C   0  0
    1.9542    0.4833    0.0000 C   0  0
   -2.2083   -0.1417    0.0000 C   0  0
    1.4417   -0.4292    0.0000 C   0  0
    3.6500   -0.4667    0.0000 O   0  0
    3.8917    0.4708    0.0000 O   0  0
    3.1417    1.1958    0.0000 O   0  0
    2.7417   -0.8125    0.0000 O   0  0
   -2.7333   -0.4417    0.0000 C   0  0
    0.9167   -0.1292    0.0000 C   0  0
   -0.6458   -0.4417    0.0000 N   0  0
    1.4250    0.7833    0.0000 C   0  0
   -1.1625   -0.1375    0.0000 C   0  0
   -1.6833   -0.4417    0.0000 C   0  0  2  0  0  0
   -3.2500   -0.1417    0.0000 C   0  0
    0.4000   -0.4375    0.0000 C   0  0
    0.9125    0.4750    0.0000 C   0  0
   -3.7750   -0.4417    0.0000 Cl  0  0
   -1.6833   -1.0500    0.0000 O   0  0
   -0.1250   -0.1292    0.0000 C   0  0  1  0  0  0
   -2.2083    0.4708    0.0000 C   0  0
   -2.7333    0.7708    0.0000 C   0  0
   -3.2500    0.4625    0.0000 C   0  0
   -0.1250    0.4708    0.0000 C   0  0
  2  1  1  0
  3  1  1  0
  4  1  1  0
  5  1  1  0
  6  2  1  0
  7  3  1  0
  8 19  1  0
  9  6  1  0
 10  5  1  0
 11  4  1  0
 12  4  2  0
 13  5  2  0
 14  8  2  0
 15  9  2  0
 16 25  1  0
 17  7  1  0
 18 16  1  0
 19 18  1  0
 20 14  1  0
 21 15  1  0
 22 17  2  0
 23 20  1  0
 19 24  1  6
 25 21  1  0
 26  8  1  0
 27 26  2  0
 28 27  1  0
 25 29  1  6
  6  7  2  0
 15 22  1  0
 20 28  2  0
M  END