
  SciTegic09261414462D

 30 33  0  0  0  0            999 V2000
   36.8727  -23.0299    0.0000 O   0  0
   36.0844  -23.2446    0.0000 S   0  0
   36.6644  -23.8199    0.0000 O   0  0
   33.2682  -24.8913    0.0000 C   0  0
   33.2670  -25.7108    0.0000 C   0  0
   33.9751  -26.1198    0.0000 C   0  0
   33.9733  -24.4824    0.0000 C   0  0
   34.6819  -24.8877    0.0000 C   0  0
   34.6827  -25.7067    0.0000 C   0  0
   35.3912  -26.1138    0.0000 C   0  0
   36.0995  -25.7029    0.0000 C   0  0
   36.0947  -24.8808    0.0000 C   0  0
   35.3856  -24.4774    0.0000 C   0  0
   35.3929  -26.9309    0.0000 O   0  0
   36.8087  -26.1088    0.0000 S   0  0
   35.3813  -23.6603    0.0000 N   0  0
   36.0825  -22.4307    0.0000 C   0  0
   36.8119  -26.9260    0.0000 C   0  0
   36.7868  -22.0277    0.0000 C   0  0
   36.7853  -21.2146    0.0000 C   0  0
   35.3779  -22.0331    0.0000 C   0  0
   37.5212  -27.3318    0.0000 C   0  0
   37.5275  -28.1484    0.0000 O   0  0
   38.2304  -26.9198    0.0000 O   0  0
   35.3740  -21.2233    0.0000 C   0  0
   36.0790  -20.8101    0.0000 C   0  0
   36.0727  -19.9949    0.0000 C   0  0
   35.3622  -19.5918    0.0000 C   0  0
   34.6565  -20.0099    0.0000 C   0  0
   34.6663  -20.8238    0.0000 C   0  0
  2  1  2  0
  3  2  2  0
  4  5  2  0
  5  6  1  0
  6  9  2  0
  8  7  2  0
  7  4  1  0
  8  9  1  0
  9 10  1  0
 10 11  2  0
 11 12  1  0
 12 13  2  0
 13  8  1  0
 10 14  1  0
 11 15  1  0
 13 16  1  0
 16  2  1  0
  2 17  1  0
 15 18  1  0
 17 19  2  0
 19 20  1  0
 20 26  2  0
 21 17  1  0
 21 25  2  0
 18 22  1  0
 22 23  1  0
 22 24  2  0
 25 26  1  0
 26 27  1  0
 27 28  2  0
 28 29  1  0
 29 30  2  0
 30 25  1  0
M  END