
          11280715132D 1   1.00000     0.00000     0

 31 33  0     0  0            999 V2000
   -1.4458   -2.7917    0.0000 C   0  0  0  0  0  0           0  0  0
   -1.4458   -2.1917    0.0000 C   0  0  0  0  0  0           0  0  0
   -1.9708   -3.0917    0.0000 N   0  0  3  0  0  0           0  0  0
   -2.4833   -2.1917    0.0000 N   0  0  3  0  0  0           0  0  0
   -2.4833   -2.7917    0.0000 C   0  0  0  0  0  0           0  0  0
   -1.9708   -1.8917    0.0000 C   0  0  0  0  0  0           0  0  0
   -0.8750   -2.9792    0.0000 N   0  0  0  0  0  0           0  0  0
    2.9625   -3.4042    0.0000 S   0  0  3  0  0  0           0  0  0
   -0.8750   -2.0042    0.0000 N   0  0  0  0  0  0           0  0  0
   -0.5208   -2.4917    0.0000 C   0  0  0  0  0  0           0  0  0
    2.3792   -3.5542    0.0000 C   0  0  0  0  0  0           0  0  0
    0.9542   -2.8625    0.0000 C   0  0  0  0  0  0           0  0  0
    1.3792   -3.2875    0.0000 C   0  0  0  0  0  0           0  0  0
   -3.0000   -3.0917    0.0000 O   0  0  0  0  0  0           0  0  0
    1.9542   -3.1292    0.0000 C   0  0  0  0  0  0           0  0  0
    0.3792   -3.0125    0.0000 N   0  0  0  0  0  0           0  0  0
    2.9542   -2.8042    0.0000 O   0  0  0  0  0  0           0  0  0
    2.9542   -4.0042    0.0000 O   0  0  0  0  0  0           0  0  0
   -1.9708   -1.2917    0.0000 O   0  0  0  0  0  0           0  0  0
    3.5625   -3.4042    0.0000 F   0  0  0  0  0  0           0  0  0
    1.1167   -2.2792    0.0000 O   0  0  0  0  0  0           0  0  0
    0.0792   -2.4917    0.0000 C   0  0  0  0  0  0           0  0  0
   -1.9708   -3.6917    0.0000 C   0  0  0  0  0  0           0  0  0
   -3.0000   -1.8917    0.0000 C   0  0  0  0  0  0           0  0  0
    2.2250   -4.1417    0.0000 C   0  0  0  0  0  0           0  0  0
    1.2167   -3.8667    0.0000 C   0  0  0  0  0  0           0  0  0
    1.6417   -4.2917    0.0000 C   0  0  0  0  0  0           0  0  0
   -2.4875   -3.9917    0.0000 C   0  0  0  0  0  0           0  0  0
   -3.0083   -1.2917    0.0000 C   0  0  0  0  0  0           0  0  0
   -2.4875   -4.5917    0.0000 C   0  0  0  0  0  0           0  0  0
   -3.5208   -0.9917    0.0000 C   0  0  0  0  0  0           0  0  0
  2  1  2  0     0  0
  3  1  1  0     0  0
  4  5  1  0     0  0
  5  3  1  0     0  0
  6  2  1  0     0  0
  7  1  1  0     0  0
  8 11  1  0     0  0
  9  2  1  0     0  0
 10  7  1  0     0  0
 11 15  2  0     0  0
 12 16  1  0     0  0
 13 12  1  0     0  0
 14  5  2  0     0  0
 15 13  1  0     0  0
 16 22  1  0     0  0
 17  8  2  0     0  0
 18  8  2  0     0  0
 19  6  2  0     0  0
 20  8  1  0     0  0
 21 12  2  0     0  0
 22 10  1  0     0  0
 23  3  1  0     0  0
 24  4  1  0     0  0
 25 27  2  0     0  0
 26 13  2  0     0  0
 27 26  1  0     0  0
 28 23  1  0     0  0
 29 24  1  0     0  0
 30 28  1  0     0  0
 31 29  1  0     0  0
  9 10  2  0     0  0
  6  4  1  0     0  0
 25 11  1  0     0  0
M  END