
  SciTegic01161211252D

 29 33  0  0  0  0            999 V2000
    7.9182   -7.5072    0.0000 C   0  0
    7.9169   -8.3347    0.0000 C   0  0
    8.6298   -8.7477    0.0000 C   0  0
    8.6279   -7.0944    0.0000 C   0  0
    7.2033   -7.0953    0.0000 F   0  0
    8.6239   -6.2694    0.0000 C   0  0
    9.3459   -7.5032    0.0000 C   0  0
    9.3465   -8.3347    0.0000 C   0  0
   10.1376   -8.5912    0.0000 N   0  0
   10.6259   -7.9182    0.0000 C   0  0
   10.1367   -7.2458    0.0000 N   0  0
   11.4509   -7.9176    0.0000 C   0  0
   11.8592   -8.6331    0.0000 C   0  0
   12.6834   -8.6329    0.0000 C   0  0
   13.0962   -7.9176    0.0000 C   0  0
   12.6788   -7.2011    0.0000 C   0  0
   11.8560   -7.2049    0.0000 C   0  0
   11.4395   -6.4927    0.0000 C   0  0
   13.9212   -7.9160    0.0000 O   0  0
   14.3351   -8.6296    0.0000 C   0  0
   15.1601   -8.6280    0.0000 C   0  0
   15.5740   -9.3415    0.0000 C   0  0
   16.3990   -9.3399    0.0000 N   0  0
   17.1177   -8.9216    0.0000 C   0  0
   17.1159   -9.7473    0.0000 C   0  0
   17.9006  -10.0041    0.0000 C   0  0
   18.3874   -9.3371    0.0000 N   0  0
   17.9035   -8.6682    0.0000 C   0  0
   19.2123   -9.3389    0.0000 C   0  0
 13 14  1  0
  7  8  1  0
 14 15  2  0
  3  8  2  0
 15 16  1  0
  1  2  2  0
 16 17  2  0
 17 12  1  0
  7  4  2  0
 17 18  1  0
  4  1  1  0
 15 19  1  0
 19 20  1  0
  8  9  1  0
 20 21  1  0
  9 10  1  0
 21 22  1  0
 10 11  2  0
 22 23  1  0
 25 23  1  0
 23 24  1  0
 24 25  1  0
 11  7  1  0
  1  5  1  0
 10 12  1  0
  2  3  1  0
 12 13  2  0
 25 26  1  0
 26 27  1  0
 27 28  1  0
 28 24  1  0
  4  6  1  0
 27 29  1  0
M  END