
          11280715482D 1   1.00000     0.00000     0

 38 38  0     1  0            999 V2000
    0.4625   -1.9042    0.0000 C   0  0  0  0  0  0           0  0  0
   -0.0125   -2.3875    0.0000 C   0  0  0  0  0  0           0  0  0
    0.9375   -2.3917    0.0000 C   0  0  0  0  0  0           0  0  0
    0.4667   -2.8667    0.0000 C   0  0  0  0  0  0           0  0  0
    1.0417    1.1125    0.0000 C   0  0  0  0  0  0           0  0  0
    1.6250    0.7750    0.0000 N   0  0  3  0  0  0           0  0  0
    5.6792    1.1125    0.0000 C   0  0  0  0  0  0           0  0  0
    2.7792    0.7750    0.0000 C   0  0  0  0  0  0           0  0  0
    0.4667    0.7750    0.0000 O   0  0  0  0  0  0           0  0  0
    2.2042    1.1125    0.0000 C   0  0  0  0  0  0           0  0  0
    0.4667   -3.5417    0.0000 O   0  0  0  0  0  0           0  0  0
    1.6167   -2.3917    0.0000 O   0  0  0  0  0  0           0  0  0
    3.3667    1.1125    0.0000 N   0  0  0  0  0  0           0  0  0
    0.4625   -1.2292    0.0000 N   0  0  0  0  0  0           0  0  0
   -0.6875   -2.3875    0.0000 N   0  0  0  0  0  0           0  0  0
    1.0417    1.7833    0.0000 O   0  0  0  0  0  0           0  0  0
    5.6792    1.7833    0.0000 O   0  0  0  0  0  0           0  0  0
    2.7792    0.1083    0.0000 O   0  0  0  0  0  0           0  0  0
    5.1042    0.7750    0.0000 O   0  0  0  0  0  0           0  0  0
    6.2542    0.7833    0.0000 N   0  0  0  0  0  0           0  0  0
   -0.1125    1.1125    0.0000 C   0  0  0  0  0  0           0  0  0
    4.5250    1.1125    0.0000 C   0  0  0  0  0  0           0  0  0
   -1.2708    1.1208    0.0000 N   0  0  0  0  0  0           0  0  0
    2.7792   -1.9042    0.0000 N   0  0  0  0  0  0           0  0  0
    5.1000   -1.9042    0.0000 N   0  0  0  0  0  0           0  0  0
    3.9417    0.7750    0.0000 C   0  0  1  0  0  0           0  0  0
    1.6250    0.1083    0.0000 C   0  0  0  0  0  0           0  0  0
   -0.6958    0.7750    0.0000 C   0  0  1  0  0  0           0  0  0
   -0.1208   -0.9000    0.0000 C   0  0  0  0  0  0           0  0  0
    2.7792   -1.2292    0.0000 C   0  0  0  0  0  0           0  0  0
    5.1000   -1.2292    0.0000 C   0  0  0  0  0  0           0  0  0
    3.9417    0.1083    0.0000 C   0  0  0  0  0  0           0  0  0
   -0.6958    0.1083    0.0000 C   0  0  0  0  0  0           0  0  0
    2.1917   -0.2292    0.0000 C   0  0  0  0  0  0           0  0  0
   -0.1208   -0.2292    0.0000 C   0  0  0  0  0  0           0  0  0
    4.5167   -0.9000    0.0000 C   0  0  0  0  0  0           0  0  0
    2.1917   -0.9000    0.0000 C   0  0  0  0  0  0           0  0  0
    4.5167   -0.2292    0.0000 C   0  0  0  0  0  0           0  0  0
  2  1  1  0     0  0
  3  1  1  0     0  0
  4  3  2  0     0  0
  5  9  1  0     0  0
  6  5  1  0     0  0
  7 19  1  0     0  0
  8 10  1  0     0  0
  9 21  1  0     0  0
 10  6  1  0     0  0
 11  4  1  0     0  0
 12  3  1  0     0  0
 13  8  1  0     0  0
 14  1  2  0     0  0
 15  2  2  0     0  0
 16  5  2  0     0  0
 17  7  2  0     0  0
 18  8  2  0     0  0
 19 22  1  0     0  0
 20  7  1  0     0  0
 21 28  1  0     0  0
 22 26  1  0     0  0
 23 28  1  0     0  0
 24 30  1  0     0  0
 25 31  1  0     0  0
 26 13  1  0     0  0
 27  6  1  0     0  0
 28 33  1  6     0  0
 29 14  1  0     0  0
 30 37  1  0     0  0
 31 36  1  0     0  0
 26 32  1  1     0  0
 33 35  1  0     0  0
 34 27  1  0     0  0
 35 29  1  0     0  0
 36 38  1  0     0  0
 37 34  1  0     0  0
 38 32  1  0     0  0
  4  2  1  0     0  0
M  END