
  CDK    9/16/09,9:51

 28 31  0  0  0  0  0  0  0  0999 V2000
    8.9394    0.1522    0.0000 C   0  0  0  0  0  0  0  0  0  0  0  0
    8.5459   -0.5781    0.0000 N   0  0  0  0  0  0  0  0  0  0  0  0
    8.9792   -1.2801    0.0000 C   0  0  0  0  0  0  0  0  0  0  0  0
    9.8079   -1.2580    0.0000 C   0  0  0  0  0  0  0  0  0  0  0  0
   10.2014   -0.5277    0.0000 N   0  0  0  0  0  0  0  0  0  0  0  0
    9.7661    0.1806    0.0000 C   0  0  0  0  0  0  0  0  0  0  0  0
   11.0260   -0.5043    0.0000 C   0  0  0  0  0  0  0  0  0  0  0  0
   11.4587   -1.2067    0.0000 C   0  0  0  0  0  0  0  0  0  0  0  0
   11.1416   -1.9682    0.0000 C   0  0  0  0  0  0  0  0  0  0  0  0
   11.7702   -2.5026    0.0000 S   0  0  0  0  0  0  0  0  0  0  0  0
   12.4727   -2.0699    0.0000 C   0  0  0  0  0  0  0  0  0  0  0  0
   12.2783   -1.2682    0.0000 C   0  0  0  0  0  0  0  0  0  0  0  0
   12.8121   -0.6392    0.0000 C   0  0  0  0  0  0  0  0  0  0  0  0
   13.6238   -0.7871    0.0000 O   0  0  0  0  0  0  0  0  0  0  0  0
   12.5343    0.1376    0.0000 C   0  0  0  0  0  0  0  0  0  0  0  0
   13.0675    0.7633    0.0000 C   0  0  0  0  0  0  0  0  0  0  0  0
   12.7904    1.5396    0.0000 C   0  0  0  0  0  0  0  0  0  0  0  0
   11.9779    1.6881    0.0000 C   0  0  0  0  0  0  0  0  0  0  0  0
   11.4433    1.0542    0.0000 C   0  0  0  0  0  0  0  0  0  0  0  0
   11.7233    0.2804    0.0000 C   0  0  0  0  0  0  0  0  0  0  0  0
   11.6992    2.4646    0.0000 Cl  0  0  0  0  0  0  0  0  0  0  0  0
   13.2357   -2.3839    0.0000 N   0  0  0  0  0  0  0  0  0  0  0  0
    7.7212   -0.6024    0.0000 C   0  0  0  0  0  0  0  0  0  0  0  0
    7.2926    0.1019    0.0000 N   0  0  0  0  0  0  0  0  0  0  0  0
    6.4687    0.0779    0.0000 C   0  0  0  0  0  0  0  0  0  0  0  0
    7.3368   -1.3259    0.0000 N   0  0  0  0  0  0  0  0  0  0  0  0
    6.5145   -1.3533    0.0000 C   0  0  0  0  0  0  0  0  0  0  0  0
    6.0762   -0.6534    0.0000 C   0  0  0  0  0  0  0  0  0  0  0  0
 13 14  2  0  0  0  0 
  5  7  1  0  0  0  0 
 13 15  1  0  0  0  0 
  1  2  1  0  0  0  0 
 15 16  2  0  0  0  0 
  7  8  1  0  0  0  0 
 16 17  1  0  0  0  0 
  8  9  2  0  0  0  0 
 17 18  2  0  0  0  0 
  1  6  1  0  0  0  0 
 18 19  1  0  0  0  0 
  2  3  1  0  0  0  0 
 19 20  2  0  0  0  0 
 20 15  1  0  0  0  0 
  3  4  1  0  0  0  0 
 18 21  1  0  0  0  0 
  4  5  1  0  0  0  0 
 11 22  1  0  0  0  0 
  9 10  1  0  0  0  0 
  2 23  1  0  0  0  0 
 10 11  1  0  0  0  0 
 23 24  2  0  0  0  0 
 11 12  2  0  0  0  0 
 24 25  1  0  0  0  0 
 25 28  2  0  0  0  0 
 12  8  1  0  0  0  0 
 27 26  2  0  0  0  0 
 26 23  1  0  0  0  0 
 27 28  1  0  0  0  0 
  5  6  1  0  0  0  0 
 12 13  1  0  0  0  0 
M  END