
  SciTegic02271515152D

 93 93  0  0  0  0            999 V2000
    2.7759   -0.4725    0.0000 O   0  0
    2.8725   -2.8835    0.0000 C   0  0
    2.1590   -0.8283    0.0000 O   0  0
    2.1590   -3.3014    0.0000 C   0  0
    0.7263   -3.3014    0.0000 C   0  0
    1.4436   -2.8835    0.0000 C   0  0
    0.7263   -0.8283    0.0000 C   0  0
    0.0172   -2.8835    0.0000 O   0  0
   -2.1329   -0.8283    0.0000 C   0  0
   -1.4240    0.4186    0.0000 C   0  0
   -1.4240   -0.4180    0.0000 C   0  0
   -0.7093   -0.8283    0.0000 C   0  0
   -2.1329   -1.6481    0.0000 C   0  0
   -0.7082   -4.4838    0.0000 O   0  0
   -2.0959   -3.6136    0.0000 C   0  0
   -3.5134   -3.5778    0.0000 C   0  0
   -2.8211   -4.0066    0.0000 C   0  0
   -2.8350   -4.8301    0.0000 C   0  0
   -2.8463   -6.4990    0.0000 C   0  0
   -1.4240   -7.3192    0.0000 O   0  0
   -0.7093   -5.2596    0.0000 C   0  0
    0.7263   -5.2596    0.0000 O   0  0
    1.4436   -7.3192    0.0000 C   0  0
    2.8725   -7.3192    0.0000 O   0  0
    2.1590   -5.2596    0.0000 C   0  0
    2.8725   -4.0212    0.0000 C   0  0
    2.8725   -4.8493    0.0000 C   0  0
    3.5902   -5.2596    0.0000 C   0  0
    4.3004   -7.3192    0.0000 C   0  0
    5.0141   -5.2596    0.0000 O   0  0
    6.4452   -7.7417    0.0000 C   0  0
    5.0141   -7.7417    0.0000 C   0  0
    5.7321   -7.3192    0.0000 C   0  0
    7.1638   -7.3192    0.0000 O   0  0
    8.7057   -4.5950    0.0000 C   0  0
    8.5916   -2.8835    0.0000 O   0  0
    7.9054   -2.4461    0.0000 C   0  0
    7.8734   -1.6481    0.0000 C   0  0
    6.4452   -0.8283    0.0000 O   0  0
    4.3004   -2.8835    0.0000 O   0  0
    4.3004   -2.0629    0.0000 C   0  0
    6.4452   -3.3014    0.0000 C   0  0
    5.7321   -2.8835    0.0000 C   0  0
    5.7321   -2.0629    0.0000 C   0  0  1  0  0  0
    6.4452   -1.6481    0.0000 C   0  0
    7.1638   -2.0629    0.0000 N   0  0
    7.1638   -2.8835    0.0000 C   0  0  1  0  0  0
    7.8734   -3.3014    0.0000 C   0  0
    7.8734   -4.5950    0.0000 N   0  0
    8.5906   -7.3568    0.0000 C   0  0
    9.3051   -6.0887    0.0000 C   0  0
    8.5916   -6.4990    0.0000 C   0  0  2  0  0  0
    7.8734   -6.0887    0.0000 C   0  0  1  0  0  0
    7.1638   -6.4990    0.0000 C   0  0
    6.4452   -6.0887    0.0000 N   0  0
    5.7321   -6.4990    0.0000 C   0  0  2  0  0  0
    5.0141   -6.0887    0.0000 C   0  0
    4.3004   -6.4990    0.0000 N   0  0
    3.5902   -6.0887    0.0000 C   0  0  2  0  0  0
    2.8725   -6.4990    0.0000 C   0  0
    2.1590   -6.0887    0.0000 N   0  0
    1.4436   -6.4990    0.0000 C   0  0  2  0  0  0
    0.7263   -6.0887    0.0000 C   0  0
    0.0172   -6.4990    0.0000 N   0  0
   -0.7093   -6.0887    0.0000 C   0  0  1  0  0  0
   -1.4240   -6.4990    0.0000 C   0  0
   -2.1329   -6.0887    0.0000 N   0  0
   -2.1329   -5.2596    0.0000 C   0  0  2  0  0  0
   -1.4240   -4.8983    0.0000 C   0  0
   -1.4240   -2.0629    0.0000 N   0  0
   -0.7093   -1.6481    0.0000 C   0  0  2  0  0  0
    0.0172   -2.0629    0.0000 C   0  0
    0.7263   -1.6481    0.0000 N   0  0
    1.4436   -2.0629    0.0000 C   0  0  2  0  0  0
    2.1590   -1.6481    0.0000 C   0  0
    2.8725   -2.0629    0.0000 N   0  0
    3.5902   -1.6481    0.0000 C   0  0  1  0  0  0
    5.0141   -0.8283    0.0000 C   0  0
    2.8725    2.0729    0.0000 C   0  0
    3.5902    1.6584    0.0000 C   0  0
    3.5902    0.8415    0.0000 C   0  0
    4.3004    0.4185    0.0000 C   0  0
    4.3004   -0.4180    0.0000 C   0  0  2  0  0  0
    3.5902   -0.8283    0.0000 C   0  0  1  0  0  0
    5.0141   -1.6485    0.0000 N   0  0
   10.0486   -6.5198    0.0000 N   0  0
   10.0447   -7.3799    0.0000 C   0  0
   11.5315   -7.3861    0.0000 O   0  0
   11.5352   -6.5257    0.0000 C   0  0
   10.7911   -6.0900    0.0000 C   0  0
   12.2723   -7.8159    0.0000 C   0  0
    2.7241   -1.1483    0.0000 H   0  0
    7.8760   -7.0887    0.0000 H   0  0
 84 83  1  0
 77 84  1  0
 84  1  1  6
 83 82  1  0
 83 78  1  1
 82 81  1  0
 81 80  2  0
 80 79  1  0
 77 76  1  0
 77 41  1  0
 75 76  1  0
 76  2  1  0
 74 75  1  0
 75  3  2  0
 73 74  1  0
 74  6  1  6
 72 73  1  0
 73  7  1  0
 71 72  1  0
 72  8  2  0
 70 71  1  0
 71 12  1  1
 70 69  1  0
 70 13  1  0
 68 69  1  0
 69 14  2  0
 67 68  1  0
 68 18  1  1
 66 67  1  0
 67 19  1  0
 65 66  1  0
 66 20  2  0
 64 65  1  0
 65 21  1  1
 63 64  1  0
 62 63  1  0
 63 22  2  0
 61 62  1  0
 62 23  1  1
 60 61  1  0
 59 60  1  0
 60 24  2  0
 58 59  1  0
 59 28  1  6
 57 58  1  0
 58 29  1  0
 56 57  1  0
 57 30  2  0
 55 56  1  0
 56 33  1  1
 54 55  1  0
 54 53  1  0
 54 34  2  0
 53 52  1  0
 53 49  1  0
 52 51  1  0
 52 50  1  1
 48 49  1  0
 49 35  1  0
 47 48  1  0
 48 36  2  0
 46 47  1  0
 47 37  1  1
 45 46  1  0
 46 38  1  0
 44 45  1  0
 45 39  2  0
 44 43  1  6
 85 44  1  0
 43 42  1  0
 41 40  2  0
 41 85  1  0
 33 32  1  0
 33 31  1  0
 28 27  1  0
 27 26  1  0
 27 25  1  0
 18 17  1  0
 17 16  1  0
 17 15  1  0
 12 11  1  0
 11 10  1  0
 11  9  1  0
  6  5  1  0
  6  4  1  0
 51 86  1  0
 86 87  1  0
 86 90  1  0
 88 89  1  0
 89 90  1  0
 88 91  1  0
 77 92  1  6
 53 93  1  6
M  STY  1   1 SUP
M  SLB  1   1   1
M  SAL   1  1  85
M  SBL   1  2  69  72
M  SMT   1 N
M  END