
  SciTegic10311217562D

 48 45  0  0  0  0            999 V2000
   -3.7792    1.5042    0.0000 Na  0  3
    1.0446   -4.3459    0.0000 C   0  0
    1.7603   -3.9355    0.0000 C   0  0
    2.4736   -4.3501    0.0000 N   0  0
    3.1893   -3.9397    0.0000 C   0  0
    3.9025   -4.3543    0.0000 C   0  0
    3.1917   -3.1147    0.0000 O   0  0
    4.6182   -3.9439    0.0000 N   0  0
    5.3314   -4.3584    0.0000 C   0  0
    6.0471   -3.9480    0.0000 O   0  0
    5.3290   -5.1834    0.0000 C   0  0
    2.4786   -0.2334    0.0000 S   0  0
    3.1931   -0.6459    0.0000 O   0  5
    2.0585    0.4833    0.0000 O   0  0
    2.8835    0.4833    0.0000 O   0  0
   -0.3792   -1.8792    0.0000 C   0  0  2  0  0  0
   -0.3792   -2.7042    0.0000 C   0  0  1  0  0  0
    0.3329   -3.1125    0.0000 C   0  0  2  0  0  0
    1.0449   -2.7042    0.0000 O   0  0
    1.0449   -1.8792    0.0000 C   0  0  1  0  0  0
    0.3329   -1.4625    0.0000 C   0  0  1  0  0  0
   -1.0948   -1.4688    0.0000 O   0  0
   -1.0930   -3.1177    0.0000 O   0  0
    0.3329   -0.6375    0.0000 O   0  0
    0.3329   -3.9375    0.0000 O   0  0
   -0.3816   -0.2250    0.0000 S   0  0
   -1.0961   -0.6375    0.0000 O   0  5
   -0.8000    0.4916    0.0000 O   0  0
    0.0250    0.4916    0.0000 O   0  0
   -1.8081   -1.8834    0.0000 S   0  0
   -2.5238   -1.4730    0.0000 O   0  5
   -2.2250   -2.5959    0.0000 O   0  0
   -1.4000   -2.5959    0.0000 O   0  0
   -1.0918   -3.9427    0.0000 S   0  0
   -1.8057   -4.3563    0.0000 O   0  5
   -0.2708   -3.9417    0.0000 O   0  0
   -0.6875   -4.6542    0.0000 O   0  0
    1.7605   -1.4688    0.0000 C   0  0
    1.7630   -0.6438    0.0000 O   0  0
    4.6193   -3.1210    0.0000 C   0  0
    5.3366   -2.7112    0.0000 C   0  0
    5.3394   -1.8870    0.0000 C   0  0
    4.6256   -1.4716    0.0000 C   0  0
    3.9075   -1.8864    0.0000 C   0  0
    3.9083   -2.7093    0.0000 C   0  0
    4.3417    1.0667    0.0000 Na  0  3
   -3.0000   -4.6167    0.0000 Na  0  3
   -3.5917   -1.1208    0.0000 Na  0  3
 18 25  1  6
  6  8  1  0
 24 26  1  0
 12 15  2  0
 26 27  1  0
  4  5  1  0
 26 28  2  0
 16 17  1  0
 26 29  2  0
  8  9  1  0
 22 30  1  0
 30 31  1  0
  9 10  2  0
 30 32  2  0
  5  6  1  0
 30 33  2  0
  9 11  1  0
  3  4  1  0
 23 34  1  0
 16 21  1  0
 34 35  1  0
 17 18  1  0
 34 36  2  0
 18 19  1  0
 34 37  2  0
 19 20  1  0
 20 21  1  0
 20 38  1  1
  5  7  2  0
 38 39  1  0
 39 12  1  0
 25  2  1  0
 16 22  1  1
 12 13  1  0
 40 41  2  0
 17 23  1  1
 41 42  1  0
  2  3  1  0
 42 43  2  0
 21 24  1  6
 43 44  1  0
 12 14  2  0
 44 45  2  0
 45 40  1  0
  8 40  1  0
M  CHG  8   1   1  13  -1  27  -1  31  -1  35  -1  46   1  47   1  48   1
M  END