
  SciTegic12231509382D

 30 33  0  0  0  0            999 V2000
    6.3284   -5.2953    0.0000 C   0  0
    7.1952   -5.7940    0.0000 O   0  0
    8.0605   -5.2928    0.0000 C   0  0
    8.9284   -5.7905    0.0000 C   0  0
    9.7976   -5.2928    0.0000 C   0  0
   10.6643   -5.7917    0.0000 C   0  0
   10.6642   -6.7917    0.0000 N   0  0
   11.5302   -7.2917    0.0000 C   0  0
   11.5315   -8.2918    0.0000 C   0  0
   12.3954   -8.7956    0.0000 C   0  0
   13.2667   -8.2943    0.0000 C   0  0
   14.1304   -8.7982    0.0000 Br  0  0
   13.2741   -7.2892    0.0000 C   0  0
   12.4015   -6.7905    0.0000 C   0  0
   12.4000   -5.7905    0.0000 F   0  0
   11.5353   -5.2905    0.0000 N   0  0
   11.5340   -4.2849    0.0000 C   0  0
   10.6617   -3.7805    0.0000 N   0  0
    9.7963   -4.2872    0.0000 C   0  0
    8.9284   -3.7793    0.0000 C   0  0
    8.0605   -4.2872    0.0000 C   0  0
    7.1930   -3.7897    0.0000 O   0  0
    6.3284   -4.2922    0.0000 C   0  0
    5.4609   -3.7948    0.0000 C   0  0
    4.5978   -4.2999    0.0000 C   0  0
    3.7258   -3.7998    0.0000 C   0  0
    3.7169   -2.7947    0.0000 N   0  0
    2.8494   -2.2973    0.0000 C   0  0
    4.5889   -2.2947    0.0000 C   0  0
    5.4609   -2.7948    0.0000 C   0  0
  1  2  1  0
  2  3  1  0
  3 21  2  0
  3  4  1  0
  4  5  2  0
  5 19  1  0
  5  6  1  0
  6  7  1  0
  7  8  1  0
  8 14  2  0
  8  9  1  0
  9 10  2  0
 10 11  1  0
 11 12  1  0
 11 13  2  0
 13 14  1  0
 14 15  1  0
  6 16  2  0
 16 17  1  0
 17 18  2  0
 18 19  1  0
 19 20  2  0
 20 21  1  0
 21 22  1  0
 22 23  1  0
 23 24  1  0
 24 30  1  0
 24 25  1  0
 25 26  1  0
 26 27  1  0
 27 28  1  0
 27 29  1  0
 29 30  1  0
M  END