
  SciTegic09261414482D

 21 22  0  0  0  0            999 V2000
    9.4615   -9.7686    0.0000 C   0  0
   10.1778   -9.3553    0.0000 C   0  0
   10.1750   -8.5248    0.0000 C   0  0
    9.4597   -8.1157    0.0000 C   0  0
   10.8879   -8.1096    0.0000 O   0  0
   11.6038   -8.5195    0.0000 C   0  0
   12.3167   -8.1043    0.0000 C   0  0
   13.0326   -8.5140    0.0000 C   0  0
   12.3136   -7.2793    0.0000 O   0  0
   13.7455   -8.0989    0.0000 N   0  0
   14.4615   -8.5087    0.0000 C   0  0
   15.1744   -8.0935    0.0000 C   0  0
   14.4646   -9.3336    0.0000 C   0  0
    8.7493   -8.5289    0.0000 C   0  0
    8.7467   -9.3557    0.0000 C   0  0
    8.0959   -9.8750    0.0000 C   0  0
    8.0987   -8.0093    0.0000 O   0  0
    7.2865   -9.6937    0.0000 N   0  0
    7.2876   -8.1947    0.0000 C   0  0
    6.9290   -8.9452    0.0000 C   0  0
    8.2811  -10.6790    0.0000 O   0  0
 15  1  1  0
  1  2  2  0
  2  3  1  0
  3  4  2  0
  4 14  1  0
  3  5  1  0
  5  6  1  0
  6  7  1  0
  7  8  1  0
  7  9  1  0
  8 10  1  0
 10 11  1  0
 11 12  1  0
 11 13  1  0
 14 15  2  0
 15 16  1  0
 14 17  1  0
 16 18  1  0
 17 19  1  0
 18 20  1  0
 19 20  1  0
 16 21  2  0
M  END