
  SciTegic02271515152D

 32 35  0  0  0  0            999 V2000
   15.5143   -4.2015    0.0000 C   0  0
   16.2220   -3.7929    0.0000 N   0  0
   16.9297   -4.2015    0.0000 C   0  0
   17.6374   -3.7929    0.0000 C   0  0
   16.9297   -5.0187    0.0000 O   0  0
   18.3451   -4.2015    0.0000 C   0  0
   17.6374   -2.9757    0.0000 C   0  0
   17.6374   -2.1559    0.0000 N   0  0
   19.0520   -3.7932    0.0000 C   0  0
   14.7406   -3.9248    0.0000 S   0  0
   14.2411   -4.5716    0.0000 C   0  0
   14.7019   -5.2465    0.0000 N   0  0
   15.4861   -5.0168    0.0000 N   0  0
   20.1995   -3.1338    0.0000 N   0  0
   19.3865   -3.0487    0.0000 C   0  0
   20.3691   -3.9334    0.0000 C   0  0
   19.6613   -4.3397    0.0000 C   0  0
   19.6602   -5.1539    0.0000 C   0  0
   20.3663   -5.5629    0.0000 C   0  0
   21.0748   -5.1516    0.0000 C   0  0
   21.0724   -4.3387    0.0000 C   0  0
   20.6071   -2.4255    0.0000 C   0  0
   21.4243   -2.4243    0.0000 C   0  0
   21.8295   -3.1321    0.0000 C   0  0
   22.6459   -3.1312    0.0000 C   0  0
   23.0543   -2.4224    0.0000 C   0  0
   22.6403   -1.7129    0.0000 C   0  0
   21.8252   -1.7173    0.0000 C   0  0
   13.4242   -4.5477    0.0000 C   0  0
   13.0365   -3.8283    0.0000 F   0  0
   12.9951   -5.2431    0.0000 F   0  0
   12.6046   -4.5400    0.0000 F   0  0
  1  2  1  0
  2  3  1  0
  3  4  1  0
  3  5  2  0
  4  6  2  0
  4  7  1  0
  7  8  3  0
  6  9  1  0
  1 10  1  0
 10 11  1  0
 11 12  2  0
 12 13  1  0
 13  1  2  0
  9 17  1  0
 16 14  1  0
 14 15  1  0
 15  9  2  0
 16 17  2  0
 17 18  1  0
 18 19  2  0
 19 20  1  0
 20 21  2  0
 21 16  1  0
 14 22  1  0
 22 23  1  0
 23 24  2  0
 24 25  1  0
 25 26  2  0
 26 27  1  0
 27 28  2  0
 28 23  1  0
 11 29  1  0
 29 30  1  0
 29 31  1  0
 29 32  1  0
M  END