
          11280715122D 1   1.00000     0.00000     0

 32 35  0     0  0            999 V2000
    4.8250   -3.5417    0.0000 C   0  0  0  0  0  0           0  0  0
    4.8250   -4.3667    0.0000 C   0  0  0  0  0  0           0  0  0
    7.8292   -8.7000    0.0000 C   0  0  0  0  0  0           0  0  0
    7.3000   -9.9250    0.0000 N   0  0  0  0  0  0           0  0  0
    8.0125   -9.5042    0.0000 N   0  0  0  0  0  0           0  0  0
    6.6875   -9.3917    0.0000 N   0  0  0  0  0  0           0  0  0
    4.1042   -4.7792    0.0000 N   0  0  0  0  0  0           0  0  0
    7.0167   -8.6167    0.0000 N   0  0  0  0  0  0           0  0  0
    8.3792   -8.0792    0.0000 C   0  0  0  0  0  0           0  0  0
    5.5375   -4.7792    0.0000 N   0  0  3  0  0  0           0  0  0
    5.5417   -3.1167    0.0000 C   0  0  0  0  0  0           0  0  0
    8.3792   -7.2542    0.0000 C   0  0  0  0  0  0           0  0  0
    4.1042   -3.1292    0.0000 C   0  0  0  0  0  0           0  0  0
    7.6750   -6.8417    0.0000 C   0  0  0  0  0  0           0  0  0
    5.5292   -5.6042    0.0000 C   0  0  0  0  0  0           0  0  0
    5.5417   -2.2917    0.0000 O   0  0  0  0  0  0           0  0  0
    3.3917   -4.3667    0.0000 C   0  0  0  0  0  0           0  0  0
    7.6667   -6.0167    0.0000 C   0  0  0  0  0  0           0  0  0
    6.9542   -7.2542    0.0000 C   0  0  0  0  0  0           0  0  0
    3.3917   -3.5417    0.0000 C   0  0  0  0  0  0           0  0  0
    6.2500   -6.0167    0.0000 C   0  0  0  0  0  0           0  0  0
    6.2667   -3.5292    0.0000 O   0  0  0  0  0  0           0  0  0
    6.2417   -6.8417    0.0000 C   0  0  0  0  0  0           0  0  0
    6.9542   -5.6042    0.0000 C   0  0  0  0  0  0           0  0  0
    2.6792   -3.1292    0.0000 Cl  0  0  0  0  0  0           0  0  0
    6.2417   -4.3667    0.0000 C   0  0  0  0  0  0           0  0  0
    9.0917   -8.4917    0.0000 C   0  0  0  0  0  0           0  0  0
    9.0917   -6.8417    0.0000 C   0  0  0  0  0  0           0  0  0
    6.9542   -4.7792    0.0000 C   0  0  0  0  0  0           0  0  0
    9.8125   -8.0792    0.0000 C   0  0  0  0  0  0           0  0  0
    9.8042   -7.2542    0.0000 C   0  0  0  0  0  0           0  0  0
    7.6625   -4.3750    0.0000 C   0  0  0  0  0  0           0  0  0
  2  1  1  0     0  0
  3  9  1  0     0  0
  4  5  2  0     0  0
  5  3  1  0     0  0
  6  8  1  0     0  0
  7  2  2  0     0  0
  8  3  2  0     0  0
  9 12  2  0     0  0
 10  2  1  0     0  0
 11  1  1  0     0  0
 12 14  1  0     0  0
 13  1  2  0     0  0
 14 18  2  0     0  0
 15 10  1  0     0  0
 16 11  2  0     0  0
 17 20  2  0     0  0
 18 24  1  0     0  0
 19 23  2  0     0  0
 20 13  1  0     0  0
 21 15  1  0     0  0
 22 11  1  0     0  0
 23 21  1  0     0  0
 24 21  2  0     0  0
 25 20  1  0     0  0
 26 10  1  0     0  0
 27  9  1  0     0  0
 28 12  1  0     0  0
 29 26  1  0     0  0
 30 31  1  0     0  0
 31 28  2  0     0  0
 32 29  1  0     0  0
 17  7  1  0     0  0
 19 14  1  0     0  0
 27 30  2  0     0  0
  6  4  1  0     0  0
M  END