
          11280715162D 1   1.00000     0.00000     0

 28 30  0     0  0            999 V2000
    3.5667   -3.2167    0.0000 C   0  0  0  0  0  0           0  0  0
    3.5667   -4.0375    0.0000 C   0  0  0  0  0  0           0  0  0
    4.9917   -3.2125    0.0000 C   0  0  0  0  0  0           0  0  0
    5.7042   -2.7917    0.0000 C   0  0  0  0  0  0           0  0  0
    4.2792   -2.8042    0.0000 C   0  0  0  0  0  0           0  0  0
    4.2792   -4.4417    0.0000 C   0  0  0  0  0  0           0  0  0
    4.9917   -4.0375    0.0000 C   0  0  0  0  0  0           0  0  0
    2.8542   -2.8000    0.0000 C   0  0  3  0  0  0           0  0  0
    2.8542   -4.4417    0.0000 C   0  0  3  0  0  0           0  0  0
    8.5625   -4.4375    0.0000 C   0  0  0  0  0  0           0  0  0
    6.4167   -3.2042    0.0000 C   0  0  0  0  0  0           0  0  0
    7.8417   -4.0292    0.0000 C   0  0  0  0  0  0           0  0  0
    5.7042   -1.9667    0.0000 C   0  0  0  0  0  0           0  0  0
    2.1500   -4.0417    0.0000 C   0  0  0  0  0  0           0  0  0
    2.1500   -3.2167    0.0000 C   0  0  0  0  0  0           0  0  0
    8.5667   -5.2625    0.0000 O   0  0  0  0  0  0           0  0  0
    6.4167   -4.0292    0.0000 C   0  0  0  0  0  0           0  0  0
    7.1250   -2.7917    0.0000 C   0  0  0  0  0  0           0  0  0
    7.8417   -3.2000    0.0000 C   0  0  0  0  0  0           0  0  0
    7.1292   -4.4417    0.0000 C   0  0  0  0  0  0           0  0  0
    9.2750   -4.0167    0.0000 O   0  0  0  0  0  0           0  0  0
    5.7042   -4.4417    0.0000 C   0  0  0  0  0  0           0  0  0
    3.4417   -2.2125    0.0000 C   0  0  0  0  0  0           0  0  0
    2.2667   -5.0292    0.0000 C   0  0  0  0  0  0           0  0  0
    3.4417   -5.0292    0.0000 C   0  0  0  0  0  0           0  0  0
    2.2667   -2.2125    0.0000 C   0  0  0  0  0  0           0  0  0
    5.7042   -5.2750    0.0000 C   0  0  0  0  0  0           0  0  0
    6.4250   -5.6875    0.0000 C   0  0  0  0  0  0           0  0  0
  2  1  2  0     0  0
  3  5  2  0     0  0
  4  3  1  0     0  0
  5  1  1  0     0  0
  6  2  1  0     0  0
  7  3  1  0     0  0
  8  1  1  0     0  0
  9  2  1  0     0  0
 10 12  1  0     0  0
 11  4  1  0     0  0
 12 19  1  0     0  0
 13  4  2  0     0  0
 14 15  1  0     0  0
 15  8  1  0     0  0
 16 10  2  0     0  0
 17 11  2  0     0  0
 18 11  1  0     0  0
 19 18  2  0     0  0
 20 17  1  0     0  0
 21 10  1  0     0  0
 22  7  1  0     0  0
 23  8  1  0     0  0
 24  9  1  0     0  0
 25  9  1  0     0  0
 26  8  1  0     0  0
 27 22  1  0     0  0
 28 27  1  0     0  0
  9 14  1  0     0  0
  6  7  2  0     0  0
 20 12  2  0     0  0
M  END