
  SciTegic01181116592D

 24 27  0  0  0  0            999 V2000
    9.3119   -3.5526    0.0000 C   0  0
   10.0453   -3.2145    0.0000 N   0  0
    9.4604   -2.8063    0.0000 C   0  0
   10.8680   -3.5634    0.0000 C   0  0  2  0  0  0
    9.9083   -2.1934    0.0000 C   0  0
   10.1849   -2.4812    0.0000 C   0  0
   10.9718   -2.8238    0.0000 C   0  0  1  0  0  0
   10.1472   -1.5997    0.0000 C   0  0
   11.6923   -2.4205    0.0000 N   0  0
   11.2748   -4.2819    0.0000 C   0  0
   10.8559   -4.9935    0.0000 C   0  0
   10.0309   -4.9828    0.0000 C   0  0
    9.6122   -5.6935    0.0000 C   0  0
   10.0190   -6.4130    0.0000 C   0  0
   10.8489   -6.4174    0.0000 N   0  0
   11.2640   -5.7060    0.0000 C   0  0
   12.4018   -2.8428    0.0000 C   0  0
   12.3908   -3.6684    0.0000 O   0  0
   13.1223   -2.4394    0.0000 C   0  0
   13.8284   -2.8616    0.0000 C   0  0
   14.5484   -2.4590    0.0000 C   0  0
   14.5598   -1.6325    0.0000 C   0  0
   13.8453   -1.2102    0.0000 C   0  0
   13.1282   -1.6153    0.0000 C   0  0
  2  4  1  0
 11 12  2  0
  2  5  1  0
 12 13  1  0
  3  6  1  0
 13 14  2  0
  4  7  1  0
 14 15  1  0
  5  8  1  0
 15 16  2  0
 16 11  1  0
  6  7  1  0
  9 17  1  0
  6  8  1  0
 17 18  2  0
 17 19  1  0
  7  9  1  1
 19 20  2  0
  1  2  1  0
 20 21  1  0
  4 10  1  6
 21 22  2  0
  1  3  1  0
 22 23  1  0
 10 11  1  0
 23 24  2  0
 24 19  1  0
M  END