
          11280715482D 1   1.00000     0.00000     0

 37 43  0     0  0            999 V2000
    4.1250   -0.9667    0.0000 C   0  0  0  0  0  0           0  0  0
    3.3667   -0.6250    0.0000 N   0  0  0  0  0  0           0  0  0
    2.8167   -1.2375    0.0000 C   0  0  0  0  0  0           0  0  0
    4.0292   -1.7875    0.0000 C   0  0  0  0  0  0           0  0  0
    3.2167   -1.9542    0.0000 N   0  0  0  0  0  0           0  0  0
    4.8417   -0.5542    0.0000 C   0  0  0  0  0  0           0  0  0
    1.9917   -1.1417    0.0000 C   0  0  3  0  0  0           0  0  0
    5.0667   -3.7042    0.0000 C   0  0  3  0  0  0           0  0  0
    5.5542   -0.9750    0.0000 N   0  0  0  0  0  0           0  0  0
    8.4042   -1.0000    0.0000 C   0  0  0  0  0  0           0  0  0
    7.6917   -0.5792    0.0000 C   0  0  0  0  0  0           0  0  0
    5.6750   -5.1917    0.0000 C   0  0  3  0  0  0           0  0  0
    6.3792   -4.0417    0.0000 C   0  0  3  0  0  0           0  0  0
    5.2500   -4.9625    0.0000 C   0  0  3  0  0  0           0  0  0
    4.8417    0.2708    0.0000 O   0  0  0  0  0  0           0  0  0
    4.6375   -2.3417    0.0000 C   0  0  0  0  0  0           0  0  0
    6.2667   -0.5667    0.0000 C   0  0  0  0  0  0           0  0  0
    6.9792   -0.9917    0.0000 C   0  0  0  0  0  0           0  0  0
    4.7042   -4.3792    0.0000 C   0  0  0  0  0  0           0  0  0
    5.8292   -3.4292    0.0000 C   0  0  0  0  0  0           0  0  0
    5.1000   -4.5667    0.0000 C   0  0  0  0  0  0           0  0  0
    8.4000   -1.8250    0.0000 O   0  0  0  0  0  0           0  0  0
    2.4250   -0.4542    0.0000 C   0  0  0  0  0  0           0  0  0
    2.2417   -2.0042    0.0000 C   0  0  0  0  0  0           0  0  0
    1.0042   -0.8792    0.0000 C   0  0  0  0  0  0           0  0  0
    4.4625   -3.1500    0.0000 C   0  0  0  0  0  0           0  0  0
    6.4375   -4.9125    0.0000 C   0  0  0  0  0  0           0  0  0
    5.2292   -5.9000    0.0000 C   0  0  0  0  0  0           0  0  0
    5.9500   -4.6792    0.0000 C   0  0  0  0  0  0           0  0  0
    9.1250   -0.5917    0.0000 O   0  0  0  0  0  0           0  0  0
    0.3875   -1.0417    0.0000 C   0  0  0  0  0  0           0  0  0
    1.6625   -0.5125    0.0000 C   0  0  0  0  0  0           0  0  0
    1.5000   -2.0167    0.0000 C   0  0  0  0  0  0           0  0  0
    1.2542   -1.1917    0.0000 C   0  0  3  0  0  0           0  0  0
    7.7000    0.2458    0.0000 C   0  0  0  0  0  0           0  0  0
    6.9792    0.6583    0.0000 C   0  0  0  0  0  0           0  0  0
    6.2667    0.2500    0.0000 C   0  0  0  0  0  0           0  0  0
  2  1  1  0     0  0
  3  2  1  0     0  0
  4  1  2  0     0  0
  5  4  1  0     0  0
  6  1  1  0     0  0
  7  3  1  0     0  0
  8 26  1  0     0  0
  9  6  1  0     0  0
 10 11  1  0     0  0
 11 18  2  0     0  0
 12 21  1  0     0  0
 13 20  1  0     0  0
 14 19  1  0     0  0
 15  6  2  0     0  0
 16  4  1  0     0  0
 17  9  1  0     0  0
 18 17  1  0     0  0
 19  8  1  0     0  0
 20  8  1  0     0  0
 21  8  1  0     0  0
 22 10  2  0     0  0
 23  7  1  0     0  0
 24  7  1  0     0  0
 25  7  1  0     0  0
 26 16  1  0     0  0
 27 12  1  0     0  0
 28 12  1  0     0  0
 29 13  1  0     0  0
 30 10  1  0     0  0
 31 25  1  0     0  0
 32 23  1  0     0  0
 33 24  1  0     0  0
 34 31  1  0     0  0
 35 36  2  0     0  0
 36 37  1  0     0  0
 37 17  2  0     0  0
  3  5  2  0     0  0
 11 35  1  0     0  0
 32 34  1  0     0  0
 34 33  1  0     0  0
 14 28  1  0     0  0
 13 27  1  0     0  0
 14 29  1  0     0  0
M  END