
  SciTegic01091216402D

 25 27  0  0  0  0            999 V2000
    6.1078   -3.8566    0.0000 N   0  0
    6.1160   -4.6790    0.0000 N   0  0
    6.9065   -4.9262    0.0000 C   0  0
    7.3839   -4.2519    0.0000 C   0  0
    6.8904   -3.5909    0.0000 C   0  0
    5.4336   -3.3791    0.0000 C   0  0
    4.7221   -3.7916    0.0000 N   0  0
    5.4336   -2.5542    0.0000 N   0  0
    8.2063   -4.2437    0.0000 C   0  0
    8.6265   -4.9556    0.0000 C   0  0
    6.1494   -2.1418    0.0000 C   0  0
    6.8653   -2.5542    0.0000 C   0  0
    4.0063   -3.3791    0.0000 S   0  0
    4.4187   -2.6633    0.0000 O   0  0
    2.0143   -4.1742    0.0000 C   0  0
    2.4834   -4.8499    0.0000 C   0  0
    3.2725   -4.6092    0.0000 C   0  0
    3.2892   -3.7885    0.0000 C   0  0
    2.5089   -3.5160    0.0000 S   0  0
    2.1331   -5.5967    0.0000 C   0  0
    1.3137   -5.6679    0.0000 C   0  0
    0.8408   -4.9905    0.0000 C   0  0
    1.1911   -4.2436    0.0000 C   0  0
    3.9327   -5.1093    0.0000 C   0  0
    0.9633   -6.4147    0.0000 Cl  0  0
  1  2  1  0
  2  3  2  0
  3  4  1  0
  4  5  1  0
  1  5  1  0
  6  7  2  0
  6  8  1  0
  1  6  1  0
  9 10  1  0
  4  9  1  0
 11 12  1  0
  8 11  1  0
 13 14  2  0
 15 16  1  0
 16 17  1  0
 17 18  2  0
 18 19  1  0
 15 19  1  0
 20 21  1  0
 21 22  2  0
 22 23  1  0
 15 23  2  0
 16 20  2  0
 13 18  1  0
 17 24  1  0
 21 25  1  0
  7 13  1  0
M  END