
  SciTegic12011114592D

 38 43  0  0  0  0            999 V2000
    6.9746  -15.6497    0.0000 N   0  0
    7.6898  -15.2399    0.0000 C   0  0
    7.6926  -14.4141    0.0000 N   0  0
    6.9744  -13.9996    0.0000 C   0  0
    6.9739  -13.1746    0.0000 N   0  0
    7.6885  -12.7616    0.0000 C   0  0
    8.4028  -15.6549    0.0000 S   0  0
    9.1187  -15.2448    0.0000 C   0  0
    9.8276  -15.6629    0.0000 C   0  0
   10.5429  -15.2535    0.0000 C   0  0
   10.5462  -14.4276    0.0000 C   0  0
    9.8281  -14.0128    0.0000 C   0  0
    9.1157  -14.4246    0.0000 C   0  0
   11.2615  -14.0166    0.0000 N   0  0
    8.4742  -13.0097    0.0000 C   0  0
    8.9533  -12.3381    0.0000 C   0  0
    8.4625  -11.6749    0.0000 N   0  0
    7.6802  -11.9366    0.0000 N   0  0
    9.7782  -12.3309    0.0000 C   0  0
    5.4878  -14.1605    0.0000 C   0  0
    5.0067  -14.8216    0.0000 C   0  0
    5.4869  -15.4834    0.0000 C   0  0
    6.2647  -15.2313    0.0000 N   0  0
    6.2653  -14.4136    0.0000 C   0  0
   11.9751  -14.4306    0.0000 C   0  0
   12.6905  -14.0196    0.0000 C   0  0
   13.4040  -14.4340    0.0000 N   0  0
   11.9734  -15.2556    0.0000 O   0  0
   13.3954  -15.2545    0.0000 C   0  0
   14.1772  -15.5179    0.0000 C   0  0  1  0  0  0
   14.6694  -14.8557    0.0000 C   0  0  2  0  0  0
   14.1916  -14.1831    0.0000 C   0  0
   15.4943  -14.8646    0.0000 O   0  0
   14.4236  -16.3052    0.0000 O   0  0
   15.2287  -16.4855    0.0000 C   0  0
   15.4751  -17.2728    0.0000 C   0  0
   15.2970  -18.0783    0.0000 C   0  0
   16.0844  -17.8319    0.0000 C   0  0
 16 17  1  0
 18  6  2  0
  3  4  2  0
 16 19  1  0
 23 24  1  0
  8  9  2  0
  4 24  1  0
 21 22  2  0
  9 10  1  0
  1  2  2  0
 10 11  2  0
 20 21  1  0
 22 23  1  0
 24 20  2  0
  4  5  1  0
 14 25  1  0
 11 12  1  0
 25 26  1  0
 23  1  1  0
 26 27  1  0
 12 13  2  0
 25 28  2  0
 27 29  1  0
 13  8  1  0
  5  6  1  0
 11 14  1  0
 17 18  1  0
 29 30  1  0
 30 31  1  0
 31 32  1  0
 32 27  1  0
  2  3  1  0
 31 33  1  6
 15 16  2  0
 30 34  1  1
  2  7  1  0
 34 35  1  0
 35 36  1  0
 37 36  1  0
 38 37  1  0
 36 38  1  0
  7  8  1  0
  6 15  1  0
M  END