
  SciTegic02011310422D

 22 25  0  0  0  0            999 V2000
    7.9514  -11.6802    0.0000 C   0  0
    8.6698  -12.0883    0.0000 C   0  0
    9.3810  -11.6702    0.0000 C   0  0
    9.3738  -10.8440    0.0000 C   0  0
    8.6554  -10.4359    0.0000 C   0  0
    7.9442  -10.8540    0.0000 C   0  0
   11.5320  -12.8873    0.0000 C   0  0
   11.5269  -12.0647    0.0000 C   0  0
   10.8085  -11.6566    0.0000 C   0  0
   10.0973  -12.0747    0.0000 C   0  0
   10.1045  -12.9009    0.0000 C   0  0
   10.8207  -13.3054    0.0000 N   0  0
   12.3211  -13.1384    0.0000 N   0  0
   12.3127  -11.8027    0.0000 C   0  0
   12.8004  -12.4650    0.0000 C   0  0
   12.7330  -11.0931    0.0000 C   0  0
   13.5574  -11.1022    0.0000 C   0  0
   13.9784  -10.3926    0.0000 C   0  0
   13.5750   -9.6738    0.0000 N   0  0
   12.7506   -9.6647    0.0000 C   0  0
   12.3297  -10.3743    0.0000 C   0  0
    7.2402  -12.1015    0.0000 N   0  0
  1  2  1  0
  2  3  2  0
  3  4  1  0
  4  5  2  0
  5  6  1  0
  1  6  2  0
  7  8  1  0
  8  9  2  0
  9 10  1  0
 10 11  2  0
 11 12  1  0
  7 12  2  0
 14 15  2  0
 13 15  1  0
  7 13  1  0
  8 14  1  0
 16 17  1  0
 17 18  2  0
 18 19  1  0
 19 20  2  0
 20 21  1  0
 16 21  2  0
 14 16  1  0
  3 10  1  0
  1 22  1  0
M  END