
  SciTegic05191616112D

 36 37  0  0  0  0            999 V2000
   28.3659   -5.4209    0.0000 C   0  0
   28.3647   -6.2483    0.0000 C   0  0
   29.0796   -6.6612    0.0000 C   0  0
   29.7960   -6.2479    0.0000 C   0  0
   29.7932   -5.4173    0.0000 C   0  0
   29.0778   -5.0081    0.0000 C   0  0
   27.6512   -5.0086    0.0000 O   0  0
   26.9369   -5.4212    0.0000 C   0  0
   26.2223   -5.0089    0.0000 C   0  0
   25.5079   -5.4216    0.0000 O   0  0
   24.7933   -5.0092    0.0000 C   0  0
   24.0789   -5.4219    0.0000 C   0  0
   23.2577   -5.4233    0.0000 C   0  0
   23.6704   -6.1376    0.0000 C   0  0
   30.5112   -6.6592    0.0000 O   0  0
   31.2249   -6.2456    0.0000 C   0  0
   31.9401   -6.6570    0.0000 C   0  0
   32.6539   -6.2433    0.0000 C   0  0
   31.9414   -7.4820    0.0000 O   0  0
   33.3691   -6.6547    0.0000 N   0  0
   34.0830   -6.2411    0.0000 C   0  0
   34.7980   -6.6525    0.0000 C   0  0
   35.5119   -6.2389    0.0000 N   0  0
   36.2270   -6.6503    0.0000 C   0  0
   36.9409   -6.2366    0.0000 N   0  0
   36.2283   -7.4752    0.0000 O   0  0
   37.6560   -6.6480    0.0000 C   0  0
   37.6535   -7.4721    0.0000 C   0  0
   38.3678   -7.8834    0.0000 C   0  0
   39.0827   -7.4697    0.0000 C   0  0
   39.0787   -6.6404    0.0000 C   0  0
   38.3638   -6.2328    0.0000 C   0  0
   39.7983   -7.8802    0.0000 O   0  0
   29.3399   -9.6313    0.0000 C   0  0
   30.0543  -10.0438    0.0000 O   0  0
   29.3399   -8.8062    0.0000 O   0  0
  1  2  2  0
  2  3  1  0
  3  4  2  0
  4  5  1  0
  5  6  2  0
  6  1  1  0
  1  7  1  0
  7  8  1  0
  8  9  1  0
  9 10  1  0
 10 11  1  0
 11 12  1  0
 13 12  1  0
 14 13  1  0
 12 14  1  0
  4 15  1  0
 15 16  1  0
 16 17  1  0
 17 18  1  0
 17 19  1  0
 18 20  1  0
 20 21  1  0
 21 22  1  0
 22 23  1  0
 23 24  1  0
 24 25  1  0
 24 26  2  0
 25 27  1  0
 27 28  2  0
 28 29  1  0
 29 30  2  0
 30 31  1  0
 31 32  2  0
 32 27  1  0
 30 33  1  0
 34 35  1  0
 34 36  2  0
M  END