
  SciTegic11201309402D

 50 53  0  0  0  0            999 V2000
    1.7767  -13.5318    0.0000 N   0  0
    1.7690  -14.3575    0.0000 C   0  0  2  0  0  0
    2.5575  -14.6176    0.0000 C   0  0
    3.0349  -13.9489    0.0000 C   0  0
    2.5610  -13.2846    0.0000 C   0  0
   -1.8026  -12.3185    0.0000 N   0  0
   -1.0891  -11.9035    0.0000 C   0  0  2  0  0  0
   -0.3808  -12.3123    0.0000 C   0  0
   -1.0998  -11.0778    0.0000 C   0  0
   -0.3893  -10.6659    0.0000 C   0  0
   -0.3936   -9.8403    0.0000 C   0  0
    0.3205   -9.4182    0.0000 C   0  0
    0.3126   -8.5926    0.0000 O   0  0
    1.0337   -9.8319    0.0000 O   0  0
   -0.3680  -13.1327    0.0000 O   0  0
    0.3382  -11.8951    0.0000 N   0  0
    1.0567  -12.2940    0.0000 C   0  0  2  0  0  0
   -1.7898  -13.1442    0.0000 C   0  0
   -2.5046  -13.5581    0.0000 C   0  0  1  0  0  0
   -1.0814  -13.5478    0.0000 O   0  0
   -2.4633  -14.3862    0.0000 N   0  0
   -3.1091  -14.9037    0.0000 C   0  0  1  0  0  0
   -2.8080  -15.6710    0.0000 C   0  0
   -1.9875  -15.6319    0.0000 C   0  0  1  0  0  0
   -1.7683  -14.8297    0.0000 C   0  0
   -3.2272  -13.1526    0.0000 C   0  0
   -3.2315  -12.3334    0.0000 C   0  0
   -2.5615  -11.8385    0.0000 C   0  0
   -2.8287  -11.0572    0.0000 N   0  0
   -3.6462  -11.0616    0.0000 C   0  0
   -3.8940  -11.8481    0.0000 N   0  0
   -1.0000  -14.5414    0.0000 O   0  0
   -1.4707  -16.2687    0.0000 N   0  0
    0.5840  -15.5991    0.0000 C   0  0
    1.0574  -13.1196    0.0000 C   0  0
    1.7656  -11.8819    0.0000 C   0  0
    2.4805  -12.2892    0.0000 C   0  0
    3.1946  -11.8721    0.0000 C   0  0
    3.9030  -12.2745    0.0000 N   0  0
    4.6135  -11.8624    0.0000 C   0  0
    5.3368  -12.2660    0.0000 N   0  0
    6.0494  -11.8526    0.0000 C   0  0
    6.7642  -12.2614    0.0000 C   0  0
    6.0366  -11.0285    0.0000 O   0  0
    0.3468  -13.5464    0.0000 O   0  0
    1.0705  -16.3619    0.0000 O   0  0
   -3.8995  -14.6836    0.0000 O   0  0
    4.6092  -11.0417    0.0000 N   0  0
   -2.3959  -16.5447    0.0000 H   0  0
    2.0116  -15.3276    0.0000 H   0  0
  2  3  1  0
  3  4  1  0
  4  5  1  0
  5  1  1  0
  6  7  1  0
  7  8  1  0
  7  9  1  1
  9 10  1  0
 10 11  1  0
 11 12  1  0
 12 13  2  0
 12 14  1  0
  8 15  2  0
  8 16  1  0
 16 17  1  0
  6 18  1  0
 18 19  1  0
 18 20  2  0
 19 21  1  0
 21 22  1  0
 22 23  1  0
 23 24  1  0
 24 25  1  0
 25 21  1  0
 19 26  1  1
 26 27  1  0
 27 28  2  0
 28 29  1  0
 29 30  1  0
 30 31  2  0
 31 27  1  0
 25 32  2  0
 24 33  1  0
 33 34  1  0
 17 35  1  0
 17 36  1  1
 36 37  1  0
 37 38  1  0
 38 39  1  0
 39 40  1  0
 40 41  1  0
 41 42  1  0
 42 43  1  0
 42 44  2  0
 35 45  2  0
 35  1  1  0
  2 34  1  0
 34 46  2  0
  1  2  1  0
 22 47  1  1
 40 48  2  0
 24 49  1  6
  2 50  1  1
M  END