
  SciTegic03291108482D

 25 28  0  0  0  0            999 V2000
   -0.6226   -2.2068    0.0000 S   0  0
    0.8765    0.1107    0.0000 S   0  0
   -3.0013    1.8250    0.0000 O   0  5
   -3.2984    0.4273    0.0000 O   0  0
    0.8765   -2.3643    0.0000 N   0  0
    1.5910   -1.1268    0.0000 N   0  0
    1.6772    1.3437    0.0000 N   0  0
    2.3447    0.1876    0.0000 N   0  0
    2.4842    1.5152    0.0000 N   0  0
    2.8967    0.8007    0.0000 N   0  0
   -2.7464    1.0404    0.0000 N   0  3
    0.1620   -1.1268    0.0000 C   0  0
   -0.6226   -0.8719    0.0000 C   0  0
    0.1620   -1.9518    0.0000 C   0  0
    0.8765   -0.7143    0.0000 C   0  0
   -0.8775   -0.0873    0.0000 C   0  0
   -1.1075   -1.5393    0.0000 C   0  0
    1.5910    0.5232    0.0000 C   0  0
   -1.6845    0.0843    0.0000 C   0  0
    1.5910   -1.9518    0.0000 C   0  0
   -0.3255    0.5258    0.0000 C   0  0
   -1.9394    0.8689    0.0000 C   0  0
   -0.5804    1.3105    0.0000 C   0  0
   -1.3874    1.4820    0.0000 C   0  0
    1.0641    1.8957    0.0000 C   0  0
  1 14  1  0
  1 17  1  0
  2 15  1  0
  2 18  1  0
  3 11  1  0
  4 11  2  0
  5 14  2  0
  5 20  1  0
  6 15  1  0
  6 20  2  0
  7  9  1  0
  7 18  1  0
  7 25  1  0
  8 10  1  0
  8 18  2  0
  9 10  2  0
 11 22  1  0
 12 13  1  0
 12 14  1  0
 12 15  2  0
 13 16  1  0
 13 17  2  0
 16 19  2  0
 16 21  1  0
 19 22  1  0
 21 23  2  0
 22 24  2  0
 23 24  1  0
M  CHG  2   3  -1  11   1
M  END