
  SciTegic06051315212D

 13 13  0  0  0  0            999 V2000
    3.9085  -26.3689    0.0000 C   0  0
    4.5749  -25.9025    0.0000 C   0  0
    3.2462  -25.9025    0.0000 C   0  0
    4.5749  -24.9697    0.0000 O   0  0
    5.2372  -26.3689    0.0000 N   0  0
    2.5859  -25.4414    0.0000 N   0  0
    5.9308  -25.9493    0.0000 C   0  0
    6.6426  -26.3401    0.0000 C   0  0
    6.6581  -27.1491    0.0000 C   0  0
    7.3649  -27.5399    0.0000 C   0  0
    8.0591  -27.1166    0.0000 C   0  0
    8.0416  -26.3022    0.0000 C   0  0
    7.3301  -25.9154    0.0000 C   0  0
  1  2  1  0
  1  3  1  0
  2  4  2  0
  2  5  1  0
  3  6  3  0
  5  7  1  0
  7  8  1  0
  8  9  2  0
  9 10  1  0
 10 11  2  0
 11 12  1  0
 12 13  2  0
 13  8  1  0
M  END