
  SciTegic12171312592D

 26 29  0  0  0  0            999 V2000
   14.6907   -7.1418    0.0000 C   0  0
   14.6895   -7.9693    0.0000 C   0  0
   15.4044   -8.3821    0.0000 C   0  0
   15.4026   -6.7291    0.0000 C   0  0
   16.1180   -7.1382    0.0000 C   0  0
   16.1214   -7.9713    0.0000 C   0  0
   16.8406   -8.3826    0.0000 O   0  0
   17.5610   -7.9655    0.0000 C   0  0
   17.5577   -7.1323    0.0000 C   0  0  1  0  0  0
   16.8338   -6.7164    0.0000 O   0  0
   18.2708   -6.7176    0.0000 C   0  0
   18.9866   -7.1279    0.0000 N   0  0
   19.6998   -6.7132    0.0000 C   0  0
   20.4156   -7.1235    0.0000 C   0  0
   21.1288   -6.7087    0.0000 O   0  0
   21.8446   -7.1190    0.0000 C   0  0
   21.8422   -7.9430    0.0000 C   0  0
   22.5570   -8.3532    0.0000 C   0  0
   23.2713   -7.9385    0.0000 C   0  0
   21.1276   -8.3555    0.0000 O   0  0
   20.4132   -7.9428    0.0000 C   0  0
   22.5506   -6.7027    0.0000 C   0  0
   23.2679   -7.1081    0.0000 C   0  0
   23.8752   -6.5512    0.0000 C   0  0
   23.5331   -5.8015    0.0000 C   0  0
   22.7145   -5.8952    0.0000 N   0  0
  1  2  2  0
  2  3  1  0
  3  6  2  0
  5  4  2  0
  4  1  1  0
  5  6  1  0
  5 10  1  0
  6  7  1  0
  7  8  1  0
  8  9  1  0
  9 10  1  0
  9 11  1  1
 11 12  1  0
 12 13  1  0
 13 14  1  0
 14 15  1  0
 15 16  1  0
 16 17  2  0
 17 18  1  0
 18 19  2  0
 19 23  1  0
 22 16  1  0
 17 20  1  0
 20 21  1  0
 22 23  2  0
 23 24  1  0
 24 25  2  0
 25 26  1  0
 26 22  1  0
M  END