
  SciTegic03161212222D

 34 37  0  0  0  0            999 V2000
   -7.0125    0.9134    0.0000 C   0  0
   -7.7270    0.5009    0.0000 C   0  0
   -7.7270   -0.3241    0.0000 C   0  0
   -7.0125   -0.7366    0.0000 C   0  0
   -6.2980   -0.3241    0.0000 C   0  0
   -6.2980    0.5009    0.0000 C   0  0
   -5.5835   -0.7366    0.0000 N   0  0
   -4.8690   -0.3241    0.0000 C   0  0
   -4.8690    0.5010    0.0000 C   0  0
   -5.5835    0.9135    0.0000 C   0  0
   -5.5836    1.7385    0.0000 O   0  0
   -4.8691    2.1510    0.0000 C   0  0
   -4.1546    1.7384    0.0000 C   0  0
   -3.4401    2.1509    0.0000 C   0  0
   -3.4401    2.9760    0.0000 C   0  0
   -4.1546    3.3885    0.0000 C   0  0
   -4.8691    2.9760    0.0000 C   0  0
   -4.1546    4.2135    0.0000 O   0  0
   -4.8691    4.6260    0.0000 C   0  0
   -8.4415   -0.7366    0.0000 O   0  0
   -8.4415    0.9134    0.0000 O   0  0
   -9.1559    0.5009    0.0000 C   0  0
   -8.4415   -1.5616    0.0000 C   0  0
   -2.7257    3.3885    0.0000 N   0  0
   -2.0112    2.9760    0.0000 C   0  0
   -1.2967    3.3885    0.0000 N   0  0
   -0.5823    2.9760    0.0000 C   0  0
    0.1322    3.3885    0.0000 C   0  0
   -0.5823    2.1510    0.0000 C   0  0
   -2.0112    2.1510    0.0000 O   0  0
    0.8859    3.0529    0.0000 S   0  0
    1.4379    3.6660    0.0000 C   0  0
    1.0254    4.3805    0.0000 C   0  0
    0.2185    4.2089    0.0000 N   0  0
  1  2  1  0
  1  6  2  0
  2  3  2  0
  3  4  1  0
  4  5  2  0
  5  7  1  0
  5  6  1  0
  6 10  1  0
  7  8  2  0
  8  9  1  0
  9 10  2  0
 10 11  1  0
 11 12  1  0
 12 13  1  0
 12 17  2  0
 13 14  2  0
 14 15  1  0
 15 16  2  0
 16 17  1  0
 16 18  1  0
 18 19  1  0
  3 20  1  0
  2 21  1  0
 21 22  1  0
 20 23  1  0
 15 24  1  0
 24 25  1  0
 25 26  1  0
 26 27  1  0
 27 28  1  0
 27 29  1  0
 25 30  2  0
 28 31  1  0
 28 34  2  0
 31 32  1  0
 32 33  2  0
 33 34  1  0
M  END