
          11280715202D 1   1.00000     0.00000     0

 64 69  0     0  0            999 V2000
   16.5417   -0.1917    0.0000 N   0  0  3  0  0  0           0  0  0
   -1.2333   -2.3375    0.0000 N   0  0  3  0  0  0           0  0  0
   17.2542    0.2208    0.0000 C   0  0  0  0  0  0           0  0  0
   -1.2083   -1.5167    0.0000 C   0  0  0  0  0  0           0  0  0
   16.8292    1.6375    0.0000 C   0  0  0  0  0  0           0  0  0
   -2.6458   -1.1417    0.0000 C   0  0  0  0  0  0           0  0  0
   -1.8458   -0.9875    0.0000 C   0  0  0  0  0  0           0  0  0
   17.3792    1.0333    0.0000 C   0  0  0  0  0  0           0  0  0
   15.7792    0.1208    0.0000 C   0  0  0  0  0  0           0  0  0
   -1.8875   -2.8292    0.0000 C   0  0  0  0  0  0           0  0  0
   -3.0250   -1.8792    0.0000 N   0  0  0  0  0  0           0  0  0
   16.0042    1.5833    0.0000 N   0  0  0  0  0  0           0  0  0
   15.5417    0.9083    0.0000 C   0  0  0  0  0  0           0  0  0
   -2.6875   -2.6292    0.0000 C   0  0  0  0  0  0           0  0  0
   16.6000   -1.0167    0.0000 C   0  0  0  0  0  0           0  0  0
   -0.4958   -2.7125    0.0000 C   0  0  0  0  0  0           0  0  0
   -1.6708   -3.6250    0.0000 N   0  0  0  0  0  0           0  0  0
   15.2167   -0.4792    0.0000 N   0  0  0  0  0  0           0  0  0
   -3.1375   -0.4792    0.0000 O   0  0  0  0  0  0           0  0  0
   17.1417    2.4083    0.0000 O   0  0  0  0  0  0           0  0  0
   15.9167   -1.4750    0.0000 O   0  0  0  0  0  0           0  0  0
   -0.4583   -3.5375    0.0000 O   0  0  0  0  0  0           0  0  0
   12.3417   -2.6292    0.0000 N   0  0  3  0  0  0           0  0  0
    5.9167   -2.2417    0.0000 N   0  0  3  0  0  0           0  0  0
   18.1500    1.3250    0.0000 C   0  0  0  0  0  0           0  0  0
   -1.6958   -0.1792    0.0000 C   0  0  0  0  0  0           0  0  0
   -0.4333   -1.2375    0.0000 C   0  0  0  0  0  0           0  0  0
   17.8917   -0.3000    0.0000 C   0  0  0  0  0  0           0  0  0
   17.3417   -2.2000    0.0000 N   0  0  0  0  0  0           0  0  0
    0.9167   -2.6750    0.0000 N   0  0  0  0  0  0           0  0  0
    0.2000   -2.2667    0.0000 C   0  0  0  0  0  0           0  0  0
   17.3417   -1.3750    0.0000 C   0  0  0  0  0  0           0  0  0
   14.7375    1.0958    0.0000 C   0  0  0  0  0  0           0  0  0
   -3.2625   -3.2167    0.0000 C   0  0  0  0  0  0           0  0  0
   14.4167   -0.3000    0.0000 C   0  0  0  0  0  0           0  0  0
   -2.2375   -4.2125    0.0000 C   0  0  0  0  0  0           0  0  0
   11.6292   -2.2250    0.0000 C   0  0  0  0  0  0           0  0  0
    5.2000   -2.6542    0.0000 C   0  0  0  0  0  0           0  0  0
   13.0542   -2.2167    0.0000 C   0  0  0  0  0  0           0  0  0
    6.6292   -2.6542    0.0000 C   0  0  0  0  0  0           0  0  0
   16.6292   -2.6167    0.0000 C   0  0  0  0  0  0           0  0  0
    1.6292   -2.2625    0.0000 C   0  0  0  0  0  0           0  0  0
    5.9125   -1.4167    0.0000 C   0  0  0  0  0  0           0  0  0
   12.3500   -3.4542    0.0000 C   0  0  0  0  0  0           0  0  0
    4.4875   -2.2500    0.0000 C   0  0  0  0  0  0           0  0  0
   13.7750   -2.6292    0.0000 C   0  0  0  0  0  0           0  0  0
    7.3417   -2.2417    0.0000 C   0  0  0  0  0  0           0  0  0
   10.9167   -2.6375    0.0000 C   0  0  0  0  0  0           0  0  0
    2.3417   -2.6667    0.0000 C   0  0  0  0  0  0           0  0  0
   15.9167   -2.2042    0.0000 C   0  0  0  0  0  0           0  0  0
   -3.0375   -4.0042    0.0000 C   0  0  0  0  0  0           0  0  0
   14.1750    0.4958    0.0000 C   0  0  0  0  0  0           0  0  0
   18.7917    0.8125    0.0000 C   0  0  0  0  0  0           0  0  0
   -0.9250    0.1083    0.0000 C   0  0  0  0  0  0           0  0  0
   -0.2958   -0.4250    0.0000 C   0  0  0  0  0  0           0  0  0
   18.6667   -0.0042    0.0000 C   0  0  0  0  0  0           0  0  0
   14.4875   -2.2125    0.0000 C   0  0  0  0  0  0           0  0  0
   15.2042   -2.6167    0.0000 C   0  0  0  0  0  0           0  0  0
    3.0542   -2.2542    0.0000 C   0  0  0  0  0  0           0  0  0
    3.7750   -2.6667    0.0000 C   0  0  0  0  0  0           0  0  0
    8.0542   -2.6500    0.0000 C   0  0  0  0  0  0           0  0  0
    8.7667   -2.2292    0.0000 C   0  0  0  0  0  0           0  0  0
    9.4875   -2.6417    0.0000 C   0  0  0  0  0  0           0  0  0
   10.2000   -2.2292    0.0000 C   0  0  0  0  0  0           0  0  0
  2 16  1  0     0  0
  3  1  1  0     0  0
  4  2  1  0     0  0
  5  8  1  0     0  0
  6  7  1  0     0  0
  7  4  2  0     0  0
  8  3  2  0     0  0
  9  1  1  0     0  0
 10  2  1  0     0  0
 11 14  1  0     0  0
 12 13  1  0     0  0
 13  9  2  0     0  0
 14 10  2  0     0  0
 15  1  1  0     0  0
 16 31  1  0     0  0
 17 10  1  0     0  0
 18  9  1  0     0  0
 19  6  2  0     0  0
 20  5  2  0     0  0
 21 15  2  0     0  0
 22 16  2  0     0  0
 23 39  1  0     0  0
 24 40  1  0     0  0
 25  8  1  0     0  0
 26  7  1  0     0  0
 27  4  1  0     0  0
 28  3  1  0     0  0
 29 32  1  0     0  0
 30 42  1  0     0  0
 31 30  1  0     0  0
 32 15  1  0     0  0
 33 13  1  0     0  0
 34 14  1  0     0  0
 35 18  2  0     0  0
 36 17  2  0     0  0
 37 23  1  0     0  0
 38 24  1  0     0  0
 39 46  1  0     0  0
 40 47  1  0     0  0
 41 29  1  0     0  0
 42 49  1  0     0  0
 43 24  1  0     0  0
 44 23  1  0     0  0
 45 38  1  0     0  0
 46 57  1  0     0  0
 47 61  1  0     0  0
 48 37  1  0     0  0
 49 59  1  0     0  0
 50 41  1  0     0  0
 51 36  1  0     0  0
 52 35  1  0     0  0
 53 56  1  0     0  0
 54 55  1  0     0  0
 55 27  2  0     0  0
 56 28  2  0     0  0
 57 58  1  0     0  0
 58 50  1  0     0  0
 59 60  1  0     0  0
 60 45  1  0     0  0
 61 62  1  0     0  0
 62 63  1  0     0  0
 63 64  1  0     0  0
 64 48  1  0     0  0
 12  5  1  0     0  0
 52 33  2  0     0  0
 25 53  2  0     0  0
 11  6  1  0     0  0
 51 34  2  0     0  0
 26 54  2  0     0  0
M  END