
  SciTegic01161211252D

 33 35  0  0  0  0            999 V2000
    8.0938   -8.0757    0.0000 C   0  0  1  0  0  0
    8.0908   -8.9055    0.0000 C   0  0
    8.8018   -9.3167    0.0000 N   0  0
    8.8032   -7.6648    0.0000 O   0  0
    9.5277   -6.4259    0.0000 C   0  0
    8.8038   -6.8365    0.0000 C   0  0
   10.2096  -10.1564    0.0000 C   0  0
    8.0911   -6.4210    0.0000 O   0  0
    9.5059   -8.9111    0.0000 C   0  0
   10.2217   -9.3329    0.0000 C   0  0  2  0  0  0
   10.9463   -8.9195    0.0000 C   0  0
   10.9501   -8.0917    0.0000 C   0  0
    9.5100   -8.0861    0.0000 O   0  0
   10.9180  -10.5794    0.0000 C   0  0
   10.9059  -11.4043    0.0000 N   0  0
   11.6384  -10.1774    0.0000 O   0  0
   11.6142  -11.8272    0.0000 C   0  0
   11.6021  -12.6521    0.0000 C   0  0
   10.8802  -13.0493    0.0000 C   0  0
   10.8678  -13.8734    0.0000 C   0  0
   11.5767  -14.2972    0.0000 C   0  0
   12.2995  -13.8908    0.0000 C   0  0
   12.3084  -13.0680    0.0000 C   0  0
   11.5656  -15.1221    0.0000 Cl  0  0
   11.5712   -7.5830    0.0000 C   0  0
   10.2385   -6.8531    0.0000 C   0  0
   11.0458   -6.6167    0.0000 C   0  0
    7.3798   -7.6624    0.0000 C   0  0
    7.3840   -6.8405    0.0000 C   0  0
    6.6709   -6.4273    0.0000 C   0  0
    5.9550   -6.8390    0.0000 C   0  0
    5.9567   -7.6683    0.0000 C   0  0
    6.6705   -8.0778    0.0000 C   0  0
  3  9  1  0
 15 17  1  0
  6  8  2  0
 17 18  1  0
 18 19  2  0
  1  2  1  0
 19 20  1  0
  9 10  1  0
 20 21  2  0
  1  4  1  0
 21 22  1  0
 10 11  1  0
 22 23  2  0
 23 18  1  0
  4  6  1  0
 21 24  1  0
 11 12  1  0
 12 25  2  0
 26  5  1  0
  9 13  2  0
 25 27  1  0
 26 27  1  0
  5  6  1  0
  1 28  1  6
  7 14  1  0
 28 29  2  0
  2  3  1  0
 29 30  1  0
 14 15  1  0
 30 31  2  0
 10  7  1  6
 31 32  1  0
 14 16  2  0
 32 33  2  0
 33 28  1  0
M  END