
  SciTegic05161214222D

 57 60  0  0  0  0            999 V2000
   15.2819  -27.3707    0.0000 C   0  0
   11.7167  -26.9667    0.0000 C   0  0
   11.7167  -27.7917    0.0000 C   0  0
   12.4287  -28.2000    0.0000 O   0  0
   13.1407  -27.7917    0.0000 C   0  0
   13.1407  -26.9667    0.0000 C   0  0
   12.4287  -26.5500    0.0000 C   0  0
   10.9990  -26.5614    0.0000 S   0  0
   10.5907  -27.2783    0.0000 O   0  0
   11.4156  -27.2735    0.0000 O   0  0
    8.1319  -21.6250    0.0000 C   0  0
    8.1307  -22.4523    0.0000 C   0  0
    8.8456  -22.8652    0.0000 C   0  0
    8.8438  -21.2122    0.0000 C   0  0
    9.5591  -21.6213    0.0000 C   0  0
    9.5599  -22.4482    0.0000 C   0  0
   10.2752  -22.8591    0.0000 N   0  0
   10.9902  -22.4444    0.0000 C   0  0
   10.9855  -21.6144    0.0000 C   0  0
   10.2696  -21.2072    0.0000 C   0  0
   11.7063  -22.8541    0.0000 C   0  0
   10.2652  -20.3822    0.0000 C   0  0
    8.8475  -23.6902    0.0000 O   0  0
    9.5629  -24.1010    0.0000 C   0  0
    9.5648  -24.9260    0.0000 C   0  0
    8.8487  -25.3358    0.0000 C   0  0
    8.8503  -26.1601    0.0000 C   0  0
    9.5662  -26.5717    0.0000 C   0  0
   10.2821  -26.1531    0.0000 C   0  0
   10.2770  -25.3303    0.0000 C   0  0
    8.1346  -24.9226    0.0000 Cl  0  0
   10.9887  -24.9129    0.0000 Cl  0  0
   11.7110  -26.1448    0.0000 N   0  0
   13.1399  -26.1364    0.0000 C   0  0
   13.8557  -26.5467    0.0000 N   0  0
   13.1374  -25.3114    0.0000 O   0  0
   13.8546  -27.3717    0.0000 C   0  0
   14.5662  -27.7819    0.0000 C   0  0
   15.2813  -26.5448    0.0000 C   0  0
   14.5651  -26.1300    0.0000 C   0  0
   15.9960  -27.7837    0.0000 C   0  0
   16.7108  -27.3717    0.0000 N   0  0
   17.4250  -27.7847    0.0000 C   0  0
   18.1397  -27.3727    0.0000 C   0  0
   18.8539  -27.7857    0.0000 C   0  0
   19.5687  -27.3737    0.0000 C   0  0
   20.2829  -27.7867    0.0000 N   0  3
   20.9976  -27.3747    0.0000 C   0  0
   20.2823  -28.6117    0.0000 C   0  0
   20.2750  -26.9583    0.0000 C   0  0
   18.4097  -25.4301    0.0000 F   0  0
   19.1241  -25.0176    0.0000 C   0  0
   19.8386  -25.4301    0.0000 F   0  0
   19.1180  -25.8384    0.0000 F   0  0
   19.1272  -24.1926    0.0000 C   0  0
   19.8432  -23.7828    0.0000 O   0  5
   18.4143  -23.7774    0.0000 O   0  0
  6  7  1  0
 25 26  2  0
 15 14  2  0
 26 27  1  0
 14 11  1  0
 27 28  2  0
  9  8  2  0
 28 29  1  0
  8 10  2  0
 29 30  2  0
 30 25  1  0
 15 16  1  0
 26 31  1  0
 30 32  1  0
 29  8  1  0
 16 17  1  0
  8 33  1  0
 33  7  1  0
  2  3  1  0
  7 34  1  0
 17 18  2  0
 34 35  1  0
  2  7  1  0
 34 36  2  0
 35 37  1  0
 18 19  1  0
  3  4  1  0
 19 20  2  0
 20 15  1  0
 35 40  1  0
 37 38  1  0
 38  1  1  0
  1 39  1  0
 39 40  1  0
  4  5  1  0
  1 41  1  0
 18 21  1  0
 41 42  1  0
 11 12  2  0
 42 43  1  0
 20 22  1  0
 43 44  1  0
  5  6  1  0
 44 45  1  0
 13 23  1  0
 45 46  1  0
 12 13  1  0
 46 47  1  0
 23 24  1  0
 47 48  1  0
 13 16  2  0
 47 49  1  0
 24 25  1  0
 47 50  1  0
 51 52  1  0
 52 54  1  0
 52 55  1  0
 52 53  1  0
 55 56  1  0
 55 57  2  0
M  CHG  2  47   1  56  -1
M  END