
  SciTegic06051315212D

 29 32  0  0  0  0            999 V2000
   30.5194   -2.2699    0.0000 C   0  0
   30.5183   -3.0895    0.0000 C   0  0
   31.2263   -3.4984    0.0000 C   0  0
   31.9360   -3.0890    0.0000 C   0  0
   31.9332   -2.2663    0.0000 C   0  0
   31.2246   -1.8611    0.0000 C   0  0
   31.2228   -4.3129    0.0000 N   0  0
   30.5132   -4.7201    0.0000 C   0  0
   30.5110   -5.5338    0.0000 C   0  0
   31.2168   -5.9464    0.0000 N   0  0
   31.9264   -5.5392    0.0000 C   0  0
   31.9302   -4.7194    0.0000 C   0  0
   31.2135   -6.7635    0.0000 C   0  0
   31.2184   -1.0421    0.0000 N   0  3
   30.5094   -0.6357    0.0000 O   0  0
   31.9248   -0.6314    0.0000 O   0  5
   32.6443   -3.4965    0.0000 N   0  0
   33.3514   -3.0868    0.0000 C   0  0
   34.0598   -3.4943    0.0000 C   0  0
   33.3501   -2.2696    0.0000 O   0  0
   34.0564   -4.3099    0.0000 C   0  0
   34.7639   -4.7173    0.0000 C   0  0
   35.4720   -4.3075    0.0000 C   0  0
   34.7600   -3.0824    0.0000 C   0  0
   35.4671   -3.4870    0.0000 C   0  0
   36.1689   -3.0770    0.0000 N   0  0
   36.1648   -2.2626    0.0000 C   0  0
   35.4530   -1.8599    0.0000 C   0  0
   34.7541   -2.2722    0.0000 C   0  0
  1  2  2  0
  2  3  1  0
  3  4  2  0
  4  5  1  0
  5  6  2  0
  6  1  1  0
  7  8  1  0
  7 12  1  0
  8  9  1  0
  9 10  1  0
 10 11  1  0
 11 12  1  0
  3  7  1  0
 10 13  1  0
 14 15  2  0
 14 16  1  0
  6 14  1  0
  4 17  1  0
 17 18  1  0
 18 19  1  0
 18 20  2  0
 19 21  2  0
 21 22  1  0
 22 23  2  0
 23 25  1  0
 24 19  1  0
 24 25  1  0
 25 26  2  0
 26 27  1  0
 27 28  2  0
 28 29  1  0
 29 24  2  0
M  CHG  2  14   1  16  -1
M  END