
          11280715132D 1   1.00000     0.00000     0

 24 26  0     1  0            999 V2000
    6.0167   -4.0667    0.0000 N   0  0  3  0  0  0           0  0  0
    5.3417   -4.5667    0.0000 C   0  0  0  0  0  0           0  0  0
    3.9292   -2.8042    0.0000 C   0  0  0  0  0  0           0  0  0
    4.4917   -3.4125    0.0000 C   0  0  0  0  0  0           0  0  0
    4.5792   -4.2375    0.0000 C   0  0  2  0  0  0           0  0  0
    5.9292   -3.2542    0.0000 C   0  0  0  0  0  0           0  0  0
    4.1792   -2.0167    0.0000 C   0  0  0  0  0  0           0  0  0
    3.1250   -2.9792    0.0000 C   0  0  0  0  0  0           0  0  0
    6.6000   -2.7667    0.0000 C   0  0  0  0  0  0           0  0  0
    6.7667   -4.4042    0.0000 C   0  0  0  0  0  0           0  0  0
    3.6292   -1.4042    0.0000 C   0  0  0  0  0  0           0  0  0
    2.5667   -2.3667    0.0000 C   0  0  0  0  0  0           0  0  0
    5.4375   -5.3917    0.0000 O   0  0  0  0  0  0           0  0  0
    7.3500   -3.1000    0.0000 C   0  0  0  0  0  0           0  0  0
    2.8167   -1.5792    0.0000 C   0  0  0  0  0  0           0  0  0
    7.4375   -3.9167    0.0000 C   0  0  0  0  0  0           0  0  0
    3.9167   -4.7167    0.0000 N   0  0  0  0  0  0           0  0  0
    2.2542   -0.9667    0.0000 O   0  0  0  0  0  0           0  0  0
    2.8667   -3.7667    0.0000 C   0  0  0  0  0  0           0  0  0
    4.9917   -1.8375    0.0000 C   0  0  0  0  0  0           0  0  0
    6.5125   -1.9417    0.0000 C   0  0  0  0  0  0           0  0  0
    8.0167   -2.6125    0.0000 C   0  0  0  0  0  0           0  0  0
    7.1792   -1.4542    0.0000 C   0  0  0  0  0  0           0  0  0
    7.9292   -1.7917    0.0000 C   0  0  0  0  0  0           0  0  0
  2  1  1  0     0  0
  3  4  1  0     0  0
  5  4  1  1     0  0
  5  2  1  0     0  0
  6  1  1  0     0  0
  7  3  2  0     0  0
  8  3  1  0     0  0
  9  6  1  0     0  0
 10  1  1  0     0  0
 11  7  1  0     0  0
 12  8  2  0     0  0
 13  2  2  0     0  0
 14 16  1  0     0  0
 15 12  1  0     0  0
 16 10  1  0     0  0
 17  5  1  0     0  0
 18 15  1  0     0  0
 19  8  1  0     0  0
 20  7  1  0     0  0
 21  9  1  0     0  0
 22 14  1  0     0  0
 23 21  2  0     0  0
 24 22  2  0     0  0
 14  9  2  0     0  0
 23 24  1  0     0  0
 15 11  2  0     0  0
M  END