
  Mrv0541 04051115152D          

  8  8  0  0  0  0            999 V2000
    0.9655    0.3048    0.0000 C   0  0  0  0  0  0  0  0  0  0  0  0
    0.9655   -0.5202    0.0000 C   0  0  0  0  0  0  0  0  0  0  0  0
    0.2511    0.7173    0.0000 C   0  0  0  0  0  0  0  0  0  0  0  0
    0.2511   -0.9327    0.0000 C   0  0  0  0  0  0  0  0  0  0  0  0
   -0.4634    0.3048    0.0000 C   0  0  0  0  0  0  0  0  0  0  0  0
   -0.4634   -0.5202    0.0000 C   0  0  0  0  0  0  0  0  0  0  0  0
   -1.1779   -0.9327    0.0000 O   0  0  0  0  0  0  0  0  0  0  0  0
    0.2511    1.5423    0.0000 Cl  0  0  0  0  0  0  0  0  0  0  0  0
  1  2  2  0  0  0  0
  3  1  1  0  0  0  0
  2  4  1  0  0  0  0
  5  3  2  0  0  0  0
  3  8  1  0  0  0  0
  6  4  2  0  0  0  0
  6  5  1  0  0  0  0
  6  7  1  0  0  0  0
M  END