
  SciTegic12231509382D

 25 25  0  0  1  0            999 V2000
    5.3875   -3.7292    0.0000 C   0  0  2  0  0  0
    5.3917   -2.9042    0.0000 P   0  0
    2.5375   -3.7292    0.0000 C   0  0  2  0  0  0
    4.6750   -4.1417    0.0000 O   0  0
    3.2417   -2.4792    0.0000 C   0  0
    0.7917   -4.1417    0.0000 P   0  0
    3.9542   -3.7292    0.0000 C   0  0  1  0  0  0
    2.5375   -2.9042    0.0000 C   0  0
    3.2417   -4.1292    0.0000 C   0  0  2  0  0  0
    6.1042   -4.1417    0.0000 C   0  0
    3.2417   -1.6542    0.0000 C   0  0
    1.8167   -4.1417    0.0000 O   0  0
    3.9542   -2.9042    0.0000 C   0  0
    4.7167   -2.9042    0.0000 O   0  0
    0.7875   -3.2792    0.0000 O   0  0
    2.5292   -1.2417    0.0000 O   0  0
    6.8167   -3.7292    0.0000 O   0  0
    3.9625   -1.2417    0.0000 O   0  0
    6.1542   -2.9042    0.0000 O   0  0
    5.4042   -1.9042    0.0000 O   0  0
   -0.0875   -4.1542    0.0000 O   0  0
    0.7875   -5.1167    0.0000 O   0  0
    5.3792   -4.5542    0.0000 C   0  0
    3.2417   -4.9542    0.0000 O   0  0
    6.1000   -4.9667    0.0000 O   0  0
  1  2  1  6
  3  9  1  0
  4  1  1  0
  5 13  1  0
  6 12  1  0
  7  4  1  1
  8  5  2  0
  9  7  1  0
  1 10  1  1
 11  5  1  0
  3 12  1  6
 13  7  1  0
 14  2  2  0
 15  6  2  0
 16 11  1  0
 17 10  2  0
 18 11  2  0
 19  2  1  0
 20  2  1  0
 21  6  1  0
 22  6  1  0
 23  1  1  0
  9 24  1  6
 25 10  1  0
  8  3  1  0
M  END