
  CDK    12/20/10,14:45

 16 17  0  0  0  0  0  0  0  0999 V2000
    1.3083   -4.8042    0.0000 C   0  0  0  0  0  0  0  0  0  0  0  0
    0.5958   -5.2167    0.0000 N   0  0  0  0  0  0  0  0  0  0  0  0
   -0.8333   -6.0417    0.0000 N   0  0  0  0  0  0  0  0  0  0  0  0
    1.3083   -3.9792    0.0000 N   0  0  0  0  0  0  0  0  0  0  0  0
   -1.5417   -6.4583    0.0000 C   0  0  0  0  0  0  0  0  0  0  0  0
    0.5917   -6.0417    0.0000 C   0  0  0  0  0  0  0  0  0  0  0  0
   -0.1208   -4.8042    0.0000 C   0  0  0  0  0  0  0  0  0  0  0  0
   -0.1167   -6.4542    0.0000 C   0  0  0  0  0  0  0  0  0  0  0  0
   -0.8375   -5.2167    0.0000 C   0  0  0  0  0  0  0  0  0  0  0  0
    2.0208   -5.2167    0.0000 N   0  0  0  0  0  0  0  0  0  0  0  0
   -2.2583   -6.0458    0.0000 C   0  0  0  0  0  0  0  0  0  0  0  0
   -1.5375   -7.2875    0.0000 C   0  0  0  0  0  0  0  0  0  0  0  0
   -2.9708   -7.2875    0.0000 C   0  0  0  0  0  0  0  0  0  0  0  0
   -2.9667   -6.4583    0.0000 C   0  0  0  0  0  0  0  0  0  0  0  0
   -2.2542   -7.7000    0.0000 C   0  0  0  0  0  0  0  0  0  0  0  0
   -3.6833   -7.7000    0.0000 Cl  0  0  0  0  0  0  0  0  0  0  0  0
  2  1  1  0  0  0  0 
  3  9  1  0  0  0  0 
  4  1  2  0  0  0  0 
  5  3  1  0  0  0  0 
  6  2  1  0  0  0  0 
  7  2  1  0  0  0  0 
  8  6  1  0  0  0  0 
  9  7  1  0  0  0  0 
 10  1  1  0  0  0  0 
 11  5  2  0  0  0  0 
 12  5  1  0  0  0  0 
 13 14  2  0  0  0  0 
 14 11  1  0  0  0  0 
 15 12  2  0  0  0  0 
 16 13  1  0  0  0  0 
  8  3  1  0  0  0  0 
 15 13  1  0  0  0  0 
M  END