
          11280715232D 1   1.00000     0.00000     0

 58 62  0     1  0            999 V2000
    3.7167   -3.4667    0.0000 C   0  0  0  0  0  0           0  0  0
    4.2292   -4.1042    0.0000 N   0  0  0  0  0  0           0  0  0
    6.5667   -4.6292    0.0000 N   0  0  0  0  0  0           0  0  0
    8.2792   -2.9667    0.0000 N   0  0  0  0  0  0           0  0  0
    3.3917   -1.8667    0.0000 N   0  0  3  0  0  0           0  0  0
    7.9042   -3.7042    0.0000 C   0  0  0  0  0  0           0  0  0
    8.6167   -4.8917    0.0000 C   0  0  0  0  0  0           0  0  0
    5.7542   -4.7167    0.0000 C   0  0  0  0  0  0           0  0  0
    3.4167   -2.6917    0.0000 C   0  0  1  0  0  0           0  0  0
    7.3167   -4.2792    0.0000 C   0  0  2  0  0  0           0  0  0
    8.3917   -2.1417    0.0000 C   0  0  1  0  0  0           0  0  0
    9.9167   -5.1917    0.0000 N   0  0  0  0  0  0           0  0  0
    8.2417   -1.3292    0.0000 C   0  0  0  0  0  0           0  0  0
    9.1542   -5.5167    0.0000 C   0  0  0  0  0  0           0  0  0
    4.8167    0.0583    0.0000 N   0  0  0  0  0  0           0  0  0
    4.9417   -4.5417    0.0000 C   0  0  1  0  0  0           0  0  0
    5.6042    0.2833    0.0000 C   0  0  0  0  0  0           0  0  0
    7.7917   -4.9542    0.0000 C   0  0  0  0  0  0           0  0  0
    9.0417   -4.1792    0.0000 C   0  0  0  0  0  0           0  0  0
    4.1417   -0.4167    0.0000 C   0  0  1  0  0  0           0  0  0
    7.8292   -0.6167    0.0000 N   0  0  0  0  0  0           0  0  0
    3.6417   -1.0792    0.0000 C   0  0  0  0  0  0           0  0  0
    9.8417   -4.3667    0.0000 C   0  0  0  0  0  0           0  0  0
    4.8292   -6.7292    0.0000 C   0  0  0  0  0  0           0  0  0
    2.9917   -3.8792    0.0000 O   0  0  0  0  0  0           0  0  0
    8.5792   -4.1917    0.0000 O   0  0  0  0  0  0           0  0  0
    5.7042   -5.5417    0.0000 O   0  0  0  0  0  0           0  0  0
    2.6042   -2.8542    0.0000 C   0  0  0  0  0  0           0  0  0
    9.2292   -2.1167    0.0000 C   0  0  0  0  0  0           0  0  0
    6.4292    0.2333    0.0000 C   0  0  0  0  0  0           0  0  0
    8.8292   -1.1042    0.0000 O   0  0  0  0  0  0           0  0  0
    5.5167    1.1083    0.0000 O   0  0  0  0  0  0           0  0  0
    4.0042   -6.8417    0.0000 O   0  0  0  0  0  0           0  0  0
    4.6292   -5.3042    0.0000 C   0  0  0  0  0  0           0  0  0
    7.2042   -0.0792    0.0000 C   0  0  0  0  0  0           0  0  0
    5.1417   -5.9667    0.0000 C   0  0  0  0  0  0           0  0  0
    5.3292   -7.3792    0.0000 N   0  0  0  0  0  0           0  0  0
    3.5542    0.1833    0.0000 C   0  0  0  0  0  0           0  0  0
    2.5667   -1.8667    0.0000 C   0  0  0  0  0  0           0  0  0
    9.6167   -1.3917    0.0000 C   0  0  0  0  0  0           0  0  0
    2.0167   -3.4417    0.0000 C   0  0  3  0  0  0           0  0  0
    8.8042   -3.3917    0.0000 C   0  0  0  0  0  0           0  0  0
   10.4167   -3.7667    0.0000 C   0  0  0  0  0  0           0  0  0
    2.7542   -0.0292    0.0000 C   0  0  3  0  0  0           0  0  0
   10.4417   -1.3667    0.0000 C   0  0  0  0  0  0           0  0  0
    9.1792   -0.6917    0.0000 C   0  0  0  0  0  0           0  0  0
    2.2292   -4.2292    0.0000 C   0  0  0  0  0  0           0  0  0
    1.2167   -3.2167    0.0000 C   0  0  0  0  0  0           0  0  0
    2.1792    0.5708    0.0000 C   0  0  0  0  0  0           0  0  0
    2.5292   -0.8167    0.0000 C   0  0  0  0  0  0           0  0  0
    9.3667   -2.7792    0.0000 C   0  0  0  0  0  0           0  0  0
   10.1792   -2.9792    0.0000 C   0  0  0  0  0  0           0  0  0
   10.8417   -0.6417    0.0000 C   0  0  0  0  0  0           0  0  0
    9.5792    0.0458    0.0000 C   0  0  0  0  0  0           0  0  0
    0.6292   -3.7917    0.0000 C   0  0  0  0  0  0           0  0  0
    1.6292   -4.8167    0.0000 C   0  0  0  0  0  0           0  0  0
    0.8292   -4.5917    0.0000 C   0  0  0  0  0  0           0  0  0
   10.4042    0.0583    0.0000 C   0  0  0  0  0  0           0  0  0
  2  1  1  0     0  0
  3  8  1  0     0  0
  4  6  1  0     0  0
  5  9  1  0     0  0
  6 10  1  0     0  0
  7 18  1  0     0  0
  8 16  1  0     0  0
  9  1  1  0     0  0
 10  3  1  0     0  0
 11  4  1  0     0  0
 12 14  1  0     0  0
 13 11  1  0     0  0
 14  7  2  0     0  0
 15 20  1  0     0  0
 16  2  1  0     0  0
 17 15  1  0     0  0
 10 18  1  6     0  0
 19  7  1  0     0  0
 20 22  1  0     0  0
 21 35  1  0     0  0
 22  5  1  0     0  0
 23 19  2  0     0  0
 24 36  1  0     0  0
 25  1  2  0     0  0
 26  6  2  0     0  0
 27  8  2  0     0  0
  9 28  1  6     0  0
 11 29  1  1     0  0
 30 17  1  0     0  0
 31 13  2  0     0  0
 32 17  2  0     0  0
 33 24  2  0     0  0
 16 34  1  1     0  0
 35 30  1  0     0  0
 36 34  1  0     0  0
 37 24  1  0     0  0
 20 38  1  1     0  0
 39  5  1  0     0  0
 40 29  1  0     0  0
 41 28  1  0     0  0
 42 19  1  0     0  0
 43 23  1  0     0  0
 44 38  1  0     0  0
 45 40  1  0     0  0
 46 40  2  0     0  0
 47 41  1  0     0  0
 48 41  1  0     0  0
 49 44  1  0     0  0
 50 44  1  0     0  0
 51 42  2  0     0  0
 52 51  1  0     0  0
 53 45  2  0     0  0
 54 46  1  0     0  0
 55 48  1  0     0  0
 56 47  1  0     0  0
 57 55  1  0     0  0
 58 54  2  0     0  0
 56 57  1  0     0  0
 21 13  1  0     0  0
 12 23  1  0     0  0
 52 43  2  0     0  0
 53 58  1  0     0  0
M  END