
  SciTegic12231509382D

 28 31  0  0  0  0            999 V2000
   -2.4301    0.1690    0.0000 C   0  0
   -3.1446   -0.2435    0.0000 C   0  0
   -3.1446   -1.0685    0.0000 C   0  0
   -3.8590   -1.4810    0.0000 O   0  0
   -2.4301   -1.4810    0.0000 C   0  0
   -1.7156   -1.0685    0.0000 C   0  0
   -1.0012   -1.4810    0.0000 C   0  0
   -0.2867   -1.0685    0.0000 C   0  0
   -0.2867   -0.2435    0.0000 C   0  0  1  0  0  0
    0.4278    0.1690    0.0000 C   0  0  2  0  0  0
    1.2124   -0.0859    0.0000 C   0  0
    1.6973    0.5815    0.0000 C   0  0
    1.2124    1.2489    0.0000 C   0  0  1  0  0  0
    1.9269    1.6614    0.0000 C   0  0
    1.9269    2.4865    0.0000 O   0  0
    2.6413    1.2489    0.0000 C   0  0
    2.6413    0.4239    0.0000 O   0  0
    0.8768    2.0026    0.0000 O   0  0
    0.4278    0.9940    0.0000 C   0  0  2  0  0  0
    0.4278    1.8190    0.0000 C   0  0
   -0.2867    1.4065    0.0000 C   0  0
   -1.0012    0.9940    0.0000 C   0  0
   -1.0012    0.1690    0.0000 C   0  0  2  0  0  0
   -1.7156   -0.2435    0.0000 C   0  0  1  0  0  0
   -1.7156    0.5815    0.0000 C   0  0
   -1.0012   -0.6560    0.0000 H   0  0
   -0.2867    0.5815    0.0000 H   0  0
    0.4278   -0.6560    0.0000 H   0  0
  1  2  1  0
  2  3  1  0
  3  4  2  0
  3  5  1  0
  5  6  2  0
  6  7  1  0
  7  8  1  0
  8  9  1  0
  9 10  1  0
 10 11  1  0
 11 12  1  0
 12 13  1  0
 13 14  1  1
 14 15  2  0
 14 16  1  0
 16 17  1  0
 13 18  1  0
 13 19  1  0
 10 19  1  0
 19 20  1  1
 19 21  1  0
 21 22  1  0
 22 23  1  0
  9 23  1  0
 23 24  1  0
  1 24  1  0
  6 24  1  0
 24 25  1  1
 23 26  1  6
  9 27  1  1
 10 28  1  6
M  END