
  Mrv0541 05211314572D          

 22 21  0  0  0  0            999 V2000
    0.1702   -1.7754    0.0000 N   0  0  0  0  0  0  0  0  0  0  0  0
   -0.0848   -2.5600    0.0000 O   0  0  0  0  0  0  0  0  0  0  0  0
   -0.9098   -2.5600    0.0000 C   0  0  0  0  0  0  0  0  0  0  0  0
   -1.1647   -1.7754    0.0000 C   0  0  0  0  0  0  0  0  0  0  0  0
   -0.4973   -1.2905    0.0000 C   0  0  0  0  0  0  0  0  0  0  0  0
    0.2172    2.4220    0.0000 C   0  0  0  0  0  0  0  0  0  0  0  0
    0.2172    1.5970    0.0000 C   0  0  0  0  0  0  0  0  0  0  0  0
    0.2172    0.7720    0.0000 C   0  0  0  0  0  0  0  0  0  0  0  0
    0.2172   -0.0530    0.0000 C   0  0  0  0  0  0  0  0  0  0  0  0
   -0.4973   -0.4655    0.0000 O   0  0  0  0  0  0  0  0  0  0  0  0
    0.9317    2.8345    0.0000 N   0  0  0  0  0  0  0  0  0  0  0  0
   -1.3947   -3.2275    0.0000 C   0  0  0  0  0  0  0  0  0  0  0  0
    0.9317    3.6595    0.0000 C   0  0  0  0  0  0  0  0  0  0  0  0
    1.6461    2.4220    0.0000 C   0  0  0  0  0  0  0  0  0  0  0  0
    6.2426    0.7145    0.0000 C   0  0  0  0  0  0  0  0  0  0  0  0
    5.8301    0.0000    0.0000 C   0  0  0  0  0  0  0  0  0  0  0  0
    5.0051    0.0000    0.0000 C   0  0  0  0  0  0  0  0  0  0  0  0
    4.5926   -0.7145    0.0000 C   0  0  0  0  0  0  0  0  0  0  0  0
    7.0676    0.7145    0.0000 O   0  0  0  0  0  0  0  0  0  0  0  0
    5.8301    1.4289    0.0000 O   0  0  0  0  0  0  0  0  0  0  0  0
    5.0051   -1.4289    0.0000 O   0  0  0  0  0  0  0  0  0  0  0  0
    3.7676   -0.7145    0.0000 O   0  0  0  0  0  0  0  0  0  0  0  0
  7  8  3  0  0  0  0
  8  9  1  0  0  0  0
  9 10  1  0  0  0  0
 10  5  1  0  0  0  0
  6 11  1  0  0  0  0
  3 12  1  0  0  0  0
 11 13  1  0  0  0  0
 11 14  1  0  0  0  0
  1  2  1  0  0  0  0
  2  3  1  0  0  0  0
  3  4  2  0  0  0  0
  4  5  1  0  0  0  0
  5  1  2  0  0  0  0
  6  7  1  0  0  0  0
 15 16  1  0  0  0  0
 16 17  2  0  0  0  0
 17 18  1  0  0  0  0
 15 19  2  0  0  0  0
 15 20  1  0  0  0  0
 18 21  2  0  0  0  0
 18 22  1  0  0  0  0
M  END