
          11280714442D 1   1.00000     0.00000     0

 21 21  0     0  0            999 V2000
    3.0875   -4.6042    0.0000 N   0  3  0  0  0  0           0  0  0
    5.8667   -2.8292    0.0000 C   0  0  0  0  0  0           0  0  0
    3.7792   -4.1625    0.0000 C   0  0  0  0  0  0           0  0  0
    2.3542   -4.2250    0.0000 O   0  5  0  0  0  0           0  0  0
    3.1250   -5.4292    0.0000 O   0  0  0  0  0  0           0  0  0
    5.1667   -3.2750    0.0000 C   0  0  0  0  0  0           0  0  0
    6.6000   -3.2125    0.0000 O   0  0  0  0  0  0           0  0  0
    9.4542   -3.0792    0.0000 N   0  0  0  0  0  0           0  0  0
    5.8292   -2.0042    0.0000 O   0  0  0  0  0  0           0  0  0
    4.5167   -4.5417    0.0000 C   0  0  0  0  0  0           0  0  0
    3.7417   -3.3417    0.0000 C   0  0  0  0  0  0           0  0  0
   10.1417   -2.6375    0.0000 C   0  0  3  0  0  0           0  0  0
    5.2125   -4.0917    0.0000 C   0  0  0  0  0  0           0  0  0
    4.4375   -2.8917    0.0000 C   0  0  0  0  0  0           0  0  0
    8.0250   -3.1417    0.0000 C   0  0  3  0  0  0           0  0  0
    7.2917   -2.7667    0.0000 C   0  0  0  0  0  0           0  0  0
    8.7167   -2.7000    0.0000 C   0  0  0  0  0  0           0  0  0
    8.0625   -3.9667    0.0000 O   0  0  0  0  0  0           0  0  0
   10.8792   -3.0167    0.0000 C   0  0  0  0  0  0           0  0  0
   10.1125   -1.8125    0.0000 C   0  0  0  0  0  0           0  0  0
   10.7042   -2.0292    0.0000 C   0  0  0  0  0  0           0  0  0
  2  6  1  0     0  0
  3  1  1  0     0  0
  4  1  1  0     0  0
  5  1  2  0     0  0
  6 14  2  0     0  0
  7  2  1  0     0  0
  8 17  1  0     0  0
  9  2  2  0     0  0
 10  3  1  0     0  0
 11  3  2  0     0  0
 12  8  1  0     0  0
 13 10  2  0     0  0
 14 11  1  0     0  0
 15 16  1  0     0  0
 16  7  1  0     0  0
 17 15  1  0     0  0
 18 15  1  0     0  0
 19 12  1  0     0  0
 20 12  1  0     0  0
 21 12  1  0     0  0
  6 13  1  0     0  0
M  CHG  2   1   1   4  -1
M  END