
  SciTegic11161115462D

 27 27  0  0  0  0            999 V2000
    9.3375  -18.1000    0.0000 C   0  0
    9.3375  -18.9250    0.0000 C   0  0
   10.0495  -19.3333    0.0000 C   0  0
   10.7615  -18.9250    0.0000 C   0  0
   10.7615  -18.1000    0.0000 C   0  0
   10.0495  -17.6833    0.0000 C   0  0
   11.4754  -19.3385    0.0000 C   0  0
   10.4542  -16.9667    0.0000 C   0  0
    9.6292  -16.9667    0.0000 C   0  0
   11.4772  -17.6896    0.0000 C   0  0
   12.1905  -18.1042    0.0000 C   0  0
   12.9062  -17.6938    0.0000 C   0  0
   13.6194  -18.1084    0.0000 C   0  0
   14.3351  -17.6980    0.0000 C   0  0
   15.0483  -18.1126    0.0000 C   0  0
   15.7640  -17.7022    0.0000 C   0  0
   16.4773  -18.1167    0.0000 C   0  0
   17.1930  -17.7063    0.0000 C   0  0
   17.9062  -18.1209    0.0000 N   0  0
   17.1954  -16.8813    0.0000 O   0  0
   12.9086  -16.8688    0.0000 C   0  0
   15.7664  -16.8772    0.0000 C   0  0
   18.6219  -17.7105    0.0000 C   0  0
   19.3352  -18.1251    0.0000 C   0  0
   20.0508  -17.7147    0.0000 C   0  0
   20.7641  -18.1293    0.0000 O   0  0
   19.3327  -18.9501    0.0000 O   0  0
 13 14  1  0
  4  7  1  0
 14 15  2  0
  1  2  1  0
 15 16  1  0
  6  8  1  0
 16 17  2  0
  1  6  1  0
 17 18  1  0
  6  9  1  0
 18 19  1  0
  2  3  1  0
 18 20  2  0
  5 10  1  0
 12 21  1  0
  3  4  1  0
 16 22  1  0
 10 11  2  0
 19 23  1  0
  4  5  2  0
 23 24  1  0
 11 12  1  0
 24 25  1  0
  5  6  1  0
 25 26  1  0
 12 13  2  0
 24 27  1  0
M  END