
  SciTegic12201615522D

 27 30  0  0  0  0            999 V2000
   -2.6111    0.7486    0.0000 C   0  0
   -2.6111   -0.7486    0.0000 C   0  0
   -1.2964   -1.4973    0.0000 N   0  0
   -1.2964    1.4973    0.0000 C   0  0
    0.0000    0.7486    0.0000 C   0  0
    0.0000   -0.7486    0.0000 C   0  0
    1.2964   -1.4973    0.0000 C   0  0
    2.5929   -0.7486    0.0000 C   0  0
    2.5929    0.7486    0.0000 C   0  0
    1.2964    1.4973    0.0000 C   0  0
   -1.2907    2.9981    0.0000 C   0  0
   -0.2489    3.5938    0.0000 O   0  0
   -2.5870    3.7544    0.0000 N   0  0
   -3.9086   -1.5029    0.0000 C   0  0
   -4.0476   -2.9835    0.0000 S   0  0
   -5.5150   -3.2942    0.0000 C   0  0
   -6.2640   -1.9946    0.0000 C   0  0
   -5.2594   -0.8807    0.0000 C   0  0
   -6.0040   -4.3901    0.0000 Cl  0  0
   -2.5835    5.2544    0.0000 C   0  0
   -3.8807    6.0076    0.0000 C   0  0
   -5.1815    5.2608    0.0000 C   0  0
   -5.1852    3.7608    0.0000 C   0  0
   -3.8880    3.0076    0.0000 C   0  0
   -6.4810    6.0117    0.0000 C   0  0
   -6.4802    7.2117    0.0000 O   0  0
   -7.5208    5.4128    0.0000 O   0  0
  1  2  2  0
  2  3  1  0
  3  6  2  0
  5  4  2  0
  4  1  1  0
  5  6  1  0
  6  7  1  0
  7  8  2  0
  8  9  1  0
  9 10  2  0
 10  5  1  0
  4 11  1  0
 11 12  2  0
 11 13  1  0
  2 14  1  0
 14 15  1  0
 15 16  1  0
 16 17  2  0
 17 18  1  0
 18 14  2  0
 16 19  1  0
 13 20  1  0
 13 24  1  0
 20 21  1  0
 21 22  1  0
 22 23  1  0
 23 24  1  0
 22 25  1  0
 25 26  1  0
 25 27  2  0
M  END