
  SciTegic03151118422D

 49 53  0  0  0  0            999 V2000
   -0.4612    3.7213    0.0000 C   0  0
   -2.5873    0.0388    0.0000 C   0  0
    2.5873    1.9612    0.0000 C   0  0
    0.4612   -1.7213    0.0000 C   0  0
  -10.3923    3.0000    0.0000 C   0  0
  -15.5885    2.0000    0.0000 C   0  0
   -6.0622    3.5000    0.0000 C   0  0
   -6.9282    3.0000    0.0000 C   0  0
  -12.9904    6.5000    0.0000 C   0  0
   -5.1962    3.0000    0.0000 C   0  0
  -13.8564    6.0000    0.0000 C   0  0
   -7.7942    3.5000    0.0000 C   0  0
  -12.1244    6.0000    0.0000 C   0  0
  -12.9904    3.5000    0.0000 C   0  0
  -12.1244    2.0000    0.0000 C   0  0
  -13.8564    3.0000    0.0000 C   0  0
  -12.9904    1.5000    0.0000 C   0  0
   -1.7321    2.0000    0.0000 C   0  0
   -1.7321    3.0000    0.0000 C   0  0
  -13.8564    5.0000    0.0000 C   0  0
   -4.3301    3.5000    0.0000 C   0  0
   -8.6603    3.0000    0.0000 C   0  0
   -9.5263    4.5000    0.0000 C   0  0
  -10.3923    5.0000    0.0000 C   0  0
    1.2024    3.0827    0.0000 C   0  0
   -1.2024   -1.0827    0.0000 C   0  0
  -11.2583    3.5000    0.0000 C   0  0
    0.2079    2.9781    0.0000 C   0  0
   -1.6092   -0.1691    0.0000 C   0  0
    1.6092    2.1691    0.0000 C   0  0
   -0.2079   -0.9781    0.0000 C   0  0
  -12.1244    3.0000    0.0000 C   0  0
  -13.8564    2.0000    0.0000 C   0  0
   -0.8660    1.5000    0.0000 C   0  0
  -12.1244    5.0000    0.0000 C   0  0
   -2.5981    3.5000    0.0000 C   0  0
    0.0000    2.0000    0.0000 C   0  0
   -0.8660    0.5000    0.0000 C   0  0
    0.8660    0.5000    0.0000 B   0  5
    1.8660    0.5000    0.0000 F   0  0
    1.3660   -0.3660    0.0000 F   0  0
  -12.9904    4.5000    0.0000 N   0  0
   -3.4641    3.0000    0.0000 N   0  0
   -9.5263    3.5000    0.0000 N   0  0
  -11.2583    4.5000    0.0000 N   0  0
    0.8660    1.5000    0.0000 N   0  0
    0.0000    0.0000    0.0000 N   0  0
   -2.5981    4.5000    0.0000 O   0  0
  -14.7224    1.5000    0.0000 O   0  0
  1 28  1  0
  2 29  1  0
  3 30  1  0
  4 31  1  0
  5 44  1  0
  6 49  1  0
  7  8  1  0
  7 10  1  0
  8 12  1  0
  9 11  2  0
  9 13  1  0
 10 21  1  0
 11 20  1  0
 12 22  1  0
 13 35  2  0
 14 16  1  0
 14 32  2  0
 15 17  2  0
 15 32  1  0
 16 33  2  0
 17 33  1  0
 18 19  1  0
 18 34  1  0
 19 36  1  0
 20 42  2  0
 21 43  1  0
 22 44  1  0
 23 24  1  0
 23 44  1  0
 24 45  1  0
 25 28  2  0
 25 30  1  0
 26 29  1  0
 26 31  2  0
 27 32  1  0
 27 45  1  0
 28 37  1  0
 29 38  2  0
 30 46  1  0
 31 47  1  0
 33 49  1  0
 34 37  2  0
 34 38  1  0
 35 42  1  0
 35 45  1  0
 36 43  2  3
 36 48  1  0
 37 46  1  0
 38 47  1  0
 39 40  1  0
 39 41  1  0
 39 46  1  0
 39 47  1  0
M  CHG  1  39  -1
M  END