
          11280715202D 1   1.00000     0.00000     0

 29 29  0     0  0            999 V2000
    0.7917   -3.4417    0.0000 N   0  0  0  0  0  0           0  0  0
    0.3792   -4.7167    0.0000 N   0  0  0  0  0  0           0  0  0
    0.1292   -3.9292    0.0000 C   0  0  0  0  0  0           0  0  0
    1.4625   -3.9292    0.0000 C   0  0  0  0  0  0           0  0  0
   11.6917   -2.0417    0.0000 C   0  0  0  0  0  0           0  0  0
   11.6792   -3.6917    0.0000 C   0  0  0  0  0  0           0  0  0
   10.9792   -2.4542    0.0000 C   0  0  0  0  0  0           0  0  0
   10.9750   -3.2792    0.0000 C   0  0  0  0  0  0           0  0  0
    7.3917   -3.5167    0.0000 C   0  0  0  0  0  0           0  0  0
    8.0042   -4.0667    0.0000 N   0  0  0  0  0  0           0  0  0
    6.6125   -3.7667    0.0000 C   0  0  0  0  0  0           0  0  0
    1.2042   -4.7167    0.0000 C   0  0  0  0  0  0           0  0  0
   11.6917   -1.2167    0.0000 O   0  0  0  0  0  0           0  0  0
   11.6792   -4.5167    0.0000 O   0  0  0  0  0  0           0  0  0
    6.4375   -4.5792    0.0000 C   0  0  0  0  0  0           0  0  0
    5.9917   -3.2167    0.0000 C   0  0  0  0  0  0           0  0  0
    5.0417   -4.2792    0.0000 C   0  0  0  0  0  0           0  0  0
   12.4000   -3.2792    0.0000 O   0  0  0  0  0  0           0  0  0
   12.4042   -2.4542    0.0000 O   0  0  0  0  0  0           0  0  0
    8.7917   -3.8125    0.0000 O   0  0  0  0  0  0           0  0  0
    5.2125   -3.4750    0.0000 C   0  0  0  0  0  0           0  0  0
    5.6542   -4.8292    0.0000 C   0  0  0  0  0  0           0  0  0
    4.2542   -4.5292    0.0000 O   0  0  0  0  0  0           0  0  0
    2.2500   -3.6792    0.0000 C   0  0  0  0  0  0           0  0  0
    7.5667   -2.7042    0.0000 C   0  0  0  0  0  0           0  0  0
    3.6417   -3.9792    0.0000 C   0  0  0  0  0  0           0  0  0
    2.8542   -4.2292    0.0000 C   0  0  0  0  0  0           0  0  0
    6.9542   -2.1542    0.0000 C   0  0  0  0  0  0           0  0  0
    7.1250   -1.3500    0.0000 C   0  0  0  0  0  0           0  0  0
  2  3  1  0     0  0
  3  1  2  0     0  0
  4  1  1  0     0  0
  6  8  1  0     0  0
  7  5  1  0     0  0
  8  7  2  0     0  0
  9 11  1  0     0  0
 10  9  2  0     0  0
 11 15  2  0     0  0
 12  4  2  0     0  0
 13  5  2  0     0  0
 14  6  2  0     0  0
 15 22  1  0     0  0
 16 21  2  0     0  0
 17 23  1  0     0  0
 18  6  1  0     0  0
 19  5  1  0     0  0
 20 10  1  0     0  0
 21 17  1  0     0  0
 22 17  2  0     0  0
 23 26  1  0     0  0
 24  4  1  0     0  0
 25  9  1  0     0  0
 26 27  1  0     0  0
 27 24  1  0     0  0
 28 25  1  0     0  0
 29 28  1  0     0  0
 12  2  1  0     0  0
 16 11  1  0     0  0
M  END