
  SciTegic11261311332D

 21 23  0  0  1  0            999 V2000
   -0.4315   -3.4386    0.0000 N   0  0
   -0.4406   -4.2655    0.0000 C   0  0  1  0  0  0
    0.2811   -3.0229    0.0000 C   0  0
   -1.1441   -3.0184    0.0000 C   0  0
   -0.4269   -1.7896    0.0000 C   0  0
    0.2766   -4.6674    0.0000 C   0  0  2  0  0  0
   -1.1441   -2.2007    0.0000 C   0  0
    0.2857   -2.2007    0.0000 C   0  0
   -0.4269   -0.9628    0.0000 C   0  0
    0.9983   -4.2563    0.0000 O   0  0
   -1.1532   -4.6674    0.0000 C   0  0
   -1.1395   -0.5517    0.0000 C   0  0
    0.2948   -0.5517    0.0000 C   0  0
    0.2720   -5.4942    0.0000 C   0  0
   -1.1623   -5.4896    0.0000 C   0  0
   -1.1395    0.2751    0.0000 C   0  0
    0.2857    0.2797    0.0000 C   0  0
   -0.4497   -5.9099    0.0000 C   0  0
   -0.4269    0.6908    0.0000 C   0  0
    0.9851   -5.9091    0.0000 T   0  0
   -0.4540   -6.7349    0.0000 T   0  0
  2  1  1  1
  3  1  1  0
  4  1  1  0
  5  7  1  0
  6  2  1  0
  7  4  1  0
  8  3  1  0
  9  5  1  0
  6 10  1  6
 11  2  1  0
 12  9  1  0
 13  9  2  0
 14  6  1  0
 15 11  1  0
 16 12  2  0
 17 13  1  0
 18 15  1  0
 19 17  2  0
  8  5  1  0
 14 18  1  0
 19 16  1  0
 14 20  1  0
 18 21  1  0
M  END