
  SciTegic12231509382D

 38 42  0  0  0  0            999 V2000
    5.6552   -5.9089    0.0000 C   0  0
    5.3629   -6.6796    0.0000 C   0  0
    4.5399   -6.6370    0.0000 N   0  0
    4.3235   -5.8400    0.0000 C   0  0
    5.0177   -5.3941    0.0000 N   0  0
    3.5540   -5.5446    0.0000 O   0  0
    5.0595   -4.5705    0.0000 C   0  0
    4.3481   -4.1582    0.0000 C   0  0
    3.6332   -4.5702    0.0000 C   0  0
    2.9177   -4.1580    0.0000 N   0  0
    2.9183   -3.3308    0.0000 C   0  0
    2.2101   -2.9193    0.0000 C   0  0
    1.4930   -3.3239    0.0000 N   0  0
    1.4933   -4.1508    0.0000 C   0  0
    2.2042   -4.5694    0.0000 C   0  0
    0.7821   -2.9119    0.0000 C   0  0
    0.7929   -2.0904    0.0000 C   0  0
    0.0796   -1.6760    0.0000 C   0  0
   -0.6384   -2.0842    0.0000 C   0  0
   -0.6386   -2.9099    0.0000 C   0  0
    0.0736   -3.3237    0.0000 C   0  0
    4.3481   -3.3347    0.0000 O   0  0
    6.1040   -5.2183    0.0000 C   0  0
    6.9375   -5.2603    0.0000 C   0  0
    7.3892   -4.5630    0.0000 C   0  0
    7.0087   -3.8211    0.0000 C   0  0
    6.1696   -3.7829    0.0000 C   0  0
    5.7238   -4.4814    0.0000 C   0  0
    6.3898   -6.2825    0.0000 C   0  0
    6.4330   -7.1104    0.0000 C   0  0
    7.1700   -7.4853    0.0000 C   0  0
    7.8626   -7.0297    0.0000 C   0  0
    7.8152   -6.2015    0.0000 C   0  0
    7.0775   -5.8325    0.0000 C   0  0
    5.8111   -7.3719    0.0000 O   0  0
    1.5037   -1.6784    0.0000 O   0  0
    2.2218   -2.0922    0.0000 C   0  0
    2.9291   -1.6846    0.0000 C   0  0
 18 19  2  0
  8  9  1  0
 19 20  1  0
  3  4  1  0
 20 21  2  0
 21 16  1  0
  9 10  1  0
  8 22  1  0
 10 11  1  0
  1 23  1  0
  4  5  1  0
 23 24  2  0
  5  1  1  0
 24 25  1  0
  1  2  1  0
 25 26  2  0
  4  6  2  0
 26 27  1  0
 27 28  2  0
 28 23  1  0
 10 15  1  0
  1 29  1  0
 11 12  1  0
 29 30  2  0
 12 13  1  0
 30 31  1  0
 13 14  1  0
 31 32  2  0
 14 15  1  0
 32 33  1  0
  5  7  1  0
 33 34  2  0
 34 29  1  0
 13 16  1  0
  2 35  2  0
 17 36  1  0
 16 17  2  0
 36 37  1  0
  7  8  1  0
 37 38  1  0
 17 18  1  0
  2  3  1  0
M  END