
  SciTegic07291412072D

 52 54  0  0  0  0            999 V2000
    3.8888   -0.3649    0.0000 P   0  0
    5.3177   -5.3149    0.0000 C   0  0  1  0  0  0
    5.7302   -6.0294    0.0000 C   0  0
    6.0322   -4.0774    0.0000 C   0  0
    6.0322   -4.9024    0.0000 N   0  0
    6.5552   -6.0294    0.0000 N   0  0
    6.9677   -6.7439    0.0000 C   0  0  1  0  0  0
    8.1756   -3.6649    0.0000 C   0  0
    7.7927   -6.7439    0.0000 C   0  0
    6.7467   -3.6649    0.0000 C   0  0  1  0  0  0
    7.4612   -4.0774    0.0000 N   0  0
    6.5552   -7.4583    0.0000 C   0  0
    8.2052   -6.0294    0.0000 C   0  0
    3.8888   -1.1899    0.0000 O   0  0
    1.1927   -3.8860    0.0000 C   0  0
    3.8888    0.4601    0.0000 O   0  0
    4.9052   -4.6004    0.0000 C   0  0
    5.3177   -6.7439    0.0000 O   0  0
    5.3177   -3.6649    0.0000 O   0  0
    6.7467   -2.8399    0.0000 C   0  0
    8.1756   -2.8399    0.0000 O   0  0
    5.7302   -7.4583    0.0000 O   0  0
    8.8901   -4.0774    0.0000 O   0  0
    7.7927   -5.3149    0.0000 O   0  0
    0.3677   -3.8860    0.0000 O   0  0
    3.0638   -0.3649    0.0000 O   0  0
    4.7138   -0.3649    0.0000 O   0  0
    6.9677   -8.1728    0.0000 N   0  0
    1.6052   -4.6004    0.0000 C   0  0
    9.0302   -6.0294    0.0000 N   0  0
    4.0802   -4.6004    0.0000 C   0  0
    4.6033   -1.6024    0.0000 C   0  0
    6.0322   -2.4274    0.0000 C   0  0
    2.4302   -4.6004    0.0000 C   0  0
   10.3190   -4.9024    0.0000 C   0  0
   11.0335   -5.3149    0.0000 C   0  0
    9.6046   -3.6649    0.0000 C   0  0
    1.6052   -3.1715    0.0000 O   0  0
   11.0335   -6.1399    0.0000 N   0  0
   10.3190   -4.0774    0.0000 C   0  0
    5.3177   -2.8399    0.0000 C   0  0
    3.6677   -3.8860    0.0000 C   0  0
    6.0322   -1.6024    0.0000 C   0  0
    3.6677   -5.3149    0.0000 C   0  0
    5.3177   -1.1899    0.0000 C   0  0
    4.6033   -2.4274    0.0000 C   0  0
    2.8427   -3.8860    0.0000 C   0  0
    2.8427   -5.3149    0.0000 C   0  0
    4.6033   -5.7274    0.0000 C   0  0
   11.7480   -4.0774    0.0000 C   0  0
   11.7480   -4.9024    0.0000 C   0  0
   11.0335   -3.6649    0.0000 C   0  0
  2  5  1  0
  3  2  1  0
  4 10  1  0
  5  4  1  0
  6  3  1  0
  7  6  1  0
  8 11  1  0
  7  9  1  1
 10 20  1  6
 11 10  1  0
 12  7  1  0
 13  9  1  0
 14  1  1  0
 15 29  1  0
 16  1  2  0
  2 17  1  6
 18  3  2  0
 19  4  2  0
 20 33  1  0
 21  8  2  0
 22 12  2  0
 23  8  1  0
 24 13  2  0
 25 15  2  0
 26  1  1  0
 27  1  1  0
 28 12  1  0
 29 34  1  0
 30 13  1  0
 31 17  1  0
 32 14  1  0
 33 41  2  0
 34 48  2  0
 35 40  2  0
 36 35  1  0
 37 23  1  0
 38 15  1  0
 39 36  1  0
 40 37  1  0
 41 46  1  0
 42 31  1  0
 43 45  2  0
 44 31  2  0
 45 32  1  0
 46 32  2  0
 47 42  2  0
 48 44  1  0
 49  2  1  0
 50 52  2  0
 51 50  1  0
 52 40  1  0
 33 43  1  0
 47 34  1  0
 36 51  2  0
M  END