
          11280715192D 1   1.00000     0.00000     0

 27 28  0     0  0            999 V2000
    4.4167   -3.8667    0.0000 C   0  0  0  0  0  0           0  0  0
    5.1167   -2.6250    0.0000 C   0  0  0  0  0  0           0  0  0
    4.4125   -3.0417    0.0000 N   0  0  0  0  0  0           0  0  0
    3.7125   -4.2875    0.0000 C   0  0  0  0  0  0           0  0  0
    5.1375   -4.2667    0.0000 C   0  0  0  0  0  0           0  0  0
    4.4417   -5.5125    0.0000 C   0  0  0  0  0  0           0  0  0
    5.1417   -5.0917    0.0000 C   0  0  0  0  0  0           0  0  0
    3.7250   -5.1125    0.0000 C   0  0  0  0  0  0           0  0  0
    5.1250   -1.7917    0.0000 N   0  0  0  0  0  0           0  0  0
    5.9042   -2.8750    0.0000 N   0  0  0  0  0  0           0  0  0
    4.4500   -6.3375    0.0000 C   0  0  0  0  0  0           0  0  0
    5.1667   -6.7417    0.0000 N   0  0  0  0  0  0           0  0  0
    5.2167  -10.0417    0.0000 N   0  0  0  0  0  0           0  0  0
    4.5042  -10.4625    0.0000 C   0  0  3  0  0  0           0  0  0
    5.1792   -7.5667    0.0000 O   0  0  0  0  0  0           0  0  0
    2.9917   -3.8792    0.0000 Cl  0  0  0  0  0  0           0  0  0
    6.0792   -4.1875    0.0000 Cl  0  0  0  0  0  0           0  0  0
    5.9125   -8.7917    0.0000 C   0  0  3  0  0  0           0  0  0
    5.2042   -9.2167    0.0000 C   0  0  0  0  0  0           0  0  0
    5.9042   -7.9667    0.0000 C   0  0  0  0  0  0           0  0  0
    6.6292   -9.1917    0.0000 O   0  0  0  0  0  0           0  0  0
    5.9125   -1.5417    0.0000 C   0  0  0  0  0  0           0  0  0
    6.3917   -2.2125    0.0000 C   0  0  0  0  0  0           0  0  0
    3.7417   -6.7542    0.0000 C   0  0  0  0  0  0           0  0  0
    3.7875  -10.0542    0.0000 C   0  0  0  0  0  0           0  0  0
    4.5167  -11.2875    0.0000 C   0  0  0  0  0  0           0  0  0
    4.2792   -9.6667    0.0000 C   0  0  0  0  0  0           0  0  0
  2  3  1  0     0  0
  3  1  1  0     0  0
  4  1  2  0     0  0
  5  1  1  0     0  0
  6  7  1  0     0  0
  7  5  2  0     0  0
  8  4  1  0     0  0
  9  2  2  0     0  0
 10  2  1  0     0  0
 11  6  1  0     0  0
 12 11  2  0     0  0
 13 19  1  0     0  0
 14 13  1  0     0  0
 15 12  1  0     0  0
 16  4  1  0     0  0
 17  5  1  0     0  0
 18 20  1  0     0  0
 19 18  1  0     0  0
 20 15  1  0     0  0
 21 18  1  0     0  0
 22  9  1  0     0  0
 23 10  1  0     0  0
 24 11  1  0     0  0
 25 14  1  0     0  0
 26 14  1  0     0  0
 27 14  1  0     0  0
  6  8  2  0     0  0
 22 23  1  0     0  0
M  END