
  SciTegic02271515072D

 11 10  0  0  0  0            999 V2000
   14.4232   -1.5188    0.0000 C   0  0
   14.4221   -2.3383    0.0000 C   0  0
   15.1301   -2.7473    0.0000 N   0  3
   15.8398   -2.3378    0.0000 C   0  0
   15.8370   -1.5152    0.0000 C   0  0
   15.1284   -1.1099    0.0000 C   0  0
   16.5482   -2.7453    0.0000 C   0  0
   16.5494   -3.5625    0.0000 N   0  0
   17.2578   -3.9700    0.0000 O   0  0
   15.1299   -3.5645    0.0000 C   0  0
   14.0491   -3.3100    0.0000 Br  0  5
  1  2  2  0
  2  3  1  0
  3  4  2  0
  4  5  1  0
  5  6  2  0
  6  1  1  0
  4  7  1  0
  7  8  2  0
  8  9  1  0
  3 10  1  0
M  CHG  2   3   1  11  -1
M  END