
  SciTegic01161211252D

 32 35  0  0  0  0            999 V2000
    0.3718   -2.2021    0.0000 C   0  0
    0.3707   -3.0297    0.0000 C   0  0
    1.0863   -3.4448    0.0000 C   0  0
    1.8035   -3.0292    0.0000 C   0  0
    1.8006   -2.1984    0.0000 C   0  0
    1.0845   -1.7913    0.0000 C   0  0
   -0.3450   -3.4439    0.0000 N   0  0
   -1.0599   -3.0286    0.0000 C   0  0
   -1.7754   -3.4428    0.0000 N   0  0
   -1.0592   -2.2033    0.0000 O   0  0
   -2.4863   -3.0270    0.0000 C   0  0
   -2.7630   -2.2471    0.0000 C   0  0
   -3.5890   -2.2627    0.0000 C   0  0
   -3.8268   -3.0540    0.0000 O   0  0
   -3.1469   -3.5264    0.0000 N   0  0
   -4.0850   -1.6082    0.0000 C   0  0
   -3.7112   -0.8729    0.0000 C   0  0
   -4.9092   -1.6500    0.0000 C   0  0
   -4.6127   -0.9616    0.0000 C   0  0
    2.5144   -1.7852    0.0000 N   0  0
    3.2270   -2.1931    0.0000 C   0  0
    3.2223   -3.0150    0.0000 O   0  0
    3.9443   -1.7861    0.0000 C   0  0
    4.6981   -2.1221    0.0000 C   0  0
    4.0294   -0.9685    0.0000 S   0  0
    4.8373   -0.7959    0.0000 C   0  0
    5.2500   -1.5089    0.0000 C   0  0
    6.0704   -1.5086    0.0000 C   0  0
    6.4792   -0.7960    0.0000 C   0  0
    6.0657   -0.0821    0.0000 C   0  0
    5.2466   -0.0860    0.0000 C   0  0
    7.3045   -0.7942    0.0000 C   0  0
  3  4  2  0
 13 16  1  0
  7  8  1  0
 16 17  1  0
 16 18  1  0
  8  9  1  0
 16 19  1  0
  4  5  1  0
  5 20  1  0
  8 10  2  0
 20 21  1  0
  2  3  1  0
 21 22  2  0
 24 27  1  0
  9 11  1  0
 12 13  2  0
  5  6  2  0
 23 24  2  0
 26 25  1  0
 25 23  1  0
 21 23  1  0
  6  1  1  0
  1  2  2  0
 26 27  2  0
  2  7  1  0
 27 28  1  0
 11 12  1  0
 28 29  2  0
 13 14  1  0
 29 30  1  0
 14 15  1  0
 30 31  2  0
 31 26  1  0
 15 11  2  0
 29 32  1  0
M  END