
          11280714562D 1   1.00000     0.00000     0

 22 24  0     0  0            999 V2000
    2.7792   -1.0125    0.0000 C   0  0  0  0  0  0           0  0  0
    2.2542   -1.3042    0.0000 N   0  0  3  0  0  0           0  0  0
    0.6625   -2.7750    0.0000 N   0  0  0  0  0  0           0  0  0
    0.7000   -2.1750    0.0000 C   0  0  0  0  0  0           0  0  0
    3.3500   -1.1750    0.0000 N   0  0  0  0  0  0           0  0  0
   -0.2375   -2.4167    0.0000 N   0  0  0  0  0  0           0  0  0
    0.0792   -2.9250    0.0000 C   0  0  0  0  0  0           0  0  0
    2.7750   -0.4125    0.0000 S   0  0  0  0  0  0           0  0  0
    0.1417   -1.9625    0.0000 C   0  0  0  0  0  0           0  0  0
    1.2167   -1.8792    0.0000 C   0  0  3  0  0  0           0  0  0
    1.7500   -1.0000    0.0000 C   0  0  0  0  0  0           0  0  0
    2.2500   -1.9000    0.0000 C   0  0  0  0  0  0           0  0  0
    1.2250   -1.2875    0.0000 C   0  0  0  0  0  0           0  0  0
    1.7292   -2.1875    0.0000 C   0  0  0  0  0  0           0  0  0
    3.8667   -0.8750    0.0000 C   0  0  0  0  0  0           0  0  0
    5.4750   -1.6375    0.0000 C   0  0  0  0  0  0           0  0  0
    4.4500   -1.0250    0.0000 C   0  0  0  0  0  0           0  0  0
    5.9917   -1.9375    0.0000 Cl  0  0  0  0  0  0           0  0  0
    4.9500   -1.9250    0.0000 C   0  0  0  0  0  0           0  0  0
    5.4792   -1.0292    0.0000 C   0  0  0  0  0  0           0  0  0
    4.4417   -1.6250    0.0000 C   0  0  0  0  0  0           0  0  0
    4.9625   -0.7292    0.0000 C   0  0  0  0  0  0           0  0  0
  2  1  1  0     0  0
  3  4  1  0     0  0
  4 10  1  0     0  0
  5  1  1  0     0  0
  6  9  1  0     0  0
  7  3  2  0     0  0
  8  1  2  0     0  0
  9  4  2  0     0  0
 10 14  1  0     0  0
 11  2  1  0     0  0
 12  2  1  0     0  0
 13 11  1  0     0  0
 14 12  1  0     0  0
 15  5  1  0     0  0
 16 20  1  0     0  0
 17 15  1  0     0  0
 18 16  1  0     0  0
 19 21  1  0     0  0
 20 22  2  0     0  0
 21 17  2  0     0  0
 22 17  1  0     0  0
 13 10  1  0     0  0
 19 16  2  0     0  0
  6  7  1  0     0  0
M  END