
          11280715142D 1   1.00000     0.00000     0

 34 36  0     0  0            999 V2000
    5.0125   -3.9417    0.0000 C   0  0  3  0  0  0           0  0  0
    5.7292   -4.3500    0.0000 C   0  0  0  0  0  0           0  0  0
    4.3000   -4.3542    0.0000 C   0  0  0  0  0  0           0  0  0
    5.0042   -3.1167    0.0000 C   0  0  0  0  0  0           0  0  0
    6.4292   -3.9292    0.0000 C   0  0  0  0  0  0           0  0  0
    5.7292   -5.1750    0.0000 C   0  0  0  0  0  0           0  0  0
    3.5792   -3.9417    0.0000 C   0  0  0  0  0  0           0  0  0
    2.8667   -4.3625    0.0000 C   0  0  0  0  0  0           0  0  0
    5.7250   -2.7042    0.0000 C   0  0  0  0  0  0           0  0  0
    5.7167   -1.8792    0.0000 C   0  0  0  0  0  0           0  0  0
    4.2917   -2.7125    0.0000 C   0  0  0  0  0  0           0  0  0
    7.1500   -4.3375    0.0000 C   0  0  0  0  0  0           0  0  0
    6.4417   -5.5792    0.0000 C   0  0  0  0  0  0           0  0  0
    9.3000   -5.5667    0.0000 C   0  0  0  0  0  0           0  0  0
    2.8667   -5.1875    0.0000 C   0  0  0  0  0  0           0  0  0
    7.1542   -5.1667    0.0000 C   0  0  0  0  0  0           0  0  0
    4.3000   -5.1875    0.0000 C   0  0  0  0  0  0           0  0  0
   10.0125   -5.1542    0.0000 O   0  0  0  0  0  0           0  0  0
    3.5792   -5.6000    0.0000 C   0  0  0  0  0  0           0  0  0
    7.8750   -5.5792    0.0000 O   0  0  0  0  0  0           0  0  0
    5.0042   -1.4667    0.0000 C   0  0  0  0  0  0           0  0  0
    2.1542   -3.9500    0.0000 C   0  0  3  0  0  0           0  0  0
    8.5875   -5.1625    0.0000 C   0  0  0  0  0  0           0  0  0
    4.2875   -1.8917    0.0000 C   0  0  0  0  0  0           0  0  0
    6.4375   -3.1167    0.0000 O   0  0  0  0  0  0           0  0  0
    9.3042   -6.3917    0.0000 O   0  0  0  0  0  0           0  0  0
    2.1542   -5.6000    0.0000 O   0  0  0  0  0  0           0  0  0
    6.1667   -3.4292    0.0000 C   0  0  0  0  0  0           0  0  0
    5.0125   -5.5875    0.0000 C   0  0  0  0  0  0           0  0  0
    5.0000   -0.6417    0.0000 O   0  0  0  0  0  0           0  0  0
    2.1542   -3.1250    0.0000 C   0  0  0  0  0  0           0  0  0
    1.4417   -4.3625    0.0000 C   0  0  0  0  0  0           0  0  0
    7.1500   -2.7000    0.0000 C   0  0  0  0  0  0           0  0  0
    5.7125   -0.2292    0.0000 C   0  0  0  0  0  0           0  0  0
  2  1  1  0     0  0
  3  1  1  0     0  0
  4  1  1  0     0  0
  5  2  1  0     0  0
  6  2  2  0     0  0
  7  3  2  0     0  0
  8  7  1  0     0  0
  9  4  2  0     0  0
 10  9  1  0     0  0
 11  4  1  0     0  0
 12  5  2  0     0  0
 13  6  1  0     0  0
 14 23  1  0     0  0
 15 19  1  0     0  0
 16 13  2  0     0  0
 17  3  1  0     0  0
 18 14  2  0     0  0
 19 17  2  0     0  0
 20 16  1  0     0  0
 21 24  1  0     0  0
 22  8  1  0     0  0
 23 20  1  0     0  0
 24 11  2  0     0  0
 25  9  1  0     0  0
 26 14  1  0     0  0
 27 15  1  0     0  0
 28  5  1  0     0  0
 29  6  1  0     0  0
 30 21  1  0     0  0
 31 22  1  0     0  0
 32 22  1  0     0  0
 33 25  1  0     0  0
 34 30  1  0     0  0
 21 10  2  0     0  0
 15  8  2  0     0  0
 16 12  1  0     0  0
M  END