
          11280714452D 1   1.00000     0.00000     0

 34 37  0     0  0            999 V2000
   -1.5250   -1.4792    0.0000 C   0  0  0  0  0  0           0  0  0
   -2.5083   -2.3875    0.0000 C   0  0  0  0  0  0           0  0  0
   -1.6875   -2.2917    0.0000 N   0  0  0  0  0  0           0  0  0
   -2.2458   -1.0792    0.0000 N   0  0  0  0  0  0           0  0  0
   -2.8500   -1.6375    0.0000 C   0  0  0  0  0  0           0  0  0
   -0.7750   -1.1417    0.0000 C   0  0  0  0  0  0           0  0  0
   -2.9125   -3.1042    0.0000 C   0  0  0  0  0  0           0  0  0
    0.6542   -1.1500    0.0000 N   0  0  0  0  0  0           0  0  0
   -2.4958   -3.8167    0.0000 S   0  0  0  0  0  0           0  0  0
    7.7750   -0.6042    0.0000 C   0  0  0  0  0  0           0  0  0
    0.6542   -0.3167    0.0000 C   0  0  0  0  0  0           0  0  0
   -0.0625   -1.5542    0.0000 C   0  0  0  0  0  0           0  0  0
   -3.7208   -3.2917    0.0000 C   0  0  0  0  0  0           0  0  0
    7.6042   -1.4125    0.0000 C   0  0  0  0  0  0           0  0  0
   -3.0375   -4.4375    0.0000 C   0  0  0  0  0  0           0  0  0
    7.1500   -0.0542    0.0000 C   0  0  0  0  0  0           0  0  0
   -0.7708   -0.3167    0.0000 C   0  0  0  0  0  0           0  0  0
   -3.7958   -4.1125    0.0000 C   0  0  0  0  0  0           0  0  0
    1.3667    0.0958    0.0000 O   0  0  0  0  0  0           0  0  0
    6.8292   -1.6750    0.0000 C   0  0  0  0  0  0           0  0  0
   -0.0583    0.0958    0.0000 C   0  0  0  0  0  0           0  0  0
    6.3667   -0.3250    0.0000 C   0  0  0  0  0  0           0  0  0
    2.8000    0.0958    0.0000 C   0  0  3  0  0  0           0  0  0
    2.0792   -0.3167    0.0000 C   0  0  0  0  0  0           0  0  0
    6.2125   -1.1292    0.0000 C   0  0  0  0  0  0           0  0  0
    8.5542   -0.3417    0.0000 O   0  0  0  0  0  0           0  0  0
    4.2292    0.0958    0.0000 N   0  0  0  0  0  0           0  0  0
    8.2292   -1.9542    0.0000 O   0  0  0  0  0  0           0  0  0
    2.8000    0.9208    0.0000 O   0  0  0  0  0  0           0  0  0
    3.5125   -0.3167    0.0000 C   0  0  0  0  0  0           0  0  0
    4.9417   -0.3167    0.0000 C   0  0  0  0  0  0           0  0  0
    5.6542    0.0875    0.0000 C   0  0  0  0  0  0           0  0  0
    9.1750   -0.8875    0.0000 C   0  0  0  0  0  0           0  0  0
    8.0667   -2.7667    0.0000 C   0  0  0  0  0  0           0  0  0
  2  3  1  0     0  0
  3  1  2  0     0  0
  4  1  1  0     0  0
  5  4  1  0     0  0
  6  1  1  0     0  0
  7  2  1  0     0  0
  8 12  2  0     0  0
  9  7  1  0     0  0
 10 16  1  0     0  0
 11 21  2  0     0  0
 12  6  1  0     0  0
 13  7  2  0     0  0
 14 20  1  0     0  0
 15  9  1  0     0  0
 16 22  2  0     0  0
 17  6  2  0     0  0
 18 13  1  0     0  0
 19 11  1  0     0  0
 20 25  2  0     0  0
 21 17  1  0     0  0
 22 32  1  0     0  0
 23 24  1  0     0  0
 24 19  1  0     0  0
 25 22  1  0     0  0
 26 10  1  0     0  0
 27 30  1  0     0  0
 28 14  1  0     0  0
 29 23  1  0     0  0
 30 23  1  0     0  0
 31 27  1  0     0  0
 32 31  1  0     0  0
 33 26  1  0     0  0
 34 28  1  0     0  0
  5  2  2  0     0  0
  8 11  1  0     0  0
 18 15  2  0     0  0
 14 10  2  0     0  0
M  END