
  CDK    9/16/09,9:58

 20 23  0  0  0  0  0  0  0  0999 V2000
   11.5933  -21.8493    0.0000 C   0  0  0  0  0  0  0  0  0  0  0  0
   11.5919  -22.6781    0.0000 C   0  0  0  0  0  0  0  0  0  0  0  0
   12.3060  -23.0916    0.0000 C   0  0  0  0  0  0  0  0  0  0  0  0
   12.3040  -21.4358    0.0000 C   0  0  0  0  0  0  0  0  0  0  0  0
   13.0232  -21.8453    0.0000 C   0  0  0  0  0  0  0  0  0  0  0  0
   13.0238  -22.6735    0.0000 C   0  0  0  0  0  0  0  0  0  0  0  0
   13.8117  -22.9290    0.0000 N   0  0  0  0  0  0  0  0  0  0  0  0
   14.2981  -22.2585    0.0000 C   0  0  0  0  0  0  0  0  0  0  0  0
   13.8108  -21.5888    0.0000 N   0  0  0  0  0  0  0  0  0  0  0  0
   15.1206  -22.2599    0.0000 N   0  0  0  0  0  0  0  0  0  0  0  0
   15.5324  -22.9762    0.0000 C   0  0  0  0  0  0  0  0  0  0  0  0
   15.1137  -23.6869    0.0000 C   0  0  0  0  0  0  0  0  0  0  0  0
   15.5221  -24.4011    0.0000 C   0  0  0  0  0  0  0  0  0  0  0  0
   16.3552  -22.9718    0.0000 C   0  0  0  0  0  0  0  0  0  0  0  0
   16.7653  -23.6922    0.0000 C   0  0  0  0  0  0  0  0  0  0  0  0
   16.3490  -24.4041    0.0000 C   0  0  0  0  0  0  0  0  0  0  0  0
   16.7572  -25.1184    0.0000 C   0  0  0  0  0  0  0  0  0  0  0  0
   17.5817  -25.1220    0.0000 C   0  0  0  0  0  0  0  0  0  0  0  0
   17.9960  -24.4054    0.0000 C   0  0  0  0  0  0  0  0  0  0  0  0
   17.5854  -23.6941    0.0000 C   0  0  0  0  0  0  0  0  0  0  0  0
  8 10  1  0  0  0  0 
  4  1  1  0  0  0  0 
  5  6  1  0  0  0  0 
 10 11  1  0  0  0  0 
 11 12  1  0  0  0  0 
  2  3  1  0  0  0  0 
  3  6  2  0  0  0  0 
 11 14  1  0  0  0  0 
 12 13  1  0  0  0  0 
 13 16  1  0  0  0  0 
 15 14  1  0  0  0  0 
  1  2  2  0  0  0  0 
  5  4  2  0  0  0  0 
 15 16  2  0  0  0  0 
  6  7  1  0  0  0  0 
 16 17  1  0  0  0  0 
  7  8  1  0  0  0  0 
 17 18  2  0  0  0  0 
  8  9  2  0  0  0  0 
 18 19  1  0  0  0  0 
  9  5  1  0  0  0  0 
 19 20  2  0  0  0  0 
 20 15  1  0  0  0  0 
M  END