
          11280715092D 1   1.00000     0.00000     0

 24 26  0     0  0            999 V2000
    2.3375    1.7583    0.0000 C   0  0  0  0  0  0           0  0  0
    2.9167    1.6083    0.0000 N   0  0  0  0  0  0           0  0  0
    3.3917    1.9708    0.0000 C   0  0  3  0  0  0           0  0  0
   -2.5833    0.1625    0.0000 N   0  0  3  0  0  0           0  0  0
    3.9875    2.0458    0.0000 C   0  0  0  0  0  0           0  0  0
    3.6167    2.5208    0.0000 C   0  0  0  0  0  0           0  0  0
    2.1792    2.3375    0.0000 O   0  0  0  0  0  0           0  0  0
   -1.9833    0.1583    0.0000 C   0  0  0  0  0  0           0  0  0
    1.9125    1.3333    0.0000 N   0  0  0  0  0  0           0  0  0
   -1.6750    0.6833    0.0000 C   0  0  0  0  0  0           0  0  0
   -1.0958    0.5250    0.0000 C   0  0  0  0  0  0           0  0  0
   -0.6750    0.9458    0.0000 C   0  0  0  0  0  0           0  0  0
    0.9042    1.0625    0.0000 C   0  0  0  0  0  0           0  0  0
   -0.0958    0.7958    0.0000 O   0  0  0  0  0  0           0  0  0
   -2.8833   -0.3542    0.0000 C   0  0  0  0  0  0           0  0  0
   -2.8750    0.6833    0.0000 C   0  0  0  0  0  0           0  0  0
   -1.4125    1.6750    0.0000 C   0  0  0  0  0  0           0  0  0
    1.3292    1.4875    0.0000 C   0  0  0  0  0  0           0  0  0
   -1.8333    1.2583    0.0000 C   0  0  0  0  0  0           0  0  0
    0.3292    1.2208    0.0000 C   0  0  0  0  0  0           0  0  0
   -0.8333    1.5250    0.0000 C   0  0  0  0  0  0           0  0  0
   -3.4750    0.6833    0.0000 C   0  0  0  0  0  0           0  0  0
   -3.4833   -0.3500    0.0000 C   0  0  0  0  0  0           0  0  0
   -3.7833    0.1708    0.0000 C   0  0  0  0  0  0           0  0  0
  2  1  1  0     0  0
  3  2  1  0     0  0
  4  8  1  0     0  0
  5  3  1  0     0  0
  6  3  1  0     0  0
  7  1  2  0     0  0
  8 10  1  0     0  0
  9  1  1  0     0  0
 10 11  2  0     0  0
 11 12  1  0     0  0
 12 14  1  0     0  0
 13 18  1  0     0  0
 14 20  1  0     0  0
 15  4  1  0     0  0
 16  4  1  0     0  0
 17 21  1  0     0  0
 18  9  1  0     0  0
 19 17  2  0     0  0
 20 13  1  0     0  0
 21 12  2  0     0  0
 22 16  1  0     0  0
 23 15  1  0     0  0
 24 22  1  0     0  0
  5  6  1  0     0  0
 19 10  1  0     0  0
 24 23  1  0     0  0
M  END