
          11280714502D 1   1.00000     0.00000     0

 15 16  0     0  0            999 V2000
    5.4542   -2.6375    0.0000 P   0  0  3  0  0  0           0  0  0
    5.0417   -1.9250    0.0000 O   0  0  0  0  0  0           0  0  0
    4.2167   -1.9250    0.0000 C   0  0  0  0  0  0           0  0  0
    3.8042   -1.2042    0.0000 C   0  0  0  0  0  0           0  0  0
    4.7375   -3.0542    0.0000 O   0  0  0  0  0  0           0  0  0
    5.8750   -3.3542    0.0000 O   0  0  0  0  0  0           0  0  0
    6.1792   -2.2167    0.0000 O   0  0  0  0  0  0           0  0  0
    2.9875   -1.2042    0.0000 C   0  0  0  0  0  0           0  0  0
    3.8167   -2.6375    0.0000 C   0  0  0  0  0  0           0  0  0
    2.9917   -2.6417    0.0000 C   0  0  0  0  0  0           0  0  0
    4.2167   -0.5000    0.0000 C   0  0  0  0  0  0           0  0  0
    2.5750   -1.9250    0.0000 C   0  0  0  0  0  0           0  0  0
    2.5792   -0.5042    0.0000 C   0  0  0  0  0  0           0  0  0
    3.8042    0.2125    0.0000 C   0  0  0  0  0  0           0  0  0
    2.9792    0.2083    0.0000 C   0  0  0  0  0  0           0  0  0
  2  1  1  0     0  0
  3  2  1  0     0  0
  4  3  2  0     0  0
  5  1  2  0     0  0
  6  1  1  0     0  0
  7  1  1  0     0  0
  8  4  1  0     0  0
  9  3  1  0     0  0
 10  9  2  0     0  0
 11  4  1  0     0  0
 12 10  1  0     0  0
 13  8  1  0     0  0
 14 11  2  0     0  0
 15 14  1  0     0  0
  8 12  2  0     0  0
 15 13  2  0     0  0
M  END