
  Mrv0541 05211314572D          

 22 23  0  0  0  0            999 V2000
    3.8498  -13.7583    0.0000 C   0  0  0  0  0  0  0  0  0  0  0  0
    3.8498  -14.5833    0.0000 C   0  0  0  0  0  0  0  0  0  0  0  0
    4.5643  -14.9958    0.0000 C   0  0  0  0  0  0  0  0  0  0  0  0
    5.2788  -14.5833    0.0000 C   0  0  0  0  0  0  0  0  0  0  0  0
    5.2788  -13.7583    0.0000 C   0  0  0  0  0  0  0  0  0  0  0  0
    4.5643  -13.3458    0.0000 C   0  0  0  0  0  0  0  0  0  0  0  0
    4.5643  -12.5208    0.0000 C   0  0  0  0  0  0  0  0  0  0  0  0
    3.8498  -12.1083    0.0000 O   0  0  0  0  0  0  0  0  0  0  0  0
    5.2788  -12.1083    0.0000 O   0  0  0  0  0  0  0  0  0  0  0  0
    3.8498  -11.2833    0.0000 C   0  0  0  0  0  0  0  0  0  0  0  0
    3.1353  -10.8708    0.0000 C   0  0  0  0  0  0  0  0  0  0  0  0
    3.1353  -10.0458    0.0000 C   0  0  0  0  0  0  0  0  0  0  0  0
    3.8498   -9.6333    0.0000 C   0  0  0  0  0  0  0  0  0  0  0  0
    4.5643  -10.0458    0.0000 C   0  0  0  0  0  0  0  0  0  0  0  0
    4.5643  -10.8708    0.0000 C   0  0  0  0  0  0  0  0  0  0  0  0
    4.5643  -15.8208    0.0000 N   0  0  0  0  0  0  0  0  0  0  0  0
    5.2788  -16.2333    0.0000 C   0  0  0  0  0  0  0  0  0  0  0  0
    5.2788  -17.0583    0.0000 N   0  0  0  0  0  0  0  0  0  0  0  0
    5.9932  -15.8208    0.0000 N   0  0  0  0  0  0  0  0  0  0  0  0
    3.8498   -8.8083    0.0000 N   0  3  0  0  0  0  0  0  0  0  0  0
    3.1353   -8.3958    0.0000 O   0  0  0  0  0  0  0  0  0  0  0  0
    4.5643   -8.3958    0.0000 O   0  5  0  0  0  0  0  0  0  0  0  0
 10 11  2  0  0  0  0
  5  6  2  0  0  0  0
 11 12  1  0  0  0  0
  6  1  1  0  0  0  0
 12 13  2  0  0  0  0
  1  2  2  0  0  0  0
 13 14  1  0  0  0  0
  6  7  1  0  0  0  0
 14 15  2  0  0  0  0
 15 10  1  0  0  0  0
  3  4  2  0  0  0  0
  3 16  1  0  0  0  0
  7  8  1  0  0  0  0
 16 17  1  0  0  0  0
 17 18  1  0  0  0  0
  7  9  2  0  0  0  0
 17 19  2  0  0  0  0
  4  5  1  0  0  0  0
 13 20  1  0  0  0  0
  8 10  1  0  0  0  0
 20 21  2  0  0  0  0
  2  3  1  0  0  0  0
 20 22  1  0  0  0  0
M  CHG  2  20   1  22  -1
M  END