
  SciTegic04191616232D

180189  0  0  0  0            999 V2000
   15.7239   -3.0033    0.0000 C   0  0
   -5.9126    6.1085    0.0000 O   0  0
   37.4374  -20.5532    0.0000 O   0  0
   10.8836   -0.6193    0.0000 N   0  0
   27.3541  -28.5795    0.0000 C   0  0
   15.4855  -10.9562    0.0000 C   0  0  1  0  0  0
    8.6503   -3.0266    0.0000 O   0  0
   26.8515  -12.4525    0.0000 N   0  0
   20.8564  -18.5566    0.0000 O   0  0
    3.0563   -9.5002    0.0000 N   0  0
   29.3178  -24.7212    0.0000 C   0  0
   17.3975  -12.7180    0.0000 N   0  0
    8.4009   -1.3819    0.0000 C   0  0
   29.9812  -28.0080    0.0000 C   0  0
   14.0212  -10.6269    0.0000 N   0  0
   36.1303  -25.5956    0.0000 C   0  0
    6.9385   -1.0482    0.0000 C   0  0
   17.9686  -10.1855    0.0000 C   0  0
   34.2557  -27.0962    0.0000 C   0  0
   -6.6840    3.3545    0.0000 N   0  3
   21.3956  -20.2808    0.0000 N   0  0
   28.5046  -25.6037    0.0000 O   0  0
   22.4173  -28.2369    0.0000 O   0  0
   16.8261  -15.2521    0.0000 C   0  0
   36.4326  -19.8974    0.0000 O   0  0
  -10.6311    2.7616    0.0000 S   0  0
   13.5734   -9.1944    0.0000 C   0  0
   21.4710   -8.3132    0.0000 C   0  0
   -0.3825    0.6040    0.0000 C   0  0
    0.1889    3.1381    0.0000 N   0  0
   -4.1119    8.0643    0.0000 C   0  0
   10.1971   -7.1033    0.0000 C   0  0
   14.7092   -4.1091    0.0000 N   0  0
   10.8845  -16.5730    0.0000 N   0  0
   10.9786  -13.9407    0.0000 N   0  0
   29.0998  -32.0308    0.0000 C   0  0
   23.1337  -18.0034    0.0000 N   0  0
   26.1879  -14.7002    0.0000 N   0  0
   -1.7231    4.8999    0.0000 C   0  0
   25.9656  -30.7838    0.0000 C   0  0
   33.4337  -28.3519    0.0000 C   0  0
   24.7241  -14.3693    0.0000 C   0  0
   27.2911  -30.0732    0.0000 C   0  0
   26.0931  -27.7600    0.0000 C   0  0
   22.6415   -8.5778    0.0000 N   0  0
   12.2155  -17.9396    0.0000 N   0  0
   10.5291  -12.5087    0.0000 C   0  0
   -5.5473    8.4234    0.0000 C   0  0  1  0  0  0
   -5.0994    6.9910    0.0000 C   0  0
    6.4962    0.3852    0.0000 C   0  0
   17.8454  -14.1505    0.0000 C   0  0  2  0  0  0
   -2.8622   -0.1688    0.0000 C   0  0
    8.9789    1.1510    0.0000 C   0  0
   31.9351  -28.2688    0.0000 C   0  0
   37.4748  -24.9217    0.0000 C   0  0
   33.7202  -25.7354    0.0000 C   0  0
   31.1131  -29.5245    0.0000 C   0  0
   12.8791  -15.6919    0.0000 N   0  0
   13.2439   -3.7842    0.0000 C   0  0
   15.3622  -14.9212    0.0000 C   0  0
   11.3240   -2.0540    0.0000 N   0  3
   -8.5955    5.1135    0.0000 C   0  0
    7.8372   -3.9091    0.0000 C   0  0
   28.7941  -28.1841    0.0000 C   0  0
  -10.5086    6.8713    0.0000 C   0  0
   23.5186  -26.4744    0.0000 O   0  0
   28.8699  -23.2887    0.0000 N   0  0
    4.7929   -7.2234    0.0000 C   0  0
   33.4185  -24.5739    0.0000 C   0  0
   23.5816  -19.4358    0.0000 C   0  0  1  0  0  0
   -9.1556    2.5746    0.0000 C   0  0
    2.5488   -0.0562    0.0000 N   0  0
   -3.6352    6.6616    0.0000 N   0  0
   10.2633  -16.0006    0.0000 N   0  0
   15.3635   -1.8587    0.0000 N   0  0
   16.8954   -3.2631    0.0000 N   0  0
   15.1202  -13.2712    0.0000 O   0  0
   -8.1432    3.6824    0.0000 N   0  0
    4.0131   -0.3855    0.0000 C   0  0  2  0  0  0
   11.6761   -3.2012    0.0000 N   0  5
   -1.8464    0.9349    0.0000 C   0  0
   -4.3260    0.1590    0.0000 C   0  0
    9.3840   -7.9858    0.0000 O   0  0
   -9.4937    7.9759    0.0000 C   0  0
   14.3865   -8.3119    0.0000 O   0  0
   32.6941  -26.8123    0.0000 C   0  0
   36.2844  -22.5942    0.0000 C   0  0
    8.7925  -14.7856    0.0000 N   0  0
   36.2360  -29.3276    0.0000 C   0  0
   12.2292   -4.8900    0.0000 C   0  0
   -4.7740    1.5905    0.0000 C   0  0
    4.2276   -9.7611    0.0000 C   0  0
   27.4057  -22.9594    0.0000 C   0  0
   -5.0066   10.9278    0.0000 C   0  0
    5.3582   -4.6856    0.0000 C   0  0
    4.5870  -10.9061    0.0000 N   0  0
    4.4609   -1.8180    0.0000 C   0  0
   -3.5430   10.5993    0.0000 C   0  0  1  0  0  0
   23.4769  -27.6737    0.0000 S   0  0
   36.6757  -28.2111    0.0000 C   0  0
   31.2298  -26.4830    0.0000 C   0  0
   -7.0408    4.5002    0.0000 N   0  5
   14.3430  -16.0228    0.0000 C   0  0
    7.5165    1.4847    0.0000 C   0  0
   -8.0297    7.6493    0.0000 C   0  0
   26.9579  -21.5270    0.0000 C   0  0
   24.6863  -29.9634    0.0000 C   0  0
    2.9141    2.2588    0.0000 O   0  0
   -1.2753    3.4674    0.0000 C   0  0
   -1.9529    2.7320    0.0000 O   0  0
   11.0944   -9.9709    0.0000 C   0  0
   12.1092   -8.8651    0.0000 C   0  0  1  0  0  0
   20.1227  -13.5973    0.0000 O   0  0
   19.3096  -14.4798    0.0000 C   0  0
    5.9251   -2.1473    0.0000 N   0  0
   34.8732  -24.7864    0.0000 C   0  0
   22.5668  -20.5417    0.0000 C   0  0
    0.6368    1.7056    0.0000 C   0  0  2  0  0  0
   -6.0228    9.8245    0.0000 C   0  0
   28.6928  -30.5885    0.0000 N   0  3
   25.4936  -21.1976    0.0000 C   0  0
  -10.0595    5.4402    0.0000 C   0  0
   21.2217  -16.2416    0.0000 C   0  0  1  0  0  0
   11.8598  -16.7935    0.0000 C   0  0
    3.6478   -2.7005    0.0000 O   0  0
   22.9262  -21.6866    0.0000 O   0  0
    5.8077   -6.1175    0.0000 C   0  0
   -3.1874    5.2292    0.0000 C   0  0
   28.0207  -27.2666    0.0000 C   0  0
   -3.0957    9.1676    0.0000 C   0  0
   -7.0120    8.7524    0.0000 C   0  0
   10.7640   -4.5650    0.0000 C   0  0
   23.7048  -15.4709    0.0000 C   0  0
   15.9333  -12.3887    0.0000 C   0  0
    5.2424   -8.6553    0.0000 N   0  0
  -11.2541    1.3971    0.0000 C   0  0
   -2.2945    2.3665    0.0000 C   0  0
    5.0323    0.7161    0.0000 C   0  0
   30.7820  -25.0505    0.0000 C   0  0
    2.1010    1.3763    0.0000 C   0  0
   19.7574  -15.9123    0.0000 N   0  0
   21.1153   -7.1672    0.0000 N   0  0
    6.3730   -3.5797    0.0000 C   0  0  1  0  0  0
   11.6613   -7.4327    0.0000 N   0  0
   20.4517   -9.4149    0.0000 N   0  0
   29.6170  -29.4414    0.0000 C   0  0
   34.9300  -23.2835    0.0000 C   0  0
   28.3777  -13.8632    0.0000 N   0  0
   27.2072  -13.5986    0.0000 C   0  0
   21.6695  -17.6741    0.0000 C   0  0
   36.3670  -21.0957    0.0000 S   0  0
   -6.2378    1.9215    0.0000 N   0  0
    9.4211   -0.2823    0.0000 C   0  0
   11.5439  -11.4029    0.0000 C   0  0
    8.2850   -5.3415    0.0000 N   0  0
   30.2627  -32.3266    0.0000 C   0  0
   -8.8429    1.1206    0.0000 N   0  0
   -3.7582    2.6943    0.0000 C   0  0
   16.5047   -9.8546    0.0000 C   0  0
   25.0458  -19.7652    0.0000 C   0  0
   -7.5806    6.2180    0.0000 N   0  0
   35.3623  -20.4396    0.0000 O   0  0
   24.7493  -28.4697    0.0000 C   0  0
   35.7437  -27.0381    0.0000 N   0  0
    9.9638  -15.0465    0.0000 C   0  0
  -10.1489    0.3829    0.0000 C   0  0
   22.4593  -27.0378    0.0000 O   0  0
   22.2409  -15.1400    0.0000 C   0  0
   37.5415  -23.4034    0.0000 C   0  0
   18.9879   -9.0839    0.0000 C   0  0
    9.7493   -5.6709    0.0000 C   0  0  1  0  0  0
   -2.5285   11.7053    0.0000 O   0  0
   -2.9781   13.1372    0.0000 C   0  0
   -1.9657   14.2441    0.0000 C   0  0
   -2.4180   15.6743    0.0000 C   0  0
   -3.8827   15.9977    0.0000 C   0  0
   -4.8952   14.8909    0.0000 C   0  0
   -4.4429   13.4607    0.0000 C   0  0
   -0.7939   13.9854    0.0000 F   0  0
   -1.6081   16.5597    0.0000 Cl  0  0
 42 38  1  0
 39109  1  0
171132  1  6
 57146  1  0
134 77  2  0
 94119  1  0
137 81  1  0
  5 44  1  0
 41 54  1  0
 11139  1  0
160121  1  0
 58124  1  0
 49  2  2  0
133 42  1  0
141123  1  0
109110  2  0
104 50  1  0
 36156  1  0
 26136  1  0
138 50  1  0
 68135  1  0
 86 56  1  0
 15  6  1  0
 66 99  2  0
 20102  2  0
 16 55  1  0
116 56  1  0
 53104  2  0
144112  1  0
 64129  1  0
114113  2  0
 27 85  2  0
 78 71  1  0
 59 33  1  0
124 46  1  0
 52 82  1  0
 61 80  2  0
 62122  2  0
 32 83  2  0
 54 57  2  0
165 88  1  0
 84105  1  0
 48131  1  0
  3151  2  0
 91152  1  0
161 62  1  0
100 89  1  0
106 93  1  0
150 37  1  0
116 16  2  0
147116  1  0
164100  1  0
 51114  1  0
122 65  1  0
140 72  1  0
 33  1  1  0
 48119  1  0
107 40  2  0
166157  1  0
111154  1  0
149148  2  0
 49 73  1  0
 97125  2  0
120 36  1  0
 50 17  2  0
118 29  1  6
 31130  1  0
132 90  1  0
 38149  1  0
  6134  1  0
 90 59  1  0
150  9  2  0
 18170  1  0
164 16  1  0
 72 79  1  0
127 68  1  0
 44163  2  0
 51 24  1  1
 48 49  1  1
 24 60  1  0
101 86  1  0
 98 94  1  0
 43  5  2  0
159 18  1  0
 99 23  1  0
 65 84  2  0
 27 15  1  0
 63155  1  0
 64 14  1  0
128 39  1  0
 28142  1  0
 95127  1  0
 43120  1  0
170145  1  0
 63  7  2  0
 35165  1  0
109 30  1  0
163107  1  0
112 27  1  0
153  4  1  0
140108  2  0
153 53  1  0
 79 97  1  0
171 32  1  0
123150  1  0
151162  2  0
 99167  2  0
 56 69  1  0
 70117  1  0
  6159  1  6
130 98  1  0
 92 10  1  0
 60103  1  0
165 74  2  0
  1 75  1  0
 11 22  2  0
134 12  1  0
 28 45  2  0
 62 78  1  0
124 34  2  0
 97115  1  0
143 63  1  0
139101  1  0
157 71  2  0
169 87  1  0
118140  1  0
117126  2  0
136166  2  0
 93 67  1  0
115143  1  0
 79138  1  1
154 47  1  0
155171  1  0
149  8  1  0
 12 51  1  0
 29 81  1  0
 32144  1  0
 82 91  2  0
123168  1  6
 19164  1  0
 71 26  1  0
 73128  1  0
 81 52  2  0
145 28  1  0
112111  1  1
 19 41  2  0
 17 13  1  0
135 92  1  0
 91158  1  0
117 21  1  0
103 58  1  0
131105  1  0
 30118  1  0
 40 43  1  0
151 25  1  0
  4 61  2  0
 92 96  2  0
163 99  1  0
120146  2  0
 48 31  1  0
 13153  2  0
121106  1  0
168133  1  0
 37 70  1  0
114141  1  0
152 20  2  0
 87147  2  0
 47 35  1  0
105161  2  0
 64  5  1  0
 70160  1  6
  1 76  2  0
158137  2  0
143 95  1  1
 67 11  1  0
 87151  1  0
 56 19  1  0
146 64  1  0
 55169  2  0
 98172  1  6
172173  1  0
173174  2  0
174175  1  0
175176  2  0
176177  1  0
177178  2  0
178173  1  0
174179  1  0
175180  1  0
M  CHG  5  20   1  61   1  80  -1 102  -1 120   1
M  END