
          11280715262D 1   1.00000     0.00000     0

 22 25  0     0  0            999 V2000
   -0.2125    0.7708    0.0000 C   0  0  0  0  0  0           0  0  0
   -0.9250    0.3500    0.0000 C   0  0  0  0  0  0           0  0  0
   -2.3458   -0.4875    0.0000 C   0  0  3  0  0  0           0  0  0
   -1.6458    0.7583    0.0000 N   0  0  0  0  0  0           0  0  0
    0.4917    0.3458    0.0000 C   0  0  0  0  0  0           0  0  0
   -0.2000    1.5958    0.0000 C   0  0  0  0  0  0           0  0  0
   -3.1000   -1.7875    0.0000 C   0  0  3  0  0  0           0  0  0
   -1.6333   -1.7250    0.0000 C   0  0  3  0  0  0           0  0  0
   -2.8083   -2.1542    0.0000 C   0  0  3  0  0  0           0  0  0
   -1.6333   -0.9042    0.0000 C   0  0  0  0  0  0           0  0  0
   -2.8083   -1.1167    0.0000 C   0  0  0  0  0  0           0  0  0
   -3.1083   -0.8875    0.0000 C   0  0  0  0  0  0           0  0  0
   -0.9208   -0.4750    0.0000 O   0  0  0  0  0  0           0  0  0
   -2.3500    0.3375    0.0000 C   0  0  0  0  0  0           0  0  0
   -1.9833   -2.4375    0.0000 C   0  0  0  0  0  0           0  0  0
   -3.4458   -2.4375    0.0000 C   0  0  0  0  0  0           0  0  0
   -2.3208   -2.0792    0.0000 C   0  0  0  0  0  0           0  0  0
    1.2167    0.7458    0.0000 C   0  0  0  0  0  0           0  0  0
    0.5167    1.9958    0.0000 C   0  0  0  0  0  0           0  0  0
    0.4875   -0.4792    0.0000 Cl  0  0  0  0  0  0           0  0  0
    1.2292    1.5708    0.0000 C   0  0  0  0  0  0           0  0  0
    0.5292    2.8208    0.0000 O   0  0  0  0  0  0           0  0  0
  2  1  1  0     0  0
  3 14  1  0     0  0
  4  2  1  0     0  0
  5  1  2  0     0  0
  6  1  1  0     0  0
  7 12  1  0     0  0
  8 10  1  0     0  0
  9 11  1  0     0  0
 10  3  1  0     0  0
 11  3  1  0     0  0
 12  3  1  0     0  0
 13  2  2  0     0  0
 14  4  1  0     0  0
 15  9  1  0     0  0
 16  7  1  0     0  0
 17  7  1  0     0  0
 18  5  1  0     0  0
 19  6  2  0     0  0
 20  5  1  0     0  0
 21 19  1  0     0  0
 22 19  1  0     0  0
 21 18  2  0     0  0
  8 17  1  0     0  0
  9 16  1  0     0  0
  8 15  1  0     0  0
M  END