
  SciTegic03291108542D

 26 29  0  0  0  0            999 V2000
   -0.5170   -2.2468    0.0000 S   0  0
    0.9821    0.0707    0.0000 S   0  0
   -3.4477    1.1719    0.0000 F   0  0
   -2.8123    0.1934    0.0000 F   0  0
   -2.4692    1.8074    0.0000 F   0  0
    0.9821   -2.4043    0.0000 N   0  0
    1.6966   -1.1668    0.0000 N   0  0
    1.7828    1.3036    0.0000 N   0  0
    2.4503    0.1476    0.0000 N   0  0
    2.5898    1.4752    0.0000 N   0  0
    3.0023    0.7607    0.0000 N   0  0
    0.2677   -1.1668    0.0000 C   0  0
   -0.5170   -0.9119    0.0000 C   0  0
    0.2677   -1.9918    0.0000 C   0  0
    0.9821   -0.7543    0.0000 C   0  0
   -0.7719   -0.1273    0.0000 C   0  0
   -1.0019   -1.5793    0.0000 C   0  0
   -1.5789    0.0443    0.0000 C   0  0
    1.6966    0.4832    0.0000 C   0  0
   -1.8338    0.8289    0.0000 C   0  0
   -0.2199    0.4858    0.0000 C   0  0
    1.6966   -1.9918    0.0000 C   0  0
   -2.6408    1.0004    0.0000 C   0  0
   -1.2818    1.4420    0.0000 C   0  0
   -0.4748    1.2704    0.0000 C   0  0
    1.1698    1.8557    0.0000 C   0  0
  1 14  1  0
  1 17  1  0
  2 15  1  0
  2 19  1  0
  3 23  1  0
  4 23  1  0
  5 23  1  0
  6 14  2  0
  6 22  1  0
  7 15  1  0
  7 22  2  0
  8 10  1  0
  8 19  1  0
  8 26  1  0
  9 11  1  0
  9 19  2  0
 10 11  2  0
 12 13  1  0
 12 14  1  0
 12 15  2  0
 13 16  1  0
 13 17  2  0
 16 18  2  0
 16 21  1  0
 18 20  1  0
 20 23  1  0
 20 24  2  0
 21 25  2  0
 24 25  1  0
M  END