
  SciTegic01161211252D

 27 30  0  0  0  0            999 V2000
   -1.2843    1.2792    0.0000 N   0  0
   -0.5704    0.8656    0.0000 C   0  0
   -0.5716    0.0406    0.0000 O   0  0
    0.1446    1.2771    0.0000 C   0  0
    0.8569    0.8627    0.0000 N   0  0
    1.5714    1.2735    0.0000 C   0  0
    1.5731    2.0993    0.0000 C   0  0
    0.8542    2.5127    0.0000 C   0  0
    0.1425    2.0996    0.0000 C   0  0
    2.2876    2.5117    0.0000 O   0  0
    3.0020    2.0992    0.0000 C   0  0
    2.9971    1.2739    0.0000 C   0  0
    3.7107    0.8614    0.0000 C   0  0
    4.4262    1.2739    0.0000 C   0  0
    4.4237    2.1032    0.0000 C   0  0
    3.7095    2.5119    0.0000 C   0  0
   -1.9672    0.8163    0.0000 C   0  0
   -2.7576    1.0595    0.0000 C   0  0
   -1.2255    2.1017    0.0000 C   0  0
   -3.0620    1.8250    0.0000 N   0  0
   -1.8318    2.6633    0.0000 C   0  0
   -2.6481    2.5372    0.0000 C   0  0
   -3.8867    1.8248    0.0000 C   0  0
   -4.4685    2.4097    0.0000 C   0  0
   -5.0534    1.8279    0.0000 C   0  0
   -4.4716    1.2430    0.0000 C   0  0
    5.1412    0.8622    0.0000 F   0  0
  6  7  2  0
 13 14  2  0
  2  4  1  0
 14 15  1  0
  7  8  1  0
 15 16  2  0
 16 11  1  0
  1 17  1  0
  8  9  2  0
 17 18  1  0
  9  4  1  0
  1 19  1  0
  4  5  2  0
 18 20  1  0
  7 10  1  0
 19 21  1  0
  2  3  2  0
 20 22  1  0
 21 22  1  0
 23 24  1  0
 10 11  1  0
  5  6  1  0
 11 12  2  0
  1  2  1  0
 24 25  1  0
 25 26  1  0
 26 23  1  0
 20 23  1  0
 12 13  1  0
 14 27  1  0
M  END