
  SciTegic02271514512D

 23 25  0  0  0  0            999 V2000
    2.2700   -1.4693    0.0000 C   0  0
    2.2700   -2.2865    0.0000 C   0  0
    2.9753   -2.6910    0.0000 C   0  0
    3.6805   -2.2865    0.0000 C   0  0
    3.6805   -1.4693    0.0000 C   0  0
    2.9753   -1.0566    0.0000 C   0  0
    1.5638   -2.6966    0.0000 C   0  0
    0.8552   -2.2873    0.0000 C   0  0
    0.1486   -2.6962    0.0000 C   0  0
    0.1493   -3.5143    0.0000 C   0  0
    0.8626   -3.9217    0.0000 C   0  0
    1.5663   -3.5104    0.0000 C   0  0
    2.9753   -0.2394    0.0000 O   0  0
    4.3894   -1.0628    0.0000 S   0  0
    5.0959   -1.4734    0.0000 C   0  0
    4.3876   -2.6961    0.0000 O   0  0
    5.0920   -2.2917    0.0000 C   0  0
    5.7976   -2.7023    0.0000 C   0  0
    6.5075   -2.2957    0.0000 C   0  0
    6.5073   -1.4743    0.0000 C   0  0
    5.8010   -1.0674    0.0000 C   0  0
    5.8011   -0.2502    0.0000 Cl  0  0
    0.8549   -1.4701    0.0000 Cl  0  0
  1  2  1  0
  1  6  1  0
  2  3  1  0
  3  4  1  0
  4  5  1  0
  5  6  2  0
  7  8  2  0
  8  9  1  0
  9 10  2  0
 10 11  1  0
 11 12  2  0
 12  7  1  0
  2  7  1  0
  6 13  1  0
  5 14  1  0
 14 15  1  0
  4 16  2  0
 15 17  2  0
 17 18  1  0
 18 19  2  0
 19 20  1  0
 20 21  2  0
 21 15  1  0
 21 22  1  0
  8 23  1  0
M  END