
  CDK    9/16/09,9:54

 40 43  0  0  0  0  0  0  0  0999 V2000
   -2.5250   -0.8167    0.0000 C   0  0  0  0  0  0  0  0  0  0  0  0
   -2.5250   -1.6417    0.0000 C   0  0  0  0  0  0  0  0  0  0  0  0
   -1.8130   -2.0500    0.0000 C   0  0  0  0  0  0  0  0  0  0  0  0
   -1.1010   -1.6417    0.0000 C   0  0  0  0  0  0  0  0  0  0  0  0
   -1.1010   -0.8167    0.0000 O   0  0  0  0  0  0  0  0  0  0  0  0
   -1.8130   -0.4000    0.0000 C   0  0  0  0  0  0  0  0  0  0  0  0
   -1.8130    0.4250    0.0000 C   0  0  0  0  0  0  0  0  0  0  0  0
   -1.0985    0.8375    0.0000 O   0  0  0  0  0  0  0  0  0  0  0  0
   -3.2407   -0.4063    0.0000 O   0  0  0  0  0  0  0  0  0  0  0  0
   -3.2389   -2.0552    0.0000 O   0  0  0  0  0  0  0  0  0  0  0  0
   -3.9539   -1.6437    0.0000 C   0  0  0  0  0  0  0  0  0  0  0  0
   -4.6678   -2.0573    0.0000 C   0  0  0  0  0  0  0  0  0  0  0  0
   -5.3803   -1.6454    0.0000 C   0  0  0  0  0  0  0  0  0  0  0  0
   -6.0980   -2.0583    0.0000 C   0  0  0  0  0  0  0  0  0  0  0  0
   -6.0987   -2.8841    0.0000 C   0  0  0  0  0  0  0  0  0  0  0  0
   -5.3728   -3.2954    0.0000 C   0  0  0  0  0  0  0  0  0  0  0  0
   -4.6624   -2.8802    0.0000 C   0  0  0  0  0  0  0  0  0  0  0  0
   -1.8130   -2.8750    0.0000 O   0  0  0  0  0  0  0  0  0  0  0  0
   -0.3871   -2.0552    0.0000 S   0  0  0  0  0  0  0  0  0  0  0  0
    0.3280   -1.6437    0.0000 C   0  0  0  0  0  0  0  0  0  0  0  0
    1.0381   -2.0611    0.0000 O   0  0  0  0  0  0  0  0  0  0  0  0
    1.7510   -1.6532    0.0000 C   0  0  0  0  0  0  0  0  0  0  0  0
    1.7565   -0.8279    0.0000 C   0  0  0  0  0  0  0  0  0  0  0  0
    1.0428   -0.4121    0.0000 C   0  0  0  0  0  0  0  0  0  0  0  0
    0.3236   -0.8217    0.0000 C   0  0  0  0  0  0  0  0  0  0  0  0
    0.3208   -2.4667    0.0000 H   0  0  0  0  0  0  0  0  0  0  0  0
    2.4633   -2.0694    0.0000 C   0  0  0  0  0  0  0  0  0  0  0  0
    2.4590   -2.8944    0.0000 O   0  0  0  0  0  0  0  0  0  0  0  0
    2.4731   -0.4191    0.0000 O   0  0  0  0  0  0  0  0  0  0  0  0
    1.0468    0.4129    0.0000 O   0  0  0  0  0  0  0  0  0  0  0  0
    1.7632    0.8219    0.0000 C   0  0  0  0  0  0  0  0  0  0  0  0
    1.7672    1.6469    0.0000 C   0  0  0  0  0  0  0  0  0  0  0  0
    2.4757    0.4059    0.0000 O   0  0  0  0  0  0  0  0  0  0  0  0
   -0.3908   -0.4090    0.0000 O   0  0  0  0  0  0  0  0  0  0  0  0
   -3.9551   -0.8187    0.0000 O   0  0  0  0  0  0  0  0  0  0  0  0
    2.4836    2.0520    0.0000 C   0  0  0  0  0  0  0  0  0  0  0  0
    2.4880    2.8762    0.0000 C   0  0  0  0  0  0  0  0  0  0  0  0
    1.7750    3.2930    0.0000 C   0  0  0  0  0  0  0  0  0  0  0  0
    1.0561    2.8796    0.0000 C   0  0  0  0  0  0  0  0  0  0  0  0
    1.0553    2.0567    0.0000 C   0  0  0  0  0  0  0  0  0  0  0  0
  2  3  1  0  0  0  0 
 19 20  1  0  0  0  0 
 20 21  1  0  0  0  0 
  2 10  1  1  0  0  0 
  3  4  1  0  0  0  0 
 10 11  1  0  0  0  0 
  4  5  1  0  0  0  0 
 11 12  1  0  0  0  0 
 20 25  1  0  0  0  0 
 21 22  1  0  0  0  0 
 22 23  1  0  0  0  0 
 23 24  1  0  0  0  0 
 24 25  1  0  0  0  0 
  5  6  1  0  0  0  0 
 20 26  1  6  0  0  0 
 12 13  2  0  0  0  0 
 22 27  1  1  0  0  0 
 27 28  1  0  0  0  0 
 13 14  1  0  0  0  0 
 23 29  1  1  0  0  0 
  6  7  1  1  0  0  0 
 24 30  1  1  0  0  0 
 14 15  2  0  0  0  0 
 30 31  1  0  0  0  0 
  1  2  1  0  0  0  0 
 31 32  1  0  0  0  0 
 15 16  1  0  0  0  0 
 31 33  2  0  0  0  0 
  7  8  1  0  0  0  0 
 25 34  1  6  0  0  0 
 16 17  2  0  0  0  0 
 11 35  2  0  0  0  0 
 17 12  1  0  0  0  0 
 32 36  2  0  0  0  0 
  1  6  1  0  0  0  0 
 36 37  1  0  0  0  0 
  3 18  1  6  0  0  0 
 37 38  2  0  0  0  0 
  1  9  1  1  0  0  0 
 38 39  1  0  0  0  0 
  4 19  1  1  0  0  0 
 39 40  2  0  0  0  0 
 40 32  1  0  0  0  0 
M  END