
          11280715072D 1   1.00000     0.00000     0

 14 15  0     0  0            999 V2000
    2.7625   -3.5917    0.0000 C   0  0  0  0  0  0           0  0  0
    2.2417   -3.9000    0.0000 C   0  0  0  0  0  0           0  0  0
    1.7250   -3.6000    0.0000 C   0  0  0  0  0  0           0  0  0
    2.2417   -4.5042    0.0000 C   0  0  0  0  0  0           0  0  0
    3.2875   -3.8917    0.0000 C   0  0  0  0  0  0           0  0  0
    2.7542   -2.9917    0.0000 C   0  0  0  0  0  0           0  0  0
    3.8000   -2.9875    0.0000 C   0  0  0  0  0  0           0  0  0
    1.2042   -4.5042    0.0000 C   0  0  0  0  0  0           0  0  0
    3.8042   -3.5917    0.0000 C   0  0  0  0  0  0           0  0  0
    1.2042   -3.9042    0.0000 C   0  0  0  0  0  0           0  0  0
    3.2750   -2.6917    0.0000 C   0  0  0  0  0  0           0  0  0
    1.7250   -4.8042    0.0000 C   0  0  0  0  0  0           0  0  0
    0.6875   -4.8042    0.0000 O   0  0  0  0  0  0           0  0  0
    4.3167   -2.6875    0.0000 O   0  0  0  0  0  0           0  0  0
  2  1  1  0     0  0
  3  2  2  0     0  0
  4  2  1  0     0  0
  5  1  2  0     0  0
  6  1  1  0     0  0
  7 11  1  0     0  0
  8 12  1  0     0  0
  9  5  1  0     0  0
 10  3  1  0     0  0
 11  6  2  0     0  0
 12  4  2  0     0  0
 13  8  1  0     0  0
 14  7  1  0     0  0
  7  9  2  0     0  0
  8 10  2  0     0  0
M  END