
          11280715472D 1   1.00000     0.00000     0

 23 25  0     0  0            999 V2000
    1.7375    2.4333    0.0000 N   0  0  3  0  0  0           0  0  0
   -1.1208   -2.5042    0.0000 N   0  0  3  0  0  0           0  0  0
    1.0167    2.8583    0.0000 C   0  0  0  0  0  0           0  0  0
    1.7375    1.6083    0.0000 C   0  0  0  0  0  0           0  0  0
    0.3000    2.4333    0.0000 C   0  0  0  0  0  0           0  0  0
    1.0167    1.2000    0.0000 C   0  0  0  0  0  0           0  0  0
   -2.5458   -3.3167    0.0000 O   0  0  0  0  0  0           0  0  0
   -0.4000   -2.1000    0.0000 C   0  0  0  0  0  0           0  0  0
   -0.4083    1.2000    0.0000 O   0  0  0  0  0  0           0  0  0
    2.4542    2.8583    0.0000 C   0  0  3  0  0  0           0  0  0
    0.3000    1.6208    0.0000 C   0  0  3  0  0  0           0  0  0
   -0.4083    0.3833    0.0000 C   0  0  0  0  0  0           0  0  0
   -0.4000   -1.2667    0.0000 C   0  0  0  0  0  0           0  0  0
   -1.1208   -0.0292    0.0000 C   0  0  0  0  0  0           0  0  0
    0.3125   -0.0292    0.0000 C   0  0  0  0  0  0           0  0  0
    0.3167   -0.8542    0.0000 C   0  0  0  0  0  0           0  0  0
   -1.1208   -0.8542    0.0000 C   0  0  0  0  0  0           0  0  0
   -1.1208   -3.3292    0.0000 C   0  0  0  0  0  0           0  0  0
   -1.8250   -2.1000    0.0000 C   0  0  0  0  0  0           0  0  0
   -1.8458   -3.7417    0.0000 C   0  0  0  0  0  0           0  0  0
   -2.5458   -2.5000    0.0000 C   0  0  0  0  0  0           0  0  0
    2.4542    3.6833    0.0000 C   0  0  0  0  0  0           0  0  0
    3.1625    2.4333    0.0000 C   0  0  0  0  0  0           0  0  0
  2  8  1  0     0  0
  3  1  1  0     0  0
  4  1  1  0     0  0
  5  3  1  0     0  0
  6  4  1  0     0  0
  7 21  1  0     0  0
  8 13  1  0     0  0
  9 11  1  0     0  0
 10  1  1  0     0  0
 11  6  1  0     0  0
 12  9  1  0     0  0
 13 16  2  0     0  0
 14 12  1  0     0  0
 15 12  2  0     0  0
 16 15  1  0     0  0
 17 14  2  0     0  0
 18  2  1  0     0  0
 19  2  1  0     0  0
 20 18  1  0     0  0
 21 19  1  0     0  0
 22 10  1  0     0  0
 23 10  1  0     0  0
  5 11  1  0     0  0
 13 17  1  0     0  0
  7 20  1  0     0  0
M  END