
  Mrv0541 05211314572D          

 21 22  0  0  0  0            999 V2000
    8.2353   -4.0834    0.0000 C   0  0  0  0  0  0  0  0  0  0  0  0
    7.5208   -4.4959    0.0000 C   0  0  0  0  0  0  0  0  0  0  0  0
    7.5208   -5.3209    0.0000 C   0  0  0  0  0  0  0  0  0  0  0  0
    8.2353   -5.7334    0.0000 C   0  0  0  0  0  0  0  0  0  0  0  0
    8.9498   -5.3209    0.0000 C   0  0  0  0  0  0  0  0  0  0  0  0
    8.9498   -4.4959    0.0000 C   0  0  0  0  0  0  0  0  0  0  0  0
    8.2353   -3.2584    0.0000 C   0  0  0  0  0  0  0  0  0  0  0  0
    8.9498   -2.8459    0.0000 C   0  0  0  0  0  0  0  0  0  0  0  0
    9.6642   -3.2584    0.0000 C   0  0  0  0  0  0  0  0  0  0  0  0
    9.6642   -4.0834    0.0000 O   0  0  0  0  0  0  0  0  0  0  0  0
   10.3787   -2.8459    0.0000 O   0  0  0  0  0  0  0  0  0  0  0  0
    7.5208   -2.8459    0.0000 C   0  0  0  0  0  0  0  0  0  0  0  0
    6.8064   -3.2584    0.0000 C   0  0  0  0  0  0  0  0  0  0  0  0
    6.0919   -2.8459    0.0000 C   0  0  0  0  0  0  0  0  0  0  0  0
    5.3774   -3.2584    0.0000 C   0  0  0  0  0  0  0  0  0  0  0  0
    4.6629   -2.8459    0.0000 C   0  0  0  0  0  0  0  0  0  0  0  0
    4.6629   -2.0209    0.0000 C   0  0  0  0  0  0  0  0  0  0  0  0
    5.3774   -1.6084    0.0000 C   0  0  0  0  0  0  0  0  0  0  0  0
    6.0919   -2.0209    0.0000 C   0  0  0  0  0  0  0  0  0  0  0  0
    3.9485   -1.6084    0.0000 Cl  0  0  0  0  0  0  0  0  0  0  0  0
    3.9485   -3.2584    0.0000 Cl  0  0  0  0  0  0  0  0  0  0  0  0
  2  3  1  0  0  0  0
  9 11  1  0  0  0  0
  5  6  2  0  0  0  0
  7 12  1  0  0  0  0
  6  1  1  0  0  0  0
 12 13  1  0  0  0  0
  1  2  2  0  0  0  0
 13 14  1  0  0  0  0
  1  7  1  0  0  0  0
 14 15  2  0  0  0  0
  3  4  2  0  0  0  0
 15 16  1  0  0  0  0
  7  8  2  0  0  0  0
 16 17  2  0  0  0  0
 17 18  1  0  0  0  0
  8  9  1  0  0  0  0
 18 19  2  0  0  0  0
 19 14  1  0  0  0  0
  4  5  1  0  0  0  0
 17 20  1  0  0  0  0
  9 10  2  0  0  0  0
 16 21  1  0  0  0  0
M  END