
  SciTegic01201417202D

169175  0  0  0  0            999 V2000
    7.5671  -26.9089    0.0000 C   0  0
    7.1566  -26.2002    0.0000 C   0  0  1  0  0  0
    6.7457  -26.9061    0.0000 C   0  0
   14.6574  -24.2257    0.0000 C   0  0
   14.2512  -23.5171    0.0000 C   0  0  1  0  0  0
   13.8403  -24.2230    0.0000 C   0  0
    7.8488  -24.9488    0.0000 O   0  0
    7.8755  -25.7737    0.0000 C   0  0
    8.5962  -26.1604    0.0000 N   0  0
    9.3072  -25.7306    0.0000 C   0  0  2  0  0  0
    8.5514  -24.5107    0.0000 O   0  0
    9.2848  -24.9056    0.0000 C   0  0
   10.0322  -26.1216    0.0000 C   0  0  1  0  0  0
   10.7346  -25.6921    0.0000 C   0  0
   10.0546  -26.9465    0.0000 C   0  0
   10.7794  -27.3418    0.0000 C   0  0
    9.9874  -24.4675    0.0000 N   0  0
    9.9607  -23.6426    0.0000 C   0  0  2  0  0  0
   10.6407  -22.3881    0.0000 O   0  0
   10.6588  -23.2130    0.0000 C   0  0
    9.2400  -23.2516    0.0000 C   0  0
    9.2133  -22.4266    0.0000 C   0  0
    8.4756  -22.0316    0.0000 C   0  0
    9.9116  -21.9885    0.0000 C   0  0
   11.3909  -23.5995    0.0000 N   0  0
   12.0810  -23.1700    0.0000 C   0  0  2  0  0  0
   12.8380  -24.3857    0.0000 O   0  0
   12.8175  -23.5607    0.0000 C   0  0
   12.0605  -22.3451    0.0000 C   0  0
   12.7678  -21.9066    0.0000 C   0  0
   12.7429  -21.0818    0.0000 O   0  0
   13.4987  -22.3017    0.0000 O   0  0
   13.5236  -23.1310    0.0000 N   0  0
   14.9335  -22.2630    0.0000 O   0  0
   14.9584  -23.0878    0.0000 C   0  0
   15.6860  -23.4745    0.0000 N   0  0
   16.3888  -23.0447    0.0000 C   0  0  2  0  0  0
   17.1413  -24.2606    0.0000 O   0  0
   17.1121  -23.4356    0.0000 C   0  0
   16.3639  -22.2199    0.0000 C   0  0
   17.8282  -22.0963    0.0000 N   0  0
   18.3618  -21.4690    0.0000 C   0  0
   17.9320  -20.7661    0.0000 N   0  0
   17.1309  -20.9587    0.0000 C   0  0
   17.0667  -21.7815    0.0000 C   0  0
   17.8150  -23.0061    0.0000 N   0  0
   18.5422  -23.3927    0.0000 C   0  0  2  0  0  0
   19.2166  -22.1382    0.0000 O   0  0
   19.2440  -22.9631    0.0000 C   0  0
   18.5610  -24.2177    0.0000 C   0  0
   17.8604  -24.6559    0.0000 C   0  0
   19.2946  -24.6171    0.0000 C   0  0
   22.0360  -20.3977    0.0000 N   0  0
   22.0155  -19.5728    0.0000 C   0  0
   21.2877  -19.1819    0.0000 N   0  0
   22.7139  -19.1390    0.0000 N   0  0
   19.9690  -23.3497    0.0000 N   0  0
   20.6751  -22.9199    0.0000 C   0  0  2  0  0  0
   21.4327  -24.1357    0.0000 O   0  0
   21.4078  -23.3107    0.0000 C   0  0
   20.6477  -22.0908    0.0000 C   0  0
   21.3624  -21.6566    0.0000 C   0  0
   21.3376  -20.8317    0.0000 C   0  0
   24.3391  -25.7080    0.0000 N   0  0
   24.3639  -26.5329    0.0000 C   0  0
   25.0917  -26.9237    0.0000 N   0  0
   23.6568  -26.9669    0.0000 N   0  0
   22.1150  -22.8767    0.0000 N   0  0
   22.8340  -23.2678    0.0000 C   0  0  2  0  0  0
   23.5162  -22.0088    0.0000 O   0  0
   23.5368  -22.8338    0.0000 C   0  0
   22.8589  -24.0969    0.0000 C   0  0
   23.5866  -24.4878    0.0000 C   0  0
   23.6115  -25.3128    0.0000 C   0  0
   24.2687  -23.2290    0.0000 N   0  0
   24.9716  -22.7949    0.0000 C   0  0  2  0  0  0
   25.7241  -24.0108    0.0000 O   0  0
   25.6992  -23.1858    0.0000 C   0  0
   24.9467  -21.9657    0.0000 C   0  0
   24.2190  -21.5749    0.0000 C   0  0
   25.6537  -21.5360    0.0000 C   0  0
   26.4064  -22.7518    0.0000 N   0  0
   27.1339  -23.1427    0.0000 C   0  0  2  0  0  0
   27.8076  -21.8838    0.0000 O   0  0
   27.8368  -22.7131    0.0000 C   0  0
   27.1546  -23.9719    0.0000 C   0  0
   28.6234  -24.0028    0.0000 C   0  0
   27.8865  -24.3628    0.0000 C   0  0
   29.1940  -24.6054    0.0000 N   0  0
   27.9959  -25.1805    0.0000 C   0  0
   28.8074  -25.3287    0.0000 C   0  0
   29.0810  -26.1086    0.0000 C   0  0
   28.5431  -26.7403    0.0000 C   0  0
   27.7316  -26.5878    0.0000 C   0  0
   27.4579  -25.8121    0.0000 C   0  0
   30.6231  -20.1479    0.0000 N   0  0
   31.3508  -20.5432    0.0000 C   0  0
   32.0579  -20.1091    0.0000 N   0  0
   31.3756  -21.3680    0.0000 N   0  0
   28.5558  -23.1041    0.0000 N   0  0
   29.2630  -22.6700    0.0000 C   0  0  2  0  0  0
   30.0155  -23.8859    0.0000 O   0  0
   29.9906  -23.0609    0.0000 C   0  0
   29.2381  -21.8452    0.0000 C   0  0
   29.9408  -21.4112    0.0000 C   0  0
   29.9203  -20.5819    0.0000 C   0  0
   30.6934  -22.6269    0.0000 N   0  0
    6.4401  -25.8000    0.0000 N   0  0
    5.7354  -26.2206    0.0000 C   0  0
    5.7472  -27.0415    0.0000 O   0  0
    5.0190  -25.8160    0.0000 C   0  0  1  0  0  0
    4.3100  -26.2409    0.0000 N   0  0
    3.5935  -25.8364    0.0000 C   0  0
    3.5817  -25.0156    0.0000 O   0  0
    7.1542  -27.6224    0.0000 C   0  0
    7.5623  -28.3344    0.0000 C   0  0
   14.2485  -24.9393    0.0000 C   0  0
   13.8356  -25.6485    0.0000 C   0  0
   14.2437  -26.3605    0.0000 C   0  0
   13.8309  -27.0742    0.0000 C   0  0
    5.0072  -24.9952    0.0000 C   0  0
    5.7119  -24.5746    0.0000 C   0  0
    5.7002  -23.7538    0.0000 C   0  0
    6.4091  -23.3331    0.0000 O   0  0
    4.9837  -23.3534    0.0000 N   0  0
    2.8845  -26.2571    0.0000 C   0  0  1  0  0  0
    2.1338  -25.9340    0.0000 N   0  0
    1.5917  -26.5560    0.0000 C   0  0
    2.0123  -27.2607    0.0000 C   0  0
    2.8119  -27.0798    0.0000 C   0  0
    1.9484  -25.1344    0.0000 C   0  0
    2.5543  -24.5745    0.0000 O   0  0
    1.1656  -24.8902    0.0000 C   0  0  1  0  0  0
    0.5597  -25.4499    0.0000 N   0  0
   -0.2262  -25.2058    0.0000 C   0  0
   -0.4125  -24.4062    0.0000 O   0  0
   -0.8301  -25.7656    0.0000 C   0  0  1  0  0  0
   -0.6481  -26.5652    0.0000 N   0  0
   -1.2564  -27.1250    0.0000 C   0  0
   -2.0420  -26.8808    0.0000 O   0  0
   -1.0744  -27.9289    0.0000 C   0  0  1  0  0  0
   -0.2887  -28.1688    0.0000 N   0  0
   -0.1069  -28.9728    0.0000 C   0  0
   -0.7063  -29.5326    0.0000 O   0  0
    0.9802  -24.0905    0.0000 C   0  0
    1.5862  -23.5308    0.0000 C   0  0
    2.3865  -23.6913    0.0000 C   0  0
    2.7864  -22.9747    0.0000 N   0  0
    1.4847  -22.7147    0.0000 C   0  0
    2.2333  -22.3746    0.0000 C   0  0
    2.3077  -21.5534    0.0000 C   0  0
    1.6344  -21.0800    0.0000 C   0  0
    0.8844  -21.4296    0.0000 C   0  0
    0.8137  -22.2454    0.0000 C   0  0
   -1.6201  -25.5214    0.0000 C   0  0
   -1.7976  -24.7218    0.0000 C   0  0
   -2.5877  -24.4776    0.0000 C   0  0
   -2.7738  -23.6737    0.0000 N   0  0
   -3.5552  -23.4337    0.0000 C   0  0
   -3.7415  -22.6298    0.0000 N   0  0
   -4.1591  -23.9936    0.0000 N   0  0
   -1.6740  -28.4844    0.0000 C   0  0
   -2.4597  -28.2446    0.0000 C   0  0
   -3.0591  -28.8043    0.0000 C   0  0
   -3.8535  -28.5602    0.0000 N   0  0
   -4.4529  -29.1200    0.0000 C   0  0
   -5.2386  -28.8758    0.0000 N   0  0
   -4.2711  -29.9196    0.0000 N   0  0
    0.6865  -29.2169    0.0000 C   0  0
  2  1  1  0
  2  3  1  1
  5  4  1  1
  5  6  1  0
  8  9  1  0
 12 17  1  0
 20 25  1  0
 28 33  1  0
 35 36  1  0
 39 46  1  0
 49 57  1  0
 60 68  1  0
 71 75  1  0
 78 82  1  0
 85100  1  0
103107  1  0
  2  8  1  0
  8  7  2  0
 10  9  1  6
 10 12  1  0
 12 11  2  0
 10 13  1  0
 13 14  1  1
 13 15  1  0
 15 16  1  0
 18 17  1  0
 18 20  1  0
 20 19  2  0
 18 21  1  1
 21 22  1  0
 22 23  1  0
 22 24  1  0
 25 26  1  0
 26 28  1  0
 28 27  2  0
 26 29  1  1
 29 30  1  0
 30 31  2  0
 30 32  1  0
 33  5  1  0
  5 35  1  0
 35 34  2  0
 36 37  1  0
 37 39  1  0
 39 38  2  0
 37 40  1  1
 40 45  1  0
 41 42  1  0
 42 43  2  0
 43 44  1  0
 44 45  2  0
 45 41  1  0
 46 47  1  0
 47 49  1  0
 49 48  2  0
 47 50  1  6
 50 51  1  0
 50 52  1  0
 53 54  1  0
 54 55  1  0
 54 56  2  0
 57 58  1  0
 58 60  1  0
 60 59  2  0
 58 61  1  1
 61 62  1  0
 62 63  1  0
 63 53  1  0
 64 65  1  0
 65 66  1  0
 65 67  2  0
 68 69  1  0
 69 71  1  0
 71 70  2  0
 69 72  1  6
 72 73  1  0
 73 74  1  0
 74 64  1  0
 75 76  1  0
 76 78  1  0
 78 77  2  0
 76 79  1  1
 79 80  1  0
 79 81  1  0
 82 83  1  0
 83 85  1  0
 85 84  2  0
 83 86  1  6
 86 88  1  0
 87 88  2  0
 88 90  1  0
 89 87  1  0
 91 89  1  0
 90 91  2  0
 91 92  1  0
 92 93  2  0
 93 94  1  0
 94 95  2  0
 95 90  1  0
 96 97  1  0
 97 98  1  0
 97 99  2  0
100101  1  0
101103  1  0
103102  2  0
101104  1  1
104105  1  0
105106  1  0
106 96  1  0
  2108  1  0
108109  1  0
109110  2  0
109111  1  0
111112  1  0
112113  1  0
113114  2  0
  1115  1  0
115116  1  0
  6117  1  0
117118  1  0
118119  1  0
119120  2  0
116120  1  0
111121  1  1
121122  1  0
122123  1  0
123124  2  0
123125  1  0
126113  1  6
126127  1  0
127128  1  0
128129  1  0
129130  1  0
130126  1  0
127131  1  0
131132  2  0
131133  1  0
133134  1  0
134135  1  0
135136  2  0
135137  1  0
137138  1  0
138139  1  0
139140  2  0
139141  1  0
141142  1  0
142143  1  0
143144  2  0
133145  1  1
145146  1  0
146147  2  0
147148  1  0
148150  1  0
149146  1  0
149150  2  0
150151  1  0
151152  2  0
152153  1  0
153154  2  0
154149  1  0
137155  1  1
155156  1  0
156157  1  0
157158  1  0
158159  1  0
159160  1  0
159161  2  0
141162  1  1
162163  1  0
163164  1  0
164165  1  0
165166  1  0
166167  1  0
166168  2  0
143169  1  0
M  END