
          11280715132D 1   1.00000     0.00000     0

 21 23  0     1  0            999 V2000
    7.6042   -5.4542    0.0000 C   0  0  0  0  0  0           0  0  0
    8.2792   -5.0625    0.0000 C   0  0  0  0  0  0           0  0  0
    7.6042   -6.2417    0.0000 C   0  0  0  0  0  0           0  0  0
    8.9625   -5.4542    0.0000 N   0  0  0  0  0  0           0  0  0
    6.9167   -6.6292    0.0000 C   0  0  0  0  0  0           0  0  0
    9.6375   -5.0625    0.0000 C   0  0  2  0  0  0           0  0  0
   10.9875   -5.0667    0.0000 N   0  0  3  0  0  0           0  0  0
    6.2417   -6.2417    0.0000 C   0  0  0  0  0  0           0  0  0
    6.9167   -5.0625    0.0000 C   0  0  0  0  0  0           0  0  0
   10.3125   -5.4542    0.0000 C   0  0  0  0  0  0           0  0  0
    6.2417   -5.4542    0.0000 C   0  0  0  0  0  0           0  0  0
    8.2792   -4.2750    0.0000 O   0  0  0  0  0  0           0  0  0
    9.6292   -4.2792    0.0000 C   0  0  3  0  0  0           0  0  0
   10.3167   -3.8917    0.0000 C   0  0  0  0  0  0           0  0  0
   10.0167   -4.9542    0.0000 C   0  0  0  0  0  0           0  0  0
   10.9917   -4.2875    0.0000 C   0  0  0  0  0  0           0  0  0
   10.6917   -4.5667    0.0000 C   0  0  0  0  0  0           0  0  0
    6.9167   -7.4542    0.0000 I   0  0  0  0  0  0           0  0  0
    8.2792   -6.6292    0.0000 O   0  0  0  0  0  0           0  0  0
    5.5250   -5.0417    0.0000 Cl  0  0  0  0  0  0           0  0  0
    8.2792   -7.4167    0.0000 C   0  0  0  0  0  0           0  0  0
  2  1  1  0     0  0
  3  1  1  0     0  0
  4  2  1  0     0  0
  5  3  2  0     0  0
  6  4  1  1     0  0
  7 10  1  0     0  0
  8 11  2  0     0  0
  9  1  2  0     0  0
 10  6  1  0     0  0
 11  9  1  0     0  0
 12  2  2  0     0  0
 13  6  1  0     0  0
 14 13  1  0     0  0
 15 13  1  0     0  0
 16 14  1  0     0  0
 17 15  1  0     0  0
 18  5  1  0     0  0
 19  3  1  0     0  0
 20 11  1  0     0  0
 21 19  1  0     0  0
  8  5  1  0     0  0
  7 17  1  0     0  0
 16  7  1  0     0  0
M  END