
          11280715382D 1   1.00000     0.00000     0

 34 36  0     1  0            999 V2000
    4.9625   -6.3167    0.0000 N   0  0  3  0  0  0           0  0  0
    5.7625   -6.1792    0.0000 C   0  0  0  0  0  0           0  0  0
    4.4625   -5.0000    0.0000 C   0  0  0  0  0  0           0  0  0
    6.1417   -5.4250    0.0000 C   0  0  1  0  0  0           0  0  0
    4.4667   -5.8292    0.0000 C   0  0  0  0  0  0           0  0  0
    5.7792   -4.6500    0.0000 C   0  0  1  0  0  0           0  0  0
    4.9792   -4.5000    0.0000 C   0  0  0  0  0  0           0  0  0
    3.7417   -4.5875    0.0000 C   0  0  0  0  0  0           0  0  0
    3.7417   -3.7625    0.0000 C   0  0  0  0  0  0           0  0  0
    4.7125   -7.1042    0.0000 C   0  0  0  0  0  0           0  0  0
    6.9667   -5.4417    0.0000 O   0  0  0  0  0  0           0  0  0
    7.3667   -6.1625    0.0000 C   0  0  0  0  0  0           0  0  0
    6.2792   -3.9917    0.0000 C   0  0  0  0  0  0           0  0  0
    6.2500   -6.8417    0.0000 O   0  0  0  0  0  0           0  0  0
    3.0292   -3.3542    0.0000 O   0  0  0  0  0  0           0  0  0
    6.9500   -6.8667    0.0000 O   0  0  0  0  0  0           0  0  0
    5.9667   -3.2417    0.0000 C   0  0  0  0  0  0           0  0  0
    7.1000   -4.1125    0.0000 C   0  0  0  0  0  0           0  0  0
    3.9042   -7.2792    0.0000 C   0  0  0  0  0  0           0  0  0
    3.6542   -8.0667    0.0000 N   0  0  3  0  0  0           0  0  0
    4.4542   -3.3500    0.0000 O   0  0  0  0  0  0           0  0  0
    7.2917   -2.6917    0.0000 C   0  0  0  0  0  0           0  0  0
    3.7417   -6.2417    0.0000 C   0  0  0  0  0  0           0  0  0
    6.4667   -2.5875    0.0000 C   0  0  0  0  0  0           0  0  0
    7.6042   -3.4542    0.0000 C   0  0  0  0  0  0           0  0  0
    3.0292   -5.0000    0.0000 C   0  0  0  0  0  0           0  0  0
    7.7917   -2.0417    0.0000 O   0  0  0  0  0  0           0  0  0
    3.0292   -5.8292    0.0000 C   0  0  0  0  0  0           0  0  0
    8.1917   -6.1750    0.0000 C   0  0  0  0  0  0           0  0  0
    4.2167   -8.6750    0.0000 C   0  0  0  0  0  0           0  0  0
    2.8542   -8.2417    0.0000 C   0  0  0  0  0  0           0  0  0
    4.4542   -2.5250    0.0000 C   0  0  0  0  0  0           0  0  0
    8.6125   -2.1500    0.0000 C   0  0  0  0  0  0           0  0  0
    5.1667   -2.1042    0.0000 C   0  0  0  0  0  0           0  0  0
  2  1  1  0     0  0
  3  5  1  0     0  0
  4  2  1  0     0  0
  5  1  1  0     0  0
  6  4  1  0     0  0
  7  3  1  0     0  0
  8  3  2  0     0  0
  9  8  1  0     0  0
 10  1  1  0     0  0
  4 11  1  1     0  0
 12 11  1  0     0  0
  6 13  1  1     0  0
 14  2  2  0     0  0
 15  9  2  0     0  0
 16 12  2  0     0  0
 17 13  1  0     0  0
 18 13  2  0     0  0
 19 10  1  0     0  0
 20 19  1  0     0  0
 21  9  1  0     0  0
 22 25  2  0     0  0
 23  5  2  0     0  0
 24 17  2  0     0  0
 25 18  1  0     0  0
 26 28  2  0     0  0
 27 22  1  0     0  0
 28 23  1  0     0  0
 29 12  1  0     0  0
 30 20  1  0     0  0
 31 20  1  0     0  0
 32 21  1  0     0  0
 33 27  1  0     0  0
 34 32  1  0     0  0
  6  7  1  0     0  0
  8 26  1  0     0  0
 22 24  1  0     0  0
M  END