
          11280715322D 1   1.00000     0.00000     0

 13 15  0     0  0            999 V2000
   -0.8958    0.6708    0.0000 N   0  0  0  0  0  0           0  0  0
   -1.6458    0.3250    0.0000 C   0  0  3  0  0  0           0  0  0
   -1.8333   -0.4792    0.0000 C   0  0  0  0  0  0           0  0  0
   -1.3250   -1.1292    0.0000 C   0  0  0  0  0  0           0  0  0
   -2.9583   -1.3542    0.0000 N   0  0  0  0  0  0           0  0  0
   -1.2708   -0.2042    0.0000 C   0  0  0  0  0  0           0  0  0
   -0.1583    0.3083    0.0000 C   0  0  3  0  0  0           0  0  0
   -0.5000   -1.1375    0.0000 C   0  0  0  0  0  0           0  0  0
   -2.6458   -0.5875    0.0000 C   0  0  0  0  0  0           0  0  0
   -0.4875   -0.2042    0.0000 C   0  0  0  0  0  0           0  0  0
    0.0250   -0.5000    0.0000 C   0  0  0  0  0  0           0  0  0
   -2.4500   -2.0042    0.0000 C   0  0  0  0  0  0           0  0  0
   -1.6333   -1.8917    0.0000 C   0  0  0  0  0  0           0  0  0
  2  1  1  0     0  0
  3  2  1  0     0  0
  4  3  2  0     0  0
  5  9  2  0     0  0
  6  2  1  0     0  0
  7  1  1  0     0  0
  8 11  1  0     0  0
  9  3  1  0     0  0
 10  7  1  0     0  0
 11  7  1  0     0  0
 12  5  1  0     0  0
 13  4  1  0     0  0
  6 10  1  0     0  0
  4  8  1  0     0  0
 12 13  2  0     0  0
M  END