
          11280714522D 1   1.00000     0.00000     0

 36 40  0     0  0            999 V2000
    0.1250   -2.4667    0.0000 C   0  0  0  0  0  0           0  0  0
    0.7875   -1.9875    0.0000 N   0  0  0  0  0  0           0  0  0
   -0.1458   -1.7917    0.0000 C   0  0  3  0  0  0           0  0  0
    1.4542   -2.4667    0.0000 C   0  0  0  0  0  0           0  0  0
    0.0042   -1.1042    0.0000 C   0  0  3  0  0  0           0  0  0
   -1.4500   -1.8750    0.0000 C   0  0  3  0  0  0           0  0  0
   -1.1125   -2.6667    0.0000 O   0  0  0  0  0  0           0  0  0
    0.3750   -3.2542    0.0000 O   0  0  0  0  0  0           0  0  0
   -0.7750   -1.3292    0.0000 C   0  0  3  0  0  0           0  0  0
    1.2000   -3.2542    0.0000 C   0  0  0  0  0  0           0  0  0
    2.1250   -2.1917    0.0000 C   0  0  0  0  0  0           0  0  0
    0.2167   -0.3042    0.0000 C   0  0  0  0  0  0           0  0  0
    1.6542    2.0375    0.0000 C   0  0  0  0  0  0           0  0  0
   -1.7250   -1.3375    0.0000 C   0  0  0  0  0  0           0  0  0
   -1.2500   -0.8542    0.0000 C   0  0  0  0  0  0           0  0  0
    2.2125   -1.4417    0.0000 O   0  0  0  0  0  0           0  0  0
    1.4375    2.8333    0.0000 O   0  0  0  0  0  0           0  0  0
    0.9292   -0.7167    0.0000 C   0  0  0  0  0  0           0  0  0
    2.7750   -2.6000    0.0000 N   0  0  0  0  0  0           0  0  0
    1.2917    0.6583    0.0000 C   0  0  0  0  0  0           0  0  0
    1.0750    1.4500    0.0000 C   0  0  0  0  0  0           0  0  0
    0.7167    0.0750    0.0000 C   0  0  0  0  0  0           0  0  0
    2.4542    1.8333    0.0000 O   0  0  0  0  0  0           0  0  0
    2.3042   -0.3417    0.0000 C   0  0  0  0  0  0           0  0  0
    1.7250   -0.9292    0.0000 C   0  0  0  0  0  0           0  0  0
    6.3625   -2.2250    0.0000 C   0  0  3  0  0  0           0  0  0
    2.0917    0.4458    0.0000 C   0  0  0  0  0  0           0  0  0
    3.5125   -2.2292    0.0000 C   0  0  0  0  0  0           0  0  0
    5.6500   -2.6417    0.0000 C   0  0  0  0  0  0           0  0  0
    6.3542   -1.4000    0.0000 C   0  0  0  0  0  0           0  0  0
    7.0792   -2.6292    0.0000 C   0  0  0  0  0  0           0  0  0
    4.2250   -2.6417    0.0000 C   0  0  0  0  0  0           0  0  0
    4.9375   -2.2292    0.0000 C   0  0  0  0  0  0           0  0  0
    7.7875   -2.2167    0.0000 C   0  0  0  0  0  0           0  0  0
    7.0667   -0.9792    0.0000 C   0  0  0  0  0  0           0  0  0
    7.7875   -1.3917    0.0000 C   0  0  0  0  0  0           0  0  0
  2  1  2  0     0  0
  3  1  1  0     0  0
  4  2  1  0     0  0
  5  3  1  0     0  0
  6  3  1  0     0  0
  7  6  1  0     0  0
  8  1  1  0     0  0
  9  5  1  0     0  0
 10  8  1  0     0  0
 11  4  1  0     0  0
 12  5  1  0     0  0
 13 21  1  0     0  0
 14  6  1  0     0  0
 15 14  1  0     0  0
 16 11  2  0     0  0
 17 13  2  0     0  0
 18 12  1  0     0  0
 19 11  1  0     0  0
 20 22  2  0     0  0
 21 20  1  0     0  0
 22 18  1  0     0  0
 23 13  1  0     0  0
 24 25  1  0     0  0
 25 18  2  0     0  0
 26 29  1  0     0  0
 27 24  2  0     0  0
 28 19  1  0     0  0
 29 33  1  0     0  0
 30 26  1  0     0  0
 31 26  1  0     0  0
 32 28  1  0     0  0
 33 32  1  0     0  0
 34 31  1  0     0  0
 35 30  1  0     0  0
 36 34  1  0     0  0
 10  4  2  0     0  0
  9  7  1  0     0  0
  9 15  1  0     0  0
 20 27  1  0     0  0
 36 35  1  0     0  0
M  END