
  SciTegic10011413212D

 29 31  0  0  0  0            999 V2000
   14.1748   -3.9249    0.0000 C   0  0
   14.8892   -3.5125    0.0000 C   0  0
   14.1748   -4.7499    0.0000 O   0  0
   13.4603   -5.1624    0.0000 N   0  0
   13.4603   -5.9874    0.0000 C   0  0
   14.1664   -6.4067    0.0000 C   0  0
   14.1461   -7.2325    0.0000 C   0  0
   14.8510   -7.6597    0.0000 C   0  0
   15.5749   -7.2622    0.0000 C   0  0
   15.5896   -6.4331    0.0000 C   0  0
   14.8841   -6.0096    0.0000 C   0  0
   16.3111   -6.0331    0.0000 O   0  0
   16.2812   -7.6887    0.0000 O   0  0
   15.6023   -3.9296    0.0000 C   0  0
   16.3162   -3.5178    0.0000 C   0  0
   16.3167   -2.6919    0.0000 C   0  0
   15.5972   -2.2795    0.0000 C   0  0
   14.8862   -2.6938    0.0000 C   0  0
   12.7459   -4.7499    0.0000 C   0  0
   12.7481   -3.9240    0.0000 O   0  0
   12.0378   -3.5116    0.0000 C   0  0  1  0  0  0
   11.3209   -3.9206    0.0000 C   0  0  2  0  0  0
   11.3189   -4.7465    0.0000 C   0  0  1  0  0  0
   12.0338   -5.1635    0.0000 C   0  0  1  0  0  0
   10.6030   -5.1565    0.0000 O   0  0
   10.6080   -3.5053    0.0000 O   0  0
   12.0409   -2.6866    0.0000 C   0  0
   12.7569   -2.2768    0.0000 O   0  0
   12.0330   -5.9885    0.0000 O   0  0
  1  2  1  0
  1  3  1  0
  3  4  1  0
  4  5  1  0
  5  6  1  0
  6  7  2  0
  7  8  1  0
  8  9  2  0
  9 10  1  0
 10 11  2  0
 11  6  1  0
 10 12  1  0
  9 13  1  0
  2 14  2  0
 14 15  1  0
 15 16  2  0
 16 17  1  0
 17 18  2  0
 18  2  1  0
 19  4  1  0
 19 20  1  0
 19 24  1  0
 20 21  1  0
 21 22  1  0
 22 23  1  0
 23 24  1  0
 23 25  1  1
 22 26  1  6
 21 27  1  1
 27 28  1  0
 24 29  1  6
M  END