
  SciTegic05061409512D

 10 10  0  0  0  0            999 V2000
    6.4748   -1.2237    0.0000 N   0  0
    7.1216   -1.7359    0.0000 N   0  0
    7.8098   -1.2807    0.0000 C   0  0
    7.5874   -0.4836    0.0000 N   0  0
    6.7638   -0.4522    0.0000 C   0  0
    7.0862   -2.5601    0.0000 C   0  0
    7.7824   -3.0028    0.0000 C   0  0
    7.7471   -3.8270    0.0000 C   0  0
    7.0157   -4.2085    0.0000 O   0  0
    8.4432   -4.2697    0.0000 O   0  0
  1  2  1  0
  2  3  1  0
  3  4  2  0
  4  5  1  0
  5  1  2  0
  2  6  1  0
  6  7  1  0
  7  8  1  0
  8  9  2  0
  8 10  1  0
M  END