
  SciTegic09171211542D

128125  0  0  0  0            999 V2000
   10.1460  -10.8012    0.0000 C   0  0
   10.5406  -11.5257    0.0000 C   0  0  1  0  0  0
   11.3612  -11.5438    0.0000 C   0  0
   10.5720  -10.0947    0.0000 C   0  0
   11.3966  -10.1201    0.0000 C   0  0  1  0  0  0
   11.7881  -10.8463    0.0000 C   0  0  1  0  0  0
   12.6082  -10.8702    0.0000 C   0  0
   13.0429  -10.1698    0.0000 C   0  0
   11.8252   -9.4178    0.0000 C   0  0  2  0  0  0
   12.6492   -9.4477    0.0000 C   0  0  2  0  0  0
   11.8767   -7.9939    0.0000 C   0  0
   11.4366   -8.6931    0.0000 C   0  0
   12.7008   -8.0237    0.0000 C   0  0  1  0  0  0
   13.0859   -8.7495    0.0000 C   0  0  1  0  0  0
   13.8951   -8.6076    0.0000 C   0  0
   14.0102   -7.7940    0.0000 C   0  0
   13.2721   -7.4333    0.0000 C   0  0  2  0  0  0
   10.9955   -9.3991    0.0000 C   0  0
   12.2131  -10.1451    0.0000 H   0  0
   12.2473   -8.7269    0.0000 H   0  0
   13.4762   -9.4762    0.0000 H   0  0
   12.2998   -7.2987    0.0000 C   0  0
   13.1295   -6.6207    0.0000 C   0  0  1  0  0  0
   13.7619   -6.0909    0.0000 C   0  0
   12.3545   -6.3378    0.0000 C   0  0
   14.5369   -6.3738    0.0000 C   0  0
   15.1694   -5.8440    0.0000 C   0  0
   15.9444   -6.1268    0.0000 C   0  0
   16.5768   -5.5971    0.0000 C   0  0
   16.0869   -6.9394    0.0000 C   0  0
   13.9929   -7.0361    0.0000 H   0  0
   12.1736  -11.5710    0.0000 H   0  0
    7.8595  -10.7711    0.0000 N   0  0
    8.0720  -11.5669    0.0000 C   0  0
    8.8945  -11.6108    0.0000 C   0  0
    9.1905  -10.8420    0.0000 N   0  0
    8.5507  -10.3231    0.0000 N   0  0
    5.0029  -10.7366    0.0000 O   0  0
    1.5947  -12.7036    0.0000 O   0  0
    1.4000  -11.9021    0.0000 S   0  0
    0.8032  -12.4715    0.0000 O   0  0
   -1.4494   -7.9014    0.0000 O   0  0
   -0.6598   -8.1399    0.0000 S   0  0
   -0.8480   -7.3368    0.0000 O   0  0
   -0.6945   -6.6758    0.0000 O   0  0
    0.0950   -6.9143    0.0000 S   0  0
   -0.0932   -6.1113    0.0000 O   0  0
   -3.8503  -10.0236    0.0000 O   0  0
   -4.2472   -9.2999    0.0000 S   0  0
   -4.6755  -10.0055    0.0000 O   0  0
   -2.7459  -11.3920    0.0000 O   0  0
   -3.5707  -11.3735    0.0000 S   0  0
   -3.1743  -12.0971    0.0000 O   0  0
   -1.0087  -11.1231    0.0000 O   0  0
   -1.4407  -11.8281    0.0000 S   0  0
   -0.6141  -11.8498    0.0000 O   0  0
    5.4523   -8.9958    0.0000 O   0  0
    5.0554   -8.2722    0.0000 S   0  0
    4.6271   -8.9777    0.0000 O   0  0
    1.4081   -7.9717    0.0000 O   0  0
    2.1977   -8.2102    0.0000 S   0  0
    2.0094   -7.4071    0.0000 O   0  0
   -3.6043   -6.8575    0.0000 O   0  0
   -2.7796   -6.8814    0.0000 S   0  0
   -2.8196   -9.3291    0.0000 C   0  0  1  0  0  0
   -2.8366  -10.1539    0.0000 C   0  0  1  0  0  0
   -2.1331  -10.5768    0.0000 C   0  0  1  0  0  0
   -1.4129  -10.1832    0.0000 C   0  0  2  0  0  0
   -1.3959   -9.3584    0.0000 O   0  0
   -2.0991   -8.9272    0.0000 C   0  0  2  0  0  0
   -2.0776   -8.1016    0.0000 C   0  0
   -2.8022   -7.7103    0.0000 O   0  0
   -2.0521   -6.4940    0.0000 O   0  5
   -3.5588  -10.5526    0.0000 O   0  0
   -2.1501  -11.4016    0.0000 O   0  0
   -0.7077  -10.6114    0.0000 O   0  0
    0.0157  -10.2147    0.0000 C   0  0  2  0  0  0
    0.7171  -10.6467    0.0000 C   0  0  1  0  0  0
    1.4383  -10.2535    0.0000 C   0  0  2  0  0  0
    1.4607   -9.4285    0.0000 O   0  0
    0.7557   -8.9981    0.0000 C   0  0  1  0  0  0
    0.0283   -9.3928    0.0000 C   0  0  1  0  0  0
    0.7768   -8.1734    0.0000 C   0  0
   -0.6774   -8.9655    0.0000 O   0  0
    0.6953  -11.4714    0.0000 O   0  0
    2.1418  -10.6843    0.0000 O   0  0
    2.8685  -10.2917    0.0000 C   0  0  1  0  0  0
    4.5197  -11.1624    0.0000 O   0  0
    4.2744  -11.9541    0.0000 S   0  0
    5.0826  -11.7707    0.0000 O   0  0
    4.2927  -10.3157    0.0000 C   0  0  1  0  0  0
    4.3110   -9.4927    0.0000 O   0  0
    3.6075   -9.0687    0.0000 C   0  0  1  0  0  0
    2.8840   -9.4659    0.0000 C   0  0  1  0  0  0
    3.5765  -10.7203    0.0000 C   0  0  1  0  0  0
    3.5677  -11.5361    0.0000 O   0  0
    4.2651  -12.7833    0.0000 O   0  5
    3.6241   -8.2438    0.0000 C   0  0
    4.3468   -7.8458    0.0000 O   0  0
    5.7754   -7.8746    0.0000 O   0  5
    2.1780   -9.0390    0.0000 O   0  0
    2.9255   -7.8134    0.0000 O   0  5
    0.0730   -7.7428    0.0000 O   0  0
    0.8188   -6.5239    0.0000 O   0  5
   -3.5267   -8.9040    0.0000 O   0  0
    2.1237  -11.5092    0.0000 O   0  5
   -1.4613  -12.6536    0.0000 O   0  5
   -4.2969  -11.7762    0.0000 O   0  5
   -4.9554   -8.8787    0.0000 O   0  5
    1.4185  -11.0773    0.0000 H   0  0
   -0.6842   -9.7856    0.0000 H   0  0
    0.1650   -8.1584    0.0000 O   0  5
   -3.1644   -6.1535    0.0000 O   0  0
    5.7220  -10.3324    0.0000 C   0  0
    6.4317  -10.7530    0.0000 C   0  0
    7.1509  -10.3488    0.0000 C   0  0
    9.3432  -12.3031    0.0000 C   0  0
   10.1671  -12.2606    0.0000 O   0  0
    4.9687   -5.1875    0.0000 Na  0  3
    6.1250   -5.1875    0.0000 Na  0  3
    7.4062   -5.2813    0.0000 Na  0  3
    8.8125   -5.3438    0.0000 Na  0  3
    5.5937   -6.1250    0.0000 Na  0  3
    6.8437   -6.0625    0.0000 Na  0  3
    7.9688   -6.3125    0.0000 Na  0  3
    6.2500   -7.0625    0.0000 Na  0  3
    7.4062   -7.0625    0.0000 Na  0  3
    7.0313   -7.8125    0.0000 Na  0  3
 28 29  1  0
 64 63  2  0
  1  2  1  0
 28 30  1  0
 65 66  1  0
  1  4  1  0
 17 31  1  6
  2  3  1  0
  6 32  1  6
 33 34  1  0
  5  9  1  0
 65 70  1  0
 66 67  1  0
 67 68  1  0
 68 69  1  0
 69 70  1  0
  6  7  1  0
 70 71  1  1
 14 15  1  0
 71 72  1  0
 72 64  1  0
 15 16  1  0
 64 73  1  0
 16 17  1  0
 66 74  1  1
 34 35  2  0
 67 75  1  1
 35 36  1  0
 68 76  1  0
 36 37  2  0
 77 76  1  1
 77 78  1  0
 37 33  1  0
 17 13  1  0
 40 39  2  0
 41 40  2  0
  7  8  1  0
 77 82  1  0
 78 79  1  0
 79 80  1  0
 80 81  1  0
 81 82  1  0
  5 18  1  1
 81 83  1  1
  8 10  1  0
 82 84  1  6
 43 42  2  0
 78 85  1  1
 44 43  2  0
 79 86  1  0
  9 19  1  6
 87 86  1  1
 89 88  2  0
 90 89  2  0
  9 10  1  0
 10 20  1  1
 46 45  2  0
 47 46  2  0
 91 38  1  6
 91 92  1  0
  3  6  1  0
 14 21  1  6
  5  4  1  0
 49 48  2  0
 91 95  1  0
 92 93  1  0
 93 94  1  0
 94 87  1  0
 87 95  1  0
 50 49  2  0
 95 96  1  1
 96 89  1  0
 13 22  1  1
 89 97  1  0
  5  6  1  0
 93 98  1  1
 17 23  1  0
 98 99  1  0
 99 58  1  0
 52 51  2  0
 58100  1  0
 53 52  2  0
 94101  1  6
101 61  1  0
 61102  1  0
 23 24  1  0
 83103  1  0
103 46  1  0
  9 12  1  0
 46104  1  0
 55 54  2  0
 65105  1  6
 85 40  1  0
 56 55  2  0
 40106  1  0
 75 55  1  0
 23 25  1  6
 55107  1  0
 74 52  1  0
 10 14  1  0
 52108  1  0
105 49  1  0
 24 26  1  0
 49109  1  0
 58 57  2  0
 79110  1  1
 59 58  2  0
 68111  1  1
 84 43  1  0
 13 11  1  0
 43112  1  0
 26 27  1  0
 64113  2  0
 11 12  1  0
 38114  1  0
 61 60  2  0
114115  1  0
 62 61  2  0
115116  1  0
116 33  1  0
 27 28  1  0
 35117  1  0
 13 14  1  0
117118  1  0
  2118  1  1
M  CHG  8  73  -1  97  -1 100  -1 102  -1 104  -1 106  -1 107  -1 108  -1
M  CHG  8 109  -1 112  -1 119   1 120   1 121   1 122   1 123   1 124   1
M  CHG  4 125   1 126   1 127   1 128   1
M  END