
  SciTegic12231509382D

 45 46  0  0  0  0            999 V2000
   17.8042   -5.7792    0.0000 C   0  0
   -3.7583   -5.9292    0.0000 C   0  0
   18.5167   -5.3542    0.0000 C   0  0
   -4.1750   -5.2042    0.0000 C   0  0
   16.3542   -5.8042    0.0000 N   0  0
   -2.3208   -5.9042    0.0000 N   0  0
    2.7042   -5.4667    0.0000 N   0  0
   11.3167   -5.4125    0.0000 N   0  0
   -3.7708   -4.4792    0.0000 O   0  0
   18.5000   -4.5250    0.0000 O   0  0
   17.0792   -5.3792    0.0000 C   0  0
   -3.0333   -5.5000    0.0000 C   0  0
   17.8125   -6.6042    0.0000 C   0  0
   -4.1583   -6.6417    0.0000 C   0  0
   19.2292   -5.7542    0.0000 C   0  0
   -5.0083   -5.2042    0.0000 C   0  0
   10.6125   -5.8292    0.0000 C   0  0
   12.0500   -5.8292    0.0000 C   0  0
   15.6417   -5.3917    0.0000 C   0  0
    3.4125   -5.8750    0.0000 C   0  0
   -1.5958   -5.4792    0.0000 C   0  0
    1.9750   -5.8792    0.0000 C   0  0
   19.2042   -4.1000    0.0000 C   0  0
   -2.9375   -4.4750    0.0000 C   0  0
   12.7542   -5.4042    0.0000 C   0  0
   -0.8833   -5.9000    0.0000 C   0  0
    4.1292   -5.4542    0.0000 C   0  0
    9.8875   -5.4250    0.0000 C   0  0
    1.2667   -5.4792    0.0000 C   0  0
   14.9167   -5.8125    0.0000 C   0  0
    9.1667   -5.8417    0.0000 C   0  0
   13.4875   -5.8250    0.0000 C   0  0
   -0.1708   -5.4792    0.0000 C   0  0
    0.5417   -5.8917    0.0000 C   0  0
   14.2042   -5.3917    0.0000 C   0  0
    4.8500   -5.8625    0.0000 C   0  0
    5.5667   -5.4500    0.0000 C   0  0
    6.2875   -5.8625    0.0000 C   0  0
    7.0125   -5.4417    0.0000 C   0  0
    7.7292   -5.8417    0.0000 C   0  0
    8.4500   -5.4292    0.0000 C   0  0
   -4.9875   -6.6542    0.0000 C   0  0
   18.5417   -7.0167    0.0000 C   0  0
   19.2500   -6.5917    0.0000 C   0  0
   -5.4125   -5.9292    0.0000 C   0  0
  2 12  1  0
  3  1  1  0
  4  2  1  0
  5 11  1  0
  6 21  1  0
  7 20  1  0
  8 18  1  0
  9  4  1  0
 10  3  1  0
 11  1  1  0
 12  6  1  0
 13  1  2  0
 14  2  2  0
 15  3  2  0
 16  4  2  0
 17  8  1  0
 18 25  1  0
 19  5  1  0
 20 27  1  0
 21 26  1  0
 22  7  1  0
 23 10  1  0
 24  9  1  0
 25 32  1  0
 26 33  1  0
 27 36  1  0
 28 17  1  0
 29 22  1  0
 30 19  1  0
 31 28  1  0
 32 35  1  0
 33 34  1  0
 34 29  1  0
 35 30  1  0
 36 37  1  0
 37 38  1  0
 38 39  1  0
 39 40  1  0
 40 41  1  0
 41 31  1  0
 42 14  1  0
 43 13  1  0
 44 43  2  0
 45 42  2  0
 44 15  1  0
 45 16  1  0
M  END