
  SciTegic01161211252D

 40 46  0  0  0  0            999 V2000
    4.6731   -8.2895    0.0000 C   0  0
   -0.2841   -6.9006    0.0000 N   0  0
    1.1423   -6.9077    0.0000 C   0  0
    0.4309   -6.4904    0.0000 C   0  0
   -1.6580   -5.2075    0.0000 C   0  0
   -0.9572   -5.6434    0.0000 C   0  0
   -0.9809   -6.4702    0.0000 C   0  0
    1.8772   -6.5519    0.0000 C   0  0
    2.5780   -6.9838    0.0000 N   0  0
    1.8966   -5.7251    0.0000 O   0  0
    2.5500   -7.8069    0.0000 C   0  0
    3.2466   -8.2426    0.0000 C   0  0
    3.9731   -7.8512    0.0000 N   0  0
    4.0029   -7.0234    0.0000 C   0  0
    3.2978   -6.5871    0.0000 C   0  0
   -0.2330   -5.2484    0.0000 C   0  0
   -2.3822   -5.6025    0.0000 C   0  0
   -3.0835   -5.1643    0.0000 C   0  0
   -3.1257   -6.8182    0.0000 C   0  0
   -2.4006   -6.4256    0.0000 C   0  0
   -0.2883   -7.7278    0.0000 C   0  0
    1.1381   -7.7350    0.0000 C   0  0
    0.4199   -8.1462    0.0000 C   0  0
    0.4154   -8.9677    0.0000 C   0  0
    1.1274   -9.3842    0.0000 C   0  0
    1.8457   -8.9772    0.0000 C   0  0
    1.8518   -8.1495    0.0000 C   0  0
   -3.8284   -6.3926    0.0000 C   0  0
   -3.8081   -5.5606    0.0000 C   0  0
   -4.5930   -5.2841    0.0000 O   0  0
   -5.0985   -5.9452    0.0000 C   0  0
   -4.6260   -6.6302    0.0000 O   0  0
    4.6401   -9.1124    0.0000 C   0  0
    5.3391   -9.5505    0.0000 C   0  0
    6.0696   -9.1636    0.0000 C   0  0
    5.3970   -7.8995    0.0000 N   0  0
    6.0927   -8.3342    0.0000 C   0  0
    6.7211   -7.8070    0.0000 N   0  0
    6.4139   -7.0464    0.0000 C   0  0
    5.5956   -7.1036    0.0000 C   0  0
  9 15  1  0
 23 21  1  0
 11 12  1  0
 12 13  1  0
 22 23  1  0
 13 14  1  0
 14 15  1  0
 22  3  1  0
  3  8  1  0
  3  4  1  0
 22 27  1  0
 23 24  1  0
 24 25  1  0
 25 26  1  0
 26 27  1  0
  8  9  1  0
  2 21  1  0
  8 10  2  0
 28 29  2  0
  9 11  1  0
  6 16  1  0
  5 17  1  0
  5  6  1  0
 29 30  1  0
 30 31  1  0
 31 32  1  0
 32 28  1  0
 13  1  1  0
 17 18  2  0
  1 33  2  0
 18 29  1  0
 33 34  1  0
  2  4  1  0
 34 35  2  0
 35 37  1  0
 36  1  1  0
 36 37  1  0
 28 19  1  0
  6  7  1  0
 19 20  2  0
 20 17  1  0
  7  2  1  0
 37 38  2  0
 38 39  1  0
 39 40  2  0
 40 36  1  0
M  END