
  SciTegic10311316262D

 30 33  0  0  0  0            999 V2000
   14.3036  -16.3190    0.0000 C   0  0
   14.3024  -17.1386    0.0000 C   0  0
   15.0105  -17.5475    0.0000 C   0  0
   15.0087  -15.9102    0.0000 C   0  0
   15.7173  -16.3154    0.0000 C   0  0
   15.7207  -17.1406    0.0000 C   0  0
   16.4330  -17.5480    0.0000 C   0  0
   17.1466  -17.1348    0.0000 C   0  0
   17.1432  -16.3096    0.0000 C   0  0
   16.4263  -15.8976    0.0000 N   0  0
   17.8497  -15.8988    0.0000 O   0  0
   13.5978  -15.9066    0.0000 C   0  0
   13.5990  -15.0883    0.0000 C   0  0
   12.8920  -14.6800    0.0000 C   0  0
   12.1834  -15.0888    0.0000 C   0  0
   12.1862  -15.9102    0.0000 C   0  0
   12.8938  -16.3149    0.0000 C   0  0
   16.4353  -18.3652    0.0000 C   0  0
   14.3070  -14.6803    0.0000 Cl  0  0
   11.4751  -14.6813    0.0000 C   0  0
   11.4738  -13.8641    0.0000 O   0  0
   10.7680  -15.0910    0.0000 N   0  0
   10.0596  -14.6836    0.0000 C   0  0
    9.3526  -15.0933    0.0000 C   0  0
    8.6442  -14.6858    0.0000 N   0  0
    8.6469  -13.8688    0.0000 C   0  0
    7.9426  -13.4614    0.0000 C   0  0
    7.2331  -13.8677    0.0000 O   0  0
    7.2324  -14.6858    0.0000 C   0  0
    7.9412  -15.0977    0.0000 C   0  0
  1  2  2  0
  2  3  1  0
  3  6  2  0
  5  4  2  0
  4  1  1  0
  5  6  1  0
  5 10  1  0
  6  7  1  0
  7  8  2  0
  8  9  1  0
  9 10  1  0
  9 11  2  0
 12 13  2  0
 13 14  1  0
 14 15  2  0
 15 16  1  0
 16 17  2  0
 17 12  1  0
  1 12  1  0
  7 18  1  0
 13 19  1  0
 15 20  1  0
 20 21  2  0
 20 22  1  0
 22 23  1  0
 23 24  1  0
 24 25  1  0
 25 26  1  0
 25 30  1  0
 26 27  1  0
 27 28  1  0
 28 29  1  0
 29 30  1  0
M  END