
          11280715392D 1   1.00000     0.00000     0

 13 13  0     0  0            999 V2000
    6.6917    0.2083    0.0000 S   0  0  3  0  0  0           0  0  0
    4.1042   -1.7042    0.0000 C   0  0  3  0  0  0           0  0  0
    4.7792   -1.2417    0.0000 O   0  0  0  0  0  0           0  0  0
    3.4500   -1.2125    0.0000 O   0  0  0  0  0  0           0  0  0
    5.8667    0.2083    0.0000 O   0  0  0  0  0  0           0  0  0
    6.6875    1.0333    0.0000 O   0  0  0  0  0  0           0  0  0
    6.6875   -0.6167    0.0000 O   0  0  0  0  0  0           0  0  0
    4.5417   -0.4500    0.0000 C   0  0  3  0  0  0           0  0  0
    7.5167    0.2083    0.0000 N   0  0  0  0  0  0           0  0  0
    5.0417    0.2083    0.0000 C   0  0  0  0  0  0           0  0  0
    3.7167   -0.4292    0.0000 C   0  0  0  0  0  0           0  0  0
    3.5167   -2.2917    0.0000 C   0  0  0  0  0  0           0  0  0
    4.6917   -2.2917    0.0000 C   0  0  0  0  0  0           0  0  0
  2  3  1  0     0  0
  3  8  1  0     0  0
  4 11  1  0     0  0
  5  1  1  0     0  0
  6  1  2  0     0  0
  7  1  2  0     0  0
  8 10  1  0     0  0
  9  1  1  0     0  0
 10  5  1  0     0  0
 11  8  1  0     0  0
 12  2  1  0     0  0
 13  2  1  0     0  0
  2  4  1  0     0  0
M  END