
  CDK    9/16/09,10:2

 77 81  0  0  0  0  0  0  0  0999 V2000
    7.1379   -0.1335    0.0000 C   0  0  0  0  0  0  0  0  0  0  0  0
    8.5676   -0.1282    0.0000 O   0  0  0  0  0  0  0  0  0  0  0  0
    7.8527    0.2811    0.0000 C   0  0  0  0  0  0  0  0  0  0  0  0
    6.4216    0.2765    0.0000 C   0  0  0  0  0  0  0  0  0  0  0  0
    6.4172    1.1037    0.0000 C   0  0  0  0  0  0  0  0  0  0  0  0
    5.7032    1.5124    0.0000 C   0  0  0  0  0  0  0  0  0  0  0  0
    5.6987    2.3350    0.0000 O   0  0  0  0  0  0  0  0  0  0  0  0
    8.5591    1.5197    0.0000 C   0  0  0  0  0  0  0  0  0  0  0  0
    7.8404    2.7465    0.0000 O   0  0  0  0  0  0  0  0  0  0  0  0
    8.5546    2.3387    0.0000 C   0  0  0  0  0  0  0  0  0  0  0  0
    9.2625    3.5809    0.0000 C   0  0  0  0  0  0  0  0  0  0  0  0
   10.6949    3.5843    0.0000 O   0  0  0  0  0  0  0  0  0  0  0  0
    9.9783    3.9991    0.0000 C   0  0  0  0  0  0  0  0  0  0  0  0
    8.5485    3.9889    0.0000 C   0  0  0  0  0  0  0  0  0  0  0  0
    8.5440    4.8220    0.0000 C   0  0  0  0  0  0  0  0  0  0  0  0
    7.8301    5.2307    0.0000 C   0  0  0  0  0  0  0  0  0  0  0  0
    9.2598    5.2372    0.0000 C   0  0  0  0  0  0  0  0  0  0  0  0
   10.6874    5.2399    0.0000 C   0  0  0  0  0  0  0  0  0  0  0  0
    9.9653    6.4665    0.0000 O   0  0  0  0  0  0  0  0  0  0  0  0
   10.6829    6.0567    0.0000 C   0  0  0  0  0  0  0  0  0  0  0  0
   11.4041    4.8296    0.0000 C   0  0  0  0  0  0  0  0  0  0  0  0
    6.4300   -2.1965    0.0000 C   0  0  0  0  0  0  0  0  0  0  0  0
    6.4255   -1.3720    0.0000 C   0  0  0  0  0  0  0  0  0  0  0  0
    5.7089   -0.9618    0.0000 O   0  0  0  0  0  0  0  0  0  0  0  0
    7.1476   -2.6073    0.0000 C   0  0  0  0  0  0  0  0  0  0  0  0
    7.8570   -2.1915    0.0000 C   0  0  0  0  0  0  0  0  0  0  0  0
    8.5714   -2.6091    0.0000 C   0  0  0  0  0  0  0  0  0  0  0  0
    9.2886   -2.1868    0.0000 C   0  0  0  0  0  0  0  0  0  0  0  0
    9.2837   -1.3624    0.0000 C   0  0  0  0  0  0  0  0  0  0  0  0
    8.5608   -0.9542    0.0000 C   0  0  0  0  0  0  0  0  0  0  0  0
    7.8510   -1.3729    0.0000 C   0  0  0  0  0  0  0  0  0  0  0  0
    9.9947   -0.9458    0.0000 O   0  0  0  0  0  0  0  0  0  0  0  0
   10.7116   -1.3562    0.0000 P   0  0  0  0  0  0  0  0  0  0  0  0
   10.3033   -2.0695    0.0000 O   0  0  0  0  0  0  0  0  0  0  0  0
    7.1393   -0.9585    0.0000 N   0  0  0  0  0  0  0  0  0  0  0  0
    4.9899    1.0993    0.0000 N   0  0  0  0  0  0  0  0  0  0  0  0
    7.8453    1.1061    0.0000 N   0  0  0  0  0  0  0  0  0  0  0  0
    9.2669    2.7559    0.0000 N   0  0  0  0  0  0  0  0  0  0  0  0
    9.9737    4.8259    0.0000 N   0  0  0  0  0  0  0  0  0  0  0  0
   12.1228    5.2461    0.0000 O   0  0  0  0  0  0  0  0  0  0  0  0
   11.3995    6.4771    0.0000 N   0  0  0  0  0  0  0  0  0  0  0  0
    5.7161   -2.6101    0.0000 N   0  0  0  0  0  0  0  0  0  0  0  0
   11.4269   -1.7652    0.0000 O   0  0  0  0  0  0  0  0  0  0  0  0
   11.1243   -0.6348    0.0000 O   0  0  0  0  0  0  0  0  0  0  0  0
   -1.1553   -1.1710    0.0000 C   0  0  0  0  0  0  0  0  0  0  0  0
   -1.6817   -1.8046    0.0000 C   0  0  0  0  0  0  0  0  0  0  0  0
   -1.3955   -2.5777    0.0000 C   0  0  0  0  0  0  0  0  0  0  0  0
   -0.5858   -2.7233    0.0000 C   0  0  0  0  0  0  0  0  0  0  0  0
   -0.2998   -3.4960    0.0000 C   0  0  0  0  0  0  0  0  0  0  0  0
   -1.9370   -3.2087    0.0000 O   0  0  0  0  0  0  0  0  0  0  0  0
   -1.6487   -3.9883    0.0000 C   0  0  0  0  0  0  0  0  0  0  0  0
   -0.8375   -4.1313    0.0000 C   0  0  0  0  0  0  0  0  0  0  0  0
   -0.5538   -4.9030    0.0000 C   0  0  0  0  0  0  0  0  0  0  0  0
   -1.0852   -5.5363    0.0000 C   0  0  0  0  0  0  0  0  0  0  0  0
   -1.8968   -5.3903    0.0000 C   0  0  0  0  0  0  0  0  0  0  0  0
   -2.1760   -4.6147    0.0000 C   0  0  0  0  0  0  0  0  0  0  0  0
   -1.4366   -0.3983    0.0000 O   0  0  0  0  0  0  0  0  0  0  0  0
    0.7103   -3.8622    0.0000 C   0  0  0  0  0  0  0  0  0  0  0  0
    1.4295   -3.4472    0.0000 C   0  0  0  0  0  0  0  0  0  0  0  0
    2.1353   -4.6881    0.0000 C   0  0  0  0  0  0  0  0  0  0  0  0
    1.4188   -5.0985    0.0000 C   0  0  0  0  0  0  0  0  0  0  0  0
    0.7063   -4.6870    0.0000 C   0  0  0  0  0  0  0  0  0  0  0  0
    2.8499   -5.1023    0.0000 N   0  0  0  0  0  0  0  0  0  0  0  0
    3.5645   -5.5123    0.0000 C   0  0  0  0  0  0  0  0  0  0  0  0
    4.2791   -5.9265    0.0000 S   0  0  0  0  0  0  0  0  0  0  0  0
    1.4295   -2.6204    0.0000 C   0  0  0  0  0  0  0  0  0  0  0  0
   -0.0544   -2.0862    0.0000 C   0  0  0  0  0  0  0  0  0  0  0  0
    0.7134   -2.2096    0.0000 O   0  0  0  0  0  0  0  0  0  0  0  0
   -0.3349   -1.3166    0.0000 C   0  0  0  0  0  0  0  0  0  0  0  0
    2.1354   -3.8588    0.0000 C   0  0  0  0  0  0  0  0  0  0  0  0
   -2.4314   -6.0221    0.0000 O   0  0  0  0  0  0  0  0  0  0  0  0
    2.1434   -2.2069    0.0000 N   0  0  0  0  0  0  0  0  0  0  0  0
    2.8585   -2.6185    0.0000 C   0  0  0  0  0  0  0  0  0  0  0  0
    3.5724   -2.2050    0.0000 C   0  0  0  0  0  0  0  0  0  0  0  0
    4.2874   -2.6165    0.0000 C   0  0  0  0  0  0  0  0  0  0  0  0
    5.0013   -2.2030    0.0000 C   0  0  0  0  0  0  0  0  0  0  0  0
    5.0002   -1.3780    0.0000 O   0  0  0  0  0  0  0  0  0  0  0  0
 21 40  1  0  0  0  0 
 37  8  1  0  0  0  0 
  3 37  1  0  0  0  0 
 20 41  1  0  0  0  0 
 42 22  1  0  0  0  0 
 38 11  1  0  0  0  0 
 10 38  1  0  0  0  0 
 33 43  1  0  0  0  0 
  6 36  1  0  0  0  0 
 33 44  1  0  0  0  0 
 39 18  1  0  0  0  0 
 13 39  1  0  0  0  0 
  6  7  2  0  0  0  0 
  8 10  1  0  0  0  0 
 10  9  2  0  0  0  0 
 11 13  1  0  0  0  0 
 13 12  2  0  0  0  0 
 11 14  1  1  0  0  0 
 14 15  1  0  0  0  0 
 15 16  1  0  0  0  0 
 15 17  1  0  0  0  0 
 18 20  1  0  0  0  0 
 20 19  2  0  0  0  0 
 18 21  1  6  0  0  0 
 22 23  1  0  0  0  0 
 23 24  2  0  0  0  0 
 22 25  1  6  0  0  0 
 25 26  1  0  0  0  0 
 26 27  2  0  0  0  0 
 27 28  1  0  0  0  0 
 28 29  2  0  0  0  0 
 29 30  1  0  0  0  0 
 30 31  2  0  0  0  0 
 31 26  1  0  0  0  0 
 29 32  1  0  0  0  0 
 32 33  1  0  0  0  0 
 33 34  2  0  0  0  0 
  1  3  1  0  0  0  0 
 45 69  1  0  0  0  0 
 69 67  2  0  0  0  0 
 67 48  1  0  0  0  0 
 47 46  2  0  0  0  0 
 46 45  1  0  0  0  0 
 47 48  1  0  0  0  0 
 47 50  1  0  0  0  0 
 48 49  2  0  0  0  0 
 49 52  1  0  0  0  0 
 51 50  1  0  0  0  0 
 51 52  2  0  0  0  0 
 52 53  1  0  0  0  0 
 53 54  2  0  0  0  0 
 54 55  1  0  0  0  0 
 55 56  2  0  0  0  0 
 56 51  1  0  0  0  0 
 45 57  2  0  0  0  0 
 58 59  2  0  0  0  0 
 59 70  1  0  0  0  0 
 70 60  2  0  0  0  0 
 60 61  1  0  0  0  0 
 61 62  2  0  0  0  0 
 62 58  1  0  0  0  0 
 49 58  1  0  0  0  0 
 60 63  1  0  0  0  0 
 63 64  2  0  0  0  0 
 64 65  2  0  0  0  0 
 59 66  1  0  0  0  0 
 66 68  2  0  0  0  0 
 55 71  1  0  0  0  0 
  3  2  2  0  0  0  0 
 66 72  1  0  0  0  0 
  1  4  1  1  0  0  0 
 72 73  1  0  0  0  0 
  4  5  1  0  0  0  0 
 73 74  1  0  0  0  0 
  5  6  1  0  0  0  0 
 74 75  1  0  0  0  0 
 23 35  1  0  0  0  0 
 75 76  1  0  0  0  0 
 76 42  1  0  0  0  0 
 35  1  1  0  0  0  0 
 76 77  2  0  0  0  0 
M  END