
          11280715272D 1   1.00000     0.00000     0

 56 59  0     1  0            999 V2000
   13.2625   -0.7500    0.0000 N   0  0  3  0  0  0           0  0  0
   -2.8958    0.5000    0.0000 N   0  0  3  0  0  0           0  0  0
   -4.3000   -0.0875    0.0000 C   0  0  0  0  0  0           0  0  0
   14.6667   -1.3167    0.0000 C   0  0  0  0  0  0           0  0  0
   12.6792   -1.3292    0.0000 C   0  0  0  0  0  0           0  0  0
   -2.3083   -0.0875    0.0000 C   0  0  0  0  0  0           0  0  0
   14.0875   -0.7417    0.0000 C   0  0  2  0  0  0           0  0  0
   -3.7208    0.5000    0.0000 C   0  0  2  0  0  0           0  0  0
   14.6792   -2.1417    0.0000 N   0  0  0  0  0  0           0  0  0
   -4.3000   -0.9125    0.0000 N   0  0  0  0  0  0           0  0  0
   -2.3125   -0.9125    0.0000 C   0  0  0  0  0  0           0  0  0
   12.6875   -2.1625    0.0000 C   0  0  0  0  0  0           0  0  0
   11.9667   -0.9250    0.0000 C   0  0  0  0  0  0           0  0  0
   -1.5958    0.3250    0.0000 C   0  0  0  0  0  0           0  0  0
    9.8292   -1.3375    0.0000 C   0  0  0  0  0  0           0  0  0
    0.5417   -0.9167    0.0000 C   0  0  0  0  0  0           0  0  0
   15.4292   -1.0000    0.0000 O   0  0  0  0  0  0           0  0  0
   -5.0625    0.2333    0.0000 O   0  0  0  0  0  0           0  0  0
   10.5417   -0.9250    0.0000 N   0  0  0  0  0  0           0  0  0
   -0.1708   -1.3292    0.0000 N   0  0  0  0  0  0           0  0  0
   -1.6000   -1.3250    0.0000 C   0  0  0  0  0  0           0  0  0
   -2.8958   -1.4917    0.0000 C   0  0  0  0  0  0           0  0  0
   11.2542   -1.3375    0.0000 C   0  0  0  0  0  0           0  0  0
   -3.7208   -1.4917    0.0000 C   0  0  1  0  0  0           0  0  0
   13.2750   -2.7375    0.0000 C   0  0  0  0  0  0           0  0  0
   14.1000   -2.7292    0.0000 C   0  0  1  0  0  0           0  0  0
   -0.8833   -0.9167    0.0000 C   0  0  0  0  0  0           0  0  0
   11.9667   -2.5750    0.0000 C   0  0  0  0  0  0           0  0  0
    9.8292   -2.1625    0.0000 O   0  0  0  0  0  0           0  0  0
    0.5417   -0.0917    0.0000 O   0  0  0  0  0  0           0  0  0
   12.9417    0.0083    0.0000 C   0  0  0  0  0  0           0  0  0
   -2.5750    1.2583    0.0000 C   0  0  0  0  0  0           0  0  0
   -4.0333    1.2583    0.0000 C   0  0  3  0  0  0           0  0  0
   14.4000    0.0208    0.0000 C   0  0  3  0  0  0           0  0  0
   -0.8833   -0.0875    0.0000 C   0  0  0  0  0  0           0  0  0
   11.2542   -2.1625    0.0000 C   0  0  0  0  0  0           0  0  0
   13.9167   -4.1500    0.0000 O   0  0  0  0  0  0           0  0  0
   -3.5333   -2.9125    0.0000 O   0  0  0  0  0  0           0  0  0
    9.1167   -0.9250    0.0000 C   0  0  0  0  0  0           0  0  0
    1.2542   -1.3292    0.0000 C   0  0  0  0  0  0           0  0  0
   -4.0333   -2.2542    0.0000 C   0  0  0  0  0  0           0  0  0
   14.4167   -3.4917    0.0000 C   0  0  0  0  0  0           0  0  0
   -4.8583    1.3708    0.0000 C   0  0  0  0  0  0           0  0  0
   -3.5333    1.9208    0.0000 C   0  0  0  0  0  0           0  0  0
   15.2167    0.1333    0.0000 C   0  0  0  0  0  0           0  0  0
   13.8917    0.6708    0.0000 C   0  0  0  0  0  0           0  0  0
    8.4000   -1.3375    0.0000 C   0  0  0  0  0  0           0  0  0
    1.9750   -0.9167    0.0000 C   0  0  0  0  0  0           0  0  0
    2.6875   -1.3292    0.0000 C   0  0  0  0  0  0           0  0  0
    6.9750   -1.3292    0.0000 C   0  0  0  0  0  0           0  0  0
    7.6875   -0.9250    0.0000 C   0  0  0  0  0  0           0  0  0
    3.4042   -0.9167    0.0000 C   0  0  0  0  0  0           0  0  0
    4.1167   -1.3292    0.0000 C   0  0  0  0  0  0           0  0  0
    4.8292   -0.9167    0.0000 C   0  0  0  0  0  0           0  0  0
    5.5417   -1.3292    0.0000 C   0  0  0  0  0  0           0  0  0
    6.2625   -0.9167    0.0000 C   0  0  0  0  0  0           0  0  0
  2  6  1  0     0  0
  3  8  1  0     0  0
  4  7  1  0     0  0
  5  1  1  0     0  0
  6 14  1  0     0  0
  7  1  1  0     0  0
  8  2  1  0     0  0
  9  4  1  0     0  0
 10 24  1  0     0  0
 11 21  1  0     0  0
 12  5  1  0     0  0
 13  5  2  0     0  0
 14 35  2  0     0  0
 15 19  1  0     0  0
 16 40  1  0     0  0
 17  4  2  0     0  0
 18  3  2  0     0  0
 19 23  1  0     0  0
 20 16  1  0     0  0
 21 27  2  0     0  0
 22 11  1  0     0  0
 23 13  1  0     0  0
 24 22  1  0     0  0
 25 12  1  0     0  0
 26  9  1  0     0  0
 27 20  1  0     0  0
 28 12  2  0     0  0
 29 15  2  0     0  0
 30 16  2  0     0  0
 31  1  1  0     0  0
 32  2  1  0     0  0
  8 33  1  6     0  0
  7 34  1  1     0  0
 35 27  1  0     0  0
 36 23  2  0     0  0
 37 42  1  0     0  0
 38 41  1  0     0  0
 39 15  1  0     0  0
 40 48  1  0     0  0
 24 41  1  1     0  0
 26 42  1  6     0  0
 43 33  1  0     0  0
 44 33  1  0     0  0
 45 34  1  0     0  0
 46 34  1  0     0  0
 47 39  1  0     0  0
 48 49  1  0     0  0
 49 52  1  0     0  0
 50 51  1  0     0  0
 51 47  1  0     0  0
 52 53  1  0     0  0
 53 54  1  0     0  0
 54 55  1  0     0  0
 55 56  1  0     0  0
 56 50  1  0     0  0
 26 25  1  0     0  0
 28 36  1  0     0  0
 11  6  2  0     0  0
  3 10  1  0     0  0
M  END