
  SciTegic01161211242D

 47 47  0  0  0  0            999 V2000
    1.2990   -0.7500    0.0000 C   0  0
   22.0383  -35.3117    0.0000 C   0  0
    1.2990    0.7500    0.0000 C   0  0
   22.0384  -36.8117    0.0000 C   0  0
    2.5951   -3.0039    0.0000 N   0  0
   20.7423  -33.0578    0.0000 N   0  0
   15.5558  -25.5430    0.0000 N   0  0
    7.7815  -10.5187    0.0000 N   0  0
   27.1365  -18.0309    0.0000 Cl  0  0
   20.7402  -37.5648    0.0000 O   0  0
    2.5972    1.5031    0.0000 O   0  0
    2.5973   -1.5031    0.0000 C   0  0
   20.7401  -34.5586    0.0000 C   0  0
    0.0000   -1.5000    0.0000 C   0  0
   23.3375  -34.5617    0.0000 C   0  0
    0.0000    1.5000    0.0000 C   0  0
   23.3374  -37.5617    0.0000 C   0  0
    6.4833   -9.7656    0.0000 C   0  0
    3.8933   -3.7570    0.0000 C   0  0
    7.7794  -12.0195    0.0000 C   0  0
   15.5580  -24.0422    0.0000 C   0  0
   19.4441  -32.3047    0.0000 C   0  0
   16.8540  -26.2961    0.0000 C   0  0
    2.5955    2.7031    0.0000 C   0  0
   20.7419  -38.7648    0.0000 C   0  0
    3.8912   -5.2578    0.0000 C   0  0
   19.4462  -30.8039    0.0000 C   0  0
   14.2598  -23.2891    0.0000 C   0  0
    9.0776  -12.7726    0.0000 C   0  0
   16.8519  -27.7969    0.0000 C   0  0
    6.4855   -8.2648    0.0000 C   0  0
   10.3716  -16.5273    0.0000 C   0  0
   10.3737  -15.0265    0.0000 C   0  0
    9.0755  -14.2734    0.0000 C   0  0
    5.1894   -6.0109    0.0000 C   0  0
   18.1480  -30.0508    0.0000 C   0  0
   18.1501  -28.5500    0.0000 C   0  0
    5.1873   -7.5117    0.0000 C   0  0
   14.2619  -21.7882    0.0000 C   0  0
   12.9637  -21.0352    0.0000 C   0  0
   12.9658  -19.5343    0.0000 C   0  0
   11.6676  -18.7813    0.0000 C   0  0
   11.6698  -17.2804    0.0000 C   0  0
   -1.2990   -0.7500    0.0000 C   0  0
   24.6365  -35.3118    0.0000 C   0  0
   24.6365  -36.8118    0.0000 C   0  0
   -1.2990    0.7500    0.0000 C   0  0
  1  3  1  0
  2  4  1  0
  4 10  1  0
  3 11  1  0
  1 12  1  0
  5 12  1  0
  2 13  1  0
  6 13  1  0
  1 14  2  0
  2 15  2  0
  3 16  2  0
  4 17  2  0
  8 18  1  0
  5 19  1  0
  8 20  1  0
  7 21  1  0
  6 22  1  0
  7 23  1  0
 11 24  1  0
 10 25  1  0
 19 26  1  0
 22 27  1  0
 21 28  1  0
 20 29  1  0
 23 30  1  0
 18 31  1  0
 32 33  1  0
 29 34  1  0
 33 34  1  0
 26 35  1  0
 27 36  1  0
 30 37  1  0
 36 37  1  0
 31 38  1  0
 35 38  1  0
 28 39  1  0
 39 40  1  0
 40 41  1  0
 41 42  1  0
 32 43  1  0
 42 43  1  0
 14 44  1  0
 15 45  1  0
 17 46  1  0
 45 46  2  0
 16 47  1  0
 44 47  2  0
M  END