
  SciTegic01181116592D

 53 58  0  0  0  0            999 V2000
   17.1209    0.2224    0.0000 C   0  0
   17.5421   -0.4898    0.0000 C   0  0
   17.1360   -1.2085    0.0000 C   0  0
   16.3089   -1.2162    0.0000 C   0  0
   15.8896   -0.4993    0.0000 C   0  0
   16.2981    0.2164    0.0000 C   0  0
   15.8808    0.9280    0.0000 N   0  0
   15.0598    1.0093    0.0000 N   0  0
   14.8834    1.8152    0.0000 C   0  0
   15.5954    2.2321    0.0000 C   0  0
   16.2117    1.6837    0.0000 C   0  0
   17.0322    1.6821    0.0000 C   0  0
   17.4446    2.3979    0.0000 C   0  0
   18.2689    2.3976    0.0000 C   0  0
   18.6816    1.6823    0.0000 C   0  0
   18.2641    0.9658    0.0000 C   0  0
   17.4413    0.9696    0.0000 C   0  0
   15.6767    3.0531    0.0000 C   0  0
   14.1637    2.2191    0.0000 C   0  0
   13.4542    1.7983    0.0000 N   0  0
   14.1540    3.0441    0.0000 O   0  0
   15.0646   -0.5037    0.0000 Cl  0  0
   17.5551   -1.9191    0.0000 Cl  0  0
   19.5066    1.6806    0.0000 Cl  0  0
    5.5013    0.3067    0.0000 C   0  0
    5.0801   -0.4055    0.0000 C   0  0
    5.4862   -1.1241    0.0000 C   0  0
    6.3133   -1.1319    0.0000 C   0  0
    6.7326   -0.4150    0.0000 C   0  0
    6.3241    0.3008    0.0000 C   0  0
    6.7414    1.0124    0.0000 N   0  0
    7.5624    1.0936    0.0000 N   0  0
    7.7388    1.8995    0.0000 C   0  0
    7.0268    2.3164    0.0000 C   0  0
    6.4105    1.7681    0.0000 C   0  0
    5.5900    1.7664    0.0000 C   0  0
    5.1776    2.4822    0.0000 C   0  0
    4.3533    2.4820    0.0000 C   0  0
    3.9406    1.7666    0.0000 C   0  0
    4.3581    1.0501    0.0000 C   0  0
    5.1809    1.0539    0.0000 C   0  0
    6.9455    3.1374    0.0000 C   0  0
    8.4585    2.3035    0.0000 C   0  0
    9.1680    1.8826    0.0000 N   0  0
    8.4682    3.1284    0.0000 O   0  0
    7.5576   -0.4194    0.0000 Cl  0  0
    5.0671   -1.8347    0.0000 Cl  0  0
    3.1156    1.7649    0.0000 Cl  0  0
    9.8873    2.2866    0.0000 C   0  0
   10.5969    1.8657    0.0000 C   0  0
   11.3161    2.2698    0.0000 N   0  0
   12.0257    1.8489    0.0000 C   0  0
   12.7450    2.2530    0.0000 C   0  0
 25 26  2  0
 12 13  2  0
 26 27  1  0
  7  8  1  0
 27 28  2  0
 13 14  1  0
 28 29  1  0
  1  2  2  0
 29 30  2  0
 30 25  1  0
 31 32  1  0
 14 15  2  0
  3  4  2  0
 15 16  1  0
 16 17  2  0
 32 33  2  0
 33 34  1  0
 34 35  2  0
 35 31  1  0
 30 31  1  0
 17 12  1  0
 11 12  1  0
 36 37  2  0
  4  5  1  0
 37 38  1  0
 10 18  1  0
 38 39  2  0
  2  3  1  0
 39 40  1  0
  9 19  1  0
 40 41  2  0
 41 36  1  0
 35 36  1  0
  8  9  2  0
 34 42  1  0
 19 20  1  0
 33 43  1  0
  9 10  1  0
 43 44  1  0
 19 21  2  0
 43 45  2  0
 10 11  2  0
 29 46  1  0
  5 22  1  0
 27 47  1  0
 11  7  1  0
 39 48  1  0
  3 23  1  0
 44 49  1  0
  6  7  1  0
 49 50  1  0
 15 24  1  0
 50 51  1  0
  5  6  2  0
 51 52  1  0
  6  1  1  0
 52 53  1  0
 53 20  1  0
M  END