
          11280714462D 1   1.00000     0.00000     0

 19 21  0     1  0            999 V2000
    5.6917   -3.1167    0.0000 N   0  0  3  0  0  0           0  0  0
    4.9042   -3.3667    0.0000 C   0  0  1  0  0  0           0  0  0
    5.9500   -2.3292    0.0000 C   0  0  0  0  0  0           0  0  0
    6.7750   -2.3292    0.0000 C   0  0  0  0  0  0           0  0  0
    7.0292   -3.1167    0.0000 N   0  0  0  0  0  0           0  0  0
    4.6542   -4.1542    0.0000 C   0  0  1  0  0  0           0  0  0
    6.3625   -3.6042    0.0000 C   0  0  0  0  0  0           0  0  0
    4.2417   -2.8792    0.0000 O   0  0  0  0  0  0           0  0  0
    3.8292   -4.1542    0.0000 C   0  0  1  0  0  0           0  0  0
    3.5750   -3.3667    0.0000 C   0  0  1  0  0  0           0  0  0
    7.1875   -1.6167    0.0000 C   0  0  0  0  0  0           0  0  0
    5.5375   -1.6167    0.0000 N   0  0  0  0  0  0           0  0  0
    6.7750   -0.9042    0.0000 N   0  0  0  0  0  0           0  0  0
    5.9500   -0.9042    0.0000 C   0  0  0  0  0  0           0  0  0
    5.1375   -4.8250    0.0000 S   0  0  0  0  0  0           0  0  0
    8.0125   -1.6167    0.0000 N   0  0  0  0  0  0           0  0  0
    3.3417   -4.8167    0.0000 O   0  0  0  0  0  0           0  0  0
    2.7875   -3.1167    0.0000 C   0  0  0  0  0  0           0  0  0
    2.2042   -3.7000    0.0000 O   0  0  0  0  0  0           0  0  0
  2  1  1  1     0  0
  3  1  1  0     0  0
  4  3  2  0     0  0
  5  7  2  0     0  0
  6  2  1  0     0  0
  7  1  1  0     0  0
  8  2  1  0     0  0
  9  6  1  0     0  0
 10  8  1  0     0  0
 11  4  1  0     0  0
 12  3  1  0     0  0
 13 14  1  0     0  0
 14 12  2  0     0  0
  6 15  1  6     0  0
 16 11  1  0     0  0
  9 17  1  6     0  0
 10 18  1  1     0  0
 19 18  1  0     0  0
  5  4  1  0     0  0
 10  9  1  0     0  0
 11 13  2  0     0  0
M  END