
          03140815512D 1   1.00000     0.00000     0

 31 33  0     0  0            999 V2000
   11.5444  -22.6625    0.0000 C   0  0  0  0  0  0           0  0  0
   11.5432  -23.4898    0.0000 C   0  0  0  0  0  0           0  0  0
   12.2581  -23.9027    0.0000 C   0  0  0  0  0  0           0  0  0
   12.9745  -23.4894    0.0000 C   0  0  0  0  0  0           0  0  0
   12.9716  -22.6588    0.0000 C   0  0  0  0  0  0           0  0  0
   12.2563  -22.2497    0.0000 C   0  0  0  0  0  0           0  0  0
   13.6846  -22.2436    0.0000 O   0  0  0  0  0  0           0  0  0
   13.6814  -21.4186    0.0000 C   0  0  0  0  0  0           0  0  0
   14.3961  -21.0083    0.0000 C   0  0  0  0  0  0           0  0  0
   14.3934  -20.1841    0.0000 C   0  0  0  0  0  0           0  0  0
   13.6768  -19.7734    0.0000 C   0  0  0  0  0  0           0  0  0
   12.9615  -20.1931    0.0000 C   0  0  0  0  0  0           0  0  0
   12.9678  -21.0159    0.0000 C   0  0  0  0  0  0           0  0  0
   13.6896  -23.9007    0.0000 C   0  0  0  0  0  0           0  0  0
   13.6909  -24.7257    0.0000 N   0  0  0  0  0  0           0  0  0
   14.4060  -25.1371    0.0000 C   0  0  0  0  0  0           0  0  0
   10.8284  -23.9018    0.0000 C   0  0  0  0  0  0           0  0  0
   10.1083  -24.3083    0.0000 C   0  0  0  0  0  0           0  0  0
    9.3917  -24.7167    0.0000 C   0  0  0  0  0  0           0  0  0
    8.6796  -24.3001    0.0000 C   0  0  0  0  0  0           0  0  0
    7.9627  -24.7085    0.0000 N   0  0  3  0  0  0           0  0  0
    7.2488  -24.2935    0.0000 C   0  0  0  0  0  0           0  0  0
    6.5342  -24.6985    0.0000 C   0  0  0  0  0  0           0  0  0
    6.5252  -25.5238    0.0000 O   0  0  0  0  0  0           0  0  0
    7.2371  -25.9425    0.0000 C   0  0  0  0  0  0           0  0  0
    7.9580  -25.5360    0.0000 C   0  0  0  0  0  0           0  0  0
   13.6726  -18.9484    0.0000 Cl  0  0  0  0  0  0           0  0  0
   15.1065  -19.7692    0.0000 C   0  0  3  0  0  0           0  0  0
   15.8167  -19.3500    0.0000 F   0  0  0  0  0  0           0  0  0
   15.5236  -20.4810    0.0000 F   0  0  0  0  0  0           0  0  0
   14.6897  -19.0573    0.0000 F   0  0  0  0  0  0           0  0  0
 14 15  1  0     0  0
  3  4  2  0     0  0
 15 16  1  0     0  0
  7  8  1  0     0  0
  2 17  1  0     0  0
 17 18  3  0     0  0
  8  9  2  0     0  0
 18 19  1  0     0  0
  4  5  1  0     0  0
 19 20  1  0     0  0
  9 10  1  0     0  0
 20 21  1  0     0  0
 21 22  1  0     0  0
  2  3  1  0     0  0
 10 11  2  0     0  0
  5  6  2  0     0  0
 11 12  1  0     0  0
  6  1  1  0     0  0
 21 26  1  0     0  0
 22 23  1  0     0  0
 23 24  1  0     0  0
 24 25  1  0     0  0
 25 26  1  0     0  0
 12 13  2  0     0  0
 11 27  1  0     0  0
 13  8  1  0     0  0
 10 28  1  0     0  0
  1  2  2  0     0  0
 28 29  1  0     0  0
  4 14  1  0     0  0
 28 30  1  0     0  0
  5  7  1  0     0  0
 28 31  1  0     0  0
M  END