
  SciTegic05171617262D

 33 38  0  0  0  0            999 V2000
   -2.3195    7.3696    0.0000 C   0  0
   -1.2824    6.7658    0.0000 C   0  0
   -1.2923    5.2530    0.0000 C   0  0
    0.0051    4.5042    0.0000 C   0  0
    1.3100    5.2670    0.0000 N   0  0
    1.3108    6.7640    0.0000 C   0  0
    2.6078    7.5117    0.0000 C   0  0
    2.6086    9.0088    0.0000 C   0  0
    1.3123    9.7582    0.0000 C   0  0
    0.0153    9.0105    0.0000 C   0  0
    0.0146    7.5135    0.0000 C   0  0
    0.0000    3.0035    0.0000 N   0  0
    1.2785    2.2729    0.0000 C   0  0
    1.2785    0.7306    0.0000 C   0  0
    0.0000    0.0000    0.0000 C   0  0
   -1.2988   -0.7509    0.0000 C   0  0
   -1.2988   -2.2526    0.0000 C   0  0
    0.0000   -3.0238    0.0000 C   0  0
    1.2785   -2.2526    0.0000 N   0  0
    2.5829   -2.9954    0.0000 C   0  0
    2.5927   -4.4962    0.0000 C   0  0
    1.3833   -5.3656    0.0000 C   0  0
    1.8493   -6.7631    0.0000 N   0  0
    3.3426   -6.7691    0.0000 C   0  0
    4.3371   -7.8975    0.0000 C   0  0
    5.8222   -7.5749    0.0000 C   0  0
    6.2842   -6.1531    0.0000 C   0  0
    5.2724   -5.0191    0.0000 C   0  0
    3.8047   -5.3473    0.0000 C   0  0
    1.2785   -0.7509    0.0000 C   0  0
    2.3200   -0.1547    0.0000 O   0  0
   -1.2988    0.7306    0.0000 C   0  0
   -1.2988    2.2729    0.0000 C   0  0
  1  2  1  0
  2  3  1  0
  3  4  2  0
  4  5  1  0
  5  6  2  0
  6  7  1  0
  7  8  2  0
  8  9  1  0
  9 10  2  0
 10 11  1  0
  2 11  2  0
  6 11  1  0
  4 12  1  0
 12 13  1  0
 13 14  1  0
 14 15  1  0
 15 16  1  0
 16 17  1  0
 17 18  1  0
 18 19  1  0
 19 20  1  0
 20 21  1  0
 21 22  2  0
 22 23  1  0
 23 24  1  0
 24 25  2  0
 25 26  1  0
 26 27  2  0
 27 28  1  0
 28 29  2  0
 21 29  1  0
 24 29  1  0
 19 30  1  0
 15 30  1  0
 30 31  2  0
 15 32  1  0
 32 33  1  0
 12 33  1  0
M  END