
  CDK    9/16/09,9:51

 11 12  0  0  0  0  0  0  0  0999 V2000
   -4.9663    1.0626    0.0000 C   0  0  0  0  0  0  0  0  0  0  0  0
   -4.9676    0.2356    0.0000 C   0  0  0  0  0  0  0  0  0  0  0  0
   -4.2551   -0.1770    0.0000 C   0  0  0  0  0  0  0  0  0  0  0  0
   -4.2571    1.4751    0.0000 C   0  0  0  0  0  0  0  0  0  0  0  0
   -3.5394    1.0666    0.0000 C   0  0  0  0  0  0  0  0  0  0  0  0
   -3.5384    0.2398    0.0000 C   0  0  0  0  0  0  0  0  0  0  0  0
   -2.8230   -0.1709    0.0000 C   0  0  0  0  0  0  0  0  0  0  0  0
   -2.1081    0.2441    0.0000 N   0  0  0  0  0  0  0  0  0  0  0  0
   -2.1132    1.0740    0.0000 C   0  0  0  0  0  0  0  0  0  0  0  0
   -2.8292    1.4809    0.0000 C   0  0  0  0  0  0  0  0  0  0  0  0
   -4.2609    2.2995    0.0000 O   0  0  0  0  0  0  0  0  0  0  0  0
  2  3  1  0  0  0  0 
  5  6  1  0  0  0  0 
  3  6  2  0  0  0  0 
  6  7  1  0  0  0  0 
  1  2  2  0  0  0  0 
  7  8  2  0  0  0  0 
  5  4  2  0  0  0  0 
  8  9  1  0  0  0  0 
  4  1  1  0  0  0  0 
  9 10  2  0  0  0  0 
 10  5  1  0  0  0  0 
  4 11  1  0  0  0  0 
M  END