
  SciTegic06051315212D

 29 32  0  0  0  0            999 V2000
   33.5447  -17.9699    0.0000 C   0  0
   33.5436  -18.7895    0.0000 C   0  0
   34.2516  -19.1984    0.0000 C   0  0
   34.9613  -18.7890    0.0000 C   0  0
   34.9584  -17.9663    0.0000 C   0  0
   34.2498  -17.5611    0.0000 C   0  0
   34.2480  -20.0129    0.0000 N   0  0
   33.5384  -20.4201    0.0000 C   0  0
   33.5363  -21.2337    0.0000 C   0  0
   34.2421  -21.6463    0.0000 N   0  0
   34.9517  -21.2391    0.0000 C   0  0
   34.9555  -20.4194    0.0000 C   0  0
   34.2388  -22.4635    0.0000 C   0  0
   35.6696  -19.1965    0.0000 N   0  0
   36.3767  -18.7868    0.0000 C   0  0
   37.0850  -19.1942    0.0000 C   0  0
   36.3754  -17.9696    0.0000 O   0  0
   37.0817  -20.0099    0.0000 C   0  0
   37.7892  -20.4173    0.0000 C   0  0
   38.4972  -20.0075    0.0000 C   0  0
   38.4933  -19.1861    0.0000 C   0  0
   37.7852  -18.7824    0.0000 C   0  0
   37.7797  -17.9652    0.0000 Cl  0  0
   34.2446  -16.7467    0.0000 C   0  0
   34.9527  -16.3366    0.0000 C   0  0
   34.9506  -15.5202    0.0000 C   0  0
   34.2411  -15.1129    0.0000 N   0  0
   33.5323  -15.5280    0.0000 C   0  0
   33.5379  -16.3430    0.0000 C   0  0
  1  2  2  0
  2  3  1  0
  3  4  2  0
  4  5  1  0
  5  6  2  0
  6  1  1  0
  7  8  1  0
  7 12  1  0
  8  9  1  0
  9 10  1  0
 10 11  1  0
 11 12  1  0
  3  7  1  0
 10 13  1  0
  4 14  1  0
 14 15  1  0
 15 16  1  0
 15 17  2  0
 16 18  2  0
 18 19  1  0
 19 20  2  0
 20 21  1  0
 21 22  2  0
 22 16  1  0
 22 23  1  0
 24 25  2  0
 25 26  1  0
 26 27  2  0
 27 28  1  0
 28 29  2  0
 29 24  1  0
  6 24  1  0
M  END