
          11280715482D 1   1.00000     0.00000     0

 39 44  0     0  0            999 V2000
    4.1375   -1.3750    0.0000 C   0  0  0  0  0  0           0  0  0
    3.3792   -1.0292    0.0000 N   0  0  0  0  0  0           0  0  0
    2.8292   -1.6417    0.0000 C   0  0  0  0  0  0           0  0  0
    7.7042   -0.9917    0.0000 C   0  0  0  0  0  0           0  0  0
    4.0417   -2.1917    0.0000 C   0  0  0  0  0  0           0  0  0
    3.2292   -2.3625    0.0000 N   0  0  0  0  0  0           0  0  0
    4.8542   -0.9667    0.0000 C   0  0  0  0  0  0           0  0  0
    7.7125   -0.1667    0.0000 C   0  0  0  0  0  0           0  0  0
    5.0792   -4.1125    0.0000 C   0  0  3  0  0  0           0  0  0
    8.4167   -1.4042    0.0000 C   0  0  0  0  0  0           0  0  0
    2.0042   -1.5542    0.0000 C   0  0  0  0  0  0           0  0  0
    5.5667   -1.3792    0.0000 N   0  0  0  0  0  0           0  0  0
    6.9917   -1.4000    0.0000 C   0  0  0  0  0  0           0  0  0
    6.9917    0.2500    0.0000 C   0  0  0  0  0  0           0  0  0
    8.4292    0.2458    0.0000 N   0  0  3  0  0  0           0  0  0
    5.2625   -5.3667    0.0000 C   0  0  3  0  0  0           0  0  0
    5.6875   -5.6042    0.0000 C   0  0  3  0  0  0           0  0  0
    6.3917   -4.4417    0.0000 C   0  0  3  0  0  0           0  0  0
    6.2792   -0.9792    0.0000 C   0  0  0  0  0  0           0  0  0
    4.8542   -0.1417    0.0000 O   0  0  0  0  0  0           0  0  0
    4.6500   -2.7500    0.0000 C   0  0  0  0  0  0           0  0  0
    5.8417   -3.8417    0.0000 C   0  0  0  0  0  0           0  0  0
    5.1125   -4.9750    0.0000 C   0  0  0  0  0  0           0  0  0
    4.7167   -4.7875    0.0000 C   0  0  0  0  0  0           0  0  0
    8.4125   -2.2292    0.0000 O   0  0  0  0  0  0           0  0  0
    1.5250   -2.2167    0.0000 C   0  0  0  0  0  0           0  0  0
    4.4750   -3.5542    0.0000 C   0  0  0  0  0  0           0  0  0
    5.9625   -5.0917    0.0000 C   0  0  0  0  0  0           0  0  0
    6.4500   -5.3167    0.0000 C   0  0  0  0  0  0           0  0  0
    5.2417   -6.3042    0.0000 C   0  0  0  0  0  0           0  0  0
    6.2792   -0.1542    0.0000 C   0  0  0  0  0  0           0  0  0
    9.1375   -1.0042    0.0000 O   0  0  0  0  0  0           0  0  0
    1.6792   -0.7917    0.0000 C   0  0  0  0  0  0           0  0  0
    9.1417   -0.1750    0.0000 C   0  0  0  0  0  0           0  0  0
    8.4375    1.0708    0.0000 C   0  0  0  0  0  0           0  0  0
    1.8542   -2.9667    0.0000 C   0  0  0  0  0  0           0  0  0
    0.7042   -2.1292    0.0000 C   0  0  0  0  0  0           0  0  0
    0.8542   -0.7042    0.0000 C   0  0  0  0  0  0           0  0  0
    0.3667   -1.3667    0.0000 C   0  0  0  0  0  0           0  0  0
  2  1  1  0     0  0
  3  2  1  0     0  0
  4 13  2  0     0  0
  5  1  2  0     0  0
  6  5  1  0     0  0
  7  1  1  0     0  0
  8 14  2  0     0  0
  9 27  1  0     0  0
 10  4  1  0     0  0
 11  3  1  0     0  0
 12  7  1  0     0  0
 13 19  1  0     0  0
 14 31  1  0     0  0
 15  8  1  0     0  0
 16 24  1  0     0  0
 17 23  1  0     0  0
 18 22  1  0     0  0
 19 12  1  0     0  0
 20  7  2  0     0  0
 21  5  1  0     0  0
 22  9  1  0     0  0
 23  9  1  0     0  0
 24  9  1  0     0  0
 25 10  2  0     0  0
 26 11  2  0     0  0
 27 21  1  0     0  0
 28 16  1  0     0  0
 29 17  1  0     0  0
 30 16  1  0     0  0
 31 19  2  0     0  0
 32 10  1  0     0  0
 33 11  1  0     0  0
 34 15  1  0     0  0
 35 15  1  0     0  0
 36 26  1  0     0  0
 37 26  1  0     0  0
 38 33  2  0     0  0
 39 38  1  0     0  0
  3  6  2  0     0  0
  4  8  1  0     0  0
 37 39  2  0     0  0
 17 30  1  0     0  0
 28 18  1  0     0  0
 29 18  1  0     0  0
M  END