
  SciTegic04071410272D

 26 29  0  0  0  0            999 V2000
   -2.7217    1.4575    0.0000 C   0  0  1  0  0  0
   -1.6547    0.6556    0.0000 C   0  0  2  0  0  0
   -2.1709    1.0843    0.0000 C   0  0
   -3.1426    1.0843    0.0000 C   0  0  1  0  0  0
   -3.2823    1.8974    0.0000 N   0  0
   -1.7929    1.4730    0.0000 C   0  0
   -3.6625    0.3720    0.0000 C   0  0
   -3.0422    0.7489    0.0000 C   0  0
   -3.7049    2.6059    0.0000 C   0  0
   -1.2429   -0.0593    0.0000 C   0  0
   -1.6561   -0.7734    0.0000 C   0  0
   -2.0693   -1.4874    0.0000 C   0  0
   -0.9420   -1.1866    0.0000 C   0  0
   -0.2272   -0.7748    0.0000 C   0  0
    0.4869   -1.1880    0.0000 C   0  0
    0.4861   -2.0130    0.0000 C   0  0
   -0.2288   -2.4248    0.0000 C   0  0
   -0.9428   -2.0116    0.0000 C   0  0
   -1.6575   -2.2023    0.0000 C   0  0
   -2.0707   -2.9164    0.0000 C   0  0
   -2.8957   -2.9156    0.0000 C   0  0
   -3.3075   -2.2007    0.0000 C   0  0
   -2.8943   -1.4866    0.0000 C   0  0
   -2.9116    2.2603    0.0000 H   0  0
   -3.7453    1.6476    0.0000 H   0  0
   -2.3702   -0.3602    0.0000 O   0  0
  2  3  1  0
  3  4  1  0
  4  5  1  0
  1  5  1  0
  1  6  1  0
  6  2  1  0
  4  7  1  0
  1  8  1  0
  7  8  1  0
  5  9  1  0
  2 10  1  6
 10 11  1  0
 11 12  1  0
 11 13  1  0
 13 14  2  0
 14 15  1  0
 15 16  2  0
 16 17  1  0
 17 18  2  0
 18 13  1  0
 12 19  2  0
 19 20  1  0
 20 21  2  0
 21 22  1  0
 22 23  2  0
 23 12  1  0
  1 24  1  6
  4 25  1  1
 11 26  1  0
M  END