
  SciTegic05061409512D

 44 48  0  0  0  0            999 V2000
    3.5535   -4.9197    0.0000 C   0  0  1  0  0  0
    3.5535   -5.7368    0.0000 C   0  0
    4.2588   -4.5069    0.0000 C   0  0
    4.9641   -4.9197    0.0000 C   0  0  1  0  0  0
    5.6627   -6.1462    0.0000 C   0  0  1  0  0  0
    6.3727   -5.7428    0.0000 C   0  0
    6.3762   -4.9257    0.0000 C   0  0  2  0  0  0
    5.6696   -4.5118    0.0000 C   0  0  1  0  0  0
    4.9568   -4.1025    0.0000 H   0  0
    5.6720   -3.6946    0.0000 C   0  0
    7.0860   -4.5208    0.0000 C   0  0
    4.9606   -5.7368    0.0000 C   0  0  1  0  0  0
    4.2584   -6.1415    0.0000 C   0  0
    4.4262   -6.9345    0.0000 C   0  0  2  0  0  0
    5.2323   -7.0199    0.0000 O   0  0
    5.5129   -6.3746    0.0000 C   0  0  1  0  0  0
    6.3683   -6.5540    0.0000 O   0  0
    5.9638   -6.9833    0.0000 O   0  0
    3.8789   -7.5413    0.0000 O   0  0
    3.0797   -7.3707    0.0000 C   0  0
    2.5324   -7.9776    0.0000 C   0  0
    2.8279   -6.5933    0.0000 O   0  0
    5.5516   -7.6889    0.0000 C   0  0
    5.9565   -8.3987    0.0000 C   0  0
    4.7344   -7.6846    0.0000 O   0  0
    6.3808   -3.2880    0.0000 C   0  0
    6.3832   -2.4709    0.0000 C   0  0
    7.0921   -2.0643    0.0000 C   0  0
    7.0944   -1.2471    0.0000 C   0  0
    5.6766   -2.0602    0.0000 C   0  0
    2.8446   -4.5131    0.0000 O   0  0
    7.0762   -6.1458    0.0000 C   0  0
    7.7837   -6.5548    0.0000 C   0  0
    7.0767   -5.3286    0.0000 O   0  0
    8.4917   -6.1466    0.0000 C   0  0
    9.1991   -6.5555    0.0000 C   0  0
    9.1964   -7.3723    0.0000 C   0  0
    9.9031   -7.7812    0.0000 C   0  0
   10.6120   -7.3729    0.0000 C   0  0
   10.6098   -6.5515    0.0000 C   0  0
    9.9025   -6.1463    0.0000 C   0  0
    6.2445   -3.9291    0.0000 C   0  0
    5.6790   -1.2430    0.0000 O   0  0
    6.3879   -0.8365    0.0000 O   0  0
  1  2  1  0
  1  3  1  0
  2 13  2  0
  4  3  1  0
  4 12  1  0
  4  8  1  0
 12  5  1  0
  5  6  1  0
  6  7  1  0
  7  8  1  0
  4  9  1  6
  8 10  1  0
  7 11  1  6
 12 13  1  1
 13 14  1  0
 14 15  1  0
 15 16  1  0
 12 16  1  0
  5 17  1  6
 16 18  1  6
 14 19  1  6
 19 20  1  0
 20 21  1  0
 20 22  2  0
 18 23  1  0
 23 24  1  0
 23 25  2  0
 10 26  1  0
 26 27  1  0
 27 28  2  0
 28 29  1  0
 27 30  1  0
  1 31  1  6
 17 32  1  0
 32 33  1  0
 32 34  2  0
 33 35  2  0
 35 36  1  0
 36 37  2  0
 37 38  1  0
 38 39  2  0
 39 40  1  0
 40 41  2  0
 41 36  1  0
  8 42  1  1
 30 43  1  0
 29 44  1  0
 43 44  1  0
M  END