
  SciTegic          2D

 35 38  0  0  0  0            999 V2000
  -17.3787    4.2069    0.0000 C   0  0
  -11.9716   13.0166    0.0000 C   0  0
  -14.0499   13.0229    0.0000 C   0  0
  -13.0089   13.6196    0.0000 C   0  0
   -9.4253    8.6619    0.0000 O   0  0
    1.2990   -0.7500    0.0000 C   0  0
    0.0000   -1.5000    0.0000 C   0  0
    1.2990    0.7500    0.0000 C   0  0
   -1.2990   -0.7500    0.0000 C   0  0
    0.0000    1.5000    0.0000 C   0  0
  -15.1255    4.8494    0.0000 C   0  0
  -17.1036    6.5338    0.0000 C   0  0
  -14.1530    5.9915    0.0000 C   0  0
  -16.1311    7.6758    0.0000 C   0  0
   -5.3273    7.4917    0.0000 C   0  0
  -11.8073   10.0354    0.0000 C   0  0
   -3.8933    3.7570    0.0000 C   0  0
   -3.8912    5.2578    0.0000 C   0  0
   -2.5973    1.5031    0.0000 C   0  0
   -6.5408    5.3898    0.0000 N   0  0
  -14.2344   10.0439    0.0000 N   0  0
  -11.4082    7.4127    0.0000 N   0  0
   -9.0349    6.3510    0.0000 N   0  0
   -2.5951    3.0039    0.0000 O   0  0
   -6.7945    7.8036    0.0000 S   0  0
   -9.9153    7.5665    0.0000 C   0  0
  -16.6008    5.1205    0.0000 C   0  0
   -1.2990    0.7500    0.0000 C   0  0
   -5.1894    6.0109    0.0000 C   0  0
  -14.6550    7.3994    0.0000 C   0  0
  -12.2886    8.6282    0.0000 C   0  0
  -13.0178   10.9214    0.0000 C   0  0
   -7.5445    6.5046    0.0000 C   0  0
  -13.7758    8.6157    0.0000 N   0  0
  -13.0125   12.4196    0.0000 C   0  0
  1 27  1  0
  2 35  1  0
  3 35  1  0
  4 35  1  0
 26  5  2  0
  6  8  2  0
  6  7  1  0
  7  9  2  0
  8 10  1  0
  9 28  1  0
 10 28  2  0
 11 13  2  0
 11 27  1  0
 12 14  1  0
 12 27  2  0
 13 30  1  0
 14 30  2  0
 15 25  1  0
 15 29  2  0
 16 32  1  0
 16 31  2  0
 17 24  1  0
 17 18  1  0
 18 29  1  0
 19 28  1  0
 19 24  1  0
 29 20  1  0
 33 20  2  0
 32 21  2  0
 21 34  1  0
 26 22  1  0
 31 22  1  0
 33 23  1  0
 26 23  1  0
 33 25  1  0
 30 34  1  0
 31 34  1  0
 32 35  1  0
M  END