
  SciTegic01161211222D

 21 24  0  0  0  0            999 V2000
   15.8358  -20.1953    0.0000 C   0  0
   15.8346  -21.0203    0.0000 C   0  0
   16.5474  -21.4320    0.0000 C   0  0
   16.5456  -19.7838    0.0000 C   0  0
   17.2589  -20.1917    0.0000 C   0  0
   17.2624  -21.0224    0.0000 C   0  0
   17.9794  -21.4325    0.0000 N   0  0
   18.6977  -21.0165    0.0000 C   0  0
   17.9726  -19.7712    0.0000 N   0  0
   18.6948  -20.1878    0.0000 C   0  0
   19.3142  -19.6297    0.0000 C   0  0
   18.9748  -18.8681    0.0000 C   0  0
   18.1457  -18.9556    0.0000 C   0  0
   19.4111  -21.4260    0.0000 N   0  0
   19.4101  -22.2531    0.0000 C   0  0
   20.1194  -22.6626    0.0000 C   0  0
   20.8333  -22.2531    0.0000 N   0  0
   20.8332  -21.4295    0.0000 C   0  0
   20.1193  -21.0155    0.0000 C   0  0
   21.5451  -22.6654    0.0000 C   0  0
   16.5432  -18.9612    0.0000 C   0  0
  4  1  1  0
  5  6  1  0
  2  3  1  0
 10 11  2  0
 11 12  1  0
 12 13  2  0
 13  9  1  0
  3  6  2  0
  8 14  1  0
 14 15  1  0
  1  2  2  0
  5  9  1  0
  6  7  1  0
  7  8  2  0
  8 10  1  0
 14 19  1  0
 15 16  1  0
 16 17  1  0
 17 18  1  0
 18 19  1  0
  9 10  1  0
 17 20  1  0
  5  4  2  0
  4 21  1  0
M  END