
          11280715062D 1   1.00000     0.00000     0

 42 46  0     0  0            999 V2000
    7.9917    1.3500    0.0000 C   0  0  0  0  0  0           0  0  0
    3.7625   -4.4417    0.0000 C   0  0  0  0  0  0           0  0  0
    3.7250   -3.6042    0.0000 C   0  0  0  0  0  0           0  0  0
    8.0042    0.5333    0.0000 C   0  0  0  0  0  0           0  0  0
    3.0625   -4.8750    0.0000 C   0  0  0  0  0  0           0  0  0
    8.7042    1.7708    0.0000 C   0  0  0  0  0  0           0  0  0
    9.4292    1.3583    0.0000 C   0  0  0  0  0  0           0  0  0
    2.3292   -4.4792    0.0000 C   0  0  0  0  0  0           0  0  0
    3.0167   -3.2292    0.0000 C   0  0  0  0  0  0           0  0  0
    8.7167    0.1208    0.0000 C   0  0  0  0  0  0           0  0  0
    9.4292    0.5333    0.0000 C   0  0  0  0  0  0           0  0  0
    2.3167   -3.6542    0.0000 C   0  0  0  0  0  0           0  0  0
    7.2917    0.1125    0.0000 O   0  0  0  0  0  0           0  0  0
    4.4417   -3.1917    0.0000 O   0  0  0  0  0  0           0  0  0
    7.2792    1.7583    0.0000 C   0  0  0  0  0  0           0  0  0
    4.4917   -4.8292    0.0000 C   0  0  0  0  0  0           0  0  0
   10.2042    0.2833    0.0000 O   0  0  0  0  0  0           0  0  0
    1.5250   -3.4167    0.0000 O   0  0  0  0  0  0           0  0  0
   10.2042    1.6125    0.0000 C   0  0  0  0  0  0           0  0  0
    1.5542   -4.7542    0.0000 C   0  0  0  0  0  0           0  0  0
    1.0542   -4.1000    0.0000 C   0  0  0  0  0  0           0  0  0
   10.6917    0.9458    0.0000 C   0  0  0  0  0  0           0  0  0
    4.5167   -5.6542    0.0000 O   0  0  0  0  0  0           0  0  0
    7.2667    2.5833    0.0000 O   0  0  0  0  0  0           0  0  0
    8.7042    2.5958    0.0000 O   0  0  0  0  0  0           0  0  0
    3.0792   -5.7042    0.0000 O   0  0  0  0  0  0           0  0  0
    8.7167   -0.7042    0.0000 O   0  0  0  0  0  0           0  0  0
    3.0000   -2.4042    0.0000 O   0  0  0  0  0  0           0  0  0
    4.4417   -2.3667    0.0000 C   0  0  0  0  0  0           0  0  0
    7.2917   -0.7125    0.0000 C   0  0  0  0  0  0           0  0  0
    5.1542   -1.9542    0.0000 C   0  0  0  0  0  0           0  0  0
    6.5792   -1.1250    0.0000 C   0  0  0  0  0  0           0  0  0
    5.1542   -1.1292    0.0000 C   0  0  0  0  0  0           0  0  0
    5.8667   -0.7167    0.0000 C   0  0  0  0  0  0           0  0  0
    5.8667   -2.3667    0.0000 C   0  0  0  0  0  0           0  0  0
    6.5875   -1.9542    0.0000 C   0  0  0  0  0  0           0  0  0
    6.5667    1.3375    0.0000 C   0  0  0  0  0  0           0  0  0
    5.1917   -4.4000    0.0000 C   0  0  0  0  0  0           0  0  0
    7.9875    3.0000    0.0000 C   0  0  0  0  0  0           0  0  0
    3.8125   -6.0917    0.0000 C   0  0  0  0  0  0           0  0  0
    9.4292   -1.1167    0.0000 C   0  0  0  0  0  0           0  0  0
    2.2750   -2.0042    0.0000 C   0  0  0  0  0  0           0  0  0
  2  3  1  0     0  0
  3 14  1  0     0  0
  4  1  1  0     0  0
  5  2  2  0     0  0
  6  1  2  0     0  0
  7  6  1  0     0  0
  8 12  2  0     0  0
  9  3  2  0     0  0
 10  4  2  0     0  0
 11  7  2  0     0  0
 12  9  1  0     0  0
 13  4  1  0     0  0
 14 29  1  0     0  0
 15  1  1  0     0  0
 16  2  1  0     0  0
 17 11  1  0     0  0
 18 12  1  0     0  0
 19  7  1  0     0  0
 20  8  1  0     0  0
 21 18  1  0     0  0
 22 19  2  0     0  0
 23 16  2  0     0  0
 24 15  2  0     0  0
 25  6  1  0     0  0
 26  5  1  0     0  0
 27 10  1  0     0  0
 28  9  1  0     0  0
 29 31  1  0     0  0
 30 13  1  0     0  0
 31 35  1  0     0  0
 32 30  1  0     0  0
 33 34  1  0     0  0
 34 32  2  0     0  0
 35 36  2  0     0  0
 36 32  1  0     0  0
 37 15  1  0     0  0
 38 16  1  0     0  0
 39 25  1  0     0  0
 40 26  1  0     0  0
 41 27  1  0     0  0
 42 28  1  0     0  0
 11 10  1  0     0  0
 22 17  1  0     0  0
 31 33  2  0     0  0
  8  5  1  0     0  0
 20 21  2  0     0  0
M  END