
          11280715252D 1   1.00000     0.00000     0

 56 59  0     1  0            999 V2000
    2.9917   -3.8625    0.0000 C   0  0  1  0  0  0           0  0  0
    5.1417   -3.4500    0.0000 C   0  0  1  0  0  0           0  0  0
    2.2792   -3.4500    0.0000 C   0  0  0  0  0  0           0  0  0
    5.8542   -3.8625    0.0000 C   0  0  0  0  0  0           0  0  0
    3.7125   -3.4500    0.0000 C   0  0  1  0  0  0           0  0  0
    4.4250   -3.8625    0.0000 C   0  0  1  0  0  0           0  0  0
    1.5667   -3.8625    0.0000 N   0  0  0  0  0  0           0  0  0
    6.5667   -3.4500    0.0000 N   0  0  0  0  0  0           0  0  0
    0.8542   -3.4500    0.0000 C   0  0  2  0  0  0           0  0  0
    7.2792   -3.8625    0.0000 C   0  0  2  0  0  0           0  0  0
    0.1375   -3.8625    0.0000 C   0  0  0  0  0  0           0  0  0
    8.0000   -3.4500    0.0000 C   0  0  0  0  0  0           0  0  0
    5.1417   -2.6250    0.0000 O   0  0  0  0  0  0           0  0  0
    2.9917   -4.6875    0.0000 O   0  0  0  0  0  0           0  0  0
    5.8542   -4.6875    0.0000 O   0  0  0  0  0  0           0  0  0
    2.2792   -2.6250    0.0000 O   0  0  0  0  0  0           0  0  0
    5.1417    1.4958    0.0000 N   0  0  0  0  0  0           0  0  0
    2.9917   -8.8000    0.0000 N   0  0  0  0  0  0           0  0  0
    2.2792   -7.5667    0.0000 C   0  0  0  0  0  0           0  0  0
    5.8542    0.2625    0.0000 C   0  0  0  0  0  0           0  0  0
    2.2792   -8.3917    0.0000 C   0  0  0  0  0  0           0  0  0
    5.8542    1.0875    0.0000 C   0  0  0  0  0  0           0  0  0
    0.1375   -4.6875    0.0000 O   0  0  0  0  0  0           0  0  0
    8.0000   -2.6250    0.0000 O   0  0  0  0  0  0           0  0  0
    8.7125   -3.8625    0.0000 N   0  0  0  0  0  0           0  0  0
   -0.5750   -3.4500    0.0000 N   0  0  0  0  0  0           0  0  0
    1.5667   -7.1542    0.0000 C   0  0  0  0  0  0           0  0  0
    2.9917   -7.1542    0.0000 C   0  0  0  0  0  0           0  0  0
    6.5667   -0.1500    0.0000 C   0  0  0  0  0  0           0  0  0
    5.1417   -0.1542    0.0000 C   0  0  0  0  0  0           0  0  0
    4.4250   -4.6875    0.0000 O   0  0  0  0  0  0           0  0  0
    3.7125   -2.6250    0.0000 O   0  0  0  0  0  0           0  0  0
    2.2792   -5.1000    0.0000 C   0  0  0  0  0  0           0  0  0
    5.8542   -2.2125    0.0000 C   0  0  0  0  0  0           0  0  0
    7.2792   -4.6875    0.0000 C   0  0  3  0  0  0           0  0  0
    0.8542   -2.6250    0.0000 C   0  0  3  0  0  0           0  0  0
    2.2792   -5.9250    0.0000 C   0  0  0  0  0  0           0  0  0
    5.8542   -1.3875    0.0000 C   0  0  0  0  0  0           0  0  0
    6.5667   -0.9750    0.0000 C   0  0  0  0  0  0           0  0  0
    1.5667   -6.3292    0.0000 C   0  0  0  0  0  0           0  0  0
    2.9917   -6.3292    0.0000 C   0  0  0  0  0  0           0  0  0
    5.1417   -0.9750    0.0000 C   0  0  0  0  0  0           0  0  0
    3.0000   -9.6250    0.0000 C   0  0  0  0  0  0           0  0  0
    5.1375    2.3208    0.0000 C   0  0  0  0  0  0           0  0  0
    6.5667    1.5000    0.0000 C   0  0  0  0  0  0           0  0  0
    1.5667   -8.8042    0.0000 C   0  0  0  0  0  0           0  0  0
   -1.2875   -3.8625    0.0000 C   0  0  0  0  0  0           0  0  0
    9.4292   -3.4500    0.0000 C   0  0  0  0  0  0           0  0  0
    0.1375   -2.2125    0.0000 C   0  0  0  0  0  0           0  0  0
    1.5667   -2.2125    0.0000 C   0  0  0  0  0  0           0  0  0
    6.5667   -5.1000    0.0000 C   0  0  0  0  0  0           0  0  0
    8.0000   -5.1000    0.0000 C   0  0  0  0  0  0           0  0  0
    5.8542    2.7333    0.0000 C   0  0  0  0  0  0           0  0  0
    2.2792  -10.0417    0.0000 C   0  0  0  0  0  0           0  0  0
    1.5667   -9.6292    0.0000 C   0  0  0  0  0  0           0  0  0
    6.5667    2.3208    0.0000 C   0  0  0  0  0  0           0  0  0
  2  6  1  0     0  0
  3  1  1  0     0  0
  4  2  1  0     0  0
  5  1  1  0     0  0
  6  5  1  0     0  0
  7  3  1  0     0  0
  8  4  1  0     0  0
  9  7  1  0     0  0
 10  8  1  0     0  0
 11  9  1  0     0  0
 12 10  1  0     0  0
  2 13  1  1     0  0
  1 14  1  1     0  0
 15  4  2  0     0  0
 16  3  2  0     0  0
 17 22  1  0     0  0
 18 21  1  0     0  0
 19 28  1  0     0  0
 20 30  1  0     0  0
 21 19  1  0     0  0
 22 20  1  0     0  0
 23 11  2  0     0  0
 24 12  2  0     0  0
 25 12  1  0     0  0
 26 11  1  0     0  0
 27 40  1  0     0  0
 28 41  2  0     0  0
 29 39  1  0     0  0
 30 42  2  0     0  0
  6 31  1  6     0  0
  5 32  1  6     0  0
 33 14  1  0     0  0
 34 13  1  0     0  0
 10 35  1  6     0  0
  9 36  1  6     0  0
 37 33  1  0     0  0
 38 34  1  0     0  0
 39 38  2  0     0  0
 40 37  2  0     0  0
 41 37  1  0     0  0
 42 38  1  0     0  0
 43 18  2  0     0  0
 44 17  2  0     0  0
 45 22  2  0     0  0
 46 21  2  0     0  0
 47 26  1  0     0  0
 48 25  1  0     0  0
 49 36  1  0     0  0
 50 36  1  0     0  0
 51 35  1  0     0  0
 52 35  1  0     0  0
 53 56  2  0     0  0
 54 55  2  0     0  0
 55 46  1  0     0  0
 56 45  1  0     0  0
 27 19  2  0     0  0
 29 20  2  0     0  0
 43 54  1  0     0  0
 44 53  1  0     0  0
M  END