
          11280715522D 1   1.00000     0.00000     0

 30 33  0     0  0            999 V2000
   -4.3806  -13.3208    0.0000 C   0  0  0  0  0  0           0  0  0
   -4.3818  -14.1482    0.0000 C   0  0  0  0  0  0           0  0  0
   -3.6669  -14.5610    0.0000 C   0  0  0  0  0  0           0  0  0
   -3.6687  -12.9080    0.0000 C   0  0  0  0  0  0           0  0  0
   -2.9534  -13.3172    0.0000 C   0  0  0  0  0  0           0  0  0
   -2.9526  -14.1440    0.0000 C   0  0  0  0  0  0           0  0  0
   -2.2373  -14.5550    0.0000 N   0  0  0  0  0  0           0  0  0
   -1.5223  -14.1402    0.0000 C   0  0  0  0  0  0           0  0  0
   -1.5270  -13.3102    0.0000 C   0  0  0  0  0  0           0  0  0
   -2.2429  -12.9030    0.0000 N   0  0  0  0  0  0           0  0  0
   -0.8062  -14.5499    0.0000 O   0  0  0  0  0  0           0  0  0
   -0.8151  -12.8934    0.0000 C   0  0  0  0  0  0           0  0  0
   -0.0981  -13.3015    0.0000 N   0  0  0  0  0  0           0  0  0
   -0.8201  -12.0684    0.0000 O   0  0  0  0  0  0           0  0  0
    0.6138  -12.8847    0.0000 C   0  0  0  0  0  0           0  0  0
    1.3285  -13.2963    0.0000 C   0  0  0  0  0  0           0  0  0
    2.0400  -12.8801    0.0000 C   0  0  0  0  0  0           0  0  0
    2.0354  -12.0542    0.0000 C   0  0  0  0  0  0           0  0  0
    1.3134  -11.6463    0.0000 C   0  0  0  0  0  0           0  0  0
    0.6049  -12.0648    0.0000 C   0  0  0  0  0  0           0  0  0
    2.7468  -11.6365    0.0000 O   0  0  0  0  0  0           0  0  0
   -0.8030  -15.3749    0.0000 C   0  0  0  0  0  0           0  0  0
    1.3055  -10.8213    0.0000 C   0  0  0  0  0  0           0  0  0
    2.0160  -10.4020    0.0000 N   0  0  3  0  0  0           0  0  0
    2.7344  -10.8143    0.0000 C   0  0  0  0  0  0           0  0  0
    3.4428  -10.3984    0.0000 C   0  0  0  0  0  0           0  0  0
    3.4391   -9.5731    0.0000 N   0  0  3  0  0  0           0  0  0
    2.7209   -9.1653    0.0000 C   0  0  0  0  0  0           0  0  0
    2.0063   -9.5828    0.0000 C   0  0  0  0  0  0           0  0  0
    4.1512   -9.1564    0.0000 C   0  0  0  0  0  0           0  0  0
  6  7  2  0     0  0
 13 15  1  0     0  0
  1  2  1  0     0  0
 15 16  2  0     0  0
  7  8  1  0     0  0
 16 17  1  0     0  0
  5  4  1  0     0  0
 17 18  2  0     0  0
  8  9  2  0     0  0
 18 19  1  0     0  0
  4  1  2  0     0  0
 19 20  2  0     0  0
 20 15  1  0     0  0
  9 10  1  0     0  0
 18 21  1  0     0  0
 10  5  2  0     0  0
 11 22  1  0     0  0
 19 23  1  0     0  0
  8 11  1  0     0  0
 23 24  1  0     0  0
 24 25  1  0     0  0
  2  3  2  0     0  0
  9 12  1  0     0  0
  5  6  1  0     0  0
 12 13  1  0     0  0
  3  6  1  0     0  0
 24 29  1  0     0  0
 25 26  1  0     0  0
 26 27  1  0     0  0
 27 28  1  0     0  0
 28 29  1  0     0  0
 12 14  2  0     0  0
 27 30  1  0     0  0
M  END