
  SciTegic11201309402D

108117  0  0  0  0            999 V2000
   -2.6702   -2.7127    0.0000 C   0  0
   -2.6237   -4.3668    0.0000 O   0  0
    1.1425   -0.5956    0.0000 N   0  0
    0.3194   -0.6085    0.0000 C   0  0
   -0.0810   -1.3299    0.0000 N   0  0
   -0.1050    0.0989    0.0000 S   0  0
   -0.9058   -1.3438    0.0000 C   0  0
   -1.3246   -0.6358    0.0000 C   0  0
   -2.1487   -0.6493    0.0000 C   0  0
   -1.2983   -2.0639    0.0000 C   0  0
   -2.1210   -2.0809    0.0000 C   0  0
   -2.5516   -1.3668    0.0000 C   0  0
   -3.3639   -1.5557    0.0000 C   0  0
   -3.4352   -2.3866    0.0000 O   0  0
   -3.9874   -1.0154    0.0000 O   0  0
   -1.9408   -3.1014    0.0000 C   0  0
   -1.9215   -3.9308    0.0000 C   0  0
   -1.1948   -4.3270    0.0000 C   0  0
   -0.4869   -3.8950    0.0000 C   0  0
   -0.5103   -3.0625    0.0000 C   0  0
   -1.2375   -2.6701    0.0000 C   0  0
   -3.3516   -3.9717    0.0000 C   0  0
   -3.3730   -3.1495    0.0000 C   0  0
   -4.0945   -2.7587    0.0000 C   0  0
   -4.7952   -3.1890    0.0000 C   0  0
   -4.7697   -4.0141    0.0000 C   0  0
   -4.0477   -4.4012    0.0000 C   0  0
    0.2381   -4.2886    0.0000 O   0  0
   -5.4710   -4.4487    0.0000 O   0  0
    6.2535   -0.4365    0.0000 C   0  0  2  0  0  0
    6.5200    0.3398    0.0000 C   0  0
    5.8619    0.8373    0.0000 C   0  0
    5.1853    0.3651    0.0000 C   0  0
    5.4243   -0.4241    0.0000 N   0  0
    4.7265   -0.8643    0.0000 C   0  0
    3.9964   -0.4801    0.0000 C   0  0
    4.7588   -1.6886    0.0000 O   0  0
    3.2986   -0.9202    0.0000 C   0  0
    2.5686   -0.5360    0.0000 C   0  0
    1.8708   -0.9762    0.0000 C   0  0
   21.1106   -3.1396    0.0000 C   0  0
   21.8575   -2.7855    0.0000 C   0  0
   22.5339   -3.2579    0.0000 C   0  0
   22.4648   -4.0802    0.0000 O   0  0
   23.2830   -2.9086    0.0000 O   0  0
   20.4102   -2.7036    0.0000 C   0  0  2  0  0  0
   19.0071   -1.8677    0.0000 C   0  0
   19.7245   -1.4603    0.0000 C   0  0
   20.4359   -1.8780    0.0000 N   0  0
   19.7304   -0.6353    0.0000 O   0  0
   19.6817   -3.0909    0.0000 C   0  0
   19.6529   -3.9154    0.0000 N   0  0
   18.9821   -2.6537    0.0000 O   0  0
   15.6930   -5.0661    0.0000 C   0  0
   10.3784   -1.8385    0.0000 C   0  0
   11.2034   -1.8381    0.0000 N   0  0
    9.9663   -2.5531    0.0000 O   0  0
   11.6163   -2.5524    0.0000 C   0  0  2  0  0  0
   12.4413   -2.5520    0.0000 C   0  0
   11.2041   -3.2670    0.0000 C   0  0  1  0  0  0
   10.3791   -3.2674    0.0000 C   0  0
   11.6170   -3.9813    0.0000 O   0  0
   12.8541   -3.2662    0.0000 N   0  0
   12.8534   -1.8373    0.0000 O   0  0
    9.1457   -1.1237    0.0000 N   0  0
    9.9660   -1.1244    0.0000 C   0  0  1  0  0  0
   10.2201   -0.3443    0.0000 C   0  0
    9.5040    0.0947    0.0000 C   0  0
    8.8926   -0.3435    0.0000 C   0  0
   13.6791   -3.2658    0.0000 C   0  0  2  0  0  0
   14.0920   -3.9801    0.0000 C   0  0
   14.0913   -2.5512    0.0000 C   0  0
   13.6798   -4.6948    0.0000 O   0  0
   14.9145   -3.9796    0.0000 N   0  0
   14.9109   -4.8034    0.0000 C   0  0
   16.1845   -4.4035    0.0000 C   0  0
   15.7065   -3.7297    0.0000 C   0  0  1  0  0  0
   16.0923   -3.0005    0.0000 C   0  0
   16.9160   -2.9702    0.0000 N   0  0
   15.6537   -2.3018    0.0000 O   0  0
   17.1990   -3.7444    0.0000 C   0  0
   18.0235   -3.7167    0.0000 C   0  0
   18.2520   -2.9239    0.0000 C   0  0
   17.5680   -2.4611    0.0000 C   0  0  1  0  0  0
   17.5538   -1.6363    0.0000 C   0  0
   18.3418   -1.3799    0.0000 N   0  0
   16.8323   -1.2361    0.0000 O   0  0
   10.6163   -2.5529    0.0000 H   0  0
    8.7392   -1.8416    0.0000 C   0  0
    7.9143   -1.8486    0.0000 C   0  0
    9.1578   -2.5526    0.0000 O   0  0
    7.4957   -1.1376    0.0000 N   0  0
    6.6708   -1.1446    0.0000 C   0  0
    6.2643   -1.8625    0.0000 O   0  0
    7.4875   -0.3125    0.0000 C   0  0
   18.3375   -0.5542    0.0000 C   0  0
   17.6209   -0.1454    0.0000 C   0  0
   17.6166    0.6796    0.0000 C   0  0
   16.9001    1.0884    0.0000 C   0  0
   16.0544    0.6972    0.0000 C   0  0
   15.4295    1.2894    0.0000 C   0  0
    8.1978    0.1071    0.0000 C   0  0
   13.9970    1.6670    0.0000 C   0  0
    8.1896    0.9321    0.0000 C   0  0
   10.6082    1.7184    0.0000 C   0  0
   18.4472   -1.9847    0.0000 H   0  0
   16.7044   -3.6646    0.0000 H   0  0
   10.9606   -1.0202    0.0000 H   0  0
 46 51  1  0
 23 24  1  0
 51 52  1  0
 11 12  1  0
 51 53  2  0
 24 25  2  0
  1 16  1  0
 66 55  1  0
 25 26  1  0
 55 56  1  0
  4  5  1  0
 55 57  2  0
 26 27  2  0
 56 58  1  0
 27 22  1  0
 58 59  1  0
 22  2  1  0
 58 60  1  0
 19 28  1  0
 60 61  1  6
  4  6  2  0
 60 62  1  0
 26 29  1  0
 59 63  1  0
 12 13  1  0
 59 64  2  0
 65 66  1  0
 30 31  1  0
 13 14  1  0
 14  1  1  0
  1 11  1  0
  2 17  1  0
 66 67  1  0
 67 68  1  0
 68 69  1  0
 69 65  1  0
 31 32  1  0
 63 70  1  0
 32 33  1  0
 70 71  1  0
 33 34  1  0
 70 72  1  1
 34 30  1  0
 71 73  2  0
 13 15  2  0
 71 74  1  0
 74 75  1  0
 34 35  1  0
  5  7  1  0
 35 36  1  0
 75 54  1  0
 54 76  1  0
 76 77  1  0
 77 74  1  0
 77 78  1  0
 35 37  2  0
 78 79  1  0
 16 17  2  0
 78 80  2  0
 79 81  1  0
 36 38  1  0
  7  8  2  0
 38 39  1  0
 17 18  1  0
 81 82  1  0
 82 83  1  0
 83 84  1  0
 84 79  1  0
 39 40  1  0
 84 85  1  0
 40  3  1  0
 85 86  1  0
  1 23  1  0
 85 87  2  0
 18 19  2  0
 58 88  1  1
 41 42  1  0
 65 89  1  0
  8  9  1  0
 89 90  1  0
 42 43  1  0
 89 91  2  0
 19 20  1  0
 90 92  1  0
  9 12  2  0
 92 93  1  0
 43 44  1  0
 93 94  2  0
 86 47  1  0
 46 41  1  1
 30 93  1  1
 43 45  2  0
 92 95  1  0
 20 21  2  0
 86 96  1  0
 21 16  1  0
 96 97  1  0
  3  4  1  0
 97 98  1  0
 47 48  1  0
 98 99  1  0
 11 10  2  0
 99100  1  0
 48 49  1  0
100101  1  0
 22 23  2  0
 95102  1  0
 48 50  2  0
101103  1  0
 49 46  1  0
102104  1  0
 10  7  1  0
104105  1  0
105103  2  0
 84106  1  1
 77107  1  1
 66108  1  6
M  END