
  SciTegic02271217242D

 39 42  0  0  0  0            999 V2000
    5.2182  -22.9857    0.0000 C   0  0
    5.2182  -23.8119    0.0000 C   0  0  1  0  0  0
    5.9276  -24.2229    0.0000 C   0  0
    5.9276  -22.5707    0.0000 C   0  0
    6.6411  -22.9857    0.0000 C   0  0  1  0  0  0
    6.6422  -23.8119    0.0000 C   0  0  1  0  0  0
    7.3548  -24.2238    0.0000 C   0  0
    8.0708  -23.8101    0.0000 C   0  0  1  0  0  0
    7.3527  -22.5716    0.0000 C   0  0
    8.0655  -22.9862    0.0000 C   0  0
    8.0733  -21.3387    0.0000 C   0  0
    7.3535  -21.7487    0.0000 C   0  0
    8.7861  -21.7575    0.0000 C   0  0  1  0  0  0
    8.7825  -22.5785    0.0000 C   0  0  1  0  0  0
    9.5624  -22.8344    0.0000 C   0  0  2  0  0  0
   10.0455  -22.1714    0.0000 C   0  0
    9.5681  -21.5092    0.0000 C   0  0  2  0  0  0
    9.9598  -20.7821    0.0000 C   0  0  1  0  0  0
   10.7863  -20.7559    0.0000 C   0  0
    9.5258  -20.0772    0.0000 C   0  0
   11.2203  -21.4609    0.0000 C   0  0
   12.0460  -21.4388    0.0000 C   0  0
   10.8285  -22.1880    0.0000 O   0  0
   12.4758  -22.1430    0.0000 C   0  0  2  0  0  0
   13.3016  -22.1208    0.0000 C   0  0
   12.0841  -22.8701    0.0000 C   0  0
   13.7363  -22.8217    0.0000 O   0  0
   13.6974  -21.3945    0.0000 O   0  0
    6.6337  -22.1597    0.0000 C   0  0
    5.5088  -24.9369    0.0000 C   0  0
    6.3349  -24.9369    0.0000 C   0  0
    8.7800  -20.9308    0.0000 C   0  0
    4.5028  -24.2280    0.0000 O   0  0
    8.7879  -24.2234    0.0000 O   0  0
    8.7758  -23.4009    0.0000 C   0  0
    6.6337  -21.3294    0.0000 O   0  0
    9.8130  -23.6214    0.0000 O   0  0
   10.3907  -21.5079    0.0000 H   0  0
    6.8579  -24.6047    0.0000 H   0  0
 17 18  1  0
  8 10  1  0
 18 19  1  0
  9 10  2  0
 18 20  1  6
  3  6  1  0
 19 21  1  0
  5  4  1  0
 21 22  1  0
  5  6  1  0
 21 23  2  0
 22 24  1  0
  9 12  1  0
 24 25  1  0
 10 14  1  0
 24 26  1  6
 13 11  1  0
 25 27  1  0
 11 12  1  0
 25 28  2  0
 13 14  1  0
  5 29  1  1
  1  2  1  0
  3 30  1  0
  1  4  1  0
  3 31  1  0
  2  3  1  0
 13 32  1  1
  5  9  1  0
  2 33  1  1
  6  7  1  0
  8 34  1  1
 14 15  1  0
 14 35  1  6
 15 16  1  0
 12 36  2  0
 16 17  1  0
 15 37  1  6
 17 13  1  0
 17 38  1  6
  7  8  1  0
  6 39  1  6
M  END