
  SciTegic04091414152D

 27 30  0  0  0  0            999 V2000
    4.9031   -2.9915    0.0000 C   0  0
    4.2845   -3.5234    0.0000 C   0  0  2  0  0  0
    4.4382   -4.3224    0.0000 C   0  0
    5.2237   -4.5667    0.0000 N   0  3
    5.8284   -4.0565    0.0000 C   0  0
    5.6751   -3.2512    0.0000 C   0  0
    4.5112   -3.7062    0.0000 C   0  0
    5.3072   -3.8904    0.0000 C   0  0
    3.5128   -3.2545    0.0000 O   0  0
    2.1052   -3.0839    0.0000 C   0  0
    1.5650   -3.7017    0.0000 C   0  0
    2.7643   -3.5769    0.0000 C   0  0
    1.3516   -2.7625    0.0000 C   0  0
    1.1251   -1.9760    0.0000 C   0  0
    1.6023   -1.3093    0.0000 C   0  0
    2.4163   -1.2754    0.0000 C   0  0
    2.9587   -1.8865    0.0000 C   0  0
    2.8195   -2.6942    0.0000 C   0  0
    0.7514   -3.6318    0.0000 C   0  0
    0.4287   -4.3862    0.0000 C   0  0
    1.0466   -4.9262    0.0000 C   0  0
    1.7509   -4.5054    0.0000 C   0  0
    2.6674   -4.3884    0.0000 O   0  0
    5.2791   -5.3820    0.0000 C   0  0
    6.0128   -5.7417    0.0000 C   0  0
    6.0682   -6.5570    0.0000 O   0  0
    6.6912   -5.2860    0.0000 N   0  0
  1  2  1  0
  1  6  1  0
  2  3  1  0
  3  4  1  0
  4  5  1  0
  5  6  1  0
  1  7  1  0
  4  8  1  0
  7  8  1  0
  2  9  1  6
 11 10  1  0
 10 12  1  0
 13 14  1  0
 14 15  1  0
 15 16  1  0
 13 10  1  0
 16 17  1  0
 10 18  1  0
 17 18  1  0
 11 19  2  0
 19 20  1  0
 20 21  2  0
 21 22  1  0
 22 11  1  0
 12 23  2  0
 12  9  1  0
  4 24  1  0
 24 25  1  0
 25 26  2  0
 25 27  1  0
M  CHG  1   4   1
M  END