
  SciTegic04151115542D

 23 25  0  0  0  0            999 V2000
   12.1542  -10.5625    0.0000 C   0  0
   12.1542  -11.3875    0.0000 C   0  0
   12.8662  -11.7958    0.0000 C   0  0
   13.5782  -11.3875    0.0000 N   0  0
   13.5782  -10.5625    0.0000 C   0  0
   12.8662  -10.1458    0.0000 C   0  0
   14.2939  -10.1521    0.0000 C   0  0
   14.2921  -11.8010    0.0000 C   0  0
   15.0071  -11.3896    0.0000 C   0  0
   15.7210  -11.8031    0.0000 N   0  0
   15.0083  -10.5646    0.0000 O   0  0
   16.4361  -11.3916    0.0000 C   0  0
   17.1883  -11.7229    0.0000 C   0  0
   16.5226  -10.5659    0.0000 S   0  0
   17.3608  -12.5267    0.0000 C   0  0
   17.5334  -13.3335    0.0000 N   0  0
   19.1714   -9.7893    0.0000 C   0  0
   18.4205   -9.3181    0.0000 C   0  0
   17.6322   -9.6068    0.0000 C   0  0
   19.2522  -10.6510    0.0000 C   0  0
   18.6271  -11.2366    0.0000 C   0  0
   17.7426  -11.1074    0.0000 C   0  0
   17.3298  -10.3955    0.0000 C   0  0
  4  5  1  0
 10 12  1  0
 12 13  2  0
  5  6  1  0
 13 22  1  0
 23 14  1  0
 14 12  1  0
  5  7  1  0
  1  2  1  0
 15 16  3  0
 13 15  1  0
  4  8  1  0
  1  6  1  0
  8  9  1  0
  2  3  1  0
  9 10  1  0
  3  4  1  0
  9 11  2  0
 17 18  1  0
 18 19  1  0
 17 20  1  0
 21 22  1  0
 22 23  2  0
 23 19  1  0
 20 21  1  0
M  END