
  CDK    9/16/09,10:4

 27 29  0  0  0  0  0  0  0  0999 V2000
   -2.1792   -1.7333    0.0000 C   0  0  0  0  0  0  0  0  0  0  0  0
   -1.4647   -1.3208    0.0000 N   0  0  0  0  0  0  0  0  0  0  0  0
   -2.8936   -1.3208    0.0000 N   0  0  0  0  0  0  0  0  0  0  0  0
   -2.1792   -2.5583    0.0000 S   0  0  0  0  0  0  0  0  0  0  0  0
   -3.6081   -1.7333    0.0000 C   0  0  0  0  0  0  0  0  0  0  0  0
   -4.3220   -1.3177    0.0000 C   0  0  0  0  0  0  0  0  0  0  0  0
   -5.0360   -1.7295    0.0000 C   0  0  0  0  0  0  0  0  0  0  0  0
   -5.0364   -2.5554    0.0000 C   0  0  0  0  0  0  0  0  0  0  0  0
   -4.3169   -2.9677    0.0000 C   0  0  0  0  0  0  0  0  0  0  0  0
   -3.6059   -2.5535    0.0000 C   0  0  0  0  0  0  0  0  0  0  0  0
   -0.7502   -1.7333    0.0000 C   0  0  0  0  0  0  0  0  0  0  0  0
   -0.7528   -2.5594    0.0000 C   0  0  0  0  0  0  0  0  0  0  0  0
   -0.0391   -2.9718    0.0000 C   0  0  0  0  0  0  0  0  0  0  0  0
   -0.0406   -1.3213    0.0000 C   0  0  0  0  0  0  0  0  0  0  0  0
    0.6737   -1.7300    0.0000 C   0  0  0  0  0  0  0  0  0  0  0  0
    0.6773   -2.5578    0.0000 C   0  0  0  0  0  0  0  0  0  0  0  0
    1.3928   -2.9686    0.0000 S   0  0  0  0  0  0  0  0  0  0  0  0
    2.1042   -3.3792    0.0000 N   0  0  0  0  0  0  0  0  0  0  0  0
    1.8044   -2.2536    0.0000 O   0  0  0  0  0  0  0  0  0  0  0  0
    0.9843   -3.6854    0.0000 O   0  0  0  0  0  0  0  0  0  0  0  0
    2.1043   -4.2042    0.0000 C   0  0  0  0  0  0  0  0  0  0  0  0
    1.4397   -4.6928    0.0000 N   0  0  0  0  0  0  0  0  0  0  0  0
    1.6948   -5.4774    0.0000 O   0  0  0  0  0  0  0  0  0  0  0  0
    2.5198   -5.4773    0.0000 C   0  0  0  0  0  0  0  0  0  0  0  0
    2.7745   -4.6926    0.0000 C   0  0  0  0  0  0  0  0  0  0  0  0
    3.0049   -6.1446    0.0000 C   0  0  0  0  0  0  0  0  0  0  0  0
   -4.3140   -3.7927    0.0000 Cl  0  0  0  0  0  0  0  0  0  0  0  0
 13 16  2  0  0  0  0 
  6  7  1  0  0  0  0 
 15 14  2  0  0  0  0 
 14 11  1  0  0  0  0 
 15 16  1  0  0  0  0 
  1  4  2  0  0  0  0 
  7  8  2  0  0  0  0 
 16 17  1  0  0  0  0 
  8  9  1  0  0  0  0 
 17 18  1  0  0  0  0 
  3  5  1  0  0  0  0 
 17 19  2  0  0  0  0 
  9 10  2  0  0  0  0 
 17 20  2  0  0  0  0 
 10  5  1  0  0  0  0 
 18 21  1  0  0  0  0 
 21 22  2  0  0  0  0 
  1  3  1  0  0  0  0 
  2 11  1  0  0  0  0 
  5  6  2  0  0  0  0 
 11 12  2  0  0  0  0 
 22 23  1  0  0  0  0 
 23 24  1  0  0  0  0 
 24 25  2  0  0  0  0 
 25 21  1  0  0  0  0 
  1  2  1  0  0  0  0 
 24 26  1  0  0  0  0 
 12 13  1  0  0  0  0 
  9 27  1  0  0  0  0 
M  END