
          11280715042D 1   1.00000     0.00000     0

 27 29  0     0  0            999 V2000
    2.1750   -1.9292    0.0000 N   0  0  3  0  0  0           0  0  0
    1.4542   -1.5167    0.0000 C   0  0  0  0  0  0           0  0  0
    2.8875   -1.5167    0.0000 C   0  0  0  0  0  0           0  0  0
    2.1750   -2.7542    0.0000 C   0  0  0  0  0  0           0  0  0
    1.4542   -0.6917    0.0000 C   0  0  0  0  0  0           0  0  0
    1.4625   -3.1667    0.0000 C   0  0  0  0  0  0           0  0  0
    2.1667   -0.2750    0.0000 C   0  0  0  0  0  0           0  0  0
    0.6625   -2.9542    0.0000 N   0  0  3  0  0  0           0  0  0
    3.6042   -1.9292    0.0000 C   0  0  0  0  0  0           0  0  0
    2.3042   -0.8792    0.0000 O   0  0  0  0  0  0           0  0  0
    2.1667    0.5500    0.0000 O   0  0  0  0  0  0           0  0  0
    3.6042   -2.7542    0.0000 O   0  0  0  0  0  0           0  0  0
    2.8875   -0.6792    0.0000 O   0  0  0  0  0  0           0  0  0
    4.3167   -1.5167    0.0000 O   0  0  0  0  0  0           0  0  0
    0.7417   -0.2792    0.0000 C   0  0  0  0  0  0           0  0  0
    0.7500   -1.9375    0.0000 C   0  0  0  0  0  0           0  0  0
    2.8875   -3.1625    0.0000 C   0  0  0  0  0  0           0  0  0
    0.4500   -2.1417    0.0000 C   0  0  0  0  0  0           0  0  0
    0.0667   -3.5375    0.0000 C   0  0  0  0  0  0           0  0  0
    1.4667   -3.9917    0.0000 C   0  0  0  0  0  0           0  0  0
    0.0292   -0.6917    0.0000 C   0  0  0  0  0  0           0  0  0
    2.8917   -3.9875    0.0000 C   0  0  0  0  0  0           0  0  0
    0.0292   -1.5167    0.0000 C   0  0  0  0  0  0           0  0  0
   -0.7333   -3.3167    0.0000 C   0  0  0  0  0  0           0  0  0
   -0.3500   -1.9250    0.0000 C   0  0  0  0  0  0           0  0  0
    2.1792   -4.4042    0.0000 C   0  0  0  0  0  0           0  0  0
   -0.9458   -2.5042    0.0000 C   0  0  0  0  0  0           0  0  0
  2  1  1  0     0  0
  3  1  1  0     0  0
  4  1  1  0     0  0
  5  2  1  0     0  0
  6  4  2  0     0  0
  7  5  1  0     0  0
  8  6  1  0     0  0
  9  3  1  0     0  0
 10  3  2  0     0  0
 11  7  2  0     0  0
 12  9  2  0     0  0
 13  7  1  0     0  0
 14  9  1  0     0  0
 15  5  2  0     0  0
 16  2  2  0     0  0
 17  4  1  0     0  0
 18  8  1  0     0  0
 19  8  1  0     0  0
 20  6  1  0     0  0
 21 23  2  0     0  0
 22 17  2  0     0  0
 23 16  1  0     0  0
 24 19  1  0     0  0
 25 18  1  0     0  0
 26 22  1  0     0  0
 27 24  1  0     0  0
 26 20  2  0     0  0
 21 15  1  0     0  0
 27 25  1  0     0  0
M  END