
  SciTegic04091416292D

 18 20  0  0  0  0            999 V2000
    7.9897  -17.4884    0.0000 C   0  0
    8.2208  -18.2747    0.0000 C   0  0
    9.0157  -18.4663    0.0000 C   0  0
    8.5500  -16.8965    0.0000 C   0  0
    9.3445  -17.0844    0.0000 C   0  0
    9.5823  -17.8724    0.0000 C   0  0
   10.0205  -16.6147    0.0000 N   0  0
   10.6762  -17.1123    0.0000 C   0  0
   10.4080  -17.8902    0.0000 C   0  0
   10.9446  -18.5080    0.0000 C   0  0
   11.7522  -18.3536    0.0000 N   0  0
   12.0204  -17.5757    0.0000 C   0  0
   11.4809  -16.9522    0.0000 C   0  0
   12.2873  -18.9712    0.0000 C   0  0
   12.0199  -19.7435    0.0000 N   0  0
   13.0897  -18.8167    0.0000 O   0  0
    7.6567  -18.8673    0.0000 Cl  0  0
   11.2175  -19.8980    0.0000 C   0  0
  1  2  2  0
  2  3  1  0
  3  6  2  0
  5  4  2  0
  4  1  1  0
  5  6  1  0
  6  9  1  0
  8  7  1  0
  7  5  1  0
  8  9  2  0
  8 13  1  0
  9 10  1  0
 10 11  1  0
 11 12  1  0
 12 13  1  0
 11 14  1  0
 14 15  1  0
 14 16  2  0
  2 17  1  0
 15 18  1  0
M  END