
  SciTegic01061111512D

 38 39  0  0  0  0            999 V2000
    1.5833   -2.4958    0.0000 Na  0  3
    1.8693   -0.1969    0.0000 C   0  0  2  0  0  0
    1.0443   -0.1969    0.0000 O   0  0
    0.6318    0.5175    0.0000 C   0  0  2  0  0  0
    1.0443    1.2320    0.0000 C   0  0  1  0  0  0
    1.8693    1.2320    0.0000 C   0  0  2  0  0  0
    2.2818    0.5175    0.0000 C   0  0
    1.7260   -1.0094    0.0000 C   0  0
    2.6445   -0.4791    0.0000 O   0  0
    4.1950   -1.0434    0.0000 C   0  0
    3.5630   -1.5737    0.0000 C   0  0
    3.7063   -2.3862    0.0000 C   0  0
    4.4815   -2.6684    0.0000 C   0  0
    5.1135   -2.1381    0.0000 C   0  0
    4.9703   -1.3256    0.0000 C   0  0
    2.7878   -1.2916    0.0000 C   0  0
    0.9508   -1.2916    0.0000 O   0  5
    2.3580   -1.5397    0.0000 O   0  0
    1.0443    2.6609    0.0000 C   0  0
    0.6318    3.3754    0.0000 O   0  0
    1.8693    2.6609    0.0000 C   0  0
    2.2818    1.9465    0.0000 O   0  0
   -0.1932    0.5175    0.0000 C   0  0  1  0  0  0
    0.6318    1.9465    0.0000 N   0  0
   -0.6057   -0.1969    0.0000 C   0  0  1  0  0  0
   -0.6057    1.2320    0.0000 O   0  0
   -0.1932   -0.9114    0.0000 C   0  0
   -1.4307   -0.1969    0.0000 O   0  0
   -0.6057   -1.6259    0.0000 N   0  0
   -0.1932   -2.3403    0.0000 C   0  0
   -0.6057   -3.0548    0.0000 C   0  0
    0.6318   -2.3403    0.0000 O   0  0
   -1.4307   -3.0548    0.0000 C   0  0
   -1.8432   -3.7693    0.0000 C   0  0
   -1.4307   -4.4838    0.0000 C   0  0
   -0.6057   -4.4838    0.0000 C   0  0
   -0.1932   -3.7693    0.0000 C   0  0
    0.2125   -0.1917    0.0000 H   0  0
  2  3  1  0
  4  3  1  0
  5  4  1  0
  5  6  1  0
  6  7  1  0
  7  2  1  0
  2  8  1  6
  2  9  1  0
 10 11  2  0
 11 12  1  0
 12 13  2  0
 13 14  1  0
 14 15  2  0
 15 10  1  0
 11 16  1  0
 16  9  1  0
  8 17  1  0
  8 18  2  0
  5 24  1  6
 24 19  1  0
 19 20  2  0
 19 21  1  0
  6 22  1  1
  4 23  1  0
 23 25  1  0
 23 26  1  1
 25 27  1  0
 25 28  1  1
 27 29  1  0
 29 30  1  0
 30 31  1  0
 30 32  2  0
 31 33  2  0
 33 34  1  0
 34 35  2  0
 35 36  1  0
 36 37  2  0
 37 31  1  0
  4 38  1  6
M  CHG  2   1   1  17  -1
M  END