
  SciTegic12091219282D

 21 23  0  0  0  0            999 V2000
    1.0792    0.5083    0.0000 N   0  0
    0.0625   -0.0542    0.0000 C   0  0
    3.1167    1.6875    0.0000 N   0  0
   -0.9458    0.5083    0.0000 C   0  0
    1.0792    1.6875    0.0000 C   0  0
    2.1000   -0.0542    0.0000 C   0  0
    0.0625   -1.2292    0.0000 C   0  0
   -1.9708   -0.0542    0.0000 C   0  0
   -0.9458    1.6875    0.0000 C   0  0
    2.1000    2.2750    0.0000 C   0  0
    3.1167    0.5083    0.0000 C   0  0
   -2.9833    1.6875    0.0000 C   0  0
   -1.9708    2.2750    0.0000 C   0  0
   -2.9833    0.5083    0.0000 C   0  0
   -4.0000    2.2750    0.0000 Cl  0  0
    4.1417    2.2750    0.0000 C   0  0
   -0.9458   -1.8292    0.0000 C   0  0
    1.0792   -1.8292    0.0000 C   0  0
   -0.9458   -3.0042    0.0000 C   0  0
    1.0792   -3.0042    0.0000 C   0  0
    0.0625   -3.5917    0.0000 C   0  0
  2  1  1  0
  3 11  1  0
  4  2  1  0
  5  1  1  0
  6  1  1  0
  7  2  1  0
  8  4  1  0
  9  4  2  0
 10  5  1  0
 11  6  1  0
 12 13  2  0
 13  9  1  0
 14  8  2  0
 15 12  1  0
 16  3  1  0
 17  7  2  0
 18  7  1  0
 19 17  1  0
 20 18  2  0
 21 19  2  0
 10  3  1  0
 14 12  1  0
 20 21  1  0
M  END