
  SciTegic10301317112D

 39 40  0  0  0  0            999 V2000
   -2.5896    1.5888    0.0000 S   0  0
    7.9231   -6.2717    0.0000 N   0  3
    0.7048    1.6013    0.0000 C   0  0
    7.3351   -2.5395    0.0000 C   0  0  1  0  0  0
    8.1482   -2.6814    0.0000 C   0  0
    7.0474   -1.7556    0.0000 N   0  0
   -1.7639    1.5888    0.0000 C   0  0
    7.6478   -5.4919    0.0000 C   0  0
    6.2217   -1.7681    0.0000 C   0  0
    1.1176    0.8882    0.0000 N   0  0
   -2.5979    0.7631    0.0000 O   0  0
   -2.5896    2.4144    0.0000 O   0  0
    8.7362   -6.4177    0.0000 O   0  5
    2.3644    0.1834    0.0000 C   0  0
    4.4953   -0.3920    0.0000 C   0  0
    7.3934   -6.9056    0.0000 O   0  0
   -0.1209    1.5971    0.0000 C   0  0
   -3.4152    1.5971    0.0000 N   0  0
    4.9832   -1.0550    0.0000 N   0  0
    3.1901    0.1877    0.0000 N   0  0
    6.7972   -3.1692    0.0000 C   0  0
    1.1134    2.3227    0.0000 O   0  0
    8.6737   -2.0516    0.0000 O   0  0
    5.8214   -2.4812    0.0000 O   0  0
    1.9558   -0.5296    0.0000 O   0  0
    4.8331    0.3628    0.0000 O   0  0
   -1.3636    2.3019    0.0000 C   0  0
   -1.3511    0.8757    0.0000 C   0  0
   -0.5337    0.8840    0.0000 C   0  0
   -0.5462    2.3102    0.0000 C   0  0
    8.1733   -4.8581    0.0000 C   0  0
    6.8305   -5.3460    0.0000 C   0  0
    1.9433    0.8965    0.0000 C   0  0
    5.8089   -1.0550    0.0000 C   0  0
    3.6780   -0.4796    0.0000 C   0  0
    7.0849   -3.9449    0.0000 C   0  0
    8.4235   -3.4570    0.0000 O   0  0
    6.5470   -4.5704    0.0000 C   0  0
    7.8980   -4.0825    0.0000 C   0  0
  2  8  1  0
  3 17  1  0
  4  6  1  0
  5  4  1  0
  6  9  1  0
  7  1  1  0
  8 31  2  0
  9 34  1  0
 10  3  1  0
 11  1  2  0
 12  1  2  0
 13  2  1  0
 14 33  1  0
 15 35  1  0
 16  2  2  0
 17 29  2  0
 18  1  1  0
 19 15  1  0
 20 14  1  0
  4 21  1  6
 22  3  2  0
 23  5  2  0
 24  9  2  0
 25 14  2  0
 26 15  2  0
 27  7  1  0
 28  7  2  0
 29 28  1  0
 30 27  2  0
 31 39  1  0
 32 38  2  0
 33 10  1  0
 34 19  1  0
 35 20  1  0
 36 21  1  0
 37  5  1  0
 38 36  1  0
 39 36  2  0
 17 30  1  0
  8 32  1  0
M  CHG  2   2   1  13  -1
M  END