
          11280715202D 1   1.00000     0.00000     0

 40 43  0     0  0            999 V2000
    2.4917   -4.6667    0.0000 N   0  0  3  0  0  0           0  0  0
    1.7375   -4.9875    0.0000 C   0  0  0  0  0  0           0  0  0
    2.5417   -3.8500    0.0000 C   0  0  0  0  0  0           0  0  0
    1.9750   -6.4500    0.0000 C   0  0  0  0  0  0           0  0  0
    3.2167   -5.0750    0.0000 C   0  0  0  0  0  0           0  0  0
    1.5042   -5.7792    0.0000 C   0  0  0  0  0  0           0  0  0
    2.8042   -6.5000    0.0000 N   0  0  0  0  0  0           0  0  0
    3.3542   -5.8875    0.0000 C   0  0  0  0  0  0           0  0  0
    0.3917   -2.6167    0.0000 C   0  0  0  0  0  0           0  0  0
    1.8250   -3.4375    0.0000 C   0  0  0  0  0  0           0  0  0
    3.8500   -4.5500    0.0000 N   0  0  0  0  0  0           0  0  0
    3.2792   -3.4792    0.0000 O   0  0  0  0  0  0           0  0  0
    1.8250   -2.6125    0.0000 N   0  0  3  0  0  0           0  0  0
    1.1042   -2.2042    0.0000 C   0  0  0  0  0  0           0  0  0
    1.5667   -7.1667    0.0000 O   0  0  0  0  0  0           0  0  0
   -0.3208   -2.2042    0.0000 C   0  0  0  0  0  0           0  0  0
    6.8250   -2.1792    0.0000 N   0  0  3  0  0  0           0  0  0
    0.7125   -5.9750    0.0000 C   0  0  0  0  0  0           0  0  0
    1.1667   -4.3917    0.0000 C   0  0  0  0  0  0           0  0  0
   -0.3208   -1.3792    0.0000 O   0  0  0  0  0  0           0  0  0
    4.1250   -6.1750    0.0000 C   0  0  0  0  0  0           0  0  0
    0.4000   -3.4375    0.0000 C   0  0  0  0  0  0           0  0  0
    4.6167   -4.8292    0.0000 C   0  0  0  0  0  0           0  0  0
    2.5375   -2.2000    0.0000 C   0  0  0  0  0  0           0  0  0
   -1.0333   -2.6167    0.0000 C   0  0  0  0  0  0           0  0  0
    6.8167   -1.3542    0.0000 C   0  0  0  0  0  0           0  0  0
    7.5375   -2.5917    0.0000 C   0  0  0  0  0  0           0  0  0
    6.1042   -2.5917    0.0000 C   0  0  0  0  0  0           0  0  0
    0.3917   -0.9667    0.0000 C   0  0  0  0  0  0           0  0  0
    3.2542   -2.6042    0.0000 C   0  0  0  0  0  0           0  0  0
    5.3917   -2.1875    0.0000 C   0  0  0  0  0  0           0  0  0
    4.7625   -5.6500    0.0000 C   0  0  0  0  0  0           0  0  0
    0.1417   -5.3875    0.0000 C   0  0  0  0  0  0           0  0  0
    0.3667   -4.5917    0.0000 C   0  0  0  0  0  0           0  0  0
    4.6792   -2.6042    0.0000 C   0  0  0  0  0  0           0  0  0
    3.9667   -2.1917    0.0000 C   0  0  0  0  0  0           0  0  0
    7.5292   -0.9417    0.0000 C   0  0  0  0  0  0           0  0  0
    8.2542   -2.1792    0.0000 C   0  0  0  0  0  0           0  0  0
   -0.3083   -3.8542    0.0000 C   0  0  0  0  0  0           0  0  0
   -1.0333   -3.4417    0.0000 C   0  0  0  0  0  0           0  0  0
  2  1  1  0     0  0
  3  1  1  0     0  0
  4  6  1  0     0  0
  5  1  1  0     0  0
  6  2  2  0     0  0
  7  8  1  0     0  0
  8  5  2  0     0  0
  9 14  1  0     0  0
 10  3  1  0     0  0
 11  5  1  0     0  0
 12  3  2  0     0  0
 13 10  1  0     0  0
 14 13  1  0     0  0
 15  4  2  0     0  0
 16  9  2  0     0  0
 17 28  1  0     0  0
 18  6  1  0     0  0
 19  2  1  0     0  0
 20 16  1  0     0  0
 21  8  1  0     0  0
 22  9  1  0     0  0
 23 11  2  0     0  0
 24 13  1  0     0  0
 25 16  1  0     0  0
 26 17  1  0     0  0
 27 17  1  0     0  0
 28 31  1  0     0  0
 29 20  1  0     0  0
 30 24  1  0     0  0
 31 35  1  0     0  0
 32 23  1  0     0  0
 33 34  1  0     0  0
 34 19  2  0     0  0
 35 36  1  0     0  0
 36 30  1  0     0  0
 37 26  1  0     0  0
 38 27  1  0     0  0
 39 22  2  0     0  0
 40 39  1  0     0  0
  7  4  1  0     0  0
 32 21  2  0     0  0
 18 33  2  0     0  0
 40 25  2  0     0  0
M  END