
  Mrv0541 04051115152D          

 38 40  0  0  0  0            999 V2000
   -0.3670    0.7369    0.0000 N   0  0  0  0  0  0  0  0  0  0  0  0
   -1.6727    0.4594    0.0000 N   0  0  0  0  0  0  0  0  0  0  0  0
   -1.1207    1.0725    0.0000 C   0  0  0  0  0  0  0  0  0  0  0  0
    0.1599   -0.6356    0.0000 C   0  0  0  0  0  0  0  0  0  0  0  0
    0.3475    1.1494    0.0000 C   0  0  0  0  0  0  0  0  0  0  0  0
    1.0619    0.7369    0.0000 C   0  0  0  0  0  0  0  0  0  0  0  0
    2.4909    0.7369    0.0000 C   0  0  0  0  0  0  0  0  0  0  0  0
    0.9445   -0.3806    0.0000 C   0  0  0  0  0  0  0  0  0  0  0  0
   -2.2484    2.9414    0.0000 C   0  0  0  0  0  0  0  0  0  0  0  0
   -0.1410   -3.0111    0.0000 C   0  0  0  0  0  0  0  0  0  0  0  0
    0.3439   -3.6785    0.0000 C   0  0  0  0  0  0  0  0  0  0  0  0
   -0.6791    2.4315    0.0000 C   0  0  0  0  0  0  0  0  0  0  0  0
   -0.8506    3.2385    0.0000 C   0  0  0  0  0  0  0  0  0  0  0  0
   -1.2970   -3.8510    0.0000 C   0  0  0  0  0  0  0  0  0  0  0  0
   -2.4162   -1.0950    0.0000 O   0  0  0  0  0  0  0  0  0  0  0  0
   -1.5958   -1.0087    0.0000 C   0  0  0  0  0  0  0  0  0  0  0  0
   -1.1108   -1.6762    0.0000 N   0  0  0  0  0  0  0  0  0  0  0  0
   -1.4464   -2.4299    0.0000 C   0  0  2  0  0  0  0  0  0  0  0  0
   -2.2669   -2.5161    0.0000 C   0  0  0  0  0  0  0  0  0  0  0  0
   -2.7518   -1.8486    0.0000 O   0  0  0  0  0  0  0  0  0  0  0  0
   -0.9615   -3.0973    0.0000 C   0  0  0  0  0  0  0  0  0  0  0  0
   -0.8121   -4.5184    0.0000 C   0  0  0  0  0  0  0  0  0  0  0  0
    0.0084   -4.4322    0.0000 C   0  0  0  0  0  0  0  0  0  0  0  0
   -1.2602   -0.2551    0.0000 C   0  0  0  0  0  0  0  0  0  0  0  0
   -0.4532   -0.0835    0.0000 C   0  0  0  0  0  0  0  0  0  0  0  0
   -0.0117   -1.4425    0.0000 C   0  0  0  0  0  0  0  0  0  0  0  0
   -1.2922    1.8795    0.0000 C   0  0  0  0  0  0  0  0  0  0  0  0
   -1.6353    3.4934    0.0000 C   0  0  0  0  0  0  0  0  0  0  0  0
   -1.8068    4.3004    0.0000 F   0  0  0  0  0  0  0  0  0  0  0  0
   -2.0768    2.1344    0.0000 C   0  0  0  0  0  0  0  0  0  0  0  0
    1.7764    1.1494    0.0000 C   0  0  2  0  0  0  0  0  0  0  0  0
    1.7764    1.9744    0.0000 O   0  0  0  0  0  0  0  0  0  0  0  0
    3.2054    1.1494    0.0000 C   0  0  1  0  0  0  0  0  0  0  0  0
    3.2054    1.9744    0.0000 O   0  0  0  0  0  0  0  0  0  0  0  0
    3.9198    0.7369    0.0000 C   0  0  0  0  0  0  0  0  0  0  0  0
    4.6343    1.1494    0.0000 C   0  0  0  0  0  0  0  0  0  0  0  0
    5.3488    0.7369    0.0000 O   0  0  0  0  0  0  0  0  0  0  0  0
    4.6343    1.9744    0.0000 O   0  0  0  0  0  0  0  0  0  0  0  0
 25  1  1  0  0  0  0
  3  1  1  0  0  0  0
  5  1  1  0  0  0  0
 24  2  1  0  0  0  0
  3  2  2  0  0  0  0
 27  3  1  0  0  0  0
 26  4  1  0  0  0  0
 25  4  1  0  0  0  0
  8  4  1  0  0  0  0
  5  6  1  0  0  0  0
  6 31  1  0  0  0  0
  7 33  1  0  0  0  0
  7 31  1  0  0  0  0
  9 28  2  0  0  0  0
  9 30  1  0  0  0  0
 10 11  2  0  0  0  0
 10 21  1  0  0  0  0
 11 23  1  0  0  0  0
 12 13  2  0  0  0  0
 12 27  1  0  0  0  0
 13 28  1  0  0  0  0
 14 21  2  0  0  0  0
 22 14  1  0  0  0  0
 16 15  2  0  0  0  0
 16 17  1  0  0  0  0
 24 16  1  0  0  0  0
 18 17  1  1  0  0  0
 18 19  1  0  0  0  0
 18 21  1  0  0  0  0
 19 20  1  0  0  0  0
 22 23  2  0  0  0  0
 25 24  2  0  0  0  0
 30 27  2  0  0  0  0
 28 29  1  0  0  0  0
 31 32  1  1  0  0  0
 33 35  1  0  0  0  0
 33 34  1  1  0  0  0
 35 36  1  0  0  0  0
 36 38  2  0  0  0  0
 36 37  1  0  0  0  0
M  END