
  SciTegic12231509382D

 53 65  0  0  1  0            999 V2000
    2.0057   -6.8181    0.0000 O   0  0
   -2.2554   -6.8181    0.0000 O   0  0
    2.6204   -4.9394    0.0000 O   0  0
   -2.8701   -4.9394    0.0000 O   0  0
    3.7767   -7.4190    0.0000 O   0  0
   -4.0264   -7.4190    0.0000 O   0  0
   -0.1248   -6.5318    0.0000 N   0  0
    1.1608   -3.7969    0.0000 N   0  0
   -1.4105   -3.7969    0.0000 N   0  0
    1.7901   -5.5108    0.0000 C   0  0  2  0  0  0
   -2.0397   -5.5108    0.0000 C   0  0  2  0  0  0
    1.8020   -4.8350    0.0000 C   0  0  1  0  0  0
   -2.0517   -4.8350    0.0000 C   0  0  1  0  0  0
    1.3762   -6.2476    0.0000 C   0  0  2  0  0  0
   -1.6259   -6.2476    0.0000 C   0  0  2  0  0  0
    2.6141   -5.6177    0.0000 C   0  0
   -2.8637   -5.6177    0.0000 C   0  0
    0.5426   -6.0468    0.0000 C   0  0
   -0.7923   -6.0468    0.0000 C   0  0
    0.2877   -5.2622    0.0000 C   0  0
   -0.5286   -5.2353    0.0000 C   0  0
    1.9886   -4.0598    0.0000 C   0  0  1  0  0  0
   -2.2382   -4.0598    0.0000 C   0  0  1  0  0  0
    0.9949   -4.6614    0.0000 C   0  0
   -1.2446   -4.6614    0.0000 C   0  0
    2.7580   -6.4254    0.0000 C   0  0
   -3.0076   -6.4254    0.0000 C   0  0
    3.1762   -4.9770    0.0000 C   0  0
   -3.4259   -4.9770    0.0000 C   0  0
    0.9327   -5.2501    0.0000 C   0  0
   -1.1824   -5.2501    0.0000 C   0  0
    2.8387   -4.1774    0.0000 C   0  0
   -3.0884   -4.1774    0.0000 C   0  0
    0.5280   -4.3700    0.0000 C   0  0
   -0.7777   -4.3700    0.0000 C   0  0
    3.5628   -6.6222    0.0000 C   0  0
   -3.8125   -6.6222    0.0000 C   0  0
    3.9634   -5.2350    0.0000 C   0  0
   -4.2131   -5.2350    0.0000 C   0  0
    4.1645   -6.0452    0.0000 C   0  0
   -4.4142   -6.0452    0.0000 C   0  0
    0.9855   -2.9908    0.0000 C   0  0
   -1.2351   -2.9908    0.0000 C   0  0
    1.5959   -2.4358    0.0000 C   0  0
   -0.4493   -2.7396    0.0000 C   0  0
    1.8471   -1.6500    0.0000 C   0  0
    2.4021   -2.2605    0.0000 C   0  0
    0.1057   -2.1291    0.0000 C   0  0
    0.3569   -2.9149    0.0000 C   0  0
   -2.4203   -3.2551    0.0000 H   0  0
    2.1706   -3.2551    0.0000 H   0  0
   -1.2403   -6.9769    0.0000 H   0  0
    0.9907   -6.9769    0.0000 H   0  0
 14  1  1  0
  1 26  1  0
 15  2  1  0
  2 27  1  0
 12  3  1  6
 13  4  1  1
  5 36  1  0
  6 37  1  0
  7 18  1  0
  7 19  1  0
  8 22  1  0
  8 34  1  0
  8 42  1  0
  9 23  1  0
  9 35  1  0
  9 43  1  0
 10 12  1  0
 10 14  1  0
 10 16  1  0
 10 30  1  6
 11 13  1  0
 11 15  1  0
 11 17  1  0
 11 31  1  1
 12 22  1  0
 12 24  1  0
 13 23  1  0
 13 25  1  0
 14 18  1  0
 15 19  1  0
 16 26  1  0
 16 28  2  0
 17 27  1  0
 17 29  2  0
 18 20  2  0
 19 21  2  0
 20 21  1  0
 20 24  1  0
 21 25  1  0
 22 32  1  0
 23 33  1  0
 26 36  2  0
 27 37  2  0
 28 32  1  0
 28 38  1  0
 29 33  1  0
 29 39  1  0
 30 34  1  0
 31 35  1  0
 36 40  1  0
 37 41  1  0
 38 40  2  0
 39 41  2  0
 42 44  1  0
 43 45  1  0
 44 46  1  0
 44 47  1  0
 45 48  1  0
 45 49  1  0
 46 47  1  0
 48 49  1  0
 23 50  1  6
 22 51  1  1
 15 52  1  1
 14 53  1  6
M  END