
  SciTegic04181615532D

 31 34  0  0  0  0            999 V2000
    1.2990   -0.7500    0.0000 C   0  0
    0.0000   -1.5000    0.0000 C   0  0
   -1.2990   -0.7500    0.0000 C   0  0
   -1.2990    0.7500    0.0000 C   0  0
    1.2990    0.7500    0.0000 C   0  0
    0.0000    1.5000    0.0000 C   0  0
   -2.6003   -1.4978    0.0000 C   0  0
   -3.8990   -0.7455    0.0000 N   0  0
   -2.6024   -2.6978    0.0000 O   0  0
   -5.2003   -1.4932    0.0000 C   0  0
    2.5973   -1.5031    0.0000 O   0  0
    2.5951   -3.0039    0.0000 C   0  0
    3.8915   -3.7585    0.0000 N   0  0
    3.8864   -5.2585    0.0000 C   0  0
    2.5847   -6.0040    0.0000 C   0  0
    1.2883   -5.2495    0.0000 N   0  0
    1.2935   -3.7495    0.0000 C   0  0
    2.5765   -7.5048    0.0000 C   0  0
    3.6126   -8.1102    0.0000 O   0  0
    1.2731   -8.2489    0.0000 N   0  0
    0.9197   -9.6695    0.0000 C   0  0
   -0.5265   -9.2712    0.0000 C   0  0
   -0.1282   -7.8250    0.0000 C   0  0
   -6.5517   -0.8722    0.0000 N   0  0
   -7.5554   -1.9869    0.0000 N   0  0
   -6.8054   -3.2860    0.0000 C   0  0
   -5.3382   -2.9741    0.0000 C   0  0
    0.0031    3.0008    0.0000 O   0  0
    1.3039    3.7494    0.0000 C   0  0
    1.3063    4.9494    0.0000 C   0  0
    2.3421    3.1476    0.0000 C   0  0
  5  1  1  0
  1  2  2  0
  2  3  1  0
  3  4  2  0
  4  6  1  0
  5  6  2  0
  3  7  1  0
  7  8  1  0
  7  9  2  0
  8 10  1  0
  1 11  1  0
 11 12  1  0
 12 13  2  0
 13 14  1  0
 14 15  2  0
 15 16  1  0
 16 17  2  0
 17 12  1  0
 15 18  1  0
 18 19  2  0
 18 20  1  0
 20 21  1  0
 21 22  1  0
 22 23  1  0
 23 20  1  0
 10 24  2  0
 24 25  1  0
 25 26  1  0
 26 27  2  0
 27 10  1  0
  6 28  1  0
 28 29  1  0
 29 30  1  0
 29 31  1  0
M  END