
  SciTegic10311316212D

 25 28  0  0  0  0            999 V2000
    5.3887  -12.7036    0.0000 C   0  0
    5.3876  -13.5231    0.0000 C   0  0
    6.0956  -13.9321    0.0000 C   0  0
    6.0939  -12.2947    0.0000 C   0  0
    6.8025  -12.7000    0.0000 C   0  0
    6.8027  -13.5186    0.0000 C   0  0
    7.5814  -13.7714    0.0000 S   0  0
    8.0624  -13.1089    0.0000 C   0  0
    7.5810  -12.4468    0.0000 C   0  0
    4.6841  -13.9303    0.0000 N   0  0
    3.9378  -13.5973    0.0000 C   0  0
    3.3905  -14.2042    0.0000 N   0  0
    3.7986  -14.9123    0.0000 N   0  0
    4.5980  -14.7429    0.0000 C   0  0
    5.2037  -15.2869    0.0000 C   0  0
    5.0316  -16.0869    0.0000 C   0  0
    5.6377  -16.6339    0.0000 C   0  0
    6.4161  -16.3821    0.0000 C   0  0
    6.5849  -15.5782    0.0000 C   0  0
    5.9775  -15.0347    0.0000 C   0  0
    3.7685  -12.7979    0.0000 S   0  0
    8.8775  -13.1065    0.0000 C   0  0
    9.2864  -13.8140    0.0000 O   0  0
    9.2859  -12.3986    0.0000 O   0  0
    7.0237  -16.9285    0.0000 Cl  0  0
  1  2  2  0
  2  3  1  0
  3  6  2  0
  5  4  2  0
  4  1  1  0
  5  6  1  0
  6  7  1  0
  7  8  1  0
  8  9  2  0
  9  5  1  0
 10 11  1  0
 11 12  2  0
 12 13  1  0
 13 14  2  0
 14 10  1  0
  2 10  1  0
 15 16  2  0
 16 17  1  0
 17 18  2  0
 18 19  1  0
 19 20  2  0
 20 15  1  0
 14 15  1  0
 11 21  1  0
 22 23  1  0
 22 24  2  0
  8 22  1  0
 18 25  1  0
M  END