
  CDK    9/16/09,9:57

 12 13  0  0  0  0  0  0  0  0999 V2000
   15.9783   -2.1383    0.0000 N   0  0  0  0  0  0  0  0  0  0  0  0
   15.7615   -2.9343    0.0000 C   0  0  0  0  0  0  0  0  0  0  0  0
   16.4516   -3.3865    0.0000 N   0  0  0  0  0  0  0  0  0  0  0  0
   17.0950   -2.8699    0.0000 N   0  0  0  0  0  0  0  0  0  0  0  0
   16.8023   -2.0985    0.0000 N   0  0  0  0  0  0  0  0  0  0  0  0
   14.9932   -3.2248    0.0000 C   0  0  0  0  0  0  0  0  0  0  0  0
   14.3539   -2.7011    0.0000 C   0  0  0  0  0  0  0  0  0  0  0  0
   13.5829   -2.9931    0.0000 C   0  0  0  0  0  0  0  0  0  0  0  0
   13.4500   -3.8085    0.0000 C   0  0  0  0  0  0  0  0  0  0  0  0
   14.0942   -4.3310    0.0000 C   0  0  0  0  0  0  0  0  0  0  0  0
   14.8627   -4.0361    0.0000 C   0  0  0  0  0  0  0  0  0  0  0  0
   15.5033   -4.5564    0.0000 Cl  0  0  0  0  0  0  0  0  0  0  0  0
  6  7  2  0  0  0  0 
  2  3  1  0  0  0  0 
  7  8  1  0  0  0  0 
  3  4  1  0  0  0  0 
  8  9  2  0  0  0  0 
  4  5  2  0  0  0  0 
  9 10  1  0  0  0  0 
  5  1  1  0  0  0  0 
 10 11  2  0  0  0  0 
 11  6  1  0  0  0  0 
  2  6  1  0  0  0  0 
  1  2  2  0  0  0  0 
 11 12  1  0  0  0  0 
M  END