
  -ISIS-  03291115432D

146132  0  0  0  0  0  0  0  0999 V2000
   -1.2958   -3.7167    0.0000 C   0  0  2  0  0  0  0  0  0  0  0  0
    9.4375   -1.6500    0.0000 C   0  0  2  0  0  0  0  0  0  0  0  0
   -0.5750   -4.1250    0.0000 C   0  0  1  0  0  0  0  0  0  0  0  0
    6.5792   -1.6500    0.0000 C   0  0  2  0  0  0  0  0  0  0  0  0
    0.8500   -1.6500    0.0000 C   0  0  2  0  0  0  0  0  0  0  0  0
    3.7125   -1.6500    0.0000 C   0  0  2  0  0  0  0  0  0  0  0  0
   -0.5750   -4.9625    0.0000 C   0  0  1  0  0  0  0  0  0  0  0  0
    8.7250   -1.2375    0.0000 C   0  0  1  0  0  0  0  0  0  0  0  0
    0.8500   -2.4792    0.0000 C   0  0  1  0  0  0  0  0  0  0  0  0
    5.8625   -1.2375    0.0000 C   0  0  1  0  0  0  0  0  0  0  0  0
    3.0000   -1.2375    0.0000 C   0  0  1  0  0  0  0  0  0  0  0  0
    9.4375   -2.4792    0.0000 C   0  0  1  0  0  0  0  0  0  0  0  0
   -2.0083   -4.1250    0.0000 C   0  0  1  0  0  0  0  0  0  0  0  0
    0.1375   -6.2000    0.0000 S   0  0  3  0  0  0  0  0  0  0  0  0
    6.5792   -2.4792    0.0000 C   0  0  1  0  0  0  0  0  0  0  0  0
    0.1375   -1.2375    0.0000 C   0  0  1  0  0  0  0  0  0  0  0  0
    3.7125   -2.4792    0.0000 C   0  0  1  0  0  0  0  0  0  0  0  0
    8.0125   -1.6500    0.0000 C   0  0  1  0  0  0  0  0  0  0  0  0
    5.1417   -1.6500    0.0000 C   0  0  1  0  0  0  0  0  0  0  0  0
    0.1375   -2.8875    0.0000 C   0  0  1  0  0  0  0  0  0  0  0  0
    2.2875   -1.6500    0.0000 C   0  0  1  0  0  0  0  0  0  0  0  0
   -1.9875   -2.4500    0.0000 S   0  0  3  0  0  0  0  0  0  0  0  0
   10.8750   -1.6500    0.0000 S   0  0  3  0  0  0  0  0  0  0  0  0
    4.4292   -3.7167    0.0000 S   0  0  3  0  0  0  0  0  0  0  0  0
    9.4375    0.0000    0.0000 S   0  0  3  0  0  0  0  0  0  0  0  0
   -3.4375   -4.1333    0.0000 S   0  0  3  0  0  0  0  0  0  0  0  0
    7.2917   -3.7167    0.0000 S   0  0  3  0  0  0  0  0  0  0  0  0
    6.5792    0.0000    0.0000 S   0  0  3  0  0  0  0  0  0  0  0  0
    3.7125    0.0000    0.0000 S   0  0  3  0  0  0  0  0  0  0  0  0
    1.5667   -3.7167    0.0000 S   0  0  3  0  0  0  0  0  0  0  0  0
    0.8500    0.0000    0.0000 S   0  0  3  0  0  0  0  0  0  0  0  0
   10.1542   -3.7167    0.0000 S   0  0  3  0  0  0  0  0  0  0  0  0
    6.5792   -5.2042    0.0000 S   0  0  3  0  0  0  0  0  0  0  0  0
    3.7125   -5.2042    0.0000 S   0  0  3  0  0  0  0  0  0  0  0  0
   -3.4458   -6.6125    0.0000 S   0  0  3  0  0  0  0  0  0  0  0  0
   -2.0083    0.0000    0.0000 S   0  0  3  0  0  0  0  0  0  0  0  0
    0.1375   -5.3667    0.0000 O   0  0  0  0  0  0  0  0  0  0  0  0
   -1.2958   -5.3667    0.0000 O   0  0  0  0  0  0  0  0  0  0  0  0
    9.4375   -5.2125    0.0000 P   0  0  3  0  0  0  0  0  0  0  0  0
    0.1375   -3.7167    0.0000 O   0  0  0  0  0  0  0  0  0  0  0  0
   -2.0083   -4.9625    0.0000 C   0  0  2  0  0  0  0  0  0  0  0  0
    4.4292   -1.2375    0.0000 O   0  0  0  0  0  0  0  0  0  0  0  0
    7.2917   -1.2375    0.0000 O   0  0  0  0  0  0  0  0  0  0  0  0
    1.5667   -1.2375    0.0000 O   0  0  0  0  0  0  0  0  0  0  0  0
    8.7250   -2.8875    0.0000 C   0  0  2  0  0  0  0  0  0  0  0  0
   -0.5750   -1.6500    0.0000 C   0  0  2  0  0  0  0  0  0  0  0  0
    5.8625   -2.8875    0.0000 C   0  0  2  0  0  0  0  0  0  0  0  0
    3.0000   -2.8875    0.0000 C   0  0  2  0  0  0  0  0  0  0  0  0
    2.2875   -2.4792    0.0000 O   0  0  0  0  0  0  0  0  0  0  0  0
    5.1417   -2.4792    0.0000 O   0  0  0  0  0  0  0  0  0  0  0  0
   -0.5750   -2.4792    0.0000 O   0  0  0  0  0  0  0  0  0  0  0  0
    8.0125   -2.4792    0.0000 O   0  0  0  0  0  0  0  0  0  0  0  0
   10.1542   -1.2375    0.0000 O   0  0  0  0  0  0  0  0  0  0  0  0
   -1.2958   -2.8875    0.0000 O   0  0  0  0  0  0  0  0  0  0  0  0
    8.7250   -0.4125    0.0000 O   0  0  0  0  0  0  0  0  0  0  0  0
    3.0000   -0.4125    0.0000 O   0  0  0  0  0  0  0  0  0  0  0  0
    1.5667   -2.8875    0.0000 O   0  0  0  0  0  0  0  0  0  0  0  0
    5.8625   -0.4125    0.0000 O   0  0  0  0  0  0  0  0  0  0  0  0
   -2.7250   -3.7167    0.0000 O   0  0  0  0  0  0  0  0  0  0  0  0
   10.1542   -2.8875    0.0000 O   0  0  0  0  0  0  0  0  0  0  0  0
    4.4292   -2.8875    0.0000 O   0  0  0  0  0  0  0  0  0  0  0  0
    7.2917   -2.8875    0.0000 O   0  0  0  0  0  0  0  0  0  0  0  0
    0.1375   -0.4125    0.0000 O   0  0  0  0  0  0  0  0  0  0  0  0
    5.8625   -3.9625    0.0000 C   0  0  0  0  0  0  0  0  0  0  0  0
    3.0000   -3.9625    0.0000 C   0  0  0  0  0  0  0  0  0  0  0  0
   -1.2958   -1.2375    0.0000 C   0  0  0  0  0  0  0  0  0  0  0  0
   -2.7250   -5.3667    0.0000 C   0  0  0  0  0  0  0  0  0  0  0  0
    8.7250   -3.9625    0.0000 C   0  0  0  0  0  0  0  0  0  0  0  0
   -2.7250   -6.2000    0.0000 O   0  0  0  0  0  0  0  0  0  0  0  0
   -1.2958   -0.4125    0.0000 O   0  0  0  0  0  0  0  0  0  0  0  0
    3.7125   -4.3792    0.0000 O   0  0  0  0  0  0  0  0  0  0  0  0
    6.5792   -4.3792    0.0000 O   0  0  0  0  0  0  0  0  0  0  0  0
    0.1375   -7.0250    0.0000 O   0  5  0  0  0  0  0  0  0  0  0  0
   -4.1625   -4.5292    0.0000 O   0  5  0  0  0  0  0  0  0  0  0  0
    1.5667    0.4125    0.0000 O   0  5  0  0  0  0  0  0  0  0  0  0
   -2.7000   -2.0292    0.0000 O   0  5  0  0  0  0  0  0  0  0  0  0
    4.4292    0.4125    0.0000 O   0  5  0  0  0  0  0  0  0  0  0  0
    7.2917   -4.5417    0.0000 O   0  5  0  0  0  0  0  0  0  0  0  0
   10.1542   -4.5417    0.0000 O   0  5  0  0  0  0  0  0  0  0  0  0
    1.5667   -4.5417    0.0000 O   0  5  0  0  0  0  0  0  0  0  0  0
   11.5875   -2.0625    0.0000 O   0  5  0  0  0  0  0  0  0  0  0  0
    7.2917    0.4125    0.0000 O   0  5  0  0  0  0  0  0  0  0  0  0
   10.1542    0.4125    0.0000 O   0  5  0  0  0  0  0  0  0  0  0  0
    4.4292   -4.5417    0.0000 O   0  5  0  0  0  0  0  0  0  0  0  0
   -4.1875   -6.9667    0.0000 O   0  5  0  0  0  0  0  0  0  0  0  0
    3.7125   -6.0292    0.0000 O   0  5  0  0  0  0  0  0  0  0  0  0
   -2.7250    0.4125    0.0000 O   0  5  0  0  0  0  0  0  0  0  0  0
    6.5792   -6.0292    0.0000 O   0  5  0  0  0  0  0  0  0  0  0  0
    0.9667   -6.2000    0.0000 O   0  0  0  0  0  0  0  0  0  0  0  0
   -0.6875   -6.2000    0.0000 O   0  0  0  0  0  0  0  0  0  0  0  0
    9.0250    0.7125    0.0000 O   0  0  0  0  0  0  0  0  0  0  0  0
    9.8542   -0.7125    0.0000 O   0  0  0  0  0  0  0  0  0  0  0  0
    3.6042   -3.7167    0.0000 O   0  0  0  0  0  0  0  0  0  0  0  0
    0.7375   -3.7167    0.0000 O   0  0  0  0  0  0  0  0  0  0  0  0
    2.3917   -3.7167    0.0000 O   0  0  0  0  0  0  0  0  0  0  0  0
   -3.0333   -4.8500    0.0000 O   0  0  0  0  0  0  0  0  0  0  0  0
   -3.8500   -3.4167    0.0000 O   0  0  0  0  0  0  0  0  0  0  0  0
    6.4625   -3.7167    0.0000 O   0  0  0  0  0  0  0  0  0  0  0  0
    8.1167   -3.7167    0.0000 O   0  0  0  0  0  0  0  0  0  0  0  0
   -1.5625   -1.7417    0.0000 O   0  0  0  0  0  0  0  0  0  0  0  0
   -2.4625   -3.1250    0.0000 O   0  0  0  0  0  0  0  0  0  0  0  0
    3.3000    0.7125    0.0000 O   0  0  0  0  0  0  0  0  0  0  0  0
    4.1250   -0.7125    0.0000 O   0  0  0  0  0  0  0  0  0  0  0  0
    6.1625    0.7125    0.0000 O   0  0  0  0  0  0  0  0  0  0  0  0
   10.9792   -3.7167    0.0000 O   0  0  0  0  0  0  0  0  0  0  0  0
    9.3292   -3.7167    0.0000 O   0  0  0  0  0  0  0  0  0  0  0  0
    6.9875   -0.7125    0.0000 O   0  0  0  0  0  0  0  0  0  0  0  0
    1.2625   -0.7125    0.0000 O   0  0  0  0  0  0  0  0  0  0  0  0
   11.2875   -0.9375    0.0000 O   0  0  0  0  0  0  0  0  0  0  0  0
   10.4542   -2.3625    0.0000 O   0  0  0  0  0  0  0  0  0  0  0  0
    0.4375    0.7125    0.0000 O   0  0  0  0  0  0  0  0  0  0  0  0
    5.2625   -3.7167    0.0000 O   0  0  0  0  0  0  0  0  0  0  0  0
    5.7500   -5.2042    0.0000 O   0  0  0  0  0  0  0  0  0  0  0  0
   -2.4250   -0.7125    0.0000 O   0  0  0  0  0  0  0  0  0  0  0  0
   -1.6000    0.7125    0.0000 O   0  0  0  0  0  0  0  0  0  0  0  0
    4.5375   -5.2042    0.0000 O   0  0  0  0  0  0  0  0  0  0  0  0
    2.8875   -5.2042    0.0000 O   0  0  0  0  0  0  0  0  0  0  0  0
   -3.0583   -7.3375    0.0000 O   0  0  0  0  0  0  0  0  0  0  0  0
   -3.8250   -5.8792    0.0000 O   0  0  0  0  0  0  0  0  0  0  0  0
    7.4042   -5.2042    0.0000 O   0  0  0  0  0  0  0  0  0  0  0  0
    9.4375   -4.3792    0.0000 O   0  0  0  0  0  0  0  0  0  0  0  0
    9.4292   -6.0375    0.0000 O   0  5  0  0  0  0  0  0  0  0  0  0
   10.2625   -5.2125    0.0000 O   0  5  0  0  0  0  0  0  0  0  0  0
    8.6042   -5.2042    0.0000 O   0  0  0  0  0  0  0  0  0  0  0  0
    4.8000    1.4083    0.0000 Na  0  3  0  0  0  0  0  0  0  0  0  0
    1.8542    1.0875    0.0000 Na  0  3  0  0  0  0  0  0  0  0  0  0
   -2.0833    1.3083    0.0000 Na  0  3  0  0  0  0  0  0  0  0  0  0
   -3.8125   -1.6792    0.0000 Na  0  3  0  0  0  0  0  0  0  0  0  0
   -5.4125   -4.1792    0.0000 Na  0  3  0  0  0  0  0  0  0  0  0  0
   -5.3917   -7.8875    0.0000 Na  0  3  0  0  0  0  0  0  0  0  0  0
    3.6667   -7.2250    0.0000 Na  0  3  0  0  0  0  0  0  0  0  0  0
    6.2625   -7.2000    0.0000 Na  0  3  0  0  0  0  0  0  0  0  0  0
    1.7625   -5.1625    0.0000 Na  0  3  0  0  0  0  0  0  0  0  0  0
   11.2000   -4.6000    0.0000 Na  0  3  0  0  0  0  0  0  0  0  0  0
   12.2625   -2.1375    0.0000 Na  0  3  0  0  0  0  0  0  0  0  0  0
   11.2625    0.8375    0.0000 Na  0  3  0  0  0  0  0  0  0  0  0  0
    7.7292    0.9625    0.0000 Na  0  3  0  0  0  0  0  0  0  0  0  0
    9.9125   -7.2292    0.0000 Na  0  3  0  0  0  0  0  0  0  0  0  0
    0.8750   -7.8000    0.0000 Na  0  3  0  0  0  0  0  0  0  0  0  0
    4.9250   -6.5875    0.0000 Na  0  3  0  0  0  0  0  0  0  0  0  0
    7.8250   -6.9000    0.0000 Na  0  3  0  0  0  0  0  0  0  0  0  0
   11.7292   -6.2750    0.0000 Na  0  3  0  0  0  0  0  0  0  0  0  0
    0.1375   -4.5375    0.0000 H   0  0  0  0  0  0  0  0  0  0  0  0
    2.2875   -0.8250    0.0000 H   0  0  0  0  0  0  0  0  0  0  0  0
    8.0125   -0.8250    0.0000 H   0  0  0  0  0  0  0  0  0  0  0  0
    5.1417   -0.8250    0.0000 H   0  0  0  0  0  0  0  0  0  0  0  0
  2  8  1  0  0  0  0
  3  1  1  0  0  0  0
  4 10  1  0  0  0  0
  5  9  1  0  0  0  0
  6 11  1  0  0  0  0
  7  3  1  0  0  0  0
  8 18  1  0  0  0  0
  9 20  1  0  0  0  0
 10 19  1  0  0  0  0
 11 21  1  0  0  0  0
 12 45  1  0  0  0  0
 13  1  1  0  0  0  0
 14 37  1  0  0  0  0
 15 47  1  0  0  0  0
 16 46  1  0  0  0  0
 17 48  1  0  0  0  0
 18 43  1  0  0  0  0
 19 42  1  0  0  0  0
 20 40  1  1  0  0  0
 21 44  1  0  0  0  0
 22 54  1  0  0  0  0
 23 53  1  0  0  0  0
 24 61  1  0  0  0  0
 25 55  1  0  0  0  0
 26 59  1  0  0  0  0
 27 62  1  0  0  0  0
 28 58  1  0  0  0  0
 29 56  1  0  0  0  0
 30 57  1  0  0  0  0
 31 63  1  0  0  0  0
 32 60  1  0  0  0  0
 33 72  1  0  0  0  0
 34 71  1  0  0  0  0
 35 69  1  0  0  0  0
 36 70  1  0  0  0  0
  7 37  1  1  0  0  0
 38 41  1  0  0  0  0
 39121  1  0  0  0  0
 40  3  1  0  0  0  0
 41 13  1  0  0  0  0
  6 42  1  1  0  0  0
  4 43  1  1  0  0  0
  5 44  1  6  0  0  0
 45 52  1  0  0  0  0
 46 51  1  0  0  0  0
 47 50  1  0  0  0  0
 48 49  1  0  0  0  0
 49 21  1  0  0  0  0
 50 19  1  0  0  0  0
 51 20  1  0  0  0  0
 52 18  1  0  0  0  0
  2 53  1  1  0  0  0
  1 54  1  6  0  0  0
  8 55  1  1  0  0  0
 11 56  1  1  0  0  0
  9 57  1  6  0  0  0
 10 58  1  1  0  0  0
 13 59  1  1  0  0  0
 12 60  1  6  0  0  0
 17 61  1  6  0  0  0
 15 62  1  6  0  0  0
 16 63  1  1  0  0  0
 47 64  1  1  0  0  0
 48 65  1  1  0  0  0
 46 66  1  6  0  0  0
 41 67  1  6  0  0  0
 45 68  1  1  0  0  0
 69 67  1  0  0  0  0
 70 66  1  0  0  0  0
 71 65  1  0  0  0  0
 72 64  1  0  0  0  0
 73 14  1  0  0  0  0
 74 26  1  0  0  0  0
 75 31  1  0  0  0  0
 76 22  1  0  0  0  0
 77 29  1  0  0  0  0
 78 27  1  0  0  0  0
 79 32  1  0  0  0  0
 80 30  1  0  0  0  0
 81 23  1  0  0  0  0
 82 28  1  0  0  0  0
 83 25  1  0  0  0  0
 84 24  1  0  0  0  0
 85 35  1  0  0  0  0
 86 34  1  0  0  0  0
 87 36  1  0  0  0  0
 88 33  1  0  0  0  0
 89 14  2  0  0  0  0
 90 14  2  0  0  0  0
 91 25  2  0  0  0  0
 92 25  2  0  0  0  0
 93 24  2  0  0  0  0
 94 30  2  0  0  0  0
 95 30  2  0  0  0  0
 96 26  2  0  0  0  0
 97 26  2  0  0  0  0
 98 27  2  0  0  0  0
 99 27  2  0  0  0  0
100 22  2  0  0  0  0
101 22  2  0  0  0  0
102 29  2  0  0  0  0
103 29  2  0  0  0  0
104 28  2  0  0  0  0
105 32  2  0  0  0  0
106 32  2  0  0  0  0
107 28  2  0  0  0  0
108 31  2  0  0  0  0
109 23  2  0  0  0  0
110 23  2  0  0  0  0
111 31  2  0  0  0  0
112 24  2  0  0  0  0
113 33  2  0  0  0  0
114 36  2  0  0  0  0
115 36  2  0  0  0  0
116 34  2  0  0  0  0
117 34  2  0  0  0  0
118 35  2  0  0  0  0
119 35  2  0  0  0  0
120 33  2  0  0  0  0
121 68  1  0  0  0  0
122 39  1  0  0  0  0
123 39  1  0  0  0  0
124 39  2  0  0  0  0
  3143  1  1  0  0  0
 21144  1  1  0  0  0
 18145  1  1  0  0  0
 19146  1  1  0  0  0
 38  7  1  0  0  0  0
 16  5  1  0  0  0  0
 17  6  1  0  0  0  0
 15  4  1  0  0  0  0
 12  2  1  0  0  0  0
M  CHG  8  73  -1  74  -1  75  -1  76  -1  77  -1  78  -1  79  -1  80  -1
M  CHG  8  81  -1  82  -1  83  -1  84  -1  85  -1  86  -1  87  -1  88  -1
M  CHG  8 122  -1 123  -1 125   1 126   1 127   1 128   1 129   1 130   1
M  CHG  8 131   1 132   1 133   1 134   1 135   1 136   1 137   1 138   1
M  CHG  4 139   1 140   1 141   1 142   1
M  END