
  SciTegic10191216022D

 28 31  0  0  0  0            999 V2000
    0.9408    1.5593    0.0000 C   0  0
    0.9397    0.7314    0.0000 C   0  0
    1.6549    0.3183    0.0000 C   0  0
    2.3717    0.7319    0.0000 C   0  0
    2.3689    1.5629    0.0000 C   0  0
    1.6531    1.9723    0.0000 C   0  0
    1.6575   -0.5062    0.0000 C   0  0
    1.6515   -2.1562    0.0000 C   0  0
    2.3683   -1.7448    0.0000 N   0  0
    2.3721   -0.9167    0.0000 C   0  0
    0.9386   -1.7393    0.0000 C   0  0
    0.9417   -0.9195    0.0000 C   0  0
    0.2344   -0.5087    0.0000 C   0  0
   -0.4765   -0.9164    0.0000 N   0  0
   -0.4757   -1.7394    0.0000 C   0  0
    0.2321   -2.1466    0.0000 C   0  0
   -1.9054   -1.7412    0.0000 C   0  0
   -2.6199   -2.1549    0.0000 C   0  0
   -3.3353   -1.7430    0.0000 C   0  0
   -4.0468   -2.1567    0.0000 N   0  0
   -4.7610   -1.7483    0.0000 C   0  0
   -5.4706   -2.1585    0.0000 C   0  0
   -5.4724   -2.9819    0.0000 C   0  0
   -4.7585   -3.3935    0.0000 C   0  0
   -4.0428   -2.9817    0.0000 C   0  0
    3.0822    1.9784    0.0000 Cl  0  0
    1.6506    2.7978    0.0000 Cl  0  0
   -1.1900   -2.1531    0.0000 O   0  0
  7 12  1  0
 13 14  2  0
  1  2  2  0
 14 15  1  0
  3  4  2  0
 15 16  2  0
 16 11  1  0
 15 28  1  0
  4  5  1  0
 28 17  1  0
  7 10  1  0
 17 18  1  0
 11  8  1  0
 18 19  1  0
  8  9  1  0
 19 20  1  0
 20 21  1  0
  9 10  1  0
  7  3  1  0
  2  3  1  0
  5  6  2  0
 11 12  2  0
 20 25  1  0
 21 22  1  0
 22 23  1  0
 23 24  1  0
 24 25  1  0
  6  1  1  0
  5 26  1  0
 12 13  1  0
  6 27  1  0
M  END