
          11280715412D 1   1.00000     0.00000     0

 37 41  0     0  0            999 V2000
    5.9292   -1.9625    0.0000 N   0  0  3  0  0  0           0  0  0
    6.4292   -1.2875    0.0000 C   0  0  0  0  0  0           0  0  0
    5.9292   -0.6042    0.0000 C   0  0  0  0  0  0           0  0  0
    5.1417   -0.8750    0.0000 C   0  0  0  0  0  0           0  0  0
    5.1417   -1.7042    0.0000 C   0  0  0  0  0  0           0  0  0
    7.2542   -1.2042    0.0000 C   0  0  3  0  0  0           0  0  0
    6.1417   -2.7542    0.0000 C   0  0  0  0  0  0           0  0  0
    4.4167   -2.1167    0.0000 C   0  0  0  0  0  0           0  0  0
    8.4792   -1.9125    0.0000 C   0  0  0  0  0  0           0  0  0
    4.4167   -0.4625    0.0000 C   0  0  0  0  0  0           0  0  0
    7.6542   -1.9042    0.0000 C   0  0  0  0  0  0           0  0  0
    1.5625   -5.6542    0.0000 N   0  0  0  0  0  0           0  0  0
    5.5542   -3.3417    0.0000 C   0  0  0  0  0  0           0  0  0
    8.9042   -1.2042    0.0000 O   0  0  0  0  0  0           0  0  0
    2.2292   -7.7875    0.0000 C   0  0  0  0  0  0           0  0  0
    3.0125   -7.7750    0.0000 C   0  0  0  0  0  0           0  0  0
    6.2625    0.1500    0.0000 C   0  0  0  0  0  0           0  0  0
    3.7167   -0.8750    0.0000 C   0  0  0  0  0  0           0  0  0
    3.7167   -1.7042    0.0000 C   0  0  0  0  0  0           0  0  0
    5.5542   -4.1542    0.0000 C   0  0  0  0  0  0           0  0  0
    8.8917   -2.6292    0.0000 O   0  0  0  0  0  0           0  0  0
    1.8042   -7.0625    0.0000 C   0  0  0  0  0  0           0  0  0
    4.8417   -4.5667    0.0000 C   0  0  0  0  0  0           0  0  0
    2.9917   -0.4625    0.0000 F   0  0  0  0  0  0           0  0  0
    7.5917   -0.4292    0.0000 C   0  0  0  0  0  0           0  0  0
    4.8542   -5.3917    0.0000 O   0  0  0  0  0  0           0  0  0
    2.0792   -6.2917    0.0000 C   0  0  0  0  0  0           0  0  0
    7.1042    0.2375    0.0000 C   0  0  0  0  0  0           0  0  0
    4.1292   -3.3292    0.0000 C   0  0  0  0  0  0           0  0  0
    0.7417   -5.8042    0.0000 C   0  0  0  0  0  0           0  0  0
    4.8292   -2.9250    0.0000 C   0  0  0  0  0  0           0  0  0
    3.4417   -7.0667    0.0000 C   0  0  0  0  0  0           0  0  0
    4.1250   -4.1667    0.0000 C   0  0  0  0  0  0           0  0  0
    4.1417   -5.8167    0.0000 C   0  0  0  0  0  0           0  0  0
    1.0000   -7.2042    0.0000 C   0  0  0  0  0  0           0  0  0
    4.1542   -6.6417    0.0000 C   0  0  0  0  0  0           0  0  0
    0.4667   -6.5792    0.0000 C   0  0  0  0  0  0           0  0  0
  2  1  1  0     0  0
  3  2  2  0     0  0
  4  5  1  0     0  0
  5  1  1  0     0  0
  6  2  1  0     0  0
  7  1  1  0     0  0
  8  5  2  0     0  0
  9 11  1  0     0  0
 10  4  2  0     0  0
 11  6  1  0     0  0
 12 27  2  0     0  0
 13  7  1  0     0  0
 14  9  2  0     0  0
 15 16  2  0     0  0
 16 32  1  0     0  0
 17  3  1  0     0  0
 18 19  2  0     0  0
 19  8  1  0     0  0
 20 13  1  0     0  0
 21  9  1  0     0  0
 22 15  1  0     0  0
 23 20  2  0     0  0
 24 18  1  0     0  0
 25  6  1  0     0  0
 26 23  1  0     0  0
 27 22  1  0     0  0
 28 25  1  0     0  0
 29 31  1  0     0  0
 30 37  2  0     0  0
 31 13  2  0     0  0
 32 36  1  0     0  0
 33 29  2  0     0  0
 34 26  1  0     0  0
 35 22  2  0     0  0
 36 34  1  0     0  0
 37 35  1  0     0  0
  3  4  1  0     0  0
 10 18  1  0     0  0
 17 28  1  0     0  0
 33 23  1  0     0  0
 30 12  1  0     0  0
M  END