
          11280715082D 1   1.00000     0.00000     0

 33 36  0     1  0            999 V2000
    9.4750   -1.9667    0.0000 S   0  0  3  0  0  0           0  0  0
    5.9667   -0.9542    0.0000 C   0  0  0  0  0  0           0  0  0
    5.9750   -0.3542    0.0000 C   0  0  0  0  0  0           0  0  0
    6.5417   -1.1417    0.0000 S   0  0  0  0  0  0           0  0  0
    5.4000   -1.1375    0.0000 S   0  0  0  0  0  0           0  0  0
    6.8917   -0.6542    0.0000 C   0  0  0  0  0  0           0  0  0
    5.0500   -0.6542    0.0000 C   0  0  0  0  0  0           0  0  0
    9.4792   -1.3667    0.0000 N   0  0  0  0  0  0           0  0  0
    6.5417   -0.1667    0.0000 C   0  0  0  0  0  0           0  0  0
    5.4042   -0.1667    0.0000 C   0  0  0  0  0  0           0  0  0
    9.0542   -0.9500    0.0000 C   0  0  2  0  0  0           0  0  0
    9.4667   -2.5667    0.0000 C   0  0  0  0  0  0           0  0  0
    7.4917   -0.6542    0.0000 C   0  0  0  0  0  0           0  0  0
    9.5750   -0.6500    0.0000 C   0  0  0  0  0  0           0  0  0
    8.0167   -0.9542    0.0000 N   0  0  0  0  0  0           0  0  0
   10.0750   -1.9667    0.0000 O   0  0  0  0  0  0           0  0  0
    8.8750   -1.9667    0.0000 O   0  0  0  0  0  0           0  0  0
    8.5292   -0.6542    0.0000 C   0  0  0  0  0  0           0  0  0
    3.2417   -0.6292    0.0000 N   0  0  0  0  0  0           0  0  0
    7.6500   -0.0792    0.0000 O   0  0  0  0  0  0           0  0  0
    9.5667   -0.0500    0.0000 O   0  0  0  0  0  0           0  0  0
    4.4417   -0.6500    0.0000 C   0  0  3  0  0  0           0  0  0
    8.9417   -3.4625    0.0000 N   0  0  0  0  0  0           0  0  0
   10.0917   -0.9417    0.0000 O   0  0  0  0  0  0           0  0  0
    8.9417   -2.8625    0.0000 C   0  0  0  0  0  0           0  0  0
    9.9792   -2.8667    0.0000 C   0  0  0  0  0  0           0  0  0
    3.5542   -0.1167    0.0000 C   0  0  0  0  0  0           0  0  0
    3.5417   -1.1542    0.0000 C   0  0  0  0  0  0           0  0  0
    9.4542   -3.7667    0.0000 C   0  0  0  0  0  0           0  0  0
    4.1417   -1.1667    0.0000 C   0  0  0  0  0  0           0  0  0
    4.1500   -0.1250    0.0000 C   0  0  0  0  0  0           0  0  0
    9.9792   -3.4667    0.0000 C   0  0  0  0  0  0           0  0  0
    8.7542   -1.4667    0.0000 H   0  0  0  0  0  0           0  0  0
  2  4  1  0     0  0
  3  9  1  0     0  0
  4  6  1  0     0  0
  5  2  1  0     0  0
  6 13  1  0     0  0
  7 10  2  0     0  0
  8  1  1  0     0  0
  9  6  2  0     0  0
 10  3  1  0     0  0
 11  8  1  1     0  0
 12  1  1  0     0  0
 13 15  1  0     0  0
 14 11  1  0     0  0
 15 18  1  0     0  0
 16  1  2  0     0  0
 17  1  2  0     0  0
 18 11  1  0     0  0
 19 27  1  0     0  0
 20 13  2  0     0  0
 21 14  2  0     0  0
 22  7  1  0     0  0
 23 25  1  0     0  0
 24 14  1  0     0  0
 25 12  2  0     0  0
 26 12  1  0     0  0
 27 31  1  0     0  0
 28 30  1  0     0  0
 29 32  1  0     0  0
 30 22  1  0     0  0
 31 22  1  0     0  0
 32 26  2  0     0  0
 11 33  1  6     0  0
 23 29  2  0     0  0
  3  2  2  0     0  0
  7  5  1  0     0  0
 28 19  1  0     0  0
M  END