
  SciTegic09261414482D

 15 16  0  0  0  0            999 V2000
    5.0968   -8.9082    0.0000 N   0  0
    4.6843   -9.6226    0.0000 C   0  0
    5.5093   -9.6226    0.0000 C   0  0
    3.9698  -10.0351    0.0000 C   0  0
    3.2554   -9.6226    0.0000 C   0  0
    3.2554   -8.7976    0.0000 C   0  0
    2.5409   -8.3851    0.0000 C   0  0
    1.8264   -8.7976    0.0000 C   0  0
    1.8264   -9.6226    0.0000 C   0  0
    2.5409  -10.0351    0.0000 C   0  0
    3.9698  -10.8601    0.0000 O   0  0
    5.9218  -10.3371    0.0000 C   0  0
    6.3343   -9.6226    0.0000 C   0  0
    1.1119  -10.0351    0.0000 Cl  0  0
    1.1119   -8.3851    0.0000 Cl  0  0
  1  2  1  0
  2  3  1  0
  1  3  1  0
  4  5  1  0
  5  6  1  0
  6  7  2  0
  7  8  1  0
  8  9  2  0
  9 10  1  0
  5 10  2  0
  4 11  1  0
  2  4  1  0
  3 12  1  0
 13  3  1  0
  9 14  1  0
  8 15  1  0
M  END