
  SciTegic09261414462D

 30 33  0  0  0  0            999 V2000
   26.5422  -11.7912    0.0000 N   0  0
   27.3594  -11.7915    0.0000 N   0  0
   27.6137  -11.0148    0.0000 C   0  0
   26.9508  -10.5327    0.0000 C   0  0
   26.2920  -11.0148    0.0000 C   0  0
   25.5147  -10.7626    0.0000 O   0  0
   28.3913  -10.7634    0.0000 O   0  0
   26.1234  -12.4896    0.0000 C   0  0
   25.3052  -12.4761    0.0000 C   0  0
   24.8862  -13.1769    0.0000 C   0  0
   25.2843  -13.8916    0.0000 C   0  0
   26.1056  -13.9011    0.0000 C   0  0
   26.5209  -13.1998    0.0000 C   0  0
   26.9495   -9.7155    0.0000 C   0  0
   26.2412   -9.3080    0.0000 C   0  0
   26.1574   -8.4909    0.0000 C   0  0
   25.3578   -8.3222    0.0000 C   0  0
   24.9503   -9.0306    0.0000 C   0  0
   25.4981   -9.6369    0.0000 O   0  0
   24.1379   -9.1124    0.0000 C   0  0
   23.6570   -8.4503    0.0000 C   0  0
   22.8451   -8.5366    0.0000 C   0  0
   22.5132   -9.2843    0.0000 C   0  0
   22.9992   -9.9465    0.0000 C   0  0
   23.8093   -9.8569    0.0000 C   0  0
   23.9901   -7.7022    0.0000 C   0  0
   24.8027   -7.6163    0.0000 O   0  0
   23.5094   -7.0414    0.0000 O   0  0
   21.7007   -9.3721    0.0000 Br  0  0
   26.5062  -14.6134    0.0000 Cl  0  0
  1  2  1  0
  2  3  1  0
  3  4  1  0
  4  5  1  0
  5  1  1  0
  5  6  2  0
  3  7  2  0
  8  9  2  0
  9 10  1  0
 10 11  2  0
 11 12  1  0
 12 13  2  0
 13  8  1  0
  1  8  1  0
  4 14  2  0
 14 15  1  0
 15 16  2  0
 16 17  1  0
 17 18  2  0
 18 19  1  0
 19 15  1  0
 20 21  2  0
 21 22  1  0
 22 23  2  0
 23 24  1  0
 24 25  2  0
 25 20  1  0
 18 20  1  0
 26 27  1  0
 26 28  2  0
 21 26  1  0
 23 29  1  0
 12 30  1  0
M  END