
  SciTegic01111613442D

 22 25  0  0  0  0            999 V2000
    0.8689   -1.3311    0.0000 N   0  0
    0.0000   -0.3882    0.0000 C   0  0
    0.0000    1.1277    0.0000 C   0  0
    2.3849   -1.0353    0.0000 C   0  0
    3.1059   -2.4034    0.0000 N   0  0
    0.9429    2.0521    0.0000 C   0  0
    2.4219    1.7563    0.0000 N   0  0
    2.0706   -3.4942    0.0000 N   0  0
    0.6840   -2.8471    0.0000 C   0  0
    3.0874    0.3143    0.0000 C   0  0
   -1.3126   -1.1462    0.0000 C   0  0
   -1.3126    1.8857    0.0000 C   0  0
    0.5151    3.4906    0.0000 C   0  0
   -2.6437    1.1277    0.0000 C   0  0
   -2.6437   -0.3882    0.0000 C   0  0
   -3.6812    1.7308    0.0000 Cl  0  0
   -0.3653   -3.4291    0.0000 C   0  0
    1.5708    4.5587    0.0000 C   0  0
   -0.9351    3.8727    0.0000 C   0  0
   -1.3312    5.3194    0.0000 C   0  0
    1.1747    6.0055    0.0000 C   0  0
   -0.2763    6.3858    0.0000 C   0  0
  2  1  1  0
  3  2  2  0
  4  1  1  0
  5  4  2  0
  6  3  1  0
  7 10  1  0
  8  9  2  0
  9  1  1  0
 10  4  1  0
 11  2  1  0
 12  3  1  0
 13  6  1  0
 14 15  1  0
 15 11  2  0
 16 14  1  0
 17  9  1  0
 18 13  2  0
 19 13  1  0
 20 19  2  0
 21 18  1  0
 22 20  1  0
  5  8  1  0
  6  7  2  0
 14 12  2  0
 22 21  2  0
M  END