
  SciTegic01161211232D

 22 22  0  0  0  0            999 V2000
    7.6580    4.1702    0.0000 C   0  0
    7.4132    2.9954    0.0000 N   0  0
    8.3085    2.1963    0.0000 C   0  0
    5.9880    2.5249    0.0000 C   0  0
    5.6819    1.0556    0.0000 C   0  0
    4.2568    0.5852    0.0000 C   0  0
    3.9511   -0.8815    0.0000 N   0  0
    2.5987   -1.5004    0.0000 C   0  0
    2.7343   -2.9815    0.0000 S   0  0
    4.2010   -3.2956    0.0000 C   0  0
    4.9531   -1.9978    0.0000 C   0  0
    6.1467   -1.8743    0.0000 O   0  0
    1.2990   -0.7500    0.0000 C   0  0
    1.2990    0.7500    0.0000 C   0  0
    0.0000    1.5000    0.0000 C   0  0
   -1.2990    0.7500    0.0000 C   0  0
   -1.2990   -0.7500    0.0000 C   0  0
    0.0000   -1.5000    0.0000 C   0  0
   -2.6003    1.4977    0.0000 N   0  3
   -3.6387    0.8962    0.0000 O   0  0
   -2.6024    2.6977    0.0000 O   0  5
   11.0329    0.5845    0.0000 Cl  0  0
  1  2  1  0
  2  3  1  0
  2  4  1  0
  4  5  1  0
  5  6  1  0
  6  7  1  0
  7  8  1  0
  8  9  1  0
  9 10  1  0
 10 11  1  0
 11  7  1  0
 11 12  2  0
  8 13  1  0
 13 14  2  0
 14 15  1  0
 15 16  2  0
 16 17  1  0
 17 18  2  0
 18 13  1  0
 16 19  1  0
 19 20  2  0
 19 21  1  0
M  CHG  2  19   1  21  -1
M  END