
  SciTegic06051313552D

 35 39  0  0  0  0            999 V2000
   16.6659  -13.7505    0.0000 C   0  0
   16.6648  -14.5779    0.0000 C   0  0
   17.3796  -14.9908    0.0000 C   0  0
   18.0961  -14.5774    0.0000 C   0  0
   18.0931  -13.7468    0.0000 C   0  0
   17.3777  -13.3377    0.0000 N   0  3
   17.3753  -12.5127    0.0000 C   0  0
   15.9513  -13.3381    0.0000 C   0  0
   18.8061  -13.3317    0.0000 C   0  0
   19.5174  -12.9130    0.0000 C   0  0
   15.2339  -12.9255    0.0000 C   0  0
   20.2284  -12.4945    0.0000 C   0  0
   14.5188  -12.5141    0.0000 C   0  0
   14.5218  -11.6892    0.0000 C   0  0
   13.8074  -11.2779    0.0000 C   0  0
   13.0926  -11.6915    0.0000 C   0  0
   13.0966  -12.5209    0.0000 C   0  0
   13.8114  -12.9284    0.0000 C   0  0
   20.9425  -12.9051    0.0000 C   0  0
   21.6531  -12.4874    0.0000 C   0  0
   21.6466  -11.6614    0.0000 C   0  0
   20.9236  -11.2552    0.0000 C   0  0
   20.2161  -11.6752    0.0000 C   0  0
   22.3571  -11.2420    0.0000 C   0  0
   12.3769  -11.2811    0.0000 C   0  0
   23.0705  -11.6503    0.0000 C   0  0
   23.7806  -11.2315    0.0000 C   0  0
   23.7730  -10.4057    0.0000 C   0  0
   23.0494  -10.0003    0.0000 C   0  0
   22.3425  -10.4214    0.0000 C   0  0
   12.3787  -10.4565    0.0000 C   0  0
   11.6639  -10.0462    0.0000 C   0  0
   10.9497  -10.4608    0.0000 C   0  0
   10.9547  -11.2901    0.0000 C   0  0
   11.6701  -11.6968    0.0000 C   0  0
  1  2  2  0
  2  3  1  0
  3  4  2  0
  4  5  1  0
  5  6  2  0
  6  1  1  0
  6  7  1  0
  1  8  1  0
  5  9  1  0
  9 10  3  0
  8 11  3  0
 10 12  1  0
 11 13  1  0
 13 14  2  0
 14 15  1  0
 15 16  2  0
 16 17  1  0
 17 18  2  0
 18 13  1  0
 12 19  2  0
 19 20  1  0
 20 21  2  0
 21 22  1  0
 22 23  2  0
 23 12  1  0
 21 24  1  0
 16 25  1  0
 24 26  2  0
 26 27  1  0
 27 28  2  0
 28 29  1  0
 29 30  2  0
 30 24  1  0
 25 31  2  0
 31 32  1  0
 32 33  2  0
 33 34  1  0
 34 35  2  0
 35 25  1  0
M  CHG  1   6   1
M  END