
          11280715042D 1   1.00000     0.00000     0

 23 24  0     0  0            999 V2000
    1.5417   -0.3500    0.0000 S   0  0  3  0  0  0           0  0  0
    3.6042    0.8708    0.0000 N   0  3  0  0  0  0           0  0  0
   -2.6833   -0.2167    0.0000 N   0  0  0  0  0  0           0  0  0
    2.0625   -0.0417    0.0000 C   0  0  0  0  0  0           0  0  0
    3.0917    0.5708    0.0000 C   0  0  0  0  0  0           0  0  0
   -2.6333    0.7458    0.0000 N   0  0  0  0  0  0           0  0  0
   -3.0083    0.2750    0.0000 C   0  0  0  0  0  0           0  0  0
   -2.1000   -0.0667    0.0000 C   0  0  0  0  0  0           0  0  0
    1.2375   -1.0875    0.0000 O   0  0  0  0  0  0           0  0  0
    1.9250   -1.0542    0.0000 O   0  0  0  0  0  0           0  0  0
    4.1292    0.5833    0.0000 O   0  5  0  0  0  0           0  0  0
    3.6000    1.4708    0.0000 O   0  0  0  0  0  0           0  0  0
    1.0125   -0.0667    0.0000 N   0  0  0  0  0  0           0  0  0
   -2.0708    0.5333    0.0000 C   0  0  0  0  0  0           0  0  0
    2.0542    0.5500    0.0000 C   0  0  0  0  0  0           0  0  0
    2.5792   -0.3417    0.0000 C   0  0  0  0  0  0           0  0  0
    3.0917   -0.0292    0.0000 C   0  0  0  0  0  0           0  0  0
    2.5667    0.8583    0.0000 C   0  0  0  0  0  0           0  0  0
   -1.5833   -0.3667    0.0000 C   0  0  0  0  0  0           0  0  0
    0.4917   -0.3667    0.0000 C   0  0  0  0  0  0           0  0  0
   -1.0708   -0.0667    0.0000 C   0  0  0  0  0  0           0  0  0
   -0.0250   -0.0667    0.0000 C   0  0  0  0  0  0           0  0  0
   -0.5458   -0.3667    0.0000 C   0  0  0  0  0  0           0  0  0
  2  5  1  0     0  0
  3  8  1  0     0  0
  4  1  1  0     0  0
  5 17  2  0     0  0
  6 14  1  0     0  0
  7  3  2  0     0  0
  8 19  1  0     0  0
  9  1  2  0     0  0
 10  1  2  0     0  0
 11  2  1  0     0  0
 12  2  2  0     0  0
 13  1  1  0     0  0
 14  8  2  0     0  0
 15  4  1  0     0  0
 16  4  2  0     0  0
 17 16  1  0     0  0
 18 15  2  0     0  0
 19 21  1  0     0  0
 20 13  1  0     0  0
 21 23  1  0     0  0
 22 20  1  0     0  0
 23 22  1  0     0  0
  5 18  1  0     0  0
  6  7  1  0     0  0
M  CHG  2   2   1  11  -1
M  END