
  SciTegic06051313522D

 32 35  0  0  0  0            999 V2000
    2.3735   -4.0117    0.0000 C   0  0
    2.3723   -4.8391    0.0000 C   0  0
    3.0871   -5.2520    0.0000 N   0  0
    3.8036   -4.8386    0.0000 C   0  0
    3.8007   -4.0081    0.0000 N   0  0
    3.0853   -3.5990    0.0000 C   0  0
    3.0800   -2.7768    0.0000 C   0  0
    3.7949   -2.3628    0.0000 C   0  0
    3.7928   -1.5386    0.0000 C   0  0
    3.0766   -1.1274    0.0000 C   0  0
    2.3610   -1.5465    0.0000 C   0  0
    2.3666   -2.3693    0.0000 C   0  0
    4.5187   -5.2500    0.0000 N   0  0
    5.2325   -4.8364    0.0000 C   0  0
    5.9443   -5.2482    0.0000 C   0  0
    6.6576   -4.8353    0.0000 C   0  0
    6.6568   -4.0094    0.0000 C   0  0
    5.9366   -3.5982    0.0000 C   0  0
    5.2262   -4.0135    0.0000 C   0  0
    7.3684   -3.5982    0.0000 N   0  0
    8.0839   -4.0109    0.0000 C   0  0
    8.7951   -3.5998    0.0000 C   0  0
    8.7969   -2.7745    0.0000 N   0  0
    8.0814   -2.3618    0.0000 C   0  0
    7.3641   -2.7746    0.0000 C   0  0
    4.5062   -1.1243    0.0000 C   0  0
    5.2217   -1.5350    0.0000 C   0  0
    5.9393   -1.9491    0.0000 N   0  0
    1.6589   -3.5994    0.0000 Cl  0  0
    7.3725   -5.2470    0.0000 O   0  0
    7.3734   -6.0720    0.0000 C   0  0
    9.5117   -2.3626    0.0000 C   0  0
  1  2  2  0
  2  3  1  0
  3  4  2  0
  4  5  1  0
  5  6  2  0
  6  1  1  0
  7  8  2  0
  8  9  1  0
  9 10  2  0
 10 11  1  0
 11 12  2  0
 12  7  1  0
  6  7  1  0
  4 13  1  0
 13 14  1  0
 14 15  2  0
 15 16  1  0
 16 17  2  0
 17 18  1  0
 18 19  2  0
 19 14  1  0
 20 21  1  0
 20 25  1  0
 21 22  1  0
 22 23  1  0
 23 24  1  0
 24 25  1  0
 17 20  1  0
  9 26  1  0
 26 27  1  0
 27 28  3  0
  1 29  1  0
 16 30  1  0
 30 31  1  0
 23 32  1  0
M  END