
  SciTegic10191216002D

 29 32  0  0  0  0            999 V2000
    1.0947  -13.2035    0.0000 C   0  0
    1.0935  -14.0310    0.0000 C   0  0
    1.8086  -14.4440    0.0000 C   0  0
    2.5252  -14.0306    0.0000 C   0  0
    2.5223  -13.1998    0.0000 C   0  0
    1.8068  -12.7906    0.0000 C   0  0
    1.8112  -15.2682    0.0000 C   0  0
    1.8052  -16.9176    0.0000 C   0  0
    2.5217  -16.5064    0.0000 N   0  0
    2.5256  -15.6786    0.0000 C   0  0
    1.0924  -16.5010    0.0000 C   0  0
    1.0956  -15.6815    0.0000 C   0  0
    0.3886  -15.2707    0.0000 C   0  0
   -0.3221  -15.6784    0.0000 N   0  0
   -0.3213  -16.5010    0.0000 C   0  0
    0.3863  -16.9080    0.0000 C   0  0
   -1.7507  -16.5028    0.0000 C   0  0
   -2.4647  -16.9163    0.0000 C   0  0
   -3.1799  -16.5046    0.0000 C   0  0
   -3.8913  -16.9181    0.0000 N   0  0
   -4.6053  -16.5099    0.0000 C   0  0
   -5.3145  -16.9199    0.0000 C   0  0
   -5.3163  -17.7432    0.0000 C   0  0
   -4.6027  -18.1546    0.0000 C   0  0
   -3.8872  -17.7430    0.0000 C   0  0
    3.2355  -12.7845    0.0000 F   0  0
    1.8043  -11.9653    0.0000 Cl  0  0
    3.2349  -16.9216    0.0000 C   0  0
   -1.0355  -16.9145    0.0000 O   0  0
 13 14  2  0
  1  2  2  0
 14 15  1  0
  3  4  2  0
 15 16  2  0
 16 11  1  0
 15 29  1  0
  4  5  1  0
 29 17  1  0
  7 10  1  0
 17 18  1  0
 11  8  1  0
 18 19  1  0
  8  9  1  0
 19 20  1  0
 20 21  1  0
  9 10  1  0
  7  3  1  0
  2  3  1  0
  5  6  2  0
 11 12  2  0
 20 25  1  0
 21 22  1  0
 22 23  1  0
 23 24  1  0
 24 25  1  0
  6  1  1  0
  5 26  1  0
 12 13  1  0
  6 27  1  0
  7 12  1  0
  9 28  1  0
M  END