
  SciTegic12131016252D

 26 29  0  0  0  0            999 V2000
   -0.2399   -0.4682    0.0000 C   0  0
    0.8674    0.2830    0.0000 N   0  0
    0.0404    0.3055    0.0000 C   0  0
    1.0981   -0.5149    0.0000 C   0  0
    0.4117   -0.9740    0.0000 C   0  0
    0.4729   -1.7966    0.0000 N   0  0
    1.2118   -2.1613    0.0000 C   0  0
    1.8987   -1.6932    0.0000 N   0  0
    1.8383   -0.8723    0.0000 C   0  0
    2.4981   -0.3687    0.0000 N   0  0
   -1.7000   -0.2566    0.0000 N   0  0
   -2.3647   -0.7576    0.0000 C   0  0  1  0  0  0
   -2.0993   -1.5418    0.0000 C   0  0  2  0  0  0
   -1.2707   -1.5305    0.0000 C   0  0  2  0  0  0
   -1.0231   -0.7390    0.0000 C   0  0  2  0  0  0
   -0.7730   -2.1945    0.0000 O   0  0
   -2.5744   -2.2192    0.0000 O   0  0
   -3.1563   -0.5149    0.0000 C   0  0
   -3.3399    0.2927    0.0000 S   0  0
   -4.1317    0.5395    0.0000 C   0  0
   -4.3126    1.3436    0.0000 C   0  0
   -3.7077    1.9039    0.0000 C   0  0
   -3.8881    2.7072    0.0000 C   0  0
   -4.6756    2.9532    0.0000 C   0  0
   -5.2829    2.3896    0.0000 C   0  0
   -5.0993    1.5884    0.0000 C   0  0
  2  3  1  0
  6  7  2  0
 12 13  1  0
 13 14  1  0
 14 15  1  0
 15 11  1  0
  3  1  2  0
 14 16  1  6
  7  8  1  0
 13 17  1  6
 15  1  1  1
  1  5  1  0
 12 18  1  1
  8  9  2  0
 18 19  1  0
  9  4  1  0
 19 20  1  0
 20 21  1  0
  9 10  1  0
 21 22  2  0
  4  5  2  0
 22 23  1  0
 11 12  1  0
 23 24  2  0
  4  2  1  0
 24 25  1  0
  5  6  1  0
 25 26  2  0
 26 21  1  0
M  END