
          11280715202D 1   1.00000     0.00000     0

 16 16  0     0  0            999 V2000
    6.6417    1.0458    0.0000 C   0  0  0  0  0  0           0  0  0
    7.2000    0.8500    0.0000 N   0  0  3  0  0  0           0  0  0
    8.7917    0.8333    0.0000 C   0  0  0  0  0  0           0  0  0
    8.2250    1.0375    0.0000 C   0  0  0  0  0  0           0  0  0
    9.4667    0.0458    0.0000 N   0  0  3  0  0  0           0  0  0
    6.5292    1.6333    0.0000 O   0  0  0  0  0  0           0  0  0
    7.6500    1.2375    0.0000 C   0  0  3  0  0  0           0  0  0
    6.1917    0.6583    0.0000 N   0  0  0  0  0  0           0  0  0
    9.3542    0.6333    0.0000 C   0  0  0  0  0  0           0  0  0
    7.3167    0.2625    0.0000 C   0  0  0  0  0  0           0  0  0
    9.0542   -0.3875    0.0000 C   0  0  0  0  0  0           0  0  0
   10.0042   -0.2167    0.0000 C   0  0  0  0  0  0           0  0  0
    5.5917    0.6625    0.0000 C   0  0  0  0  0  0           0  0  0
    7.5417    1.8250    0.0000 C   0  0  0  0  0  0           0  0  0
    9.9167   -0.8125    0.0000 C   0  0  0  0  0  0           0  0  0
    9.3375   -0.9125    0.0000 C   0  0  0  0  0  0           0  0  0
  2  1  1  0     0  0
  3  4  3  0     0  0
  4  7  1  0     0  0
  5  9  1  0     0  0
  6  1  2  0     0  0
  7  2  1  0     0  0
  8  1  1  0     0  0
  9  3  1  0     0  0
 10  2  1  0     0  0
 11  5  1  0     0  0
 12  5  1  0     0  0
 13  8  1  0     0  0
 14  7  1  0     0  0
 15 12  1  0     0  0
 16 11  1  0     0  0
 15 16  1  0     0  0
M  END