
  Mrv0541 05211314572D          

 26 27  0  0  0  0            999 V2000
    3.2010    2.8579    0.0000 C   0  0  0  0  0  0  0  0  0  0  0  0
    3.6135    2.1434    0.0000 C   0  0  0  0  0  0  0  0  0  0  0  0
    3.2010    1.4289    0.0000 C   0  0  0  0  0  0  0  0  0  0  0  0
    2.3760    1.4289    0.0000 C   0  0  0  0  0  0  0  0  0  0  0  0
    1.9635    2.1434    0.0000 C   0  0  0  0  0  0  0  0  0  0  0  0
    2.3760    2.8579    0.0000 N   0  0  0  0  0  0  0  0  0  0  0  0
    1.9635    0.7145    0.0000 C   0  0  0  0  0  0  0  0  0  0  0  0
    2.3760   -0.0000    0.0000 O   0  0  0  0  0  0  0  0  0  0  0  0
    1.1385    0.7145    0.0000 C   0  0  0  0  0  0  0  0  0  0  0  0
    0.7260   -0.0000    0.0000 N   0  0  0  0  0  0  0  0  0  0  0  0
   -0.0990    0.0000    0.0000 C   0  0  0  0  0  0  0  0  0  0  0  0
   -0.5115   -0.7145    0.0000 C   0  0  0  0  0  0  0  0  0  0  0  0
   -1.3365   -0.7145    0.0000 C   0  0  0  0  0  0  0  0  0  0  0  0
   -1.7490   -1.4289    0.0000 C   0  0  0  0  0  0  0  0  0  0  0  0
   -2.5740   -0.0000    0.0000 C   0  0  0  0  0  0  0  0  0  0  0  0
   -1.7490    0.0000    0.0000 C   0  0  0  0  0  0  0  0  0  0  0  0
    1.1385   -0.7145    0.0000 C   0  0  0  0  0  0  0  0  0  0  0  0
    1.9635   -0.7145    0.0000 C   0  0  0  0  0  0  0  0  0  0  0  0
    2.3760   -1.4289    0.0000 C   0  0  0  0  0  0  0  0  0  0  0  0
   -2.9865   -0.7145    0.0000 C   0  0  0  0  0  0  0  0  0  0  0  0
   -2.5740   -1.4289    0.0000 C   0  0  0  0  0  0  0  0  0  0  0  0
   -2.9865   -2.1434    0.0000 C   0  0  0  0  0  0  0  0  0  0  0  0
   -3.8115   -2.1434    0.0000 C   0  0  0  0  0  0  0  0  0  0  0  0
   -4.2240   -1.4289    0.0000 C   0  0  0  0  0  0  0  0  0  0  0  0
   -3.8115   -0.7145    0.0000 C   0  0  0  0  0  0  0  0  0  0  0  0
    5.8528    0.0000    0.0000 Br  0  0  0  0  0  0  0  0  0  0  0  0
  1  2  2  0  0  0  0
  2  3  1  0  0  0  0
  3  4  2  0  0  0  0
  4  5  1  0  0  0  0
  1  6  1  0  0  0  0
  5  6  2  0  0  0  0
  4  7  1  0  0  0  0
  7  8  1  0  0  0  0
  7  9  1  0  0  0  0
  9 10  1  0  0  0  0
 10 11  1  0  0  0  0
 11 12  1  0  0  0  0
 12 13  1  0  0  0  0
 13 14  2  0  0  0  0
 13 16  1  0  0  0  0
 15 16  2  0  0  0  0
 10 17  1  0  0  0  0
 17 18  1  0  0  0  0
 18 19  1  0  0  0  0
 15 20  1  0  0  0  0
 14 21  1  0  0  0  0
 20 21  1  0  0  0  0
 21 22  2  0  0  0  0
 22 23  1  0  0  0  0
 23 24  2  0  0  0  0
 20 25  2  0  0  0  0
 24 25  1  0  0  0  0
M  END