
          11280714442D 1   1.00000     0.00000     0

 19 19  0     0  0            999 V2000
    4.9125   -6.5875    0.0000 C   0  0  0  0  0  0           0  0  0
    4.2167   -7.0292    0.0000 C   0  0  0  0  0  0           0  0  0
    5.6417   -6.9667    0.0000 O   0  0  0  0  0  0           0  0  0
    8.5000   -6.8375    0.0000 N   0  0  0  0  0  0           0  0  0
    4.8750   -5.7667    0.0000 O   0  0  0  0  0  0           0  0  0
    3.4792   -6.6500    0.0000 C   0  0  0  0  0  0           0  0  0
    9.1917   -6.3917    0.0000 C   0  0  3  0  0  0           0  0  0
    7.0667   -6.9042    0.0000 C   0  0  3  0  0  0           0  0  0
    6.3375   -6.5250    0.0000 C   0  0  0  0  0  0           0  0  0
    7.7667   -6.4542    0.0000 C   0  0  0  0  0  0           0  0  0
    7.1042   -7.7292    0.0000 O   0  0  0  0  0  0           0  0  0
    4.2542   -7.8542    0.0000 C   0  0  0  0  0  0           0  0  0
    3.4417   -5.8250    0.0000 C   0  0  0  0  0  0           0  0  0
    9.1542   -5.5667    0.0000 C   0  0  0  0  0  0           0  0  0
    9.7500   -5.7875    0.0000 C   0  0  0  0  0  0           0  0  0
    9.9250   -6.7750    0.0000 C   0  0  0  0  0  0           0  0  0
    2.7917   -7.1000    0.0000 C   0  0  0  0  0  0           0  0  0
    3.5667   -8.3000    0.0000 C   0  0  0  0  0  0           0  0  0
    2.8292   -7.9167    0.0000 C   0  0  0  0  0  0           0  0  0
  2  1  1  0     0  0
  3  1  1  0     0  0
  4 10  1  0     0  0
  5  1  2  0     0  0
  6  2  2  0     0  0
  7  4  1  0     0  0
  8  9  1  0     0  0
  9  3  1  0     0  0
 10  8  1  0     0  0
 11  8  1  0     0  0
 12  2  1  0     0  0
 13  6  1  0     0  0
 14  7  1  0     0  0
 15  7  1  0     0  0
 16  7  1  0     0  0
 17  6  1  0     0  0
 18 12  2  0     0  0
 19 18  1  0     0  0
 19 17  2  0     0  0
M  END