
          11280715472D 1   1.00000     0.00000     0

  9  9  0     0  0            999 V2000
   -0.7583   -1.3250    0.0000 C   0  0  0  0  0  0           0  0  0
   -1.1625   -0.6042    0.0000 C   0  0  0  0  0  0           0  0  0
   -1.9875   -0.5917    0.0000 C   0  0  0  0  0  0           0  0  0
   -1.1708   -2.0292    0.0000 C   0  0  0  0  0  0           0  0  0
    0.0750   -1.3292    0.0000 C   0  0  0  0  0  0           0  0  0
   -0.7375    0.1083    0.0000 C   0  0  0  0  0  0           0  0  0
   -2.3875    0.1333    0.0000 C   0  0  0  0  0  0           0  0  0
    0.0875    0.0958    0.0000 C   0  0  0  0  0  0           0  0  0
    0.4917   -0.6167    0.0000 C   0  0  0  0  0  0           0  0  0
  2  1  2  0     0  0
  3  2  1  0     0  0
  4  1  1  0     0  0
  5  1  1  0     0  0
  6  2  1  0     0  0
  7  3  1  0     0  0
  8  9  1  0     0  0
  9  5  2  0     0  0
  6  8  2  0     0  0
M  END