
          11280715332D 1   1.00000     0.00000     0

 22 25  0     0  0            999 V2000
    6.1667   -7.1417    0.0000 C   0  0  3  0  0  0           0  0  0
    6.1667   -5.7667    0.0000 C   0  0  0  0  0  0           0  0  0
    7.1417   -6.1667    0.0000 N   0  0  3  0  0  0           0  0  0
    6.7375   -5.7667    0.0000 C   0  0  3  0  0  0           0  0  0
    5.7667   -6.7375    0.0000 C   0  0  0  0  0  0           0  0  0
    5.7667   -6.1667    0.0000 C   0  0  0  0  0  0           0  0  0
    6.8500   -6.6167    0.0000 C   0  0  3  0  0  0           0  0  0
    6.7375   -7.1417    0.0000 C   0  0  0  0  0  0           0  0  0
    7.6667   -5.9542    0.0000 C   0  0  0  0  0  0           0  0  0
    7.1417   -6.7375    0.0000 C   0  0  0  0  0  0           0  0  0
    5.2667   -5.8792    0.0000 C   0  0  0  0  0  0           0  0  0
    8.1167   -6.3000    0.0000 C   0  0  3  0  0  0           0  0  0
    5.2667   -7.0250    0.0000 C   0  0  0  0  0  0           0  0  0
    5.9500   -5.2417    0.0000 O   0  0  0  0  0  0           0  0  0
    8.3375   -6.8250    0.0000 C   0  0  0  0  0  0           0  0  0
    8.6792   -6.3667    0.0000 C   0  0  0  0  0  0           0  0  0
    4.7792   -6.7375    0.0000 C   0  0  0  0  0  0           0  0  0
    5.9500   -7.6667    0.0000 C   0  0  0  0  0  0           0  0  0
    4.7792   -6.1667    0.0000 C   0  0  0  0  0  0           0  0  0
    7.1542   -7.0042    0.0000 C   0  0  0  0  0  0           0  0  0
    4.2875   -7.0250    0.0000 O   0  0  0  0  0  0           0  0  0
    7.1542   -7.6917    0.0000 C   0  0  0  0  0  0           0  0  0
  2  4  1  0     0  0
  3 10  1  0     0  0
  4  7  1  0     0  0
  5  1  1  0     0  0
  6  5  2  0     0  0
  7  1  1  0     0  0
  8  1  1  0     0  0
  9  3  1  0     0  0
 10  8  1  0     0  0
 11  6  1  0     0  0
 12  9  1  0     0  0
 13  5  1  0     0  0
 14  2  2  0     0  0
 15 12  1  0     0  0
 16 12  1  0     0  0
 17 13  2  0     0  0
 18  1  1  0     0  0
 19 17  1  0     0  0
 20  7  1  0     0  0
 21 17  1  0     0  0
 22 20  1  0     0  0
  4  3  1  0     0  0
  2  6  1  0     0  0
 19 11  2  0     0  0
 15 16  1  0     0  0
M  END