
  SciTegic04091415032D

 24 27  0  0  0  0            999 V2000
   10.2132  -26.5623    0.0000 C   0  0
   10.2132  -25.7421    0.0000 C   0  0
   10.9236  -25.3319    0.0000 C   0  0
   10.9236  -26.9725    0.0000 C   0  0
   11.6340  -26.5623    0.0000 C   0  0
   12.3443  -26.9725    0.0000 C   0  0
   13.0547  -26.5623    0.0000 C   0  0
   13.0547  -25.7421    0.0000 C   0  0  1  0  0  0
   13.7651  -25.3319    0.0000 C   0  0  2  0  0  0
   14.5452  -25.5854    0.0000 C   0  0
   15.0274  -24.9218    0.0000 C   0  0
   14.5452  -24.2582    0.0000 C   0  0
   13.7651  -24.5116    0.0000 C   0  0  2  0  0  0
   13.7651  -23.6914    0.0000 C   0  0
   13.0547  -24.1015    0.0000 C   0  0
   12.3443  -24.5116    0.0000 C   0  0
   12.3443  -25.3319    0.0000 C   0  0  2  0  0  0
   11.6340  -25.7421    0.0000 C   0  0
   14.7987  -23.4780    0.0000 C   0  0
   15.6011  -23.3075    0.0000 O   0  0
    9.5028  -26.9725    0.0000 O   0  0
   12.3443  -26.1522    0.0000 H   0  0
   13.0547  -24.9218    0.0000 H   0  0
   13.7651  -26.1522    0.0000 H   0  0
  1  2  1  0
  2  3  2  0
  1  4  2  0
  4  5  1  0
  5  6  1  0
  6  7  1  0
  7  8  1  0
  8  9  1  0
  9 10  1  0
 10 11  1  0
 11 12  2  0
 12 13  1  0
  9 13  1  0
 13 14  1  1
 13 15  1  0
 15 16  1  0
 16 17  1  0
  8 17  1  0
 17 18  1  0
  3 18  1  0
  5 18  2  0
 19 20  1  0
 12 19  1  0
  1 21  1  0
 17 22  1  6
  8 23  1  1
  9 24  1  6
M  END