
          11280715442D 1   1.00000     0.00000     0

 32 34  0     1  0            999 V2000
    2.8292    1.0333    0.0000 C   0  0  0  0  0  0           0  0  0
   -2.1625   -0.2167    0.0000 C   0  0  0  0  0  0           0  0  0
   -1.4500    0.1958    0.0000 C   0  0  1  0  0  0           0  0  0
   -2.1625   -1.0542    0.0000 C   0  0  0  0  0  0           0  0  0
   -1.4458   -1.4667    0.0000 N   0  0  3  0  0  0           0  0  0
    3.5417    1.4458    0.0000 C   0  0  0  0  0  0           0  0  0
    2.8292    0.2083    0.0000 C   0  0  0  0  0  0           0  0  0
   -0.7333   -0.2167    0.0000 N   0  0  0  0  0  0           0  0  0
   -0.0208    0.1958    0.0000 C   0  0  0  0  0  0           0  0  0
    2.1042    1.4458    0.0000 C   0  0  0  0  0  0           0  0  0
    2.1167   -0.2042    0.0000 C   0  0  0  0  0  0           0  0  0
   -1.4583    1.0208    0.0000 C   0  0  0  0  0  0           0  0  0
    3.5375    2.2708    0.0000 O   0  0  0  0  0  0           0  0  0
   -0.0208    1.0208    0.0000 O   0  0  0  0  0  0           0  0  0
    1.4042    0.2083    0.0000 C   0  0  0  0  0  0           0  0  0
    0.6917   -0.2125    0.0000 C   0  0  0  0  0  0           0  0  0
    1.4000    1.0250    0.0000 C   0  0  0  0  0  0           0  0  0
    4.2542    1.0375    0.0000 O   0  0  0  0  0  0           0  0  0
    3.5417   -0.2042    0.0000 O   0  0  0  0  0  0           0  0  0
   -2.8833    0.1875    0.0000 C   0  0  0  0  0  0           0  0  0
   -0.7375   -1.0542    0.0000 C   0  0  0  0  0  0           0  0  0
   -1.4500   -2.2917    0.0000 C   0  0  0  0  0  0           0  0  0
   -2.8833   -1.4667    0.0000 C   0  0  0  0  0  0           0  0  0
   -2.1708    1.4250    0.0000 C   0  0  3  0  0  0           0  0  0
    4.2542    0.2083    0.0000 C   0  0  0  0  0  0           0  0  0
   -2.8833    1.0125    0.0000 C   0  0  0  0  0  0           0  0  0
   -2.1750    2.2458    0.0000 C   0  0  0  0  0  0           0  0  0
   -3.5958   -0.2167    0.0000 C   0  0  0  0  0  0           0  0  0
   -0.0208   -1.4667    0.0000 C   0  0  0  0  0  0           0  0  0
   -0.7375   -2.7042    0.0000 C   0  0  0  0  0  0           0  0  0
   -3.5958   -1.0542    0.0000 C   0  0  0  0  0  0           0  0  0
   -0.0208   -2.2917    0.0000 C   0  0  0  0  0  0           0  0  0
  2  3  1  0     0  0
  3  8  1  0     0  0
  4  2  1  0     0  0
  5  4  1  0     0  0
  6  1  1  0     0  0
  7  1  2  0     0  0
  8  9  1  0     0  0
  9 16  1  0     0  0
 10  1  1  0     0  0
 11  7  1  0     0  0
  3 12  1  6     0  0
 13  6  2  0     0  0
 14  9  2  0     0  0
 15 17  1  0     0  0
 16 15  1  0     0  0
 17 10  2  0     0  0
 18  6  1  0     0  0
 19  7  1  0     0  0
 20  2  2  0     0  0
 21  5  1  0     0  0
 22  5  1  0     0  0
 23  4  2  0     0  0
 24 12  1  0     0  0
 25 19  1  0     0  0
 26 24  1  0     0  0
 27 24  1  0     0  0
 28 20  1  0     0  0
 29 21  1  0     0  0
 30 22  1  0     0  0
 31 28  2  0     0  0
 32 30  1  0     0  0
 15 11  2  0     0  0
 23 31  1  0     0  0
 29 32  1  0     0  0
M  END