
          11280715062D 1   1.00000     0.00000     0

 32 36  0     0  0            999 V2000
    9.7625   -4.0292    0.0000 C   0  0  0  0  0  0           0  0  0
    9.7667   -3.2125    0.0000 C   0  0  0  0  0  0           0  0  0
    8.3417   -4.0250    0.0000 C   0  0  0  0  0  0           0  0  0
    9.0417   -4.4417    0.0000 O   0  0  0  0  0  0           0  0  0
    9.0542   -2.7917    0.0000 C   0  0  0  0  0  0           0  0  0
    8.3417   -3.2042    0.0000 C   0  0  0  0  0  0           0  0  0
   10.5417   -4.2917    0.0000 N   0  0  0  0  0  0           0  0  0
   11.0292   -3.6292    0.0000 N   0  0  0  0  0  0           0  0  0
    7.6292   -4.4375    0.0000 C   0  0  0  0  0  0           0  0  0
   10.5500   -2.9667    0.0000 N   0  0  0  0  0  0           0  0  0
    7.6292   -2.7875    0.0000 C   0  0  0  0  0  0           0  0  0
    1.9750   -5.4625    0.0000 N   0  0  3  0  0  0           0  0  0
    3.6250   -5.4625    0.0000 N   0  0  3  0  0  0           0  0  0
    6.9167   -4.0167    0.0000 C   0  0  0  0  0  0           0  0  0
    9.0667   -1.9667    0.0000 O   0  0  0  0  0  0           0  0  0
    1.1500   -4.0375    0.0000 N   0  0  0  0  0  0           0  0  0
    6.9167   -3.2000    0.0000 C   0  0  0  0  0  0           0  0  0
    1.1500   -5.4625    0.0000 C   0  0  0  0  0  0           0  0  0
    2.3917   -4.7417    0.0000 C   0  0  0  0  0  0           0  0  0
    2.3917   -6.1750    0.0000 C   0  0  0  0  0  0           0  0  0
    3.2167   -6.1750    0.0000 C   0  0  0  0  0  0           0  0  0
    0.7375   -4.7500    0.0000 C   0  0  0  0  0  0           0  0  0
    3.2167   -4.7417    0.0000 C   0  0  0  0  0  0           0  0  0
    6.0917   -4.0292    0.0000 O   0  0  0  0  0  0           0  0  0
    7.6250   -5.2625    0.0000 C   0  0  0  0  0  0           0  0  0
    4.4500   -5.4625    0.0000 C   0  0  0  0  0  0           0  0  0
    4.8625   -4.7500    0.0000 C   0  0  0  0  0  0           0  0  0
    0.7375   -3.3250    0.0000 C   0  0  0  0  0  0           0  0  0
    5.6875   -4.7500    0.0000 C   0  0  0  0  0  0           0  0  0
   -0.0833   -4.7542    0.0000 C   0  0  0  0  0  0           0  0  0
   -0.0875   -3.3250    0.0000 C   0  0  0  0  0  0           0  0  0
   -0.5000   -4.0417    0.0000 C   0  0  0  0  0  0           0  0  0
  2  1  1  0     0  0
  3  4  1  0     0  0
  4  1  1  0     0  0
  5  2  2  0     0  0
  6  3  2  0     0  0
  7  1  2  0     0  0
  8  7  1  0     0  0
  9  3  1  0     0  0
 10  2  1  0     0  0
 11  6  1  0     0  0
 12 19  1  0     0  0
 13 26  1  0     0  0
 14  9  2  0     0  0
 15  5  1  0     0  0
 16 22  2  0     0  0
 17 14  1  0     0  0
 18 12  1  0     0  0
 19 23  1  0     0  0
 20 21  1  0     0  0
 21 13  1  0     0  0
 22 18  1  0     0  0
 23 13  1  0     0  0
 24 14  1  0     0  0
 25  9  1  0     0  0
 26 27  1  0     0  0
 27 29  1  0     0  0
 28 16  1  0     0  0
 29 24  1  0     0  0
 30 22  1  0     0  0
 31 32  1  0     0  0
 32 30  2  0     0  0
  8 10  2  0     0  0
  5  6  1  0     0  0
 17 11  2  0     0  0
 20 12  1  0     0  0
 28 31  2  0     0  0
M  END