
  SciTegic01161211252D

 33 35  0  0  0  0            999 V2000
    5.5146   -9.9382    0.0000 C   0  0  2  0  0  0
    5.5116  -10.7680    0.0000 C   0  0
    6.2226  -11.1792    0.0000 N   0  0
    6.2240   -9.5273    0.0000 O   0  0
    6.9485   -8.2884    0.0000 C   0  0
    6.2246   -8.6990    0.0000 C   0  0
    7.6305  -12.0189    0.0000 C   0  0
    5.5119   -8.2835    0.0000 O   0  0
    6.9268  -10.7736    0.0000 C   0  0
    7.6426  -11.1954    0.0000 C   0  0  2  0  0  0
    8.3672  -10.7820    0.0000 C   0  0
    8.3709   -9.9542    0.0000 C   0  0
    6.9308   -9.9486    0.0000 O   0  0
    8.3388  -12.4419    0.0000 C   0  0
    8.3267  -13.2668    0.0000 N   0  0
    9.0593  -12.0399    0.0000 O   0  0
    9.0351  -13.6897    0.0000 C   0  0
    9.0230  -14.5146    0.0000 C   0  0
    8.3010  -14.9118    0.0000 C   0  0
    8.2886  -15.7359    0.0000 C   0  0
    8.9975  -16.1597    0.0000 C   0  0
    9.7204  -15.7533    0.0000 C   0  0
    9.7293  -14.9305    0.0000 C   0  0
    8.9865  -16.9846    0.0000 Cl  0  0
    8.9920   -9.4455    0.0000 C   0  0
    7.6593   -8.7156    0.0000 C   0  0
    8.4667   -8.4792    0.0000 C   0  0
    4.8006   -9.5249    0.0000 C   0  0
    4.8049   -8.7030    0.0000 C   0  0
    4.0917   -8.2898    0.0000 C   0  0
    3.3758   -8.7015    0.0000 C   0  0
    3.3775   -9.5308    0.0000 C   0  0
    4.0913   -9.9403    0.0000 C   0  0
  3  9  1  0
 15 17  1  0
  6  8  2  0
 17 18  1  0
 18 19  2  0
  1  2  1  0
 19 20  1  0
  9 10  1  0
 20 21  2  0
  1  4  1  0
 21 22  1  0
 10 11  1  0
 22 23  2  0
 23 18  1  0
  4  6  1  0
 21 24  1  0
 11 12  1  0
 12 25  2  0
 26  5  1  0
  9 13  2  0
 25 27  1  0
 26 27  1  0
  5  6  1  0
  1 28  1  1
  7 14  1  0
 28 29  2  0
  2  3  1  0
 29 30  1  0
 14 15  1  0
 30 31  2  0
 10  7  1  6
 31 32  1  0
 14 16  2  0
 32 33  2  0
 33 28  1  0
M  END