
  CDK    12/20/10,14:45

 22 24  0  0  0  0  0  0  0  0999 V2000
    2.4500    1.3667    0.0000 N   0  0  0  0  0  0  0  0  0  0  0  0
    1.9625    0.7083    0.0000 C   0  0  0  0  0  0  0  0  0  0  0  0
    3.2375    1.1125    0.0000 C   0  0  0  0  0  0  0  0  0  0  0  0
    2.4500    0.0333    0.0000 N   0  0  0  0  0  0  0  0  0  0  0  0
    3.2375    0.2875    0.0000 N   0  0  0  0  0  0  0  0  0  0  0  0
    1.1375    0.7083    0.0000 N   0  0  0  0  0  0  0  0  0  0  0  0
   -0.5167    0.7125    0.0000 N   0  0  0  0  0  0  0  0  0  0  0  0
    0.7250    1.4250    0.0000 C   0  0  0  0  0  0  0  0  0  0  0  0
    0.7208   -0.0042    0.0000 C   0  0  0  0  0  0  0  0  0  0  0  0
    3.9042    1.6000    0.0000 N   0  0  0  0  0  0  0  0  0  0  0  0
   -0.1042   -0.0042    0.0000 C   0  0  0  0  0  0  0  0  0  0  0  0
   -0.1042    1.4292    0.0000 C   0  0  0  0  0  0  0  0  0  0  0  0
   -3.8167   -2.1500    0.0000 C   0  0  0  0  0  0  0  0  0  0  0  0
   -2.9917   -0.7250    0.0000 C   0  0  0  0  0  0  0  0  0  0  0  0
   -4.2292   -2.8625    0.0000 Br  0  0  0  0  0  0  0  0  0  0  0  0
   -4.2250   -1.4375    0.0000 C   0  0  0  0  0  0  0  0  0  0  0  0
   -2.9917   -2.1500    0.0000 C   0  0  0  0  0  0  0  0  0  0  0  0
   -2.5792   -1.4375    0.0000 C   0  0  0  0  0  0  0  0  0  0  0  0
   -3.8208   -0.7250    0.0000 C   0  0  0  0  0  0  0  0  0  0  0  0
   -2.5792   -0.0083    0.0000 O   0  0  0  0  0  0  0  0  0  0  0  0
   -1.3417    0.7083    0.0000 C   0  0  0  0  0  0  0  0  0  0  0  0
   -1.7542   -0.0042    0.0000 C   0  0  0  0  0  0  0  0  0  0  0  0
  2  1  2  0  0  0  0 
  3  1  1  0  0  0  0 
  4  2  1  0  0  0  0 
  5  3  2  0  0  0  0 
  6  2  1  0  0  0  0 
  7 12  1  0  0  0  0 
  8  6  1  0  0  0  0 
  9  6  1  0  0  0  0 
 10  3  1  0  0  0  0 
 11  9  1  0  0  0  0 
 12  8  1  0  0  0  0 
 13 16  1  0  0  0  0 
 14 20  1  0  0  0  0 
 15 13  1  0  0  0  0 
 16 19  2  0  0  0  0 
 17 18  1  0  0  0  0 
 18 14  2  0  0  0  0 
 19 14  1  0  0  0  0 
 20 22  1  0  0  0  0 
 21  7  1  0  0  0  0 
 22 21  1  0  0  0  0 
  5  4  1  0  0  0  0 
 11  7  1  0  0  0  0 
 17 13  2  0  0  0  0 
M  END