
          08180812482D 1   1.00000     0.00000     0

 21 22  0     0  0            999 V2000
    7.3902    1.1250    0.0000 N   0  0  0  0  0  0           0  0  0
    7.3891    0.2977    0.0000 C   0  0  0  0  0  0           0  0  0
    8.1039   -0.1152    0.0000 C   0  0  0  0  0  0           0  0  0
    8.1021    1.5378    0.0000 C   0  0  0  0  0  0           0  0  0
    8.8175    1.1287    0.0000 C   0  0  0  0  0  0           0  0  0
    8.8177    0.2976    0.0000 C   0  0  0  0  0  0           0  0  0
    9.5738    1.4580    0.0000 C   0  0  0  0  0  0           0  0  0
   10.2373    0.9677    0.0000 N   0  3  0  0  0  0           0  0  0
   10.2277    0.1435    0.0000 C   0  0  0  0  0  0           0  0  0
   11.0102   -0.1178    0.0000 S   0  0  0  0  0  0           0  0  0
   11.5006    0.5457    0.0000 C   0  0  0  0  0  0           0  0  0
   11.0210    1.2170    0.0000 C   0  0  0  0  0  0           0  0  0
   11.2815    1.9998    0.0000 C   0  0  0  0  0  0           0  0  0
   12.3255    0.5391    0.0000 C   0  0  0  0  0  0           0  0  0
   12.7323   -0.1786    0.0000 C   0  0  0  0  0  0           0  0  0
   13.5573   -0.1852    0.0000 O   0  0  0  0  0  0           0  0  0
    6.6743   -0.1143    0.0000 N   0  0  0  0  0  0           0  0  0
    8.0996    2.3628    0.0000 N   0  0  0  0  0  0           0  0  0
    5.9601    0.2988    0.0000 C   0  0  0  0  0  0           0  0  0
    5.2453   -0.1131    0.0000 C   0  0  0  0  0  0           0  0  0
    5.9608    1.1238    0.0000 O   0  0  0  0  0  0           0  0  0
  9 10  1  0     0  0
 10 11  1  0     0  0
 11 12  2  0     0  0
 12  8  1  0     0  0
  2  3  1  0     0  0
 12 13  1  0     0  0
  3  6  2  0     0  0
 11 14  1  0     0  0
  5  7  1  0     0  0
 14 15  1  0     0  0
  1  2  2  0     0  0
 15 16  1  0     0  0
  7  8  1  0     0  0
  2 17  1  0     0  0
  8  9  2  0     0  0
  4 18  1  0     0  0
  5  4  2  0     0  0
 17 19  1  0     0  0
  4  1  1  0     0  0
 19 20  1  0     0  0
  5  6  1  0     0  0
 19 21  2  0     0  0
M  CHG  1   8   1
M  END