
          05080814042D 1   1.00000     0.00000     0

 34 38  0     1  0            999 V2000
   -3.9232  -16.6072    0.0000 C   0  0  0  0  0  0           0  0  0
   -4.6340  -17.0220    0.0000 C   0  0  0  0  0  0           0  0  0
   -4.6270  -17.8484    0.0000 C   0  0  0  0  0  0           0  0  0
   -3.9131  -18.2518    0.0000 C   0  0  0  0  0  0           0  0  0
   -3.2099  -17.0144    0.0000 C   0  0  0  0  0  0           0  0  0
   -3.2039  -17.8420    0.0000 C   0  0  0  0  0  0           0  0  0
   -2.4880  -18.2484    0.0000 C   0  0  0  0  0  0           0  0  0
   -2.5001  -16.5930    0.0000 C   0  0  0  0  0  0           0  0  0
   -1.7797  -17.0039    0.0000 C   0  0  2  0  0  0           0  0  0
   -1.7751  -17.8335    0.0000 C   0  0  2  0  0  0           0  0  0
   -1.0584  -18.2421    0.0000 N   0  0  3  0  0  0           0  0  0
   -0.3415  -17.8257    0.0000 C   0  0  0  0  0  0           0  0  0
   -0.3461  -16.9961    0.0000 C   0  0  1  0  0  0           0  0  0
   -1.0675  -16.5829    0.0000 C   0  0  0  0  0  0           0  0  0
   -1.7875  -16.1750    0.0000 H   0  0  0  0  0  0           0  0  0
   -1.7833  -18.6583    0.0000 H   0  0  0  0  0  0           0  0  0
    0.3665  -16.5804    0.0000 C   0  0  0  0  0  0           0  0  0
    1.0828  -16.9897    0.0000 N   0  0  3  0  0  0           0  0  0
    0.3628  -15.7554    0.0000 O   0  0  0  0  0  0           0  0  0
    1.0805  -17.8178    0.0000 C   0  0  0  0  0  0           0  0  0
    1.7927  -18.2271    0.0000 C   0  0  0  0  0  0           0  0  0
    2.5078  -17.8149    0.0000 N   0  0  3  0  0  0           0  0  0
    2.5061  -16.9889    0.0000 C   0  0  0  0  0  0           0  0  0
    1.7893  -16.5751    0.0000 C   0  0  0  0  0  0           0  0  0
   -3.9272  -15.7822    0.0000 O   0  0  0  0  0  0           0  0  0
   -4.6436  -15.3731    0.0000 C   0  0  0  0  0  0           0  0  0
   -1.0550  -19.0671    0.0000 C   0  0  0  0  0  0           0  0  0
    3.2225  -18.2269    0.0000 C   0  0  0  0  0  0           0  0  0
    3.2186  -19.0511    0.0000 C   0  0  0  0  0  0           0  0  0
    3.9325  -19.4630    0.0000 C   0  0  0  0  0  0           0  0  0
    4.6477  -19.0500    0.0000 C   0  0  0  0  0  0           0  0  0
    4.6445  -18.2207    0.0000 C   0  0  0  0  0  0           0  0  0
    3.9300  -17.8125    0.0000 C   0  0  0  0  0  0           0  0  0
    5.3630  -19.4610    0.0000 O   0  0  0  0  0  0           0  0  0
 10 16  1  1     0  0
  6  7  1  0     0  0
 13 17  1  1     0  0
  7 10  1  0     0  0
 17 18  1  0     0  0
  9  8  1  0     0  0
 17 19  2  0     0  0
 18 20  1  0     0  0
  9 10  1  0     0  0
  3  4  2  0     0  0
  4  6  1  0     0  0
  5  6  2  0     0  0
  1  2  2  0     0  0
 18 24  1  0     0  0
 20 21  1  0     0  0
 21 22  1  0     0  0
 22 23  1  0     0  0
 23 24  1  0     0  0
  5  1  1  0     0  0
  1 25  1  0     0  0
  2  3  1  0     0  0
 25 26  1  0     0  0
  9 14  1  0     0  0
 11 27  1  0     0  0
 10 11  1  0     0  0
 22 28  1  0     0  0
 11 12  1  0     0  0
 28 29  2  0     0  0
 12 13  1  0     0  0
 29 30  1  0     0  0
 13 14  1  0     0  0
 30 31  2  0     0  0
 31 32  1  0     0  0
  9 15  1  6     0  0
 32 33  2  0     0  0
 33 28  1  0     0  0
  5  8  1  0     0  0
 31 34  1  0     0  0
M  END