
  CDK    9/16/09,10:2

 36 37  0  0  0  0  0  0  0  0999 V2000
   12.2311    2.1940    0.0000 C   0  0  0  0  0  0  0  0  0  0  0  0
   12.2297    1.3664    0.0000 C   0  0  0  0  0  0  0  0  0  0  0  0
   12.9421    0.9511    0.0000 C   0  0  0  0  0  0  0  0  0  0  0  0
   13.6609    1.3668    0.0000 C   0  0  0  0  0  0  0  0  0  0  0  0
   13.6577    2.1980    0.0000 C   0  0  0  0  0  0  0  0  0  0  0  0
   12.9401    2.6045    0.0000 C   0  0  0  0  0  0  0  0  0  0  0  0
   11.5154    0.9525    0.0000 C   0  0  0  0  0  0  0  0  0  0  0  0
   11.5141    0.1275    0.0000 C   0  0  0  0  0  0  0  0  0  0  0  0
   10.7997   -0.2816    0.0000 C   0  0  0  0  0  0  0  0  0  0  0  0
   12.2274   -0.2837    0.0000 C   0  0  0  0  0  0  0  0  0  0  0  0
   12.2262   -1.1087    0.0000 C   0  0  0  0  0  0  0  0  0  0  0  0
   12.9395   -1.5247    0.0000 C   0  0  0  0  0  0  0  0  0  0  0  0
   12.9383   -2.3497    0.0000 C   0  0  0  0  0  0  0  0  0  0  0  0
   13.6540   -1.1108    0.0000 O   0  0  0  0  0  0  0  0  0  0  0  0
   12.2238   -2.7588    0.0000 C   0  0  0  0  0  0  0  0  0  0  0  0
   13.6515   -2.7609    0.0000 C   0  0  0  0  0  0  0  0  0  0  0  0
   14.3660   -2.3518    0.0000 C   0  0  0  0  0  0  0  0  0  0  0  0
   11.5117   -1.5226    0.0000 O   0  0  0  0  0  0  0  0  0  0  0  0
   14.3752    0.9527    0.0000 N   0  0  0  0  0  0  0  0  0  0  0  0
   15.0887    1.3681    0.0000 C   0  0  0  0  0  0  0  0  0  0  0  0
   15.8076    0.9540    0.0000 C   0  0  0  0  0  0  0  0  0  0  0  0
   15.0879    2.1932    0.0000 O   0  0  0  0  0  0  0  0  0  0  0  0
   15.8083    0.1290    0.0000 C   0  0  0  0  0  0  0  0  0  0  0  0
   16.5211    1.3695    0.0000 C   0  0  0  0  0  0  0  0  0  0  0  0
   16.5225   -0.2805    0.0000 C   0  0  0  0  0  0  0  0  0  0  0  0
   16.5233   -1.1056    0.0000 C   0  0  0  0  0  0  0  0  0  0  0  0
   15.1872   -2.3507    0.0000 C   0  0  0  0  0  0  0  0  0  0  0  0
   14.1560   -1.5550    0.0000 C   0  0  0  0  0  0  0  0  0  0  0  0
   15.6029   -3.0640    0.0000 O   0  0  0  0  0  0  0  0  0  0  0  0
   15.6010   -1.6363    0.0000 C   0  0  0  0  0  0  0  0  0  0  0  0
   15.1853   -0.9229    0.0000 O   0  0  0  0  0  0  0  0  0  0  0  0
   14.3602   -0.9240    0.0000 C   0  0  0  0  0  0  0  0  0  0  0  0
   16.4279   -3.0629    0.0000 C   0  0  0  0  0  0  0  0  0  0  0  0
   16.8371   -2.3486    0.0000 O   0  0  0  0  0  0  0  0  0  0  0  0
   16.8390   -3.7763    0.0000 N   0  0  0  0  0  0  0  0  0  0  0  0
   10.7927   -1.1087    0.0000 C   0  0  0  0  0  0  0  0  0  0  0  0
 11 18  1  1  0  0  0 
  8  9  1  6  0  0  0 
  4 19  1  0  0  0  0 
  4  5  1  0  0  0  0 
 19 20  1  0  0  0  0 
  8 10  1  0  0  0  0 
 20 21  1  0  0  0  0 
  2  3  1  0  0  0  0 
 20 22  2  0  0  0  0 
 10 11  1  0  0  0  0 
 21 23  2  0  0  0  0 
  5  6  2  0  0  0  0 
 21 24  1  0  0  0  0 
 11 12  1  0  0  0  0 
 23 25  1  0  0  0  0 
  6  1  1  0  0  0  0 
 25 26  1  0  0  0  0 
 12 13  1  0  0  0  0 
 17 27  1  0  0  0  0 
  1  2  2  0  0  0  0 
 17 28  1  0  0  0  0 
 12 14  1  6  0  0  0 
 27 29  1  1  0  0  0 
  2  7  1  0  0  0  0 
 27 30  1  0  0  0  0 
 13 15  1  6  0  0  0 
 30 31  1  1  0  0  0 
  3  4  2  0  0  0  0 
 31 32  1  0  0  0  0 
 30 26  1  0  0  0  0 
 13 16  1  0  0  0  0 
 29 33  1  0  0  0  0 
  7  8  1  0  0  0  0 
 33 34  2  0  0  0  0 
 16 17  2  0  0  0  0 
 33 35  1  0  0  0  0 
 18 36  1  0  0  0  0 
M  END