
  SciTegic01181116592D

 26 28  0  0  0  0            999 V2000
   14.4819   -4.5333    0.0000 C   0  0
   14.4807   -5.3607    0.0000 C   0  0
   15.1956   -5.7735    0.0000 C   0  0
   15.9120   -5.3602    0.0000 C   0  0
   15.9091   -4.5297    0.0000 C   0  0
   15.1938   -4.1205    0.0000 C   0  0
   13.7660   -5.7726    0.0000 Cl  0  0
   16.6221   -4.1145    0.0000 C   0  0
   17.3381   -4.5243    0.0000 C   0  0
   16.6189   -3.2895    0.0000 O   0  0
   15.1954   -6.5985    0.0000 S   0  0
   15.9097   -7.0112    0.0000 N   0  0
   14.3917   -6.3792    0.0000 O   0  0
   14.6042   -7.1792    0.0000 O   0  0
   18.0511   -4.1089    0.0000 N   0  0
   18.7959   -3.0059    0.0000 N   0  0
   18.0206   -3.2875    0.0000 C   0  0
   19.3036   -3.6563    0.0000 C   0  0
   18.8408   -4.3384    0.0000 C   0  0
   19.2003   -5.0780    0.0000 C   0  0
   20.0222   -5.1368    0.0000 C   0  0
   20.4833   -4.4498    0.0000 C   0  0
   20.1213   -3.7129    0.0000 C   0  0
   17.3015   -2.8830    0.0000 C   0  0
   17.2923   -2.0581    0.0000 C   0  0
   16.5732   -1.6537    0.0000 C   0  0
 11 13  2  0
  1  2  2  0
 11 14  2  0
  2  7  1  0
  9 15  1  0
 15 19  1  0
  3  4  2  0
  5  8  1  0
 18 16  1  0
 16 17  2  0
 17 15  1  0
  8  9  1  0
 18 19  2  0
  4  5  1  0
 19 20  1  0
  8 10  2  0
 20 21  2  0
  2  3  1  0
 21 22  1  0
  3 11  1  0
 22 23  2  0
 23 18  1  0
  5  6  2  0
 17 24  1  0
 11 12  1  0
 24 25  1  0
  6  1  1  0
 25 26  1  0
M  END