
          11280715512D 1   1.00000     0.00000     0

 20 20  0     0  0            999 V2000
   -3.4181  -15.1916    0.0000 C   0  0  0  0  0  0           0  0  0
   -3.4193  -16.0190    0.0000 C   0  0  0  0  0  0           0  0  0
   -2.7044  -16.4319    0.0000 C   0  0  0  0  0  0           0  0  0
   -1.9880  -16.0185    0.0000 C   0  0  0  0  0  0           0  0  0
   -1.9909  -15.1880    0.0000 C   0  0  0  0  0  0           0  0  0
   -2.7062  -14.7789    0.0000 C   0  0  0  0  0  0           0  0  0
   -1.2779  -14.7728    0.0000 C   0  0  3  0  0  0           0  0  0
   -0.5619  -15.1826    0.0000 C   0  0  0  0  0  0           0  0  0
   -1.2811  -13.9478    0.0000 P   0  0  3  0  0  0           0  0  0
    0.1510  -14.7674    0.0000 C   0  0  0  0  0  0           0  0  0
    0.8670  -15.1772    0.0000 N   0  0  3  0  0  0           0  0  0
    1.5799  -14.7620    0.0000 C   0  0  0  0  0  0           0  0  0
    2.2959  -15.1718    0.0000 O   0  0  0  0  0  0           0  0  0
    0.8701  -16.0022    0.0000 O   0  0  0  0  0  0           0  0  0
   -0.4583  -13.9458    0.0000 O   0  0  0  0  0  0           0  0  0
   -2.1083  -13.9458    0.0000 O   0  0  0  0  0  0           0  0  0
   -1.2875  -13.1208    0.0000 O   0  0  0  0  0  0           0  0  0
   -4.1341  -16.4309    0.0000 Cl  0  0  0  0  0  0           0  0  0
   -2.7046  -17.2569    0.0000 Cl  0  0  0  0  0  0           0  0  0
    1.5768  -13.9370    0.0000 C   0  0  0  0  0  0           0  0  0
  8 10  1  0     0  0
  2  3  1  0     0  0
 10 11  1  0     0  0
  5  6  2  0     0  0
 11 12  1  0     0  0
  6  1  1  0     0  0
 12 13  2  0     0  0
  1  2  2  0     0  0
 11 14  1  0     0  0
  5  7  1  0     0  0
  9 15  1  0     0  0
  3  4  2  0     0  0
  9 16  2  0     0  0
  7  8  1  0     0  0
  9 17  1  0     0  0
  2 18  1  0     0  0
  7  9  1  0     0  0
  3 19  1  0     0  0
  4  5  1  0     0  0
 12 20  1  0     0  0
M  END