
  SciTegic10191216022D

 25 28  0  0  1  0            999 V2000
   -3.9293  -17.1910    0.0000 C   0  0
   -3.9293  -16.3660    0.0000 C   0  0
   -3.2152  -15.9535    0.0000 C   0  0
   -4.6434  -17.6035    0.0000 O   0  0
   -3.2152  -17.6035    0.0000 C   0  0
   -2.5011  -17.1910    0.0000 C   0  0
   -1.7870  -17.6035    0.0000 C   0  0
   -1.0683  -17.1910    0.0000 C   0  0  2  0  0  0
   -1.0683  -16.3660    0.0000 C   0  0  1  0  0  0
   -0.3542  -15.9535    0.0000 C   0  0  2  0  0  0
    0.4265  -16.2088    0.0000 C   0  0
    0.9138  -15.5410    0.0000 C   0  0
    0.4265  -14.8732    0.0000 C   0  0  2  0  0  0
    0.6863  -14.0879    0.0000 O   0  0
   -0.3542  -15.1285    0.0000 C   0  0  2  0  0  0
   -0.3542  -14.3035    0.0000 C   0  0
   -1.0683  -14.7160    0.0000 C   0  0
   -1.7870  -15.1285    0.0000 C   0  0
   -1.7870  -15.9535    0.0000 C   0  0  2  0  0  0
   -2.5011  -16.3660    0.0000 C   0  0  1  0  0  0
   -2.5011  -15.5410    0.0000 H   0  0
   -0.3542  -17.6035    0.0000 C   0  0
   -1.7870  -16.7785    0.0000 H   0  0
   -1.0683  -15.5410    0.0000 H   0  0
   -0.3542  -16.7785    0.0000 H   0  0
  1  2  1  0
  2  3  1  0
  1  4  2  0
  1  5  1  0
  6  5  1  0
  6  7  1  0
  7  8  1  0
  8  9  1  0
  9 10  1  0
 10 11  1  0
 11 12  1  0
 12 13  1  0
 13 14  1  1
 13 15  1  0
 10 15  1  0
 15 16  1  1
 15 17  1  0
 17 18  1  0
 18 19  1  0
  9 19  1  0
 19 20  1  0
  3 20  1  0
  6 20  1  0
 20 21  1  1
  8 22  1  6
 19 23  1  6
  9 24  1  1
 10 25  1  6
M  END