
  SciTegic01061414252D

 20 21  0  0  0  0            999 V2000
   23.3762  -28.9423    0.0000 O   0  0
   22.5514  -28.9423    0.0000 S   0  0
   22.9638  -29.6566    0.0000 O   0  0
   21.8416  -26.8799    0.0000 C   0  0
   21.8405  -27.7072    0.0000 C   0  0
   22.5552  -28.1199    0.0000 C   0  0
   23.2716  -27.7067    0.0000 C   0  0
   23.2687  -26.8762    0.0000 C   0  0
   22.5535  -26.4673    0.0000 C   0  0
   23.9815  -26.4612    0.0000 C   0  0
   24.6975  -26.8709    0.0000 C   0  0
   23.9785  -25.6362    0.0000 O   0  0
   25.4102  -26.4559    0.0000 S   0  0
   26.1263  -26.8655    0.0000 C   0  0
   26.1263  -27.6893    0.0000 N   0  0
   26.8413  -28.0989    0.0000 C   0  0
   27.5551  -27.6838    0.0000 C   0  0
   27.5494  -26.8546    0.0000 C   0  0
   26.8336  -26.4487    0.0000 N   0  0
   21.8405  -29.3572    0.0000 N   0  0
  2  1  2  0
  3  2  2  0
  4  5  2  0
  5  6  1  0
  6  7  2  0
  7  8  1  0
  8  9  2  0
  9  4  1  0
  8 10  1  0
 10 11  1  0
 10 12  2  0
 11 13  1  0
 13 14  1  0
 14 15  2  0
 15 16  1  0
 16 17  2  0
 17 18  1  0
 18 19  2  0
 19 14  1  0
  6  2  1  0
  2 20  1  0
M  END