
  SciTegic11201309402D

106115  0  0  0  0            999 V2000
   -2.0751   -2.4296    0.0000 C   0  0
   -2.0299   -4.0837    0.0000 O   0  0
    0.9116   -0.3248    0.0000 C   0  0
    0.4860    0.3826    0.0000 S   0  0
   -0.3145   -1.0607    0.0000 C   0  0
   -0.7374   -0.3528    0.0000 C   0  0
   -1.5549   -0.3663    0.0000 C   0  0
   -0.7053   -1.7808    0.0000 C   0  0
   -1.5326   -1.7979    0.0000 C   0  0
   -1.9604   -1.0838    0.0000 C   0  0
   -2.7731   -1.2727    0.0000 C   0  0
   -2.8434   -2.1036    0.0000 O   0  0
   -3.3996   -0.7324    0.0000 O   0  0
   -1.3462   -2.8184    0.0000 C   0  0
   -1.3321   -3.6478    0.0000 C   0  0
   -0.6005   -4.0440    0.0000 C   0  0
    0.1083   -3.6119    0.0000 C   0  0
    0.0817   -2.7795    0.0000 C   0  0
   -0.6495   -2.3871    0.0000 C   0  0
   -2.7604   -3.6887    0.0000 C   0  0
   -2.7806   -2.8665    0.0000 C   0  0
   -3.5008   -2.4757    0.0000 C   0  0
   -4.2002   -2.9059    0.0000 C   0  0
   -4.1756   -3.7311    0.0000 C   0  0
   -3.4559   -4.1182    0.0000 C   0  0
   10.9972   -1.4765    0.0000 C   0  0
   10.5994   -2.1993    0.0000 O   0  0
   12.2490   -2.1655    0.0000 C   0  0  2  0  0  0
   13.0739   -2.1486    0.0000 C   0  0
   11.8512   -2.8883    0.0000 C   0  0  1  0  0  0
   11.0264   -2.9051    0.0000 C   0  0
   13.4717   -1.4259    0.0000 O   0  0
    9.7504   -0.7865    0.0000 N   0  0
   10.5706   -0.7708    0.0000 C   0  0  1  0  0  0
   10.8090    0.0142    0.0000 C   0  0
   10.1360    0.4836    0.0000 C   0  0
    9.4817   -0.0115    0.0000 C   0  0
   14.3257   -2.8376    0.0000 C   0  0  2  0  0  0
   14.7528   -3.5435    0.0000 C   0  0
   14.7235   -2.1149    0.0000 C   0  0
   14.3550   -4.2663    0.0000 O   0  0
   15.5751   -3.5266    0.0000 N   0  0
   15.5880   -4.3503    0.0000 C   0  0
   16.3751   -4.5973    0.0000 C   0  0
   16.8533   -3.9250    0.0000 C   0  0
   16.3619   -3.2609    0.0000 C   0  0  1  0  0  0
   16.7331   -2.5242    0.0000 C   0  0
   17.5561   -2.4774    0.0000 N   0  0
   16.2807   -1.8343    0.0000 O   0  0
   17.8545   -3.2458    0.0000 C   0  0
   18.6783   -3.2016    0.0000 C   0  0
   18.8908   -2.4044    0.0000 C   0  0
   18.1986   -1.9548    0.0000 C   0  0  1  0  0  0
   17.8897   -1.1898    0.0000 C   0  0
   17.0727   -1.0749    0.0000 O   0  0
   11.2492   -2.1859    0.0000 H   0  0
    9.3584   -1.5124    0.0000 C   0  0
    8.5337   -1.5358    0.0000 C   0  0
    9.7910   -2.2148    0.0000 O   0  0
    8.1011   -0.8334    0.0000 N   0  0
   17.9758    0.1785    0.0000 C   0  0  2  0  0  0
   17.1508    0.1698    0.0000 C   0  0
   18.3799    0.8971    0.0000 C   0  0
   19.2041    0.9313    0.0000 C   0  0
   19.6460    0.2346    0.0000 C   0  0
   20.4718    0.2678    0.0000 O   0  0
   16.7305    0.8798    0.0000 N   0  0
   16.7459   -0.5489    0.0000 O   0  0
   17.0317    1.6489    0.0000 C   0  0
   17.8478    1.7693    0.0000 C   0  0
   18.3602    1.1227    0.0000 O   0  0
    7.2764   -0.8568    0.0000 C   0  0
    6.8439   -0.1542    0.0000 C   0  0  2  0  0  0
    6.8844   -1.5827    0.0000 O   0  0
   15.9057    0.8643    0.0000 C   0  0
   15.4798    1.5708    0.0000 C   0  0
   14.6549    1.5553    0.0000 C   0  0
   14.2560    0.8332    0.0000 C   0  0
    7.1104    0.6222    0.0000 C   0  0
    6.4523    1.1196    0.0000 C   0  0
    5.7757    0.6474    0.0000 C   0  0
    6.0147   -0.1418    0.0000 N   0  0
    5.3169   -0.5820    0.0000 C   0  0
    4.5868   -0.1977    0.0000 C   0  0
    5.3492   -1.4063    0.0000 O   0  0
    3.8891   -0.6379    0.0000 C   0  0
    3.1590   -0.2537    0.0000 C   0  0
    2.4612   -0.6938    0.0000 C   0  0
   13.4311    0.8176    0.0000 C   0  0
   13.0052    1.5242    0.0000 C   0  0
   12.1804    1.5086    0.0000 C   0  0
    8.1306    0.3925    0.0000 C   0  0
   18.1436    2.5346    0.0000 N   0  0
   19.2569   -0.4991    0.0000 O   0  0
   18.3909   -0.5345    0.0000 N   0  0
   13.5009   -2.8546    0.0000 N   0  0
   12.2754   -3.5926    0.0000 O   0  0
   11.8220   -1.4596    0.0000 N   0  0
    0.8314   -4.0056    0.0000 O   0  0
   -4.8849   -4.1656    0.0000 O   0  0
    0.5106   -1.0468    0.0000 N   0  0
    1.7367   -0.3117    0.0000 N   0  0
    9.4528    1.4966    0.0000 C   0  0
   18.9703   -1.3188    0.0000 H   0  0
   17.3583   -3.1759    0.0000 H   0  0
   11.5629   -0.6467    0.0000 H   0  0
  1 21  1  0
  1 14  1  0
 20  2  1  0
  2 15  1  0
  3  4  2  0
  5  6  2  0
  6  7  1  0
  7 10  2  0
  9  8  2  0
  8  5  1  0
  9 10  1  0
 10 11  1  0
 11 12  1  0
 12  1  1  0
  1  9  1  0
 11 13  2  0
 14 15  2  0
 15 16  1  0
 16 17  2  0
 17 18  1  0
 18 19  2  0
 19 14  1  0
 20 21  2  0
 21 22  1  0
 22 23  2  0
 23 24  1  0
 24 25  2  0
 25 20  1  0
 34 26  1  0
 26 27  2  0
 28 29  1  0
 28 30  1  0
 30 31  1  6
 29 32  2  0
 33 34  1  0
 34 35  1  0
 35 36  1  0
 36 37  1  0
 37 33  1  0
 38 39  1  0
 38 40  1  1
 39 41  2  0
 39 42  1  0
 42 43  1  0
 43 44  1  0
 44 45  1  0
 45 46  1  0
 46 42  1  0
 46 47  1  0
 47 48  1  0
 47 49  2  0
 48 50  1  0
 50 51  1  0
 51 52  1  0
 52 53  1  0
 53 48  1  0
 53 54  1  0
 54 55  2  0
 28 56  1  1
 33 57  1  0
 57 58  1  0
 57 59  2  0
 58 60  1  0
 61 62  1  0
 61 63  1  6
 63 64  1  0
 64 65  1  0
 65 66  2  0
 62 67  1  0
 62 68  2  0
 67 69  1  0
 69 70  1  0
 70 71  2  0
 60 72  1  0
 73 72  1  1
 72 74  2  0
 67 75  1  0
 75 76  1  0
 76 77  1  0
 77 78  1  0
 73 79  1  0
 79 80  1  0
 80 81  1  0
 81 82  1  0
 82 73  1  0
 82 83  1  0
 83 84  1  0
 83 85  2  0
 84 86  1  0
 86 87  1  0
 87 88  1  0
 78 89  1  0
 89 90  1  0
 90 91  1  0
 60 92  1  0
 70 93  1  0
 65 94  1  0
 54 95  1  0
 61 95  1  0
 29 96  1  0
 38 96  1  0
 30 97  1  0
 26 98  1  0
 28 98  1  0
 17 99  1  0
 24100  1  0
  3101  1  0
  5101  1  0
  3102  1  0
 88102  1  0
 92103  1  0
103 91  2  0
 53104  1  1
 46105  1  1
 34106  1  6
M  END