
          11280715112D 1   1.00000     0.00000     0

 26 28  0     0  0            999 V2000
    2.6292   -2.3167    0.0000 C   0  0  0  0  0  0           0  0  0
    2.6292   -2.9167    0.0000 C   0  0  0  0  0  0           0  0  0
    3.1417   -2.0167    0.0000 C   0  0  0  0  0  0           0  0  0
    4.1792   -2.0167    0.0000 C   0  0  0  0  0  0           0  0  0
    3.6625   -2.3167    0.0000 C   0  0  0  0  0  0           0  0  0
    2.1042   -2.0167    0.0000 C   0  0  3  0  0  0           0  0  0
    4.7042   -2.3125    0.0000 C   0  0  0  0  0  0           0  0  0
    2.1042   -3.2167    0.0000 C   0  0  3  0  0  0           0  0  0
    4.7125   -4.7125    0.0000 C   0  0  0  0  0  0           0  0  0
    3.1417   -3.2167    0.0000 C   0  0  0  0  0  0           0  0  0
    4.7042   -4.1042    0.0000 C   0  0  0  0  0  0           0  0  0
    3.6667   -2.9167    0.0000 C   0  0  0  0  0  0           0  0  0
    1.5917   -2.3167    0.0000 C   0  0  0  0  0  0           0  0  0
    1.5917   -2.9167    0.0000 C   0  0  0  0  0  0           0  0  0
    5.2292   -5.0042    0.0000 O   0  0  0  0  0  0           0  0  0
    4.7042   -2.9125    0.0000 C   0  0  0  0  0  0           0  0  0
    4.1875   -3.8125    0.0000 C   0  0  0  0  0  0           0  0  0
    5.2292   -3.8042    0.0000 C   0  0  0  0  0  0           0  0  0
    4.1917   -5.0125    0.0000 O   0  0  0  0  0  0           0  0  0
    5.2250   -3.2042    0.0000 C   0  0  0  0  0  0           0  0  0
    4.1792   -3.2125    0.0000 C   0  0  0  0  0  0           0  0  0
    4.1792   -1.4167    0.0000 C   0  0  0  0  0  0           0  0  0
    2.5292   -1.5917    0.0000 C   0  0  0  0  0  0           0  0  0
    1.6792   -1.5917    0.0000 C   0  0  0  0  0  0           0  0  0
    1.6792   -3.6375    0.0000 C   0  0  0  0  0  0           0  0  0
    2.5292   -3.6375    0.0000 C   0  0  0  0  0  0           0  0  0
  2  1  2  0     0  0
  3  1  1  0     0  0
  4  5  1  0     0  0
  5  3  2  0     0  0
  6  1  1  0     0  0
  7  4  2  0     0  0
  8  2  1  0     0  0
  9 11  1  0     0  0
 10  2  1  0     0  0
 11 17  2  0     0  0
 12  5  1  0     0  0
 13  6  1  0     0  0
 14 13  1  0     0  0
 15  9  2  0     0  0
 16  7  1  0     0  0
 17 21  1  0     0  0
 18 20  2  0     0  0
 19  9  1  0     0  0
 20 16  1  0     0  0
 21 16  2  0     0  0
 22  4  1  0     0  0
 23  6  1  0     0  0
 24  6  1  0     0  0
 25  8  1  0     0  0
 26  8  1  0     0  0
 14  8  1  0     0  0
 12 10  2  0     0  0
 11 18  1  0     0  0
M  END