
          11280715072D 1   1.00000     0.00000     0

 26 28  0     1  0            999 V2000
   -0.3583   -2.7667    0.0000 C   0  0  0  0  0  0           0  0  0
    0.1625   -3.0667    0.0000 C   0  0  1  0  0  0           0  0  0
    3.8042   -2.7750    0.0000 C   0  0  0  0  0  0           0  0  0
    0.6917   -2.7667    0.0000 C   0  0  1  0  0  0           0  0  0
    0.1625   -1.8542    0.0000 O   0  0  0  0  0  0           0  0  0
   -0.3583   -2.1625    0.0000 C   0  0  0  0  0  0           0  0  0
    0.6917   -2.1625    0.0000 C   0  0  0  0  0  0           0  0  0
    4.3250   -3.0750    0.0000 C   0  0  0  0  0  0           0  0  0
    3.8042   -2.1792    0.0000 C   0  0  0  0  0  0           0  0  0
    0.1625   -3.6667    0.0000 O   0  0  0  0  0  0           0  0  0
    3.2875   -3.0667    0.0000 O   0  0  0  0  0  0           0  0  0
    1.7292   -2.7667    0.0000 N   0  0  0  0  0  0           0  0  0
    1.2042   -3.0667    0.0000 C   0  0  0  0  0  0           0  0  0
    4.3250   -3.6750    0.0000 O   0  0  0  0  0  0           0  0  0
    3.2875   -1.8792    0.0000 O   0  0  0  0  0  0           0  0  0
   -0.8833   -3.0667    0.0000 C   0  0  0  0  0  0           0  0  0
    4.8417   -2.1792    0.0000 C   0  0  0  0  0  0           0  0  0
    4.8417   -2.7792    0.0000 C   0  0  0  0  0  0           0  0  0
    4.3250   -1.8750    0.0000 C   0  0  0  0  0  0           0  0  0
   -0.8833   -1.8625    0.0000 C   0  0  0  0  0  0           0  0  0
    2.2500   -3.0667    0.0000 C   0  0  0  0  0  0           0  0  0
    2.7667   -2.7667    0.0000 C   0  0  0  0  0  0           0  0  0
    4.8417   -3.9750    0.0000 C   0  0  0  0  0  0           0  0  0
    2.7667   -2.1792    0.0000 C   0  0  0  0  0  0           0  0  0
   -1.3958   -2.7667    0.0000 C   0  0  0  0  0  0           0  0  0
   -1.3958   -2.1667    0.0000 C   0  0  0  0  0  0           0  0  0
  2  1  1  0     0  0
  3 11  1  0     0  0
  4  2  1  0     0  0
  5  6  1  0     0  0
  6  1  2  0     0  0
  7  5  1  0     0  0
  8  3  2  0     0  0
  9  3  1  0     0  0
  2 10  1  1     0  0
 11 22  1  0     0  0
 12 13  1  0     0  0
  4 13  1  1     0  0
 14  8  1  0     0  0
 15  9  1  0     0  0
 16  1  1  0     0  0
 17 19  1  0     0  0
 18  8  1  0     0  0
 19  9  2  0     0  0
 20  6  1  0     0  0
 21 12  1  0     0  0
 22 21  1  0     0  0
 23 14  1  0     0  0
 24 15  1  0     0  0
 25 16  2  0     0  0
 26 25  1  0     0  0
 26 20  2  0     0  0
  7  4  1  0     0  0
 17 18  2  0     0  0
M  END