
          11280715492D 1   1.00000     0.00000     0

 64 69  0     1  0            999 V2000
    9.8341   -4.7501    0.0000 N   0  0  0  0  0  0           0  0  0
    9.8061   -2.2744    0.0000 C   0  0  0  0  0  0           0  0  0
    9.0768   -1.0472    0.0000 N   0  0  3  0  0  0           0  0  0
    9.7957   -1.4518    0.0000 C   0  0  1  0  0  0           0  0  0
   10.5063   -1.0303    0.0000 C   0  0  0  0  0  0           0  0  0
   10.9136   -0.3129    0.0000 C   0  0  0  0  0  0           0  0  0
   10.4956    0.3984    0.0000 C   0  0  0  0  0  0           0  0  0
   10.9001    1.1146    0.0000 C   0  0  0  0  0  0           0  0  0
   11.7263    1.1217    0.0000 C   0  0  0  0  0  0           0  0  0
   12.1345    1.8401    0.0000 O   0  0  0  0  0  0           0  0  0
   12.1443    0.4105    0.0000 C   0  0  0  0  0  0           0  0  0
   11.7362   -0.3079    0.0000 C   0  0  0  0  0  0           0  0  0
   10.5251   -2.6790    0.0000 O   0  0  0  0  0  0           0  0  0
    9.0956   -2.6959    0.0000 N   0  0  3  0  0  0           0  0  0
   12.1542   -1.0191    0.0000 C   0  0  0  0  0  0           0  0  0
    9.6682    0.3906    0.0000 C   0  0  0  0  0  0           0  0  0
    8.3776   -2.2874    0.0000 C   0  0  0  0  0  0           0  0  0
    8.3949   -3.9387    0.0000 C   0  0  0  0  0  0           0  0  0
    9.1096   -3.5190    0.0000 C   0  0  3  0  0  0           0  0  0
    7.6747   -3.5319    0.0000 C   0  0  0  0  0  0           0  0  0
    7.6695   -2.7092    0.0000 C   0  0  0  0  0  0           0  0  0
    6.9555   -2.3041    0.0000 C   0  0  0  0  0  0           0  0  0
    6.2463   -2.7206    0.0000 C   0  0  0  0  0  0           0  0  0
    6.2554   -3.5464    0.0000 C   0  0  0  0  0  0           0  0  0
    6.9700   -3.9478    0.0000 C   0  0  0  0  0  0           0  0  0
    9.8291   -3.9227    0.0000 C   0  0  0  0  0  0           0  0  0
   10.5384   -3.5015    0.0000 O   0  0  0  0  0  0           0  0  0
    8.4052   -4.7424    0.0000 C   0  0  0  0  0  0           0  0  0
    9.1174   -5.1587    0.0000 C   0  0  0  0  0  0           0  0  0
    6.2629   -5.1614    0.0000 C   0  0  0  0  0  0           0  0  0
    6.2656   -5.9864    0.0000 C   0  0  0  0  0  0           0  0  0
    5.5525   -6.4012    0.0000 N   0  0  0  0  0  0           0  0  0
    3.4221   -5.1385    0.0000 C   0  0  0  0  0  0           0  0  0
    1.9946   -5.1226    0.0000 N   0  0  3  0  0  0           0  0  0
    2.7143   -4.7193    0.0000 C   0  0  1  0  0  0           0  0  0
    2.7242   -3.8932    0.0000 C   0  0  0  0  0  0           0  0  0
    2.3055   -3.1817    0.0000 C   0  0  0  0  0  0           0  0  0
    1.4806   -3.1875    0.0000 C   0  0  0  0  0  0           0  0  0
    1.0630   -2.4787    0.0000 C   0  0  0  0  0  0           0  0  0
    1.4704   -1.7540    0.0000 C   0  0  0  0  0  0           0  0  0
    1.0529   -1.0411    0.0000 O   0  0  0  0  0  0           0  0  0
    2.2954   -1.7482    0.0000 C   0  0  0  0  0  0           0  0  0
    2.7130   -2.4671    0.0000 C   0  0  0  0  0  0           0  0  0
    4.1418   -4.7352    0.0000 O   0  0  0  0  0  0           0  0  0
    3.4121   -5.9647    0.0000 N   0  0  3  0  0  0           0  0  0
    3.5380   -2.4612    0.0000 C   0  0  0  0  0  0           0  0  0
    2.6896   -6.3650    0.0000 C   0  0  0  0  0  0           0  0  0
    4.1086   -7.2098    0.0000 C   0  0  0  0  0  0           0  0  0
    4.1222   -6.3811    0.0000 C   0  0  3  0  0  0           0  0  0
    3.3864   -7.6131    0.0000 C   0  0  0  0  0  0           0  0  0
    2.6812   -7.1892    0.0000 C   0  0  0  0  0  0           0  0  0
    1.9637   -7.5880    0.0000 C   0  0  0  0  0  0           0  0  0
    1.9501   -8.4104    0.0000 C   0  0  0  0  0  0           0  0  0
    2.6601   -8.8325    0.0000 C   0  0  0  0  0  0           0  0  0
    3.3747   -8.4313    0.0000 C   0  0  0  0  0  0           0  0  0
    4.8415   -5.9769    0.0000 C   0  0  0  0  0  0           0  0  0
    4.8510   -5.1520    0.0000 O   0  0  0  0  0  0           0  0  0
    6.9760   -4.7465    0.0000 C   0  0  0  0  0  0           0  0  0
    7.6918   -5.1567    0.0000 C   0  0  0  0  0  0           0  0  0
    1.9840   -5.9475    0.0000 C   0  0  0  0  0  0           0  0  0
    1.0731   -3.9077    0.0000 C   0  0  0  0  0  0           0  0  0
    9.0677   -0.2223    0.0000 C   0  0  0  0  0  0           0  0  0
    8.3669   -1.4675    0.0000 C   0  0  0  0  0  0           0  0  0
    1.2855   -4.7009    0.0000 C   0  0  0  0  0  0           0  0  0
 31 32  1  0     0  0
 14 17  1  0     0  0
  4  3  1  1     0  0
  2  4  1  0     0  0
  4  5  1  0     0  0
 14 19  1  0     0  0
 17 21  1  0     0  0
 20 18  1  0     0  0
 18 19  1  0     0  0
  5  6  1  0     0  0
  6  7  2  0     0  0
 20 21  2  0     0  0
  7  8  1  0     0  0
 21 22  1  0     0  0
  8  9  2  0     0  0
 35 34  1  1     0  0
 33 35  1  0     0  0
 35 36  1  0     0  0
 36 37  1  0     0  0
 37 38  2  0     0  0
 38 39  1  0     0  0
 39 40  2  0     0  0
 40 41  1  0     0  0
 40 42  1  0     0  0
 42 43  2  0     0  0
 37 43  1  0     0  0
 33 44  2  0     0  0
 33 45  1  0     0  0
 43 46  1  0     0  0
 38 61  1  0     0  0
 45 47  1  0     0  0
 22 23  2  0     0  0
  9 10  1  0     0  0
 23 24  1  0     0  0
 45 49  1  0     0  0
 47 51  1  0     0  0
 50 48  1  0     0  0
 48 49  1  0     0  0
  9 11  1  0     0  0
 24 25  2  0     0  0
 50 51  2  0     0  0
 25 20  1  0     0  0
 51 52  1  0     0  0
 11 12  2  0     0  0
 52 53  2  0     0  0
 19 26  1  0     0  0
 53 54  1  0     0  0
  6 12  1  0     0  0
 54 55  2  0     0  0
 55 50  1  0     0  0
 26 27  2  0     0  0
 49 56  1  0     0  0
  1 26  1  0     0  0
 56 57  2  0     0  0
 32 56  1  0     0  0
  2 13  2  0     0  0
 30 58  1  0     0  0
  2 14  1  0     0  0
 58 59  1  0     0  0
 59 28  1  0     0  0
 28 29  1  0     0  0
 34 60  1  0     0  0
 29  1  1  0     0  0
 12 15  1  0     0  0
  3 62  1  0     0  0
  7 16  1  0     0  0
  3 63  1  0     0  0
 30 31  1  0     0  0
 34 64  1  0     0  0
M  END