
          11280715362D 1   1.00000     0.00000     0

 29 31  0     1  0            999 V2000
    4.7750   -3.2667    0.0000 C   0  0  1  0  0  0           0  0  0
    4.7750   -2.4417    0.0000 C   0  0  0  0  0  0           0  0  0
    6.2000   -0.7917    0.0000 N   0  0  3  0  0  0           0  0  0
    5.4875   -3.6667    0.0000 C   0  0  2  0  0  0           0  0  0
    5.4875   -4.4917    0.0000 C   0  0  2  0  0  0           0  0  0
    4.0625   -3.6667    0.0000 C   0  0  2  0  0  0           0  0  0
    5.4875   -2.0292    0.0000 C   0  0  0  0  0  0           0  0  0
    4.0542   -4.4917    0.0000 C   0  0  1  0  0  0           0  0  0
    4.7667   -4.9042    0.0000 C   0  0  0  0  0  0           0  0  0
    5.4875   -1.2042    0.0000 C   0  0  1  0  0  0           0  0  0
    6.2000    0.0333    0.0000 C   0  0  2  0  0  0           0  0  0
    6.2750   -3.4167    0.0000 C   0  0  1  0  0  0           0  0  0
    6.9167   -1.2042    0.0000 C   0  0  0  0  0  0           0  0  0
    6.2750   -4.7542    0.0000 C   0  0  0  0  0  0           0  0  0
    6.7542   -4.0792    0.0000 O   0  0  0  0  0  0           0  0  0
    3.3542   -3.2667    0.0000 C   0  0  0  0  0  0           0  0  0
    6.5250   -5.5292    0.0000 O   0  0  0  0  0  0           0  0  0
    3.3500   -4.9042    0.0000 C   0  0  0  0  0  0           0  0  0
    4.7792    0.0333    0.0000 C   0  0  0  0  0  0           0  0  0
    4.7792   -0.7917    0.0000 C   0  0  0  0  0  0           0  0  0
    5.4875    0.4458    0.0000 C   0  0  0  0  0  0           0  0  0
    6.9167    0.4458    0.0000 C   0  0  0  0  0  0           0  0  0
    6.5292   -2.6292    0.0000 C   0  0  0  0  0  0           0  0  0
    2.6417   -3.6667    0.0000 C   0  0  0  0  0  0           0  0  0
    2.6375   -4.4917    0.0000 C   0  0  0  0  0  0           0  0  0
    4.0500   -5.3167    0.0000 H   0  0  0  0  0  0           0  0  0
    5.4875   -5.3167    0.0000 H   0  0  0  0  0  0           0  0  0
    5.4875   -2.8417    0.0000 H   0  0  0  0  0  0           0  0  0
    4.0542   -2.8417    0.0000 H   0  0  0  0  0  0           0  0  0
  1  2  1  1     0  0
  3 10  1  0     0  0
  4  1  1  0     0  0
  5  4  1  0     0  0
  6  1  1  0     0  0
  7  2  2  0     0  0
  8  6  1  0     0  0
  9  8  1  0     0  0
 10  7  1  1     0  0
 11  3  1  0     0  0
 12  4  1  0     0  0
 13  3  1  0     0  0
 14  5  1  0     0  0
 15 12  1  0     0  0
 16  6  1  0     0  0
 17 14  1  0     0  0
 18  8  1  0     0  0
 19 20  1  0     0  0
 20 10  1  0     0  0
 21 19  1  0     0  0
 11 22  1  6     0  0
 12 23  1  6     0  0
 24 16  1  0     0  0
 25 24  1  0     0  0
  8 26  1  6     0  0
  5 27  1  6     0  0
  4 28  1  6     0  0
  6 29  1  1     0  0
  5  9  1  0     0  0
 18 25  1  0     0  0
 11 21  1  0     0  0
M  END