
  SciTegic12231509382D

 48 49  0  0  0  0            999 V2000
    7.7815  -10.5187    0.0000 N   0  0
    6.4833   -9.7656    0.0000 C   0  0
    8.8218   -9.9205    0.0000 C   0  0
    6.4855   -8.2648    0.0000 C   0  0
    5.4431  -10.3638    0.0000 O   0  0
    5.1873   -7.5117    0.0000 C   0  0
    5.1894   -6.0109    0.0000 C   0  0
    3.8912   -5.2578    0.0000 C   0  0
    3.8933   -3.7570    0.0000 C   0  0
    2.5951   -3.0039    0.0000 N   0  0
    2.5973   -1.5031    0.0000 C   0  0
    1.5548   -3.6021    0.0000 C   0  0
    1.2990   -0.7500    0.0000 C   0  0
    1.2990    0.7500    0.0000 C   0  0
    0.0000    1.5000    0.0000 C   0  0
   -1.2990    0.7500    0.0000 C   0  0
   -1.2990   -0.7500    0.0000 C   0  0
    0.0000   -1.5000    0.0000 C   0  0
    2.5972    1.5031    0.0000 O   0  0
    2.5955    2.7031    0.0000 C   0  0
   20.7453  -33.0539    0.0000 C   0  0
   22.0443  -32.3040    0.0000 C   0  0
   22.0444  -30.8040    0.0000 C   0  0
   20.7453  -30.0539    0.0000 C   0  0
   19.4462  -30.8039    0.0000 C   0  0
   19.4462  -32.3039    0.0000 C   0  0
   18.1480  -33.0570    0.0000 O   0  0
   18.1498  -34.2570    0.0000 C   0  0
   18.1480  -30.0508    0.0000 C   0  0
   18.1501  -28.5500    0.0000 N   0  0
   16.8519  -27.7969    0.0000 C   0  0
   19.1904  -27.9518    0.0000 C   0  0
   16.8540  -26.2961    0.0000 C   0  0
   15.5558  -25.5430    0.0000 C   0  0
   15.5580  -24.0422    0.0000 C   0  0
   14.2598  -23.2891    0.0000 C   0  0
   14.2619  -21.7882    0.0000 C   0  0
   12.9637  -21.0352    0.0000 N   0  0
   15.3022  -21.1901    0.0000 O   0  0
   12.9658  -19.5343    0.0000 C   0  0
   11.9234  -21.6334    0.0000 C   0  0
   11.6676  -18.7813    0.0000 C   0  0
   11.6698  -17.2804    0.0000 C   0  0
   10.3716  -16.5273    0.0000 C   0  0
   10.3737  -15.0265    0.0000 C   0  0
    9.0755  -14.2734    0.0000 C   0  0
    9.0776  -12.7726    0.0000 C   0  0
    7.7794  -12.0195    0.0000 C   0  0
  1  2  1  0
  1  3  1  0
  2  4  1  0
  2  5  2  0
  4  6  1  0
  6  7  1  0
  7  8  1  0
  8  9  1  0
  9 10  1  0
 10 11  1  0
 10 12  1  0
 11 13  1  0
 13 14  2  0
 14 15  1  0
 15 16  2  0
 16 17  1  0
 13 18  1  0
 17 18  2  0
 14 19  1  0
 19 20  1  0
 21 22  2  0
 22 23  1  0
 23 24  2  0
 24 25  1  0
 21 26  1  0
 25 26  2  0
 26 27  1  0
 27 28  1  0
 25 29  1  0
 29 30  1  0
 30 31  1  0
 30 32  1  0
 31 33  1  0
 33 34  1  0
 34 35  1  0
 35 36  1  0
 36 37  1  0
 37 38  1  0
 37 39  2  0
 38 40  1  0
 38 41  1  0
 40 42  1  0
 42 43  1  0
 43 44  1  0
 44 45  1  0
 45 46  1  0
 46 47  1  0
  1 48  1  0
 47 48  1  0
M  END