
          08180812492D 1   1.00000     0.00000     0

 32 35  0     0  0            999 V2000
   -0.0514  -24.4125    0.0000 C   0  0  0  0  0  0           0  0  0
   -0.0526  -25.2398    0.0000 C   0  0  0  0  0  0           0  0  0
    0.6622  -25.6527    0.0000 C   0  0  0  0  0  0           0  0  0
    1.3787  -25.2394    0.0000 C   0  0  0  0  0  0           0  0  0
    1.3758  -24.4088    0.0000 C   0  0  0  0  0  0           0  0  0
    0.6604  -23.9997    0.0000 C   0  0  0  0  0  0           0  0  0
   -0.7673  -25.6515    0.0000 C   0  0  0  0  0  0           0  0  0
   -1.5098  -25.2919    0.0000 N   0  0  3  0  0  0           0  0  0
   -0.7680  -26.4768    0.0000 O   0  0  0  0  0  0           0  0  0
    2.0887  -23.9936    0.0000 O   0  0  0  0  0  0           0  0  0
    2.0856  -23.1686    0.0000 C   0  0  0  0  0  0           0  0  0
    2.8003  -22.7583    0.0000 C   0  0  0  0  0  0           0  0  0
    2.7975  -21.9341    0.0000 C   0  0  0  0  0  0           0  0  0
    2.0810  -21.5234    0.0000 C   0  0  0  0  0  0           0  0  0
    1.3657  -21.9431    0.0000 C   0  0  0  0  0  0           0  0  0
    1.3720  -22.7659    0.0000 C   0  0  0  0  0  0           0  0  0
    2.0938  -25.6507    0.0000 C   0  0  0  0  0  0           0  0  0
    2.8076  -25.2371    0.0000 N   0  0  0  0  0  0           0  0  0
    3.5227  -25.6485    0.0000 C   0  0  0  0  0  0           0  0  0
   -2.1536  -25.8045    0.0000 C   0  0  0  0  0  0           0  0  0
   -2.9598  -25.6205    0.0000 C   0  0  0  0  0  0           0  0  0
   -1.5090  -24.4678    0.0000 C   0  0  0  0  0  0           0  0  0
   -3.3200  -24.8797    0.0000 C   0  0  0  0  0  0           0  0  0
   -2.1551  -23.9526    0.0000 C   0  0  0  0  0  0           0  0  0
   -2.9599  -24.1387    0.0000 N   0  0  3  0  0  0           0  0  0
   -3.4740  -23.4935    0.0000 C   0  0  3  0  0  0           0  0  0
   -3.5992  -22.6744    0.0000 C   0  0  0  0  0  0           0  0  0
   -4.2444  -23.1886    0.0000 C   0  0  0  0  0  0           0  0  0
    3.5150  -23.1704    0.0000 C   0  0  3  0  0  0           0  0  0
    4.2250  -23.5792    0.0000 F   0  0  0  0  0  0           0  0  0
    3.0958  -23.8792    0.0000 F   0  0  0  0  0  0           0  0  0
    3.9208  -22.4500    0.0000 F   0  0  0  0  0  0           0  0  0
 15 16  2  0     0  0
 16 11  1  0     0  0
  7  8  1  0     0  0
  4 17  1  0     0  0
 17 18  1  0     0  0
  7  9  2  0     0  0
 18 19  1  0     0  0
  4  5  1  0     0  0
  8 20  1  0     0  0
  5 10  1  0     0  0
 20 21  1  0     0  0
  2  3  1  0     0  0
  8 22  1  0     0  0
 10 11  1  0     0  0
 21 23  1  0     0  0
  5  6  2  0     0  0
 22 24  1  0     0  0
 11 12  2  0     0  0
 23 25  1  0     0  0
 24 25  1  0     0  0
  6  1  1  0     0  0
 25 26  1  0     0  0
 27 26  1  0     0  0
 28 27  1  0     0  0
 26 28  1  0     0  0
 12 13  1  0     0  0
  1  2  2  0     0  0
 13 14  2  0     0  0
 12 29  1  0     0  0
  2  7  1  0     0  0
 29 30  1  0     0  0
 14 15  1  0     0  0
 29 31  1  0     0  0
  3  4  2  0     0  0
 29 32  1  0     0  0
M  END