
  SciTegic03251510122D

 30 33  0  0  1  0            999 V2000
   -0.7831    7.4866    0.0000 Cl  0  0  0  0  0  0  0  0  0  0  0  0
   -3.9446    1.8756    0.0000 O   0  0  0  0  0  0  0  0  0  0  0  0
    4.8232    2.5932    0.0000 O   0  0  0  0  0  0  0  0  0  0  0  0
    0.8689   -1.3311    0.0000 N   0  0  0  0  0  0  0  0  0  0  0  0
    2.4219    1.7563    0.0000 N   0  0  0  0  0  0  0  0  0  0  0  0
    3.1059   -2.4034    0.0000 N   0  0  0  0  0  0  0  0  0  0  0  0
    2.0706   -3.4942    0.0000 N   0  0  0  0  0  0  0  0  0  0  0  0
    6.8854    1.4798    0.0000 N   0  0  0  0  0  0  0  0  0  0  0  0
    3.0874    0.3143    0.0000 C   0  0  2  0  0  0  0  0  0  0  0  0
    2.3849   -1.0353    0.0000 C   0  0  0  0  0  0  0  0  0  0  0  0
    0.0000   -0.3882    0.0000 C   0  0  0  0  0  0  0  0  0  0  0  0
    0.0000    1.1277    0.0000 C   0  0  0  0  0  0  0  0  0  0  0  0
    0.9429    2.0521    0.0000 C   0  0  0  0  0  0  0  0  0  0  0  0
    0.6840   -2.8471    0.0000 C   0  0  0  0  0  0  0  0  0  0  0  0
    0.5151    3.4906    0.0000 C   0  0  0  0  0  0  0  0  0  0  0  0
    4.5886    0.2613    0.0000 C   0  0  0  0  0  0  0  0  0  0  0  0
   -1.3126   -1.1462    0.0000 C   0  0  0  0  0  0  0  0  0  0  0  0
   -1.3126    1.8857    0.0000 C   0  0  0  0  0  0  0  0  0  0  0  0
   -2.6437    1.1277    0.0000 C   0  0  0  0  0  0  0  0  0  0  0  0
   -2.6437   -0.3882    0.0000 C   0  0  0  0  0  0  0  0  0  0  0  0
    5.3855    1.5331    0.0000 C   0  0  0  0  0  0  0  0  0  0  0  0
   -0.3653   -3.4291    0.0000 C   0  0  0  0  0  0  0  0  0  0  0  0
   -0.9538    3.8040    0.0000 C   0  0  0  0  0  0  0  0  0  0  0  0
    1.5174    4.6060    0.0000 C   0  0  0  0  0  0  0  0  0  0  0  0
   -1.4168    5.2308    0.0000 C   0  0  0  0  0  0  0  0  0  0  0  0
    1.0544    6.0327    0.0000 C   0  0  0  0  0  0  0  0  0  0  0  0
   -0.4127    6.3451    0.0000 C   0  0  0  0  0  0  0  0  0  0  0  0
   -4.9831    1.2742    0.0000 C   0  0  0  0  0  0  0  0  0  0  0  0
    7.6823    2.7515    0.0000 C   0  0  0  0  0  0  0  0  0  0  0  0
    8.8816    2.7089    0.0000 C   0  0  0  0  0  0  0  0  0  0  0  0
  1 27  1  0  0  0  0
 19  2  1  0  0  0  0
  2 28  1  0  0  0  0
 21  3  2  0  0  0  0
 10  4  1  0  0  0  0
 11  4  1  0  0  0  0
  4 14  1  0  0  0  0
  9  5  1  0  0  0  0
  5 13  2  0  0  0  0
  7  6  1  0  0  0  0
  6 10  2  0  0  0  0
 14  7  2  0  0  0  0
 21  8  1  0  0  0  0
  8 29  1  0  0  0  0
 10  9  1  0  0  0  0
  9 16  1  1  0  0  0
 11 12  2  0  0  0  0
 17 11  1  0  0  0  0
 13 12  1  0  0  0  0
 12 18  1  0  0  0  0
 15 13  1  0  0  0  0
 14 22  1  0  0  0  0
 15 23  2  0  0  0  0
 24 15  1  0  0  0  0
 16 21  1  0  0  0  0
 20 17  2  0  0  0  0
 18 19  2  0  0  0  0
 19 20  1  0  0  0  0
 23 25  1  0  0  0  0
 26 24  2  0  0  0  0
 25 27  2  0  0  0  0
 27 26  1  0  0  0  0
 29 30  1  0  0  0  0
M  END