
          11280715232D 1   1.00000     0.00000     0

 65 69  0     1  0            999 V2000
    5.4792   -8.9042    0.0000 N   0  0  0  0  0  0           0  0  0
    7.1917   -7.2292    0.0000 N   0  0  0  0  0  0           0  0  0
    3.1417   -8.3792    0.0000 N   0  0  0  0  0  0           0  0  0
    6.8167   -7.9667    0.0000 C   0  0  0  0  0  0           0  0  0
    7.5250   -9.1625    0.0000 C   0  0  0  0  0  0           0  0  0
    4.6625   -8.9917    0.0000 C   0  0  0  0  0  0           0  0  0
    2.6250   -7.7417    0.0000 C   0  0  0  0  0  0           0  0  0
    6.2292   -8.5500    0.0000 C   0  0  2  0  0  0           0  0  0
    7.3042   -6.4167    0.0000 C   0  0  1  0  0  0           0  0  0
    8.8250   -9.4667    0.0000 N   0  0  0  0  0  0           0  0  0
    7.1500   -5.6042    0.0000 C   0  0  0  0  0  0           0  0  0
    8.0667   -9.7875    0.0000 C   0  0  0  0  0  0           0  0  0
    3.8542   -8.8042    0.0000 C   0  0  1  0  0  0           0  0  0
    3.7292   -4.2125    0.0000 N   0  0  0  0  0  0           0  0  0
    2.3042   -6.1417    0.0000 N   0  0  0  0  0  0           0  0  0
    4.5167   -3.9875    0.0000 C   0  0  0  0  0  0           0  0  0
   -1.8333   -8.4250    0.0000 C   0  0  0  0  0  0           0  0  0
    6.7042   -9.2292    0.0000 C   0  0  0  0  0  0           0  0  0
    7.9542   -8.4542    0.0000 C   0  0  0  0  0  0           0  0  0
    6.7375   -4.8875    0.0000 N   0  0  0  0  0  0           0  0  0
    8.7542   -8.6417    0.0000 C   0  0  0  0  0  0           0  0  0
    2.3292   -6.9667    0.0000 C   0  0  1  0  0  0           0  0  0
    3.7375  -10.9917    0.0000 C   0  0  0  0  0  0           0  0  0
    7.4875   -8.4625    0.0000 O   0  0  0  0  0  0           0  0  0
    4.6167   -9.8167    0.0000 O   0  0  0  0  0  0           0  0  0
    1.9042   -8.1542    0.0000 O   0  0  0  0  0  0           0  0  0
    8.1375   -6.3917    0.0000 C   0  0  0  0  0  0           0  0  0
    5.3417   -4.0292    0.0000 C   0  0  0  0  0  0           0  0  0
    3.0500   -4.6792    0.0000 C   0  0  1  0  0  0           0  0  0
    7.7417   -5.3667    0.0000 O   0  0  0  0  0  0           0  0  0
   -1.6333   -9.2167    0.0000 O   0  0  0  0  0  0           0  0  0
    4.4292   -3.1625    0.0000 O   0  0  0  0  0  0           0  0  0
   -2.6333   -8.2042    0.0000 O   0  0  0  0  0  0           0  0  0
    2.9167  -11.1042    0.0000 O   0  0  0  0  0  0           0  0  0
    3.5417   -9.5792    0.0000 C   0  0  0  0  0  0           0  0  0
   -1.2458   -7.8417    0.0000 N   0  0  0  0  0  0           0  0  0
    2.5542   -5.3500    0.0000 C   0  0  0  0  0  0           0  0  0
    6.1125   -4.3417    0.0000 C   0  0  0  0  0  0           0  0  0
    4.0500  -10.2292    0.0000 C   0  0  0  0  0  0           0  0  0
    4.2417  -11.6500    0.0000 N   0  0  0  0  0  0           0  0  0
    2.4667   -4.0917    0.0000 C   0  0  0  0  0  0           0  0  0
   -3.2208   -8.7792    0.0000 C   0  0  0  0  0  0           0  0  0
    8.5292   -5.6667    0.0000 C   0  0  0  0  0  0           0  0  0
   -3.2208   -9.6042    0.0000 C   0  0  0  0  0  0           0  0  0
    7.7167   -7.6625    0.0000 C   0  0  0  0  0  0           0  0  0
    9.3250   -8.0417    0.0000 C   0  0  0  0  0  0           0  0  0
    1.5167   -7.1250    0.0000 C   0  0  0  0  0  0           0  0  0
    1.6667   -4.2917    0.0000 C   0  0  3  0  0  0           0  0  0
   -0.4500   -8.0667    0.0000 C   0  0  0  0  0  0           0  0  0
    9.3542   -5.6417    0.0000 C   0  0  0  0  0  0           0  0  0
    8.0917   -4.9542    0.0000 C   0  0  0  0  0  0           0  0  0
   -3.9458  -10.0167    0.0000 C   0  0  0  0  0  0           0  0  0
   -2.5125  -10.0167    0.0000 C   0  0  0  0  0  0           0  0  0
    0.1375   -7.4875    0.0000 C   0  0  0  0  0  0           0  0  0
    0.9292   -7.7042    0.0000 C   0  0  0  0  0  0           0  0  0
    1.0917   -3.7000    0.0000 C   0  0  0  0  0  0           0  0  0
    1.4417   -5.0875    0.0000 C   0  0  0  0  0  0           0  0  0
    8.2792   -7.0542    0.0000 C   0  0  0  0  0  0           0  0  0
    9.0875   -7.2500    0.0000 C   0  0  0  0  0  0           0  0  0
    9.7500   -4.9125    0.0000 C   0  0  0  0  0  0           0  0  0
   -3.9458  -10.8417    0.0000 C   0  0  0  0  0  0           0  0  0
   -2.5125  -10.8417    0.0000 C   0  0  0  0  0  0           0  0  0
    8.4917   -4.2292    0.0000 C   0  0  0  0  0  0           0  0  0
    9.3167   -4.2125    0.0000 C   0  0  0  0  0  0           0  0  0
   -3.2333  -11.2542    0.0000 C   0  0  0  0  0  0           0  0  0
  2  4  1  0     0  0
  3 13  1  0     0  0
  4  8  1  0     0  0
  5 18  1  0     0  0
  6  1  1  0     0  0
  7  3  1  0     0  0
  8  1  1  0     0  0
  9  2  1  0     0  0
 10 12  1  0     0  0
 11  9  1  0     0  0
 12  5  2  0     0  0
 13  6  1  0     0  0
 14 29  1  0     0  0
 15 22  1  0     0  0
 16 28  1  0     0  0
 17 36  1  0     0  0
  8 18  1  6     0  0
 19  5  1  0     0  0
 20 11  1  0     0  0
 21 19  2  0     0  0
 22  7  1  0     0  0
 23 39  1  0     0  0
 24  4  2  0     0  0
 25  6  2  0     0  0
 26  7  2  0     0  0
  9 27  1  1     0  0
 28 38  1  0     0  0
 29 37  1  0     0  0
 30 11  2  0     0  0
 31 17  2  0     0  0
 32 16  2  0     0  0
 33 17  1  0     0  0
 34 23  2  0     0  0
 13 35  1  1     0  0
 36 49  1  0     0  0
 37 15  1  0     0  0
 38 20  1  0     0  0
 39 35  1  0     0  0
 40 23  1  0     0  0
 29 41  1  1     0  0
 42 33  1  0     0  0
 43 27  1  0     0  0
 44 42  1  0     0  0
 45 19  1  0     0  0
 46 21  1  0     0  0
 22 47  1  6     0  0
 48 41  1  0     0  0
 49 54  1  0     0  0
 50 43  1  0     0  0
 51 43  2  0     0  0
 52 44  2  0     0  0
 53 44  1  0     0  0
 54 55  1  0     0  0
 55 47  1  0     0  0
 56 48  1  0     0  0
 57 48  1  0     0  0
 58 45  2  0     0  0
 59 58  1  0     0  0
 60 50  2  0     0  0
 61 52  1  0     0  0
 62 53  2  0     0  0
 63 51  1  0     0  0
 64 63  2  0     0  0
 65 62  1  0     0  0
 21 10  1  0     0  0
 46 59  2  0     0  0
 60 64  1  0     0  0
 14 16  1  0     0  0
 61 65  2  0     0  0
M  END