
  SciTegic01161211252D

 76 83  0  0  0  0            999 V2000
   -4.6625   -1.4417    0.0000 N   0  0
    5.8792    1.2500    0.0000 S   0  0
    0.9375    1.4083    0.0000 S   0  0
    4.4167    0.4375    0.0000 N   0  0
    4.0542    0.6458    0.0000 C   0  0
    2.2417    0.4333    0.0000 N   0  0
    4.7792    1.0583    0.0000 C   0  0
    1.8792    1.0458    0.0000 C   0  0
   -5.0208   -1.2167    0.0000 C   0  0
   -4.3000   -1.2167    0.0000 C   0  0
    4.0542    1.0583    0.0000 C   0  0
   -5.5583   -1.7292    0.0000 C   0  0
   -4.6208   -1.8417    0.0000 C   0  0
   -5.4125   -1.3542    0.0000 C   0  0
    4.7792    0.6458    0.0000 C   0  0
    1.8792    0.6458    0.0000 C   0  0
    2.6000    1.0583    0.0000 C   0  0
   -5.3458   -2.0792    0.0000 N   0  0
    2.6000    0.6458    0.0000 C   0  0
   -4.9208   -2.1375    0.0000 C   0  0
    5.5167    1.0458    0.0000 C   0  0
    1.1500    1.0583    0.0000 C   0  0
    1.5167    1.2583    0.0000 C   0  0
    5.1500    1.2583    0.0000 C   0  0
   -3.9625   -0.5917    0.0000 N   0  0
   -4.3125   -0.8125    0.0000 C   0  0
    5.1375    0.4333    0.0000 C   0  0
    1.5167    0.4375    0.0000 C   0  0
    0.5292    1.3000    0.0000 O   0  0
    6.0792    1.6083    0.0000 O   0  0
   -4.2208   -1.9542    0.0000 N   0  0
   -3.2458   -0.1542    0.0000 N   0  0
    3.6917    0.4375    0.0000 C   0  0
    0.6375    1.6958    0.0000 O   0  0
    6.3000    1.2500    0.0000 O   0  0
    5.9792    0.8583    0.0000 O   0  0
    1.2375    1.6958    0.0000 O   0  0
    2.9667    0.4375    0.0000 C   0  0
   -3.9958   -1.5000    0.0000 O   0  0
    3.3250    0.6458    0.0000 C   0  0
   -5.9833   -1.7292    0.0000 O   0  0
    0.4125   -0.1750    0.0000 C   0  0
    5.5042    0.6333    0.0000 C   0  0
    1.1500    0.6458    0.0000 C   0  0
    0.4125   -0.5792    0.0000 O   0  0
    0.0417    0.0333    0.0000 N   0  0
    4.4167    0.0250    0.0000 C   0  0
   -3.5875   -0.7792    0.0000 C   0  0
   -3.9750   -0.1875    0.0000 C   0  0
    2.2375    0.0250    0.0000 C   0  0
   -3.2333   -0.5750    0.0000 C   0  0
   -3.6208    0.0333    0.0000 C   0  0
    3.6917    1.2625    0.0000 C   0  0
    4.2667    1.4125    0.0000 C   0  0
   -5.7208   -1.0792    0.0000 C   0  0
    2.8042    1.4125    0.0000 C   0  0
    2.3792    1.4125    0.0000 C   0  0
   -4.9375   -0.8167    0.0000 C   0  0
   -4.8208   -2.5292    0.0000 C   0  0
   -2.8833    0.0458    0.0000 C   0  0
   -1.0500    0.2458    0.0000 O   0  0
   -2.1458    0.0458    0.0000 O   0  0
   -4.1083   -2.3500    0.0000 C   0  0
    0.7792    0.0333    0.0000 C   0  0
   -0.3208    0.2458    0.0000 C   0  0
   -2.5083   -0.1667    0.0000 C   0  0
   -0.6875    0.0333    0.0000 C   0  0
   -1.7833    0.2458    0.0000 C   0  0
   -1.4208    0.0375    0.0000 C   0  0
    1.8667   -0.1750    0.0000 C   0  0
    4.0042   -0.0792    0.0000 C   0  0
    1.1417   -0.1750    0.0000 C   0  0
   -4.4083   -2.6417    0.0000 C   0  0
   -5.6583   -0.6792    0.0000 C   0  0
   -5.2583   -0.5417    0.0000 C   0  0
    1.5042    0.0250    0.0000 C   0  0
  2 21  1  0
  3 22  1  0
  4  5  1  0
  5 33  2  0
  6 50  1  0
  7 11  1  0
  8 16  2  0
  9  1  1  0
 10  1  1  0
 11  5  1  0
 12 14  1  0
 13  1  1  0
 14  9  2  0
 15  4  1  0
 16  6  1  0
 17 19  1  0
 18 20  1  0
 19  6  1  0
 20 13  2  0
 21 24  2  0
 22 44  1  0
 23  8  1  0
 24  7  1  0
 25 26  1  0
 26 10  1  0
 27 15  1  0
 28 16  1  0
 29  3  1  0
 30  2  1  0
 31 13  1  0
 32 52  1  0
 33 40  1  0
 34  3  2  0
 35  2  2  0
 36  2  2  0
 37  3  2  0
 38 19  1  0
 39 10  2  0
 40 38  2  0
 41 12  2  0
 42 46  1  0
 43 27  2  0
 44 28  2  0
 45 42  2  0
 46 65  1  0
 47  4  1  0
 48 25  1  0
 49 25  1  0
 50 70  1  0
 51 48  1  0
 52 49  1  0
 53 11  1  0
 54 11  1  0
 55 14  1  0
 56 17  1  0
 57 17  1  0
 58  9  1  0
 59 20  1  0
 60 32  1  0
 61 69  1  0
 62 66  1  0
 63 31  2  0
 64 42  1  0
 65 67  1  0
 66 60  1  0
 67 61  1  0
 68 62  1  0
 69 68  1  0
 70 76  1  0
 71 47  1  0
 72 64  1  0
 73 63  1  0
 74 75  1  0
 75 58  2  0
 76 72  1  0
 12 18  1  0
 59 73  2  0
 55 74  2  0
 51 32  1  0
  8 17  1  0
 23 22  2  0
 15  7  2  0
 43 21  1  0
M  END