
  Mrv0541 04051115152D          

 38 42  0  0  0  0            999 V2000
    3.5909   -1.8495    0.0000 C   0  0  0  0  0  0  0  0  0  0  0  0
    3.5909   -1.0245    0.0000 C   0  0  0  0  0  0  0  0  0  0  0  0
    2.8764   -0.6120    0.0000 C   0  0  0  0  0  0  0  0  0  0  0  0
    2.1619   -1.0245    0.0000 N   0  0  0  0  0  0  0  0  0  0  0  0
    2.8764   -2.2620    0.0000 N   0  0  0  0  0  0  0  0  0  0  0  0
   -4.7909   -1.8338    0.0000 C   0  0  0  0  0  0  0  0  0  0  0  0
   -4.0062   -1.5789    0.0000 C   0  0  0  0  0  0  0  0  0  0  0  0
   -3.8347   -0.7719    0.0000 C   0  0  0  0  0  0  0  0  0  0  0  0
   -3.3932   -2.1309    0.0000 C   0  0  0  0  0  0  0  0  0  0  0  0
   -2.6085   -1.8760    0.0000 C   0  0  0  0  0  0  0  0  0  0  0  0
   -2.4370   -1.0690    0.0000 C   0  0  0  0  0  0  0  0  0  0  0  0
   -3.0501   -0.5170    0.0000 C   0  0  0  0  0  0  0  0  0  0  0  0
   -2.8786    0.2900    0.0000 N   0  0  0  0  0  0  0  0  0  0  0  0
   -3.4306    0.9031    0.0000 N   0  0  0  0  0  0  0  0  0  0  0  0
   -3.0181    1.6175    0.0000 C   0  0  0  0  0  0  0  0  0  0  0  0
   -3.3537    2.3712    0.0000 C   0  0  0  0  0  0  0  0  0  0  0  0
   -3.6892    3.1249    0.0000 C   0  0  0  0  0  0  0  0  0  0  0  0
   -2.6000    2.7068    0.0000 C   0  0  0  0  0  0  0  0  0  0  0  0
   -4.1073    2.0357    0.0000 C   0  0  0  0  0  0  0  0  0  0  0  0
   -2.2111    1.4460    0.0000 C   0  0  0  0  0  0  0  0  0  0  0  0
   -2.1249    0.6255    0.0000 C   0  0  0  0  0  0  0  0  0  0  0  0
   -1.4104    0.2130    0.0000 N   0  0  0  0  0  0  0  0  0  0  0  0
   -0.6960    0.6255    0.0000 C   0  0  0  0  0  0  0  0  0  0  0  0
   -0.6960    1.4505    0.0000 O   0  0  0  0  0  0  0  0  0  0  0  0
    0.0185    0.2130    0.0000 N   0  0  0  0  0  0  0  0  0  0  0  0
    0.7330    0.6255    0.0000 C   0  0  0  0  0  0  0  0  0  0  0  0
    1.4475    0.2130    0.0000 C   0  0  0  0  0  0  0  0  0  0  0  0
    0.7330    1.4505    0.0000 C   0  0  0  0  0  0  0  0  0  0  0  0
    1.4475    1.8630    0.0000 C   0  0  0  0  0  0  0  0  0  0  0  0
    2.1619    1.4505    0.0000 C   0  0  0  0  0  0  0  0  0  0  0  0
    2.1619    0.6255    0.0000 C   0  0  0  0  0  0  0  0  0  0  0  0
    2.8764    0.2130    0.0000 N   0  0  0  0  0  0  0  0  0  0  0  0
    4.3053   -0.6120    0.0000 C   0  0  0  0  0  0  0  0  0  0  0  0
    5.0198   -1.0245    0.0000 C   0  0  0  0  0  0  0  0  0  0  0  0
    5.7343   -0.6120    0.0000 N   0  0  0  0  0  0  0  0  0  0  0  0
    5.0198   -1.8495    0.0000 C   0  0  0  0  0  0  0  0  0  0  0  0
    4.3053   -2.2620    0.0000 C   0  0  0  0  0  0  0  0  0  0  0  0
    2.1619   -1.8495    0.0000 C   0  0  0  0  0  0  0  0  0  0  0  0
  1  2  2  0  0  0  0
  1  5  1  0  0  0  0
  1 37  1  0  0  0  0
  2  3  1  0  0  0  0
  2 33  1  0  0  0  0
  3  4  2  0  0  0  0
  3 32  1  0  0  0  0
 38  4  1  0  0  0  0
 38  5  2  0  0  0  0
  6  7  1  0  0  0  0
  8  7  2  0  0  0  0
  9  7  1  0  0  0  0
  8 12  1  0  0  0  0
 10  9  2  0  0  0  0
 10 11  1  0  0  0  0
 11 12  2  0  0  0  0
 12 13  1  0  0  0  0
 14 13  1  0  0  0  0
 21 13  1  0  0  0  0
 15 14  2  0  0  0  0
 15 16  1  0  0  0  0
 20 15  1  0  0  0  0
 17 16  1  0  0  0  0
 18 16  1  0  0  0  0
 19 16  1  0  0  0  0
 20 21  2  0  0  0  0
 21 22  1  0  0  0  0
 23 22  1  0  0  0  0
 23 24  2  0  0  0  0
 23 25  1  0  0  0  0
 26 25  1  0  0  0  0
 27 26  2  0  0  0  0
 28 26  1  0  0  0  0
 27 31  1  0  0  0  0
 29 28  2  0  0  0  0
 29 30  1  0  0  0  0
 30 31  2  0  0  0  0
 31 32  1  0  0  0  0
 33 34  2  0  0  0  0
 34 35  1  0  0  0  0
 36 34  1  0  0  0  0
 36 37  2  0  0  0  0
M  END