
  SciTegic04021211102D

 19 21  0  0  0  0            999 V2000
   -4.7723   -0.2625    0.0000 N   0  0
   -4.7734   -1.0898    0.0000 C   0  0
   -4.0586   -1.5027    0.0000 N   0  0
   -4.0604    0.1503    0.0000 C   0  0
   -3.3450   -0.2588    0.0000 C   0  0
   -3.3448   -1.0853    0.0000 C   0  0
   -2.5587   -1.3404    0.0000 N   0  0
   -2.0730   -0.6716    0.0000 C   0  0
   -2.5591   -0.0033    0.0000 N   0  0
   -4.0629    0.9753    0.0000 N   0  0
   -3.3496    1.3899    0.0000 C   0  0
   -2.6361    0.9772    0.0000 C   0  0
   -1.9233    1.3911    0.0000 C   0  0
   -1.9253    2.2170    0.0000 C   0  0
   -2.6461    2.6272    0.0000 C   0  0
   -3.3559    2.2109    0.0000 C   0  0
   -1.2121    2.6350    0.0000 C   0  0
   -0.4958    2.2256    0.0000 O   0  0
   -1.2156    3.4600    0.0000 O   0  0
  9  5  1  0
  4  1  1  0
  4 10  1  0
  5  6  1  0
 10 11  1  0
 11 12  2  0
  2  3  1  0
 12 13  1  0
  3  6  2  0
 13 14  2  0
  1  2  2  0
 14 15  1  0
  5  4  2  0
 15 16  2  0
 16 11  1  0
  6  7  1  0
  7  8  1  0
  8  9  2  0
 17 18  1  0
 17 19  2  0
 14 17  1  0
M  END