
  SciTegic01061111512D

 25 27  0  0  0  0            999 V2000
   13.3589   -3.4796    0.0000 C   0  0  2  0  0  0
   13.3589   -4.3093    0.0000 C   0  0  1  0  0  0
   14.0677   -4.7156    0.0000 C   0  0  1  0  0  0
   14.7804   -4.3093    0.0000 C   0  0  2  0  0  0
   14.7804   -3.4796    0.0000 C   0  0  1  0  0  0
   14.0677   -3.0650    0.0000 O   0  0
   15.4970   -3.0712    0.0000 S   0  0
   16.2110   -3.4880    0.0000 C   0  0
   15.4953   -4.7208    0.0000 O   0  0
   14.0677   -5.5411    0.0000 N   0  0
   13.4066   -6.0254    0.0000 N   0  0
   13.6604   -6.8104    0.0000 N   0  0
   14.4857   -6.8104    0.0000 C   0  0
   14.7393   -6.0254    0.0000 C   0  0
   12.6441   -4.7208    0.0000 O   0  0
   12.6424   -3.0712    0.0000 C   0  0
   12.6400   -2.2458    0.0000 O   0  0
   14.9726   -7.4749    0.0000 C   0  0
   14.6316   -8.2278    0.0000 C   0  0
   15.1180   -8.8960    0.0000 C   0  0
   15.9395   -8.8104    0.0000 C   0  0
   16.2728   -8.0510    0.0000 C   0  0
   15.7888   -7.3862    0.0000 C   0  0
   16.4233   -9.4781    0.0000 O   0  0
   16.0902  -10.2330    0.0000 C   0  0
 11 12  2  0
 12 13  1  0
 13 14  2  0
 14 10  1  0
  5  7  1  1
  2 15  1  1
  1  2  1  0
  1 16  1  1
  7  8  1  0
 16 17  1  0
  1  6  1  0
 13 18  1  0
  4  9  1  6
 18 19  2  0
  2  3  1  0
 19 20  1  0
  3 10  1  1
 20 21  2  0
 10 11  1  0
 21 22  1  0
  3  4  1  0
 22 23  2  0
 23 18  1  0
  4  5  1  0
 21 24  1  0
  5  6  1  0
 24 25  1  0
M  END