
          11280714522D 1   1.00000     0.00000     0

 54 59  0     0  0            999 V2000
    2.3917   -5.9042    0.0000 N   0  0  3  0  0  0           0  0  0
    3.2125   -7.5917    0.0000 N   0  0  0  0  0  0           0  0  0
    3.5667   -6.8375    0.0000 C   0  0  3  0  0  0           0  0  0
    3.2042   -6.0792    0.0000 C   0  0  0  0  0  0           0  0  0
    2.4000   -7.7792    0.0000 C   0  0  0  0  0  0           0  0  0
    1.7417   -7.2542    0.0000 C   0  0  0  0  0  0           0  0  0
    1.7417   -6.4292    0.0000 C   0  0  0  0  0  0           0  0  0
    4.3917   -6.8292    0.0000 N   0  0  0  0  0  0           0  0  0
    4.8042   -7.5417    0.0000 C   0  0  0  0  0  0           0  0  0
    2.2042   -5.1000    0.0000 C   0  0  0  0  0  0           0  0  0
    2.8125   -4.5375    0.0000 C   0  0  0  0  0  0           0  0  0
    5.6292   -7.5417    0.0000 N   0  0  0  0  0  0           0  0  0
   10.9167   -1.5667    0.0000 N   0  0  3  0  0  0           0  0  0
    3.9792   -3.5000    0.0000 C   0  0  0  0  0  0           0  0  0
    3.7167   -5.4375    0.0000 O   0  0  0  0  0  0           0  0  0
    2.2167   -8.5792    0.0000 C   0  0  0  0  0  0           0  0  0
    4.4000   -8.2625    0.0000 O   0  0  0  0  0  0           0  0  0
    2.6250   -3.7292    0.0000 N   0  0  0  0  0  0           0  0  0
    6.0500   -8.2542    0.0000 C   0  0  0  0  0  0           0  0  0
    3.6000   -4.7792    0.0000 O   0  0  0  0  0  0           0  0  0
    4.0792   -4.3167    0.0000 O   0  0  0  0  0  0           0  0  0
   10.1167   -1.3792    0.0000 C   0  0  0  0  0  0           0  0  0
    9.5500   -1.9792    0.0000 C   0  0  0  0  0  0           0  0  0
    3.2292   -3.1667    0.0000 C   0  0  0  0  0  0           0  0  0
    4.6417   -3.0042    0.0000 N   0  0  0  0  0  0           0  0  0
    5.6375   -8.9667    0.0000 C   0  0  0  0  0  0           0  0  0
    8.7500   -1.7917    0.0000 C   0  0  0  0  0  0           0  0  0
    1.0292   -7.6667    0.0000 C   0  0  0  0  0  0           0  0  0
    8.1792   -2.3875    0.0000 C   0  0  0  0  0  0           0  0  0
    1.0292   -6.0167    0.0000 C   0  0  0  0  0  0           0  0  0
    6.0500   -9.6792    0.0000 C   0  0  0  0  0  0           0  0  0
    6.0167   -2.6042    0.0000 C   0  0  0  0  0  0           0  0  0
    7.3792   -2.2000    0.0000 O   0  0  0  0  0  0           0  0  0
   11.4792   -0.9750    0.0000 C   0  0  0  0  0  0           0  0  0
   11.1417   -2.3542    0.0000 C   0  0  0  0  0  0           0  0  0
    9.2125   -3.3625    0.0000 C   0  0  0  0  0  0           0  0  0
    7.2875   -8.9625    0.0000 C   0  0  0  0  0  0           0  0  0
    5.4417   -3.1917    0.0000 C   0  0  0  0  0  0           0  0  0
    6.8667   -8.2542    0.0000 C   0  0  0  0  0  0           0  0  0
    9.7792   -2.7667    0.0000 C   0  0  0  0  0  0           0  0  0
    1.4292   -8.8250    0.0000 C   0  0  0  0  0  0           0  0  0
    2.8167   -9.1375    0.0000 C   0  0  0  0  0  0           0  0  0
    6.8167   -2.7917    0.0000 C   0  0  0  0  0  0           0  0  0
    8.4125   -3.1667    0.0000 C   0  0  0  0  0  0           0  0  0
    6.8750   -9.6792    0.0000 C   0  0  0  0  0  0           0  0  0
    5.6375  -10.4000    0.0000 C   0  0  0  0  0  0           0  0  0
    0.3167   -7.2542    0.0000 C   0  0  0  0  0  0           0  0  0
    0.3167   -6.4292    0.0000 C   0  0  0  0  0  0           0  0  0
   11.9417   -2.5417    0.0000 C   0  0  0  0  0  0           0  0  0
   12.2792   -1.1625    0.0000 C   0  0  0  0  0  0           0  0  0
    2.6417   -9.9375    0.0000 C   0  0  0  0  0  0           0  0  0
    1.2417   -9.6250    0.0000 C   0  0  0  0  0  0           0  0  0
   12.5167   -1.9500    0.0000 C   0  0  0  0  0  0           0  0  0
    1.8500  -10.1875    0.0000 C   0  0  0  0  0  0           0  0  0
  2  3  1  0     0  0
  3  4  1  0     0  0
  4  1  1  0     0  0
  5  6  1  0     0  0
  6  7  1  0     0  0
  7  1  1  0     0  0
  3  8  1  0     0  0
  9  8  1  0     0  0
 10  1  1  0     0  0
 11 10  1  0     0  0
 12  9  1  0     0  0
 13 22  1  0     0  0
 14 24  1  0     0  0
 15  4  2  0     0  0
 16  5  1  0     0  0
 17  9  2  0     0  0
 18 11  1  0     0  0
 19 12  1  0     0  0
 20 11  2  0     0  0
 21 14  2  0     0  0
 22 23  1  0     0  0
 23 27  2  0     0  0
 24 18  1  0     0  0
 25 14  1  0     0  0
 26 19  2  0     0  0
 27 29  1  0     0  0
 28  6  2  0     0  0
 29 33  1  0     0  0
 30  7  2  0     0  0
 31 26  1  0     0  0
 32 38  1  0     0  0
 33 43  1  0     0  0
 34 13  1  0     0  0
 35 13  1  0     0  0
 36 44  1  0     0  0
 37 39  2  0     0  0
 38 25  1  0     0  0
 39 19  1  0     0  0
 40 36  2  0     0  0
 41 16  2  0     0  0
 42 16  1  0     0  0
 43 32  1  0     0  0
 44 29  2  0     0  0
 45 37  1  0     0  0
 46 31  1  0     0  0
 47 48  2  0     0  0
 48 30  1  0     0  0
 49 35  1  0     0  0
 50 34  1  0     0  0
 51 42  2  0     0  0
 52 41  1  0     0  0
 53 49  1  0     0  0
 54 51  1  0     0  0
  2  5  2  0     0  0
 47 28  1  0     0  0
 54 52  2  0     0  0
 45 31  2  0     0  0
 23 40  1  0     0  0
 53 50  1  0     0  0
M  END