
  SciTegic03291108482D

 16 17  0  0  0  0            999 V2000
   -0.2219   -1.4272    0.0000 O   0  0
    2.2466   -2.0377    0.0000 O   0  0
   -0.4519    0.0248    0.0000 N   0  0
    0.8176   -2.0377    0.0000 N   0  0
    0.8176   -0.3877    0.0000 C   0  0
    0.8176    0.4373    0.0000 C   0  0
    0.0330   -0.6426    0.0000 C   0  0
    1.5321   -0.8002    0.0000 C   0  0
    0.0330    0.6923    0.0000 C   0  0
    1.5321    0.8498    0.0000 C   0  0
    1.5321   -1.6252    0.0000 C   0  0
    2.2466   -0.3877    0.0000 C   0  0
    2.2466    0.4373    0.0000 C   0  0
   -1.2769    0.0248    0.0000 C   0  0
   -1.6894    0.7393    0.0000 C   0  0
   -2.5144    0.7393    0.0000 C   0  0
  1  7  2  0
  2 11  2  0
  3  7  1  0
  3  9  1  0
  3 14  1  0
  4 11  1  0
  5  6  1  0
  5  7  1  0
  5  8  2  0
  6  9  1  0
  6 10  2  0
  8 11  1  0
  8 12  1  0
 10 13  1  0
 12 13  2  0
 14 15  1  0
 15 16  1  0
M  END