
  SciTegic01161211242D

 42 43  0  0  0  0            999 V2000
   14.1207    0.9062    0.0000 C   0  0  1  0  0  0
   14.1207    0.0770    0.0000 C   0  0  2  0  0  0
   14.8329   -0.3333    0.0000 C   0  0  2  0  0  0
   15.5492    0.0770    0.0000 C   0  0
   15.5492    0.9062    0.0000 C   0  0  2  0  0  0
   14.8329    1.3250    0.0000 O   0  0
   16.2614    0.4895    0.0000 O   0  0
   15.9547    1.6212    0.0000 C   0  0
   16.7838    1.6326    0.0000 O   0  0
   15.5366    2.3355    0.0000 O   0  5
   13.4031    1.3155    0.0000 C   0  0  2  0  0  0
   12.6849    0.8998    0.0000 C   0  0  2  0  0  0
   11.2573    0.0631    0.0000 C   0  0
   10.5391   -0.3526    0.0000 C   0  0
   11.2536    0.8923    0.0000 O   0  0
    9.8265    0.0624    0.0000 C   0  0
    9.1090   -0.3522    0.0000 C   0  0
    9.1120   -1.1827    0.0000 C   0  0
    9.8373   -1.5918    0.0000 C   0  0
   10.5461   -1.1736    0.0000 C   0  0
   12.6848    0.0739    0.0000 C   0  0
   13.4076   -1.1597    0.0000 C   0  0
   14.0994    1.7308    0.0000 H   0  0
   16.2567   -0.3355    0.0000 C   0  0
   16.9687   -0.7521    0.0000 C   0  0
   16.9594   -1.5758    0.0000 C   0  0
   17.6707   -1.9924    0.0000 C   0  0
   17.6788   -0.3419    0.0000 C   0  0
    8.4004   -1.6001    0.0000 Cl  0  0
   18.3906   -0.7547    0.0000 C   0  0
   18.3852   -1.5813    0.0000 C   0  0
   17.6795    0.4831    0.0000 F   0  0
   19.1068   -0.3452    0.0000 F   0  0
   12.6941   -1.5738    0.0000 C   0  0
   14.1230   -1.5707    0.0000 O   0  0
   12.6959   -2.3988    0.0000 F   0  0
   18.9042    2.0000    0.0000 Na  0  3
   13.4036    2.1471    0.0000 O   0  0
   11.9710    1.3155    0.0000 O   0  0
   11.9742   -0.3452    0.0000 N   0  0
   14.8371   -1.1559    0.0000 O   0  0
   13.4058   -0.3347    0.0000 N   0  0
 13 14  1  0
 13 15  2  0
 14 16  2  0
 16 17  1  0
 17 18  2  0
 18 19  1  0
 19 20  2  0
 20 14  1  0
  1 23  1  1
  7 24  1  0
 24 25  1  0
  1  2  1  0
 25 26  2  0
  1  6  1  0
 26 27  1  0
 27 31  2  0
  2  3  1  0
 30 28  2  0
 28 25  1  0
  3  4  1  0
 18 29  1  0
  4  5  1  0
  5  6  1  0
 30 31  1  0
  5  7  1  0
 28 32  1  0
  5  8  1  1
 30 33  1  0
  8  9  2  0
 22 34  1  0
  8 10  1  0
 22 35  2  0
  1 11  1  0
 34 36  1  0
 11 12  1  0
 12 21  1  0
 12 39  1  1
 21 40  1  0
 40 13  1  0
 11 38  1  6
  3 41  1  6
  2 42  1  1
 42 22  1  0
M  CHG  2  10  -1  37   1
M  END