
  Mrv0541 04051115152D          

 14 15  0  0  0  0            999 V2000
    3.6655   10.5090    0.0000 O   0  0  0  0  0  0  0  0  0  0  0  0
    2.9510   10.0965    0.0000 C   0  0  0  0  0  0  0  0  0  0  0  0
    2.2365   10.5090    0.0000 O   0  0  0  0  0  0  0  0  0  0  0  0
    2.9510    9.2715    0.0000 C   0  0  0  0  0  0  0  0  0  0  0  0
    3.6184    8.7866    0.0000 C   0  0  0  0  0  0  0  0  0  0  0  0
    3.3635    8.0019    0.0000 N   0  0  0  0  0  0  0  0  0  0  0  0
    2.5385    8.0019    0.0000 N   0  0  0  0  0  0  0  0  0  0  0  0
    2.2836    8.7866    0.0000 C   0  0  0  0  0  0  0  0  0  0  0  0
    2.0536    7.3345    0.0000 C   0  0  0  0  0  0  0  0  0  0  0  0
    1.2331    7.4207    0.0000 C   0  0  0  0  0  0  0  0  0  0  0  0
    0.7482    6.7533    0.0000 C   0  0  0  0  0  0  0  0  0  0  0  0
    1.0837    5.9996    0.0000 C   0  0  0  0  0  0  0  0  0  0  0  0
    1.9042    5.9134    0.0000 C   0  0  0  0  0  0  0  0  0  0  0  0
    2.3891    6.5808    0.0000 C   0  0  0  0  0  0  0  0  0  0  0  0
  2  1  1  0  0  0  0
  2  3  2  0  0  0  0
  2  4  1  0  0  0  0
  4  5  1  0  0  0  0
  4  8  2  0  0  0  0
  5  6  2  0  0  0  0
  6  7  1  0  0  0  0
  8  7  1  0  0  0  0
  9  7  1  0  0  0  0
 10  9  1  0  0  0  0
 14  9  2  0  0  0  0
 10 11  2  0  0  0  0
 11 12  1  0  0  0  0
 12 13  2  0  0  0  0
 13 14  1  0  0  0  0
M  END