
  CDK    6/4/10,11:41

 33 35  0  0  0  0  0  0  0  0999 V2000
   -1.7181   -9.7333    0.0000 C   0  0  0  0  0  0  0  0  0  0  0  0
   -1.7193  -10.5607    0.0000 C   0  0  0  0  0  0  0  0  0  0  0  0
   -1.0044  -10.9735    0.0000 C   0  0  0  0  0  0  0  0  0  0  0  0
   -0.2880  -10.5602    0.0000 C   0  0  0  0  0  0  0  0  0  0  0  0
   -0.2909   -9.7297    0.0000 C   0  0  0  0  0  0  0  0  0  0  0  0
   -1.0062   -9.3205    0.0000 C   0  0  0  0  0  0  0  0  0  0  0  0
   -1.0087   -8.4955    0.0000 C   0  0  0  0  0  0  0  0  0  0  0  0
   -0.2955   -8.0809    0.0000 C   0  0  0  0  0  0  0  0  0  0  0  0
    0.4181   -8.4937    0.0000 C   0  0  0  0  0  0  0  0  0  0  0  0
    1.1308   -8.0797    0.0000 C   0  0  0  0  0  0  0  0  0  0  0  0
    1.1288   -7.2538    0.0000 C   0  0  0  0  0  0  0  0  0  0  0  0
    0.4081   -6.8437    0.0000 C   0  0  0  0  0  0  0  0  0  0  0  0
   -0.3017   -7.2600    0.0000 C   0  0  0  0  0  0  0  0  0  0  0  0
   -1.7283   -8.0872    0.0000 N   0  0  0  0  0  0  0  0  0  0  0  0
   -1.7288   -7.2612    0.0000 C   0  0  0  0  0  0  0  0  0  0  0  0
   -2.4404   -6.8509    0.0000 C   0  0  0  0  0  0  0  0  0  0  0  0
   -3.1561   -7.2620    0.0000 N   0  0  0  0  0  0  0  0  0  0  0  0
   -3.1556   -8.0880    0.0000 C   0  0  0  0  0  0  0  0  0  0  0  0
   -2.4394   -8.5029    0.0000 C   0  0  0  0  0  0  0  0  0  0  0  0
    0.4271  -10.9716    0.0000 O   0  0  0  0  0  0  0  0  0  0  0  0
    0.4284  -11.7966    0.0000 C   0  0  0  0  0  0  0  0  0  0  0  0
    1.8415   -6.8383    0.0000 C   0  0  0  0  0  0  0  0  0  0  0  0
    2.5578   -7.2477    0.0000 N   0  0  0  0  0  0  0  0  0  0  0  0
    1.8380   -6.0133    0.0000 O   0  0  0  0  0  0  0  0  0  0  0  0
    2.5613   -8.0727    0.0000 C   0  0  0  0  0  0  0  0  0  0  0  0
    3.2776   -8.4821    0.0000 C   0  0  0  0  0  0  0  0  0  0  0  0
    3.2704   -6.8321    0.0000 C   0  0  0  0  0  0  0  0  0  0  0  0
    3.2669   -6.0071    0.0000 C   0  0  0  0  0  0  0  0  0  0  0  0
   -2.4397   -6.0259    0.0000 C   0  0  0  0  0  0  0  0  0  0  0  0
   -2.4378   -9.3279    0.0000 C   0  0  0  0  0  0  0  0  0  0  0  0
   -3.8702   -6.8490    0.0000 C   0  0  0  0  0  0  0  0  0  0  0  0
   -3.8696   -6.0240    0.0000 C   0  0  0  0  0  0  0  0  0  0  0  0
   -4.5837   -5.6109    0.0000 C   0  0  0  0  0  0  0  0  0  0  0  0
  8  9  2  0  0  0  0 
 14 19  1  0  0  0  0 
 15 16  1  0  0  0  0 
 16 17  1  0  0  0  0 
 17 18  1  0  0  0  0 
 18 19  1  0  0  0  0 
  7 14  1  6  0  0  0 
  4  5  1  0  0  0  0 
  4 20  1  0  0  0  0 
  9 10  1  0  0  0  0 
 20 21  1  0  0  0  0 
  2  3  1  0  0  0  0 
 11 22  1  0  0  0  0 
 10 11  2  0  0  0  0 
 22 23  1  0  0  0  0 
  5  6  2  0  0  0  0 
 22 24  2  0  0  0  0 
 11 12  1  0  0  0  0 
 23 25  1  0  0  0  0 
  6  1  1  0  0  0  0 
 25 26  1  0  0  0  0 
 12 13  2  0  0  0  0 
 23 27  1  0  0  0  0 
 13  8  1  0  0  0  0 
 27 28  1  0  0  0  0 
 14 15  1  0  0  0  0 
 16 29  1  6  0  0  0 
  1  2  2  0  0  0  0 
 19 30  1  1  0  0  0 
  6  7  1  0  0  0  0 
 17 31  1  0  0  0  0 
  3  4  2  0  0  0  0 
 31 32  1  0  0  0  0 
  7  8  1  0  0  0  0 
 32 33  2  0  0  0  0 
M  END