
          03140815512D 1   1.00000     0.00000     0

 26 27  0     1  0            999 V2000
   10.5120  -11.6809    0.0000 C   0  0  0  0  0  0           0  0  0
   10.5003  -12.5088    0.0000 C   0  0  0  0  0  0           0  0  0
   11.2096  -12.9308    0.0000 N   0  0  0  0  0  0           0  0  0
   11.9305  -12.5289    0.0000 C   0  0  0  0  0  0           0  0  0
   11.9422  -11.7010    0.0000 C   0  0  0  0  0  0           0  0  0
   11.2330  -11.2749    0.0000 N   0  0  0  0  0  0           0  0  0
    9.7990  -11.2610    0.0000 C   0  0  0  0  0  0           0  0  0
   12.6416  -12.9561    0.0000 O   0  0  0  0  0  0           0  0  0
    9.7814  -12.9110    0.0000 C   0  0  0  0  0  0           0  0  0
   12.6548  -11.2902    0.0000 C   0  0  0  0  0  0           0  0  0
   13.3711  -11.7042    0.0000 C   0  0  0  0  0  0           0  0  0
   14.0900  -11.2944    0.0000 N   0  0  0  0  0  0           0  0  0
   14.8012  -11.7101    0.0000 C   0  0  0  0  0  0           0  0  0
   15.5173  -10.4767    0.0000 N   0  0  0  0  0  0           0  0  0
   15.5132  -11.3005    0.0000 C   0  0  1  0  0  0           0  0  0
   16.2261  -11.7159    0.0000 C   0  0  0  0  0  0           0  0  0
   16.9388  -11.3075    0.0000 C   0  0  0  0  0  0           0  0  0
   16.9428  -10.4837    0.0000 C   0  0  0  0  0  0           0  0  0
   17.6596  -10.0753    0.0000 C   0  0  0  0  0  0           0  0  0
   18.3725  -10.4907    0.0000 C   0  0  0  0  0  0           0  0  0
   19.0893  -10.0823    0.0000 O   0  0  0  0  0  0           0  0  0
   18.3684  -11.3146    0.0000 C   0  0  0  0  0  0           0  0  0
   17.6515  -11.7229    0.0000 C   0  0  0  0  0  0           0  0  0
   14.7965  -12.5327    0.0000 O   0  0  0  0  0  0           0  0  0
   17.6475  -12.5467    0.0000 C   0  0  0  0  0  0           0  0  0
   16.2342  -10.0683    0.0000 C   0  0  0  0  0  0           0  0  0
 12 13  1  0     0  0
  1  7  1  0     0  0
  1  2  2  0     0  0
  4  8  2  0     0  0
  1  6  1  0     0  0
  2  9  1  0     0  0
  2  3  1  0     0  0
  5 10  1  0     0  0
  3  4  1  0     0  0
 10 11  1  0     0  0
  4  5  1  0     0  0
 11 12  1  0     0  0
  5  6  2  0     0  0
 15 14  1  1     0  0
 13 15  1  0     0  0
 15 16  1  0     0  0
 16 17  1  0     0  0
 17 18  2  0     0  0
 18 19  1  0     0  0
 19 20  2  0     0  0
 20 21  1  0     0  0
 20 22  1  0     0  0
 22 23  2  0     0  0
 17 23  1  0     0  0
 13 24  2  0     0  0
 23 25  1  0     0  0
 18 26  1  0     0  0
M  END