
          11280715422D 1   1.00000     0.00000     0

 36 40  0     0  0            999 V2000
   -1.4333    1.2708    0.0000 N   0  0  3  0  0  0           0  0  0
   -1.0708    1.7583    0.0000 C   0  0  0  0  0  0           0  0  0
   -1.4333    2.2500    0.0000 C   0  0  0  0  0  0           0  0  0
   -2.0083    2.0583    0.0000 C   0  0  0  0  0  0           0  0  0
   -2.0083    1.4583    0.0000 C   0  0  0  0  0  0           0  0  0
   -0.4708    1.8208    0.0000 C   0  0  3  0  0  0           0  0  0
   -1.2750    0.6875    0.0000 C   0  0  0  0  0  0           0  0  0
   -2.5250    1.1583    0.0000 C   0  0  0  0  0  0           0  0  0
    0.4250    1.3083    0.0000 C   0  0  0  0  0  0           0  0  0
   -2.5250    2.3583    0.0000 C   0  0  0  0  0  0           0  0  0
   -0.1750    1.3083    0.0000 C   0  0  0  0  0  0           0  0  0
    0.3875   -3.3125    0.0000 N   0  0  0  0  0  0           0  0  0
   -1.7083    0.2708    0.0000 C   0  0  0  0  0  0           0  0  0
    0.7292    1.8208    0.0000 O   0  0  0  0  0  0           0  0  0
   -1.1875    2.8083    0.0000 C   0  0  0  0  0  0           0  0  0
   -3.0458    2.0583    0.0000 C   0  0  0  0  0  0           0  0  0
   -3.0458    1.4583    0.0000 C   0  0  0  0  0  0           0  0  0
   -1.7083   -0.3292    0.0000 C   0  0  0  0  0  0           0  0  0
    0.7167    0.7833    0.0000 O   0  0  0  0  0  0           0  0  0
   -2.2208   -0.6292    0.0000 C   0  0  0  0  0  0           0  0  0
   -3.5625    2.3583    0.0000 F   0  0  0  0  0  0           0  0  0
   -0.2250    2.3750    0.0000 C   0  0  0  0  0  0           0  0  0
   -2.2208   -1.2292    0.0000 O   0  0  0  0  0  0           0  0  0
   -0.6500   -3.3167    0.0000 C   0  0  0  0  0  0           0  0  0
   -0.5833    2.8708    0.0000 C   0  0  0  0  0  0           0  0  0
   -0.1333   -3.0167    0.0000 C   0  0  0  0  0  0           0  0  0
   -2.7458    0.2708    0.0000 C   0  0  0  0  0  0           0  0  0
    0.3917   -3.9167    0.0000 C   0  0  0  0  0  0           0  0  0
   -2.2250    0.5708    0.0000 C   0  0  0  0  0  0           0  0  0
   -2.7458   -0.3292    0.0000 C   0  0  0  0  0  0           0  0  0
   -1.1708   -3.0250    0.0000 C   0  0  0  0  0  0           0  0  0
   -1.6958   -1.5250    0.0000 C   0  0  0  0  0  0           0  0  0
   -0.6458   -3.9167    0.0000 C   0  0  0  0  0  0           0  0  0
   -1.1708   -2.4250    0.0000 C   0  0  0  0  0  0           0  0  0
   -1.6958   -2.1250    0.0000 C   0  0  0  0  0  0           0  0  0
   -0.1250   -4.2167    0.0000 C   0  0  0  0  0  0           0  0  0
  2  1  1  0     0  0
  3  2  2  0     0  0
  4  5  1  0     0  0
  5  1  1  0     0  0
  6  2  1  0     0  0
  7  1  1  0     0  0
  8  5  2  0     0  0
  9 11  1  0     0  0
 10  4  2  0     0  0
 11  6  1  0     0  0
 12 26  2  0     0  0
 13  7  1  0     0  0
 14  9  2  0     0  0
 15  3  1  0     0  0
 16 17  2  0     0  0
 17  8  1  0     0  0
 18 13  1  0     0  0
 19  9  1  0     0  0
 20 18  2  0     0  0
 21 16  1  0     0  0
 22  6  1  0     0  0
 23 20  1  0     0  0
 24 31  1  0     0  0
 25 22  1  0     0  0
 26 24  1  0     0  0
 27 29  1  0     0  0
 28 36  2  0     0  0
 29 13  2  0     0  0
 30 27  2  0     0  0
 31 34  1  0     0  0
 32 23  1  0     0  0
 33 24  2  0     0  0
 34 35  1  0     0  0
 35 32  1  0     0  0
 36 33  1  0     0  0
  4  3  1  0     0  0
 16 10  1  0     0  0
 25 15  1  0     0  0
 20 30  1  0     0  0
 28 12  1  0     0  0
M  END