
  SciTegic01161211252D

 26 29  0  0  0  0            999 V2000
   -3.4470   -6.0510    0.0000 C   0  0
   -0.8476   -6.6018    0.0000 N   0  0
   -0.1330   -7.0158    0.0000 C   0  0
   -0.1342   -7.8416    0.0000 O   0  0
    0.5826   -6.6039    0.0000 C   0  0
    1.2956   -7.0187    0.0000 C   0  0
    2.0107   -6.6075    0.0000 N   0  0
    2.0124   -5.7810    0.0000 C   0  0
    1.2929   -5.3672    0.0000 C   0  0
    0.5805   -5.7807    0.0000 C   0  0
    2.7276   -5.3682    0.0000 O   0  0
    3.4426   -5.7811    0.0000 C   0  0
    3.4377   -6.6071    0.0000 C   0  0
    4.1520   -7.0200    0.0000 C   0  0
    4.8682   -6.6071    0.0000 C   0  0
    4.8656   -5.7771    0.0000 C   0  0
    4.1508   -5.3680    0.0000 C   0  0
   -1.5311   -7.0652    0.0000 C   0  0
   -2.3222   -6.8217    0.0000 C   0  0
   -0.7887   -5.7786    0.0000 C   0  0
   -2.6269   -6.0556    0.0000 N   0  0
   -1.3956   -5.2165    0.0000 C   0  0
   -2.2126   -5.3427    0.0000 C   0  0
   -4.0236   -5.4679    0.0000 C   0  0
   -4.6067   -6.0445    0.0000 C   0  0
   -4.0301   -6.6277    0.0000 C   0  0
  2  3  1  0
 13 14  1  0
  7  8  2  0
 14 15  2  0
  3  5  1  0
 15 16  1  0
  8  9  1  0
 16 17  2  0
 17 12  1  0
  2 18  1  0
  9 10  2  0
 18 19  1  0
 10  5  1  0
  2 20  1  0
  5  6  2  0
 19 21  1  0
  8 11  1  0
 20 22  1  0
  3  4  2  0
 21 23  1  0
 22 23  1  0
 21  1  1  0
  1 24  1  0
 11 12  1  0
  6  7  1  0
 12 13  2  0
 24 25  1  0
 25 26  1  0
 26  1  1  0
M  END