
  CDK    9/16/09,9:48

 46 49  0  0  0  0  0  0  0  0999 V2000
   12.6547  -24.3282    0.0000 C   0  0  0  0  0  0  0  0  0  0  0  0
   12.6438  -22.6855    0.0000 C   0  0  0  0  0  0  0  0  0  0  0  0
   11.9330  -23.1061    0.0000 C   0  0  0  0  0  0  0  0  0  0  0  0
   11.9424  -23.9256    0.0000 C   0  0  0  0  0  0  0  0  0  0  0  0
   13.3591  -23.0918    0.0000 C   0  0  0  0  0  0  0  0  0  0  0  0
   13.3683  -23.9151    0.0000 C   0  0  0  0  0  0  0  0  0  0  0  0
   14.0820  -24.3166    0.0000 C   0  0  0  0  0  0  0  0  0  0  0  0
   14.7911  -23.8992    0.0000 C   0  0  0  0  0  0  0  0  0  0  0  0
   14.7818  -23.0758    0.0000 C   0  0  0  0  0  0  0  0  0  0  0  0
   14.0635  -22.6699    0.0000 N   0  0  0  0  0  0  0  0  0  0  0  0
   14.0531  -21.8442    0.0000 C   0  0  0  0  0  0  0  0  0  0  0  0
   14.7631  -21.4223    0.0000 O   0  0  0  0  0  0  0  0  0  0  0  0
   15.4927  -22.6557    0.0000 C   0  0  0  0  0  0  0  0  0  0  0  0
   16.2120  -23.0613    0.0000 C   0  0  0  0  0  0  0  0  0  0  0  0
   15.5101  -24.3050    0.0000 O   0  0  0  0  0  0  0  0  0  0  0  0
   16.2204  -23.8871    0.0000 O   0  0  0  0  0  0  0  0  0  0  0  0
   16.9230  -22.6411    0.0000 O   0  0  0  0  0  0  0  0  0  0  0  0
   14.0900  -25.1423    0.0000 N   0  0  0  0  0  0  0  0  0  0  0  0
   13.3790  -25.5622    0.0000 C   0  0  0  0  0  0  0  0  0  0  0  0
   12.6598  -25.1563    0.0000 O   0  0  0  0  0  0  0  0  0  0  0  0
   11.2316  -24.3457    0.0000 O   0  0  0  0  0  0  0  0  0  0  0  0
   10.5121  -23.9402    0.0000 C   0  0  0  0  0  0  0  0  0  0  0  0
    9.8013  -24.3605    0.0000 O   0  0  0  0  0  0  0  0  0  0  0  0
    9.0820  -23.9549    0.0000 C   0  0  0  0  0  0  0  0  0  0  0  0
    8.3711  -24.3751    0.0000 C   0  0  0  0  0  0  0  0  0  0  0  0
    7.6518  -23.9696    0.0000 O   0  0  0  0  0  0  0  0  0  0  0  0
    6.9410  -24.3898    0.0000 C   0  0  0  0  0  0  0  0  0  0  0  0
   13.3329  -21.4404    0.0000 O   0  0  0  0  0  0  0  0  0  0  0  0
   12.6230  -21.8622    0.0000 C   0  0  0  0  0  0  0  0  0  0  0  0
   11.9027  -21.4583    0.0000 C   0  0  0  0  0  0  0  0  0  0  0  0
   11.8924  -20.6325    0.0000 Si  0  0  0  0  0  0  0  0  0  0  0  0
   11.8864  -19.8047    0.0000 C   0  0  0  0  0  0  0  0  0  0  0  0
   11.0666  -20.6407    0.0000 C   0  0  0  0  0  0  0  0  0  0  0  0
   12.7180  -20.6267    0.0000 C   0  0  0  0  0  0  0  0  0  0  0  0
   13.3861  -26.3863    0.0000 C   0  0  0  0  0  0  0  0  0  0  0  0
   12.6735  -26.8055    0.0000 C   0  0  0  0  0  0  0  0  0  0  0  0
   14.1143  -27.6129    0.0000 C   0  0  0  0  0  0  0  0  0  0  0  0
   14.1030  -26.7894    0.0000 C   0  0  0  0  0  0  0  0  0  0  0  0
   13.4009  -28.0373    0.0000 C   0  0  0  0  0  0  0  0  0  0  0  0
   12.6841  -27.6280    0.0000 C   0  0  0  0  0  0  0  0  0  0  0  0
   13.4100  -28.8616    0.0000 C   0  0  0  0  0  0  0  0  0  0  0  0
   12.6970  -29.2803    0.0000 C   0  0  0  0  0  0  0  0  0  0  0  0
   12.7041  -30.1052    0.0000 C   0  0  0  0  0  0  0  0  0  0  0  0
   13.4234  -30.5125    0.0000 C   0  0  0  0  0  0  0  0  0  0  0  0
   14.1372  -30.0888    0.0000 C   0  0  0  0  0  0  0  0  0  0  0  0
   14.1266  -29.2652    0.0000 C   0  0  0  0  0  0  0  0  0  0  0  0
  5  6  1  0  0  0  0 
 22 23  1  0  0  0  0 
 10 11  1  0  0  0  0 
 23 24  1  0  0  0  0 
  5  2  2  0  0  0  0 
 24 25  1  0  0  0  0 
 11 12  2  0  0  0  0 
 25 26  1  0  0  0  0 
  1  6  2  0  0  0  0 
 26 27  1  0  0  0  0 
  9 13  1  1  0  0  0 
 11 28  1  0  0  0  0 
  2  3  1  0  0  0  0 
 28 29  1  0  0  0  0 
 13 14  1  0  0  0  0 
 29 30  1  0  0  0  0 
 30 31  1  0  0  0  0 
  8 15  1  6  0  0  0 
 31 32  1  0  0  0  0 
  3  4  2  0  0  0  0 
 31 33  1  0  0  0  0 
 14 16  2  0  0  0  0 
 31 34  1  0  0  0  0 
  4  1  1  0  0  0  0 
 14 17  1  0  0  0  0 
 35 36  2  0  0  0  0 
 36 40  1  0  0  0  0 
  5 10  1  0  0  0  0 
 39 37  1  0  0  0  0 
  7 18  1  1  0  0  0 
 37 38  2  0  0  0  0 
 38 35  1  0  0  0  0 
 19 35  1  0  0  0  0 
  6  7  1  0  0  0  0 
 18 19  1  0  0  0  0 
 39 40  2  0  0  0  0 
  7  8  1  0  0  0  0 
 19 20  2  0  0  0  0 
 41 42  2  0  0  0  0 
  8  9  1  0  0  0  0 
 42 43  1  0  0  0  0 
  4 21  1  0  0  0  0 
 43 44  2  0  0  0  0 
  9 10  1  0  0  0  0 
 44 45  1  0  0  0  0 
 21 22  1  0  0  0  0 
 45 46  2  0  0  0  0 
 46 41  1  0  0  0  0 
 39 41  1  0  0  0  0 
M  END