
          05080814032D 1   1.00000     0.00000     0

 34 38  0     0  0            999 V2000
   12.0319   -5.6625    0.0000 C   0  0  0  0  0  0           0  0  0
   12.0307   -6.4898    0.0000 C   0  0  0  0  0  0           0  0  0
   12.7456   -6.9027    0.0000 C   0  0  0  0  0  0           0  0  0
   12.7438   -5.2497    0.0000 C   0  0  0  0  0  0           0  0  0
   13.4591   -5.6588    0.0000 C   0  0  0  0  0  0           0  0  0
   13.4594   -6.4853    0.0000 C   0  0  0  0  0  0           0  0  0
   14.2455   -6.7404    0.0000 N   0  0  3  0  0  0           0  0  0
   14.7311   -6.0716    0.0000 C   0  0  0  0  0  0           0  0  0
   14.2451   -5.4033    0.0000 N   0  0  0  0  0  0           0  0  0
   12.7474   -7.7299    0.0000 C   0  0  0  0  0  0           0  0  0
   12.0340   -8.1443    0.0000 O   0  0  0  0  0  0           0  0  0
   13.4630   -8.1405    0.0000 O   0  0  0  0  0  0           0  0  0
   14.5007   -7.5250    0.0000 C   0  0  0  0  0  0           0  0  0
   15.3077   -7.6963    0.0000 C   0  0  0  0  0  0           0  0  0
   15.5610   -8.4821    0.0000 C   0  0  0  0  0  0           0  0  0
   16.3672   -8.6536    0.0000 C   0  0  0  0  0  0           0  0  0
   16.9200   -8.0400    0.0000 C   0  0  0  0  0  0           0  0  0
   16.6610   -7.2522    0.0000 C   0  0  0  0  0  0           0  0  0
   15.8554   -7.0844    0.0000 C   0  0  0  0  0  0           0  0  0
   17.7272   -8.2102    0.0000 N   0  0  3  0  0  0           0  0  0
   18.0648   -8.9602    0.0000 C   0  0  0  0  0  0           0  0  0
   18.8852   -8.8726    0.0000 C   0  0  0  0  0  0           0  0  0
   19.0554   -8.0653    0.0000 C   0  0  0  0  0  0           0  0  0
   18.3403   -7.6541    0.0000 C   0  0  0  0  0  0           0  0  0
   18.2530   -6.8382    0.0000 C   0  0  0  0  0  0           0  0  0
   18.8646   -6.2845    0.0000 N   0  0  0  0  0  0           0  0  0
   18.5269   -5.5317    0.0000 N   0  0  0  0  0  0           0  0  0
   17.7066   -5.6202    0.0000 N   0  0  0  0  0  0           0  0  0
   17.5374   -6.4276    0.0000 N   0  0  0  0  0  0           0  0  0
   12.0362   -8.9693    0.0000 C   0  0  0  0  0  0           0  0  0
   15.5561   -6.0713    0.0000 C   0  0  0  0  0  0           0  0  0
   15.9684   -5.3567    0.0000 C   0  0  0  0  0  0           0  0  0
   15.5556   -4.6424    0.0000 C   0  0  0  0  0  0           0  0  0
   12.7518   -9.3799    0.0000 C   0  0  0  0  0  0           0  0  0
  6  7  1  0     0  0
 16 17  2  0     0  0
  7  8  1  0     0  0
 17 18  1  0     0  0
  8  9  2  0     0  0
 18 19  2  0     0  0
 19 14  1  0     0  0
  9  5  1  0     0  0
 17 20  1  0     0  0
 20 21  1  0     0  0
  4  1  1  0     0  0
  5  6  1  0     0  0
 10 11  1  0     0  0
 21 22  2  0     0  0
 22 23  1  0     0  0
 23 24  2  0     0  0
 24 20  1  0     0  0
 25 26  1  0     0  0
 10 12  2  0     0  0
  3 10  1  0     0  0
  2  3  1  0     0  0
  7 13  1  0     0  0
  3  6  2  0     0  0
 26 27  1  0     0  0
 27 28  2  0     0  0
 28 29  1  0     0  0
 29 25  2  0     0  0
 24 25  1  0     0  0
 13 14  1  0     0  0
 11 30  1  0     0  0
  1  2  2  0     0  0
  8 31  1  0     0  0
 14 15  2  0     0  0
 31 32  1  0     0  0
  5  4  2  0     0  0
 32 33  1  0     0  0
 15 16  1  0     0  0
 30 34  1  0     0  0
M  END