
  SciTegic01161211232D

 39 44  0  0  0  0            999 V2000
   12.5929    0.9500    0.0000 C   0  0
   12.4853    1.7703    0.0000 C   0  0
   11.7224    2.0856    0.0000 C   0  0
   11.0665    1.5817    0.0000 C   0  0
   11.9415    0.4472    0.0000 C   0  0
   11.1767    0.7639    0.0000 C   0  0
   11.8770   -0.3778    0.0000 C   0  0
   11.0717   -0.5714    0.0000 C   0  0
   10.6422    0.1361    0.0000 C   0  0
    9.8167    0.1170    0.0000 C   0  0
    9.4196   -0.6089    0.0000 C   0  0
    9.8541   -1.3171    0.0000 C   0  0
   10.6782   -1.2944    0.0000 C   0  0
   12.5793   -0.8106    0.0000 C   0  0
   12.5557   -1.6352    0.0000 C   0  0
   13.2580   -2.0680    0.0000 N   0  0
   13.2344   -2.8927    0.0000 C   0  0
   13.9840   -1.6762    0.0000 C   0  0
   14.6864   -2.1090    0.0000 C   0  0
   15.4124   -1.7172    0.0000 C   0  0
   16.1147   -2.1500    0.0000 N   0  0
   15.4360   -0.8925    0.0000 O   0  0
   16.0868   -2.9709    0.0000 C   0  0
   16.7850   -3.4035    0.0000 C   0  0
   17.5133   -3.0153    0.0000 N   0  0
   17.5390   -2.1897    0.0000 C   0  0
   16.8363   -1.7524    0.0000 C   0  0
   18.2111   -3.4499    0.0000 C   0  0
   18.1829   -4.2755    0.0000 C   0  0
   18.8828   -4.7109    0.0000 C   0  0
   19.6113   -4.3217    0.0000 C   0  0
   19.6355   -3.4928    0.0000 C   0  0
   18.9350   -3.0612    0.0000 C   0  0
   20.3137   -4.7583    0.0000 N   0  3
   21.0407   -4.3682    0.0000 O   0  0
   20.2881   -5.5829    0.0000 O   0  5
   12.5084   -3.2846    0.0000 C   0  0
   11.6837   -3.2622    0.0000 C   0  0
   12.0756   -3.9882    0.0000 C   0  0
  4  6  1  0
 18 19  1  0
  8  9  2  0
 19 20  1  0
  5  1  1  0
 20 21  1  0
  9 10  1  0
 20 22  2  0
 21 23  1  0
  5  6  2  0
 10 11  2  0
 11 12  1  0
  2  3  1  0
 21 27  1  0
 23 24  1  0
 24 25  1  0
 25 26  1  0
 26 27  1  0
 12 13  2  0
 13  8  1  0
 28 29  2  0
  1  2  2  0
 29 30  1  0
  7 14  1  0
 30 31  2  0
  6  9  1  0
 31 32  1  0
 14 15  1  0
 32 33  2  0
 33 28  1  0
 25 28  1  0
  8  7  1  0
 15 16  1  0
  7  5  1  0
 34 35  2  0
 34 36  1  0
 31 34  1  0
 16 17  1  0
 17 37  1  0
 38 37  1  0
 39 38  1  0
 37 39  1  0
  3  4  2  0
 16 18  1  0
M  CHG  2  34   1  36  -1
M  END