
  SciTegic04201609482D

 28 30  0  0  0  0            999 V2000
    1.2990   -0.7500    0.0000 C   0  0
    1.2990    0.7500    0.0000 C   0  0
    0.0000    1.5000    0.0000 C   0  0
   -1.2990    0.7500    0.0000 C   0  0
   -1.2990   -0.7500    0.0000 C   0  0
    0.0000   -1.5000    0.0000 C   0  0
   -2.6003    1.4977    0.0000 C   0  0
   -3.8990    0.7455    0.0000 C   0  0  1  0  0  0
   -5.2003    1.4932    0.0000 C   0  0
   -3.8969   -0.4545    0.0000 N   0  0
   -5.2024    2.6932    0.0000 O   0  0
   -6.4990    0.7409    0.0000 N   0  0
   -7.8525    1.3572    0.0000 C   0  0  1  0  0  0
   -8.8524    0.2390    0.0000 C   0  0
   -8.0978   -1.0574    0.0000 C   0  0
   -6.6317   -0.7404    0.0000 C   0  0
   -8.1548    2.8246    0.0000 C   0  0
   -9.2939    3.2023    0.0000 O   0  0
   -7.0338    3.8225    0.0000 N   0  0
   -7.3366    5.2925    0.0000 C   0  0
   -6.2156    6.2904    0.0000 C   0  0
   -6.5161    7.7600    0.0000 C   0  0
   -5.3936    8.7551    0.0000 C   0  0
   -3.9707    8.2806    0.0000 C   0  0
   -3.6701    6.8110    0.0000 C   0  0
   -4.7925    5.8159    0.0000 C   0  0
   -7.6544    8.1397    0.0000 Cl  0  0
   -2.5317    6.4314    0.0000 Cl  0  0
  1  2  2  0
  2  3  1  0
  3  4  2  0
  4  5  1  0
  5  6  2  0
  6  1  1  0
  4  7  1  0
  8  7  1  6
  8  9  1  0
  8 10  1  0
  9 11  2  0
  9 12  1  0
 12 13  1  0
 13 14  1  0
 14 15  1  0
 15 16  1  0
 16 12  1  0
 13 17  1  1
 17 18  2  0
 17 19  1  0
 19 20  1  0
 20 21  1  0
 21 22  2  0
 22 23  1  0
 23 24  2  0
 24 25  1  0
 25 26  2  0
 26 21  1  0
 22 27  1  0
 25 28  1  0
M  END