
  SciTegic12231509382D

 17 19  0  0  0  0            999 V2000
    3.6251  -15.0227    0.0000 C   0  0
    3.6239  -15.8505    0.0000 C   0  0
    4.3390  -16.2635    0.0000 C   0  0
    4.3372  -14.6098    0.0000 C   0  0
    5.0529  -15.0191    0.0000 C   0  0
    5.0517  -15.8480    0.0000 C   0  0
    5.7649  -16.2610    0.0000 O   0  0
    6.4839  -15.8500    0.0000 C   0  0
    6.4850  -15.0211    0.0000 C   0  0
    5.7672  -14.6034    0.0000 O   0  0
    6.4776  -14.1933    0.0000 O   0  0
    7.3072  -15.0186    0.0000 C   0  0
    7.7961  -15.6795    0.0000 N   0  0
    8.5771  -15.4231    0.0000 C   0  0
    8.5746  -14.6009    0.0000 C   0  0
    7.7920  -14.3494    0.0000 N   0  0
    7.1886  -13.7742    0.0000 C   0  0
  6  7  1  0
  7  8  1  0
  8  9  1  0
  9 10  1  0
  4  1  1  0
  9 11  1  0
  5  6  1  0
  9 12  1  0
 12 13  1  0
  1  2  2  0
  2  3  1  0
  3  6  2  0
 13 14  1  0
 14 15  1  0
 15 16  1  0
 16 12  2  0
 11 17  1  0
  5  4  2  0
  5 10  1  0
M  END