
  SciTegic03161210572D

 32 32  0  0  0  0            999 V2000
   22.3083    2.2458    0.0000 F   0  0
   22.7250    1.5292    0.0000 C   0  0
   23.1373    2.2483    0.0000 F   0  0
   22.4167    0.4042    0.0000 F   0  0
   22.0083    1.1167    0.0000 C   0  0
   21.5955    0.4068    0.0000 F   0  0
   20.8792    2.2458    0.0000 F   0  0
   21.2958    1.5292    0.0000 C   0  0
   21.7082    2.2483    0.0000 F   0  0
   20.9875    0.4042    0.0000 F   0  0
   20.5792    1.1167    0.0000 C   0  0
   20.1663    0.4068    0.0000 F   0  0
   19.4500    2.2458    0.0000 F   0  0
   19.8667    1.5292    0.0000 C   0  0
   20.2790    2.2483    0.0000 F   0  0
   19.5583    0.4042    0.0000 F   0  0
   19.1500    1.1167    0.0000 C   0  0
   18.7371    0.4068    0.0000 F   0  0
   17.7250    1.1125    0.0000 N   0  0
   18.4395    1.5250    0.0000 C   0  0
   18.4395    2.3500    0.0000 O   0  0
   23.4408    1.1125    0.0000 C   0  0
   24.1552    1.5250    0.0000 N   0  0
   23.4408    0.2875    0.0000 O   0  0
   24.8697    1.1125    0.0000 O   0  0
   17.0105    1.5250    0.0000 C   0  0
   17.0155    2.3511    0.0000 C   0  0
   16.3019    2.7635    0.0000 C   0  0
   15.5864    2.3509    0.0000 C   0  0
   15.5891    1.5217    0.0000 C   0  0
   16.3033    1.1130    0.0000 C   0  0
   14.8714    2.7625    0.0000 Cl  0  0
  3  2  1  0
 19 20  1  0
 20 17  1  0
  8  7  1  0
 20 21  2  0
 17 14  1  0
 14 11  1  0
 11  8  1  0
  8  5  1  0
  5  2  1  0
 14 13  1  0
  2 22  1  0
 15 14  1  0
 22 23  1  0
  9  8  1  0
 22 24  2  0
  5  4  1  0
 23 25  1  0
  6  5  1  0
 19 26  1  0
 17 16  1  0
 26 27  2  0
 18 17  1  0
 27 28  1  0
 28 29  2  0
 11 10  1  0
 29 30  1  0
 12 11  1  0
 30 31  2  0
 31 26  1  0
  2  1  1  0
 29 32  1  0
M  END