
  Mrv0541 05211314572D          

 26 27  0  0  0  0            999 V2000
    1.4665   -1.0204    0.0000 C   0  0  0  0  0  0  0  0  0  0  0  0
    1.0547   -0.3055    0.0000 C   0  0  0  0  0  0  0  0  0  0  0  0
    0.2297   -0.3047    0.0000 N   0  0  0  0  0  0  0  0  0  0  0  0
   -3.0465    2.3677    0.0000 N   0  0  0  0  0  0  0  0  0  0  0  0
   -0.1821    0.4102    0.0000 C   0  0  0  0  0  0  0  0  0  0  0  0
    2.2915   -1.0212    0.0000 C   0  0  0  0  0  0  0  0  0  0  0  0
    1.0533   -1.7345    0.0000 C   0  0  0  0  0  0  0  0  0  0  0  0
   -2.4859    1.9278    0.0000 C   0  0  0  0  0  0  0  0  0  0  0  0
   -2.9068    1.5546    0.0000 C   0  0  0  0  0  0  0  0  0  0  0  0
    2.7033   -1.7361    0.0000 C   0  0  0  0  0  0  0  0  0  0  0  0
   -1.4189    1.1259    0.0000 C   0  0  0  0  0  0  0  0  0  0  0  0
    1.4651   -2.4493    0.0000 C   0  0  0  0  0  0  0  0  0  0  0  0
    2.2901   -2.4501    0.0000 C   0  0  0  0  0  0  0  0  0  0  0  0
   -1.9351    1.5546    0.0000 C   0  0  0  0  0  0  0  0  0  0  0  0
   -1.5571    1.9433    0.0000 C   0  0  0  0  0  0  0  0  0  0  0  0
   -1.0071    0.4110    0.0000 N   0  0  0  0  0  0  0  0  0  0  0  0
    1.4679    0.4086    0.0000 O   0  0  0  0  0  0  0  0  0  0  0  0
    0.2311    1.1242    0.0000 O   0  0  0  0  0  0  0  0  0  0  0  0
   -2.8064    1.2192    0.0000 C   0  0  0  0  0  0  0  0  0  0  0  0
   -3.4267    0.8423    0.0000 C   0  0  0  0  0  0  0  0  0  0  0  0
    2.7019   -3.1650    0.0000 N   0  0  0  0  0  0  0  0  0  0  0  0
    1.0519   -3.1634    0.0000 Cl  0  0  0  0  0  0  0  0  0  0  0  0
    2.7047   -0.3071    0.0000 O   0  0  0  0  0  0  0  0  0  0  0  0
   -3.4691    3.0762    0.0000 C   0  0  0  0  0  0  0  0  0  0  0  0
    5.7690    0.0000    0.0000 Cl  0  0  0  0  0  0  0  0  0  0  0  0
    3.5297   -0.3080    0.0000 C   0  0  0  0  0  0  0  0  0  0  0  0
  1  2  1  0  0  0  0
  2  3  1  0  0  0  0
  3  5  1  0  0  0  0
  1  6  2  0  0  0  0
  1  7  1  0  0  0  0
  4  8  1  0  0  0  0
  4  9  1  0  0  0  0
  6 10  1  0  0  0  0
  7 12  2  0  0  0  0
 10 13  2  0  0  0  0
 12 13  1  0  0  0  0
  9 14  1  0  0  0  0
 11 14  1  0  0  0  0
  8 15  1  0  0  0  0
 11 15  1  0  0  0  0
  5 16  1  0  0  0  0
 11 16  1  0  0  0  0
  2 17  2  0  0  0  0
  5 18  2  0  0  0  0
  8 19  1  0  0  0  0
  9 20  1  0  0  0  0
 19 20  1  0  0  0  0
 13 21  1  0  0  0  0
 12 22  1  0  0  0  0
  6 23  1  0  0  0  0
  4 24  1  0  0  0  0
 23 26  1  0  0  0  0
M  END