
  SciTegic01161211262D

 20 21  0  0  0  0            999 V2000
   -5.6348   -9.9458    0.0000 C   0  0
   -5.6359  -10.7732    0.0000 C   0  0
   -4.9211  -11.1860    0.0000 C   0  0
   -4.9229   -9.5330    0.0000 C   0  0
   -4.2075   -9.9422    0.0000 C   0  0
   -4.2068  -10.7690    0.0000 C   0  0
   -3.4915  -11.1800    0.0000 C   0  0
   -2.7764  -10.7652    0.0000 N   0  0
   -2.7812   -9.9352    0.0000 C   0  0
   -3.4971   -9.5280    0.0000 C   0  0
   -3.5015   -8.7030    0.0000 O   0  0
   -3.4897  -12.0050    0.0000 Cl  0  0
   -2.0693   -9.5184    0.0000 C   0  0
   -1.3523   -9.9265    0.0000 N   0  0
   -2.0743   -8.6934    0.0000 O   0  0
   -0.6403   -9.5097    0.0000 C   0  0  1  0  0  0
    0.0766   -9.9178    0.0000 C   0  0
    0.7886   -9.5010    0.0000 O   0  0
    0.0816  -10.7428    0.0000 O   0  0
   -0.6454   -8.6847    0.0000 C   0  0
  9 10  2  0
 10  5  1  0
 10 11  1  0
  2  3  1  0
  7 12  1  0
  5  6  1  0
  9 13  1  0
  3  6  2  0
 13 14  1  0
  6  7  1  0
 13 15  2  0
  1  2  2  0
 14 16  1  0
  7  8  2  0
 16 17  1  0
  5  4  2  0
 17 18  1  0
  8  9  1  0
 17 19  2  0
  4  1  1  0
 16 20  1  6
M  END