
          11280715362D 1   1.00000     0.00000     0

 29 32  0     1  0            999 V2000
    2.0042  -19.8917    0.0000 C   0  0  0  0  0  0           0  0  0
    2.0042  -19.0667    0.0000 N   0  0  0  0  0  0           0  0  0
    2.7167  -20.3000    0.0000 N   0  0  3  0  0  0           0  0  0
    0.5792  -19.0750    0.0000 C   0  0  0  0  0  0           0  0  0
    1.2917  -20.3125    0.0000 N   0  0  0  0  0  0           0  0  0
    4.1417  -21.1125    0.0000 N   0  0  3  0  0  0           0  0  0
    1.2875  -18.6542    0.0000 C   0  0  0  0  0  0           0  0  0
    0.5792  -19.9000    0.0000 C   0  0  0  0  0  0           0  0  0
    4.8667  -21.5375    0.0000 C   0  0  0  0  0  0           0  0  0
   -0.1375  -18.6625    0.0000 C   0  0  0  0  0  0           0  0  0
    5.5792  -21.1250    0.0000 C   0  0  0  0  0  0           0  0  0
   -0.1375  -20.3167    0.0000 C   0  0  0  0  0  0           0  0  0
    2.7167  -21.1167    0.0000 C   0  0  1  0  0  0           0  0  0
    3.4292  -21.5250    0.0000 C   0  0  0  0  0  0           0  0  0
    3.4250  -19.8792    0.0000 C   0  0  0  0  0  0           0  0  0
   -0.8500  -19.0750    0.0000 C   0  0  0  0  0  0           0  0  0
   -0.8500  -19.9042    0.0000 C   0  0  0  0  0  0           0  0  0
    4.1375  -20.2917    0.0000 C   0  0  0  0  0  0           0  0  0
    6.3292  -21.4542    0.0000 O   0  0  0  0  0  0           0  0  0
    4.8667  -22.3625    0.0000 O   0  0  0  0  0  0           0  0  0
    5.6625  -20.3000    0.0000 C   0  0  0  0  0  0           0  0  0
    6.8792  -20.8417    0.0000 C   0  0  0  0  0  0           0  0  0
    6.4667  -20.1292    0.0000 C   0  0  0  0  0  0           0  0  0
    1.2792  -17.8292    0.0000 N   0  0  0  0  0  0           0  0  0
   -1.5625  -18.6667    0.0000 O   0  0  0  0  0  0           0  0  0
   -1.5708  -20.3167    0.0000 O   0  0  0  0  0  0           0  0  0
    2.0042  -21.5292    0.0000 C   0  0  0  0  0  0           0  0  0
   -2.2833  -19.9042    0.0000 C   0  0  0  0  0  0           0  0  0
   -2.2833  -19.0792    0.0000 C   0  0  0  0  0  0           0  0  0
  2  1  1  0     0  0
  3  1  1  0     0  0
  4  8  1  0     0  0
  5  1  2  0     0  0
  6 18  1  0     0  0
  7  2  2  0     0  0
  8  5  1  0     0  0
  9  6  1  0     0  0
 10  4  2  0     0  0
 11  9  1  0     0  0
 12  8  2  0     0  0
 13  3  1  0     0  0
 14 13  1  0     0  0
 15  3  1  0     0  0
 16 17  2  0     0  0
 17 12  1  0     0  0
 18 15  1  0     0  0
 19 11  1  0     0  0
 20  9  2  0     0  0
 21 11  2  0     0  0
 22 19  1  0     0  0
 23 21  1  0     0  0
 24  7  1  0     0  0
 25 16  1  0     0  0
 26 17  1  0     0  0
 13 27  1  1     0  0
 28 26  1  0     0  0
 29 25  1  0     0  0
  4  7  1  0     0  0
  6 14  1  0     0  0
 10 16  1  0     0  0
 23 22  2  0     0  0
M  END