
  SciTegic02011310442D

 37 41  0  0  0  0            999 V2000
   10.5740  -15.0974    0.0000 O   0  0
    9.8682  -14.6888    0.0000 S   0  0
    9.8672  -15.5043    0.0000 O   0  0
    2.7608  -13.5441    0.0000 N   0  0
    3.4705  -13.1347    0.0000 C   0  0
    3.4677  -12.3120    0.0000 N   0  0
    2.7591  -11.9068    0.0000 C   0  0
    2.0528  -13.1351    0.0000 N   0  0
    2.0540  -12.3141    0.0000 C   0  0
    1.2735  -12.0592    0.0000 C   0  0
    0.7898  -12.7227    0.0000 C   0  0
    1.2715  -13.3876    0.0000 C   0  0
    4.1789  -13.5422    0.0000 S   0  0
    4.8859  -13.1325    0.0000 C   0  0
    2.7573  -11.0896    0.0000 N   0  0
    3.4641  -10.6794    0.0000 C   0  0
    5.5909  -13.5404    0.0000 C   0  0
    6.2975  -13.1314    0.0000 C   0  0
    6.2967  -12.3133    0.0000 C   0  0
    5.5834  -11.9060    0.0000 C   0  0
    4.8797  -12.3173    0.0000 C   0  0
    4.2091  -11.0114    0.0000 C   0  0
    4.7546  -10.4029    0.0000 C   0  0
    4.3444   -9.6961    0.0000 N   0  0
    3.5455   -9.8678    0.0000 N   0  0
    5.5675  -10.4866    0.0000 C   0  0
    7.0032  -11.9026    0.0000 N   0  0
    7.7121  -12.3092    0.0000 C   0  0
    8.4186  -11.8985    0.0000 C   0  0
    9.1275  -12.3051    0.0000 N   0  0
    7.7145  -13.1264    0.0000 O   0  0
    9.2125  -13.1154    0.0000 C   0  0
   10.0123  -13.2830    0.0000 C   0  0  1  0  0  0
   10.4189  -12.5740    0.0000 C   0  0
    9.8702  -11.9684    0.0000 C   0  0
   10.3469  -14.0285    0.0000 N   0  0
    9.0555  -14.6080    0.0000 C   0  0
  2  1  2  0
  3  2  2  0
  8  4  1  0
  4  5  2  0
  5  6  1  0
  6  7  2  0
  7  9  1  0
  8  9  1  0
  9 10  2  0
 10 11  1  0
 11 12  2  0
 12  8  1  0
  5 13  1  0
 13 14  1  0
  7 15  1  0
 15 16  1  0
 14 17  2  0
 17 18  1  0
 18 19  2  0
 19 20  1  0
 20 21  2  0
 21 14  1  0
 16 22  1  0
 22 23  2  0
 23 24  1  0
 24 25  1  0
 25 16  2  0
 23 26  1  0
 19 27  1  0
 27 28  1  0
 28 29  1  0
 29 30  1  0
 28 31  2  0
 30 32  1  0
 32 33  1  0
 33 34  1  0
 34 35  1  0
 35 30  1  0
 33 36  1  1
 36  2  1  0
  2 37  1  0
M  END