
  SciTegic01161211262D

152140  0  0  0  0            999 V2000
   -8.1807    2.2481    0.0000 Na  0  3
   -8.8952   -1.4644    0.0000 Na  0  3
   -7.4662   -3.1144    0.0000 Na  0  3
   -7.4662   -6.0844    0.0000 Na  0  3
   -5.1085   -7.1981    0.0000 Na  0  3
   -2.9651   -1.0106    0.0000 Na  0  3
    0.6073    0.4744    0.0000 Na  0  3
    1.3218   -1.0106    0.0000 Na  0  3
    0.6073   -7.1981    0.0000 Na  0  3
    2.9707    1.1761    0.0000 Na  0  3
    3.9488   -0.5974    0.0000 Na  0  3
    3.4652   -7.1981    0.0000 Na  0  3
    5.1795    0.5972    0.0000 Na  0  3
    7.9952   -1.4104    0.0000 Na  0  3
    8.8952   -4.3106    0.0000 Na  0  3
    6.7518   -7.1981    0.0000 Na  0  3
   -3.8939   -0.2269    0.0000 O   0  0
   -4.6083   -0.6394    0.0000 C   0  0  2  0  0  0
   -4.6083   -1.4644    0.0000 C   0  0  2  0  0  0
   -3.6795   -2.0006    0.0000 O   0  0
   -5.3228   -1.8769    0.0000 C   0  0  2  0  0  0
   -5.3228   -2.7019    0.0000 O   0  0
   -6.0373   -1.4644    0.0000 C   0  0  2  0  0  0
   -6.7518   -1.8769    0.0000 O   0  0
   -6.0373   -0.6394    0.0000 C   0  0  2  0  0  0
   -5.3228   -0.2269    0.0000 O   0  0
   -6.7518   -0.2269    0.0000 C   0  0
   -6.7518    0.5981    0.0000 O   0  0
   -7.4662    1.0106    0.0000 S   0  0
   -7.8787    0.2962    0.0000 O   0  0
   -7.0537    1.7251    0.0000 O   0  0
   -8.1807    1.4231    0.0000 O   0  5
   -7.4662   -1.4644    0.0000 S   0  0
   -7.0537   -0.7499    0.0000 O   0  0
   -7.8787   -2.1788    0.0000 O   0  0
   -8.1807   -1.0519    0.0000 O   0  5
   -6.0373   -3.1144    0.0000 S   0  0
   -5.6248   -3.8288    0.0000 O   0  0
   -6.4498   -2.3999    0.0000 O   0  0
   -6.7518   -3.5269    0.0000 O   0  5
   -3.6795   -3.0731    0.0000 C   0  0  2  0  0  0
   -2.9651   -3.4856    0.0000 C   0  0  2  0  0  0
   -2.2506   -3.0731    0.0000 O   0  0
   -2.9651   -4.3106    0.0000 C   0  0  2  0  0  0
   -2.2506   -4.7231    0.0000 O   0  0
   -3.6795   -4.7231    0.0000 C   0  0  2  0  0  0
   -3.6795   -5.5481    0.0000 O   0  0
   -4.3940   -4.3106    0.0000 C   0  0  2  0  0  0
   -4.3940   -3.4856    0.0000 O   0  0
   -5.3228   -4.8469    0.0000 C   0  0
   -6.0373   -4.4344    0.0000 O   0  0
   -6.7518   -4.8469    0.0000 S   0  0
   -6.3393   -5.5613    0.0000 O   0  0
   -7.1643   -4.1324    0.0000 O   0  0
   -7.4662   -5.2594    0.0000 O   0  5
   -4.3940   -5.9606    0.0000 S   0  0
   -3.9815   -6.6751    0.0000 O   0  0
   -4.8065   -5.2462    0.0000 O   0  0
   -5.1085   -6.3731    0.0000 O   0  5
   -2.2506   -2.2481    0.0000 S   0  0
   -3.0756   -2.2481    0.0000 O   0  0
   -1.4256   -2.2481    0.0000 O   0  0
   -2.2506   -1.4231    0.0000 O   0  5
   -1.5361   -4.3106    0.0000 C   0  0  2  0  0  0
   -0.8216   -4.7231    0.0000 C   0  0  2  0  0  0
   -0.8216   -5.5481    0.0000 O   0  0
   -0.1072   -4.3106    0.0000 C   0  0  2  0  0  0
    0.6073   -4.7231    0.0000 O   0  0
   -0.1072   -3.4856    0.0000 C   0  0  2  0  0  0
    0.6073   -3.0731    0.0000 O   0  0
   -0.8216   -3.0731    0.0000 C   0  0  2  0  0  0
   -1.5361   -3.4856    0.0000 O   0  0
   -0.8216   -2.0006    0.0000 C   0  0
   -0.1072   -1.5881    0.0000 O   0  0
   -0.1072   -0.7631    0.0000 S   0  0
   -0.9322   -0.7631    0.0000 O   0  0
    0.7178   -0.7631    0.0000 O   0  0
   -0.1072    0.0619    0.0000 O   0  5
    0.6073   -2.2481    0.0000 S   0  0
   -0.2177   -2.2481    0.0000 O   0  0
    1.4323   -2.2481    0.0000 O   0  0
    0.6073   -1.4231    0.0000 O   0  5
   -0.1072   -5.9606    0.0000 S   0  0
    0.3053   -5.2462    0.0000 O   0  0
   -0.5197   -6.6751    0.0000 O   0  0
    0.6073   -6.3731    0.0000 O   0  5
    1.3218   -4.3106    0.0000 C   0  0  2  0  0  0
    2.0362   -4.7231    0.0000 C   0  0  2  0  0  0
    2.0362   -5.5481    0.0000 O   0  0
    2.7507   -4.3106    0.0000 C   0  0  2  0  0  0
    3.6795   -4.8469    0.0000 O   0  0
    2.7507   -3.4856    0.0000 C   0  0  2  0  0  0
    3.6795   -2.9494    0.0000 O   0  0
    2.0362   -3.0731    0.0000 C   0  0  2  0  0  0
    1.3218   -3.4856    0.0000 O   0  0
    2.0362   -1.7531    0.0000 C   0  0
    2.6682   -1.2228    0.0000 O   0  0
    2.4820   -0.1666    0.0000 S   0  0
    1.6695   -0.3099    0.0000 O   0  0
    3.2945   -0.0234    0.0000 O   0  0
    2.3387    0.6458    0.0000 O   0  5
    3.6795   -2.1244    0.0000 S   0  0
    4.5014   -2.0525    0.0000 O   0  0
    2.8577   -2.1963    0.0000 O   0  0
    3.5363   -1.3119    0.0000 O   0  5
    2.7507   -5.9606    0.0000 S   0  0
    3.1632   -5.2462    0.0000 O   0  0
    2.3382   -6.6751    0.0000 O   0  0
    3.4652   -6.3731    0.0000 O   0  5
    4.6083   -4.3106    0.0000 C   0  0  2  0  0  0
    5.3228   -4.7231    0.0000 C   0  0  2  0  0  0
    5.3228   -5.5481    0.0000 O   0  0
    6.0373   -4.3106    0.0000 C   0  0  2  0  0  0
    6.7518   -4.7231    0.0000 O   0  0
    6.0373   -3.4856    0.0000 C   0  0  2  0  0  0
    6.8125   -3.2035    0.0000 O   0  0
    5.3228   -3.0731    0.0000 C   0  0  2  0  0  0
    4.6083   -3.4856    0.0000 O   0  0
    5.1795   -2.2607    0.0000 C   0  0
    5.5920   -1.5462    0.0000 O   0  0
    5.1795   -0.8317    0.0000 S   0  0
    5.8940   -0.4192    0.0000 O   0  0
    4.4651   -1.2442    0.0000 O   0  0
    4.7670   -0.1172    0.0000 O   0  5
    6.9558   -2.3910    0.0000 S   0  0
    6.1805   -2.1088    0.0000 O   0  0
    7.7585   -2.5812    0.0000 O   0  0
    7.1924   -1.6007    0.0000 O   0  5
    7.4662   -4.3106    0.0000 S   0  0
    7.8787   -5.0251    0.0000 O   0  0
    7.0537   -3.5962    0.0000 O   0  0
    8.1807   -3.8981    0.0000 O   0  5
    6.0373   -5.9606    0.0000 S   0  0
    6.4498   -5.2462    0.0000 O   0  0
    5.6248   -6.6751    0.0000 O   0  0
    6.7518   -6.3731    0.0000 O   0  5
   -3.8939    0.5981    0.0000 C   0  0
   -3.1794    1.0106    0.0000 C   0  0
   -3.1794    1.8356    0.0000 C   0  0
   -2.4649    2.2481    0.0000 C   0  0
   -2.4649    3.0731    0.0000 C   0  0
   -1.7505    3.4856    0.0000 C   0  0
   -1.7505    4.3106    0.0000 C   0  0
   -1.0360    4.7231    0.0000 C   0  0
   -1.0360    5.5481    0.0000 C   0  0
   -0.3215    5.9606    0.0000 C   0  0
   -0.3215    6.7856    0.0000 C   0  0
    0.3930    7.1981    0.0000 C   0  0
    1.2742   -5.1342    0.0000 H   0  0
    4.6232   -5.1355    0.0000 H   0  0
   -1.5339   -5.1356    0.0000 H   0  0
   -4.6072   -2.2894    0.0000 H   0  0
 18 17  1  6
 18 19  1  0
 19 20  1  0
 19 21  1  0
 21 22  1  1
 21 23  1  0
 23 24  1  6
 23 25  1  0
 25 26  1  0
 25 27  1  1
 27 28  1  0
 18 26  1  0
 29 30  2  0
 29 31  2  0
 29 32  1  0
 28 29  1  0
 33 34  2  0
 33 35  2  0
 33 36  1  0
 24 33  1  0
 37 38  2  0
 37 39  2  0
 37 40  1  0
 22 37  1  0
 41 42  1  0
 42 43  1  1
 42 44  1  0
 44 45  1  1
 44 46  1  0
 46 47  1  6
 46 48  1  0
 48 49  1  0
 48 50  1  1
 50 51  1  0
 41 49  1  0
 52 53  2  0
 52 54  2  0
 52 55  1  0
 51 52  1  0
 56 57  2  0
 56 58  2  0
 56 59  1  0
 47 56  1  0
 60 61  2  0
 60 62  2  0
 60 63  1  0
 43 60  1  0
 64 65  1  0
 65 66  1  6
 65 67  1  0
 67 68  1  6
 67 69  1  0
 69 70  1  1
 69 71  1  0
 71 72  1  0
 71 73  1  6
 73 74  1  0
 64 72  1  0
 75 76  2  0
 75 77  2  0
 75 78  1  0
 74 75  1  0
 79 80  2  0
 79 81  2  0
 79 82  1  0
 70 79  1  0
 83 84  2  0
 83 85  2  0
 83 86  1  0
 66 83  1  0
 87 88  1  0
 88 89  1  6
 88 90  1  0
 90 91  1  6
 90 92  1  0
 92 93  1  1
 92 94  1  0
 94 95  1  0
 94 96  1  6
 96 97  1  0
 87 95  1  0
 98 99  2  0
 98100  2  0
 98101  1  0
 97 98  1  0
102103  2  0
102104  2  0
102105  1  0
 93102  1  0
106107  2  0
106108  2  0
106109  1  0
 89106  1  0
110111  1  0
111112  1  6
111113  1  0
113114  1  6
113115  1  0
115116  1  1
115117  1  0
117118  1  0
117119  1  6
119120  1  0
110118  1  0
121122  2  0
121123  2  0
121124  1  0
120121  1  0
125126  2  0
125127  2  0
125128  1  0
116125  1  0
129130  2  0
129131  2  0
129132  1  0
114129  1  0
133134  2  0
133135  2  0
133136  1  0
112133  1  0
 91110  1  0
 68 87  1  0
 45 64  1  0
 41 20  1  6
137138  1  0
138139  1  0
139140  1  0
140141  1  0
141142  1  0
142143  1  0
143144  1  0
144145  1  0
145146  1  0
146147  1  0
147148  1  0
 17137  1  0
 87149  1  6
110150  1  6
 64151  1  6
 19152  1  6
M  CHG  8   1   1   2   1   3   1   4   1   5   1   6   1   7   1   8   1
M  CHG  8   9   1  10   1  11   1  12   1  13   1  14   1  15   1  16   1
M  CHG  8  32  -1  36  -1  40  -1  55  -1  59  -1  63  -1  78  -1  82  -1
M  CHG  8  86  -1 101  -1 105  -1 109  -1 124  -1 128  -1 132  -1 136  -1
M  END