
  SciTegic12231509382D

 44 48  0  0  0  0            999 V2000
    5.1946   -6.9310    0.0000 C   0  0
    4.9016   -7.7022    0.0000 C   0  0
    4.0776   -7.6630    0.0000 N   0  0
    3.8626   -6.8660    0.0000 C   0  0
    4.5562   -6.4174    0.0000 N   0  0
    3.0921   -6.5688    0.0000 O   0  0
    4.5992   -5.5948    0.0000 C   0  0
    3.9049   -5.1449    0.0000 C   0  0
    3.1718   -5.5217    0.0000 C   0  0
    2.4566   -5.1096    0.0000 N   0  0
    2.4549   -4.2794    0.0000 C   0  0
    1.7460   -3.8688    0.0000 C   0  0
    1.0289   -4.2796    0.0000 N   0  0
    1.0306   -5.1054    0.0000 C   0  0
    1.7423   -5.5193    0.0000 C   0  0
    0.3179   -3.8675    0.0000 C   0  0
    0.3268   -3.0465    0.0000 C   0  0
   -0.3866   -2.6286    0.0000 C   0  0
   -1.1005   -3.0379    0.0000 C   0  0
   -1.0991   -3.8685    0.0000 C   0  0
   -0.3900   -4.2764    0.0000 C   0  0
    3.9480   -4.3224    0.0000 O   0  0
    5.6416   -6.2389    0.0000 C   0  0
    6.4761   -6.2830    0.0000 C   0  0
    6.9254   -5.5798    0.0000 C   0  0
    6.5429   -4.8392    0.0000 C   0  0
    5.7077   -4.8026    0.0000 C   0  0
    5.2595   -5.5032    0.0000 C   0  0
    5.9307   -7.3020    0.0000 C   0  0
    5.9767   -8.1300    0.0000 C   0  0
    6.7106   -8.5023    0.0000 C   0  0
    7.4063   -8.0485    0.0000 C   0  0
    7.3556   -7.2200    0.0000 C   0  0
    6.6173   -6.8493    0.0000 C   0  0
    5.3530   -8.3928    0.0000 O   0  0
    3.5615   -8.3074    0.0000 C   0  0
    3.8591   -9.0720    0.0000 C   0  0
    2.7479   -8.1788    0.0000 C   0  0
    2.4503   -7.4100    0.0000 O   0  0
    2.2318   -8.8231    0.0000 O   0  0
    1.4182   -8.6946    0.0000 C   0  0
    1.0377   -2.6344    0.0000 O   0  0
    1.7556   -3.0439    0.0000 C   0  0
    2.4694   -2.6326    0.0000 C   0  0
 21 16  1  0
 10 11  1  0
  8 22  1  0
  5  1  1  0
  1 23  1  0
  1  2  1  0
 23 24  2  0
  4  6  2  0
 24 25  1  0
 25 26  2  0
  5  7  1  0
 26 27  1  0
 10 15  1  0
 27 28  2  0
 28 23  1  0
 11 12  1  0
  1 29  1  0
 12 13  1  0
 29 30  2  0
 13 14  1  0
 30 31  1  0
 14 15  1  0
 31 32  2  0
  2  3  1  0
 32 33  1  0
 13 16  1  0
 33 34  2  0
 34 29  1  0
  7  8  1  0
  2 35  2  0
 16 17  2  0
  3 36  1  0
  3  4  1  0
 36 37  1  0
 17 18  1  0
 36 38  1  0
  8  9  1  0
 38 39  2  0
 18 19  2  0
 38 40  1  0
  4  5  1  0
 40 41  1  0
 19 20  1  0
 17 42  1  0
  9 10  1  0
 42 43  1  0
 20 21  2  0
 43 44  1  0
M  END