
  Mrv0541 04051115152D          

 26 29  0  0  0  0            999 V2000
    3.8383   -2.4146    0.0000 N   0  0  0  0  0  0  0  0  0  0  0  0
   -3.0985    4.1391    0.0000 Cl  0  0  0  0  0  0  0  0  0  0  0  0
    3.8383   -1.5896    0.0000 C   0  0  0  0  0  0  0  0  0  0  0  0
    3.1238   -1.1771    0.0000 N   0  0  0  0  0  0  0  0  0  0  0  0
    2.4093   -1.5896    0.0000 C   0  0  0  0  0  0  0  0  0  0  0  0
    2.4093   -2.4146    0.0000 C   0  0  0  0  0  0  0  0  0  0  0  0
    3.1238   -2.8271    0.0000 C   0  0  0  0  0  0  0  0  0  0  0  0
    3.1238   -3.6521    0.0000 N   0  0  0  0  0  0  0  0  0  0  0  0
    1.6247   -2.6695    0.0000 N   0  0  0  0  0  0  0  0  0  0  0  0
    1.1398   -2.0021    0.0000 C   0  0  0  0  0  0  0  0  0  0  0  0
    1.6247   -1.3346    0.0000 C   0  0  0  0  0  0  0  0  0  0  0  0
    0.2272    0.3752    0.0000 C   0  0  0  0  0  0  0  0  0  0  0  0
    0.5628   -0.3785    0.0000 N   0  0  0  0  0  0  0  0  0  0  0  0
    1.3698   -0.5500    0.0000 C   0  0  0  0  0  0  0  0  0  0  0  0
   -2.5464    3.5260    0.0000 C   0  0  0  0  0  0  0  0  0  0  0  0
   -1.7395    3.6975    0.0000 C   0  0  0  0  0  0  0  0  0  0  0  0
   -1.1874    3.0844    0.0000 C   0  0  0  0  0  0  0  0  0  0  0  0
   -0.0503   -0.9305    0.0000 C   0  0  0  0  0  0  0  0  0  0  0  0
   -0.7648   -0.5180    0.0000 C   0  0  2  0  0  0  0  0  0  0  0  0
   -1.5184   -0.8536    0.0000 O   0  0  0  0  0  0  0  0  0  0  0  0
   -0.5932    0.2890    0.0000 C   0  0  1  0  0  0  0  0  0  0  0  0
   -1.1453    0.9021    0.0000 C   0  0  0  0  0  0  0  0  0  0  0  0
   -0.8903    1.6867    0.0000 S   0  0  0  0  0  0  0  0  0  0  0  0
   -1.4424    2.2998    0.0000 C   0  0  0  0  0  0  0  0  0  0  0  0
   -2.2493    2.1282    0.0000 C   0  0  0  0  0  0  0  0  0  0  0  0
   -2.8014    2.7413    0.0000 C   0  0  0  0  0  0  0  0  0  0  0  0
  3  1  2  0  0  0  0
  7  1  1  0  0  0  0
 15  2  1  0  0  0  0
  3  4  1  0  0  0  0
  5  4  2  0  0  0  0
  5  6  1  0  0  0  0
  5 11  1  0  0  0  0
  6  7  2  0  0  0  0
  6  9  1  0  0  0  0
  7  8  1  0  0  0  0
 10  9  1  0  0  0  0
 10 11  2  0  0  0  0
 14 11  1  0  0  0  0
 12 13  1  0  0  0  0
 12 21  1  0  0  0  0
 14 13  1  0  0  0  0
 18 13  1  0  0  0  0
 15 16  2  0  0  0  0
 15 26  1  0  0  0  0
 16 17  1  0  0  0  0
 17 24  2  0  0  0  0
 18 19  1  0  0  0  0
 19 20  1  6  0  0  0
 19 21  1  0  0  0  0
 21 22  1  1  0  0  0
 22 23  1  0  0  0  0
 24 23  1  0  0  0  0
 24 25  1  0  0  0  0
 25 26  2  0  0  0  0
M  END