
  SciTegic06051313522D

 51 54  0  0  0  0            999 V2000
   12.6087  -25.3904    0.0000 O   0  0
   13.3246  -24.9806    0.0000 C   0  0
   13.3253  -24.1573    0.0000 C   0  0
   14.0405  -23.7475    0.0000 C   0  0
   14.7544  -24.1628    0.0000 C   0  0
   14.7486  -24.9921    0.0000 C   0  0
   14.0329  -25.3980    0.0000 C   0  0
   14.0432  -22.9226    0.0000 F   0  0
   15.4561  -25.4084    0.0000 C   0  0
   16.1738  -24.9993    0.0000 N   0  0
   16.8848  -25.4164    0.0000 C   0  0
   16.8792  -26.2423    0.0000 C   0  0
   16.1567  -26.6494    0.0000 C   0  0
   15.4487  -26.2300    0.0000 C   0  0
   17.5913  -26.6623    0.0000 C   0  0
   18.3093  -26.2559    0.0000 O   0  0
   17.5842  -27.4872    0.0000 O   0  0
    5.4652  -25.4124    0.0000 C   0  0
    5.4641  -26.2399    0.0000 C   0  0
    6.1789  -26.6527    0.0000 C   0  0
    6.8954  -26.2394    0.0000 C   0  0
    6.8924  -25.4088    0.0000 C   0  0
    6.1771  -24.9997    0.0000 C   0  0
    7.6104  -26.6508    0.0000 Cl  0  0
    4.7507  -25.0001    0.0000 O   0  0
    4.7505  -24.1751    0.0000 C   0  0
    4.7493  -26.6518    0.0000 N   0  0
    4.7486  -27.4768    0.0000 C   0  0
    4.0339  -27.8887    0.0000 C   0  0
    5.4628  -27.8898    0.0000 O   0  0
    4.0332  -28.7137    0.0000 S   0  0
    3.3184  -29.1257    0.0000 C   0  0
    2.6061  -28.7084    0.0000 N   0  0
    1.8918  -29.1197    0.0000 C   0  0
    1.8907  -29.9456    0.0000 C   0  0
    2.6099  -30.3585    0.0000 C   0  0
    3.3212  -29.9449    0.0000 C   0  0
    1.1763  -30.3556    0.0000 C   0  0
    0.4617  -29.9435    0.0000 O   0  0
    1.1767  -31.1807    0.0000 O   0  0
    7.6054  -24.9937    0.0000 O   0  0
    8.3214  -25.4035    0.0000 C   0  0
    9.0343  -24.9882    0.0000 C   0  0  1  0  0  0
    9.7504  -25.3981    0.0000 C   0  0  1  0  0  0
   10.4632  -24.9829    0.0000 C   0  0  2  0  0  0
   11.1793  -25.3927    0.0000 C   0  0  2  0  0  0
   11.8922  -24.9775    0.0000 C   0  0
    9.0312  -24.1633    0.0000 O   0  0
    9.7534  -26.2231    0.0000 O   0  0
   10.4601  -24.1579    0.0000 O   0  0
   11.1824  -26.2177    0.0000 O   0  0
  1  2  1  0
  2  3  2  0
  3  4  1  0
  4  5  2  0
  5  6  1  0
  6  7  2  0
  7  2  1  0
  4  8  1  0
  9 10  2  0
 10 11  1  0
 11 12  2  0
 12 13  1  0
 13 14  2  0
 14  9  1  0
  6  9  1  0
 15 16  1  0
 15 17  2  0
 12 15  1  0
 18 19  2  0
 19 20  1  0
 20 21  2  0
 21 22  1  0
 22 23  2  0
 23 18  1  0
 21 24  1  0
 18 25  1  0
 25 26  1  0
 19 27  1  0
 27 28  1  0
 28 29  1  0
 28 30  2  0
 29 31  1  0
 31 32  1  0
 32 33  2  0
 33 34  1  0
 34 35  2  0
 35 36  1  0
 36 37  2  0
 37 32  1  0
 38 39  1  0
 38 40  2  0
 35 38  1  0
 22 41  1  0
 41 42  1  0
 42 43  1  0
 43 44  1  0
 44 45  1  0
 45 46  1  0
 46 47  1  0
 47  1  1  0
 43 48  1  6
 44 49  1  1
 45 50  1  1
 46 51  1  6
M  END