
  Mrv0541 09091310052D          

 30 32  0  0  0  0            999 V2000
   17.7416  -16.7481    0.0000 N   0  0  0  0  0  0  0  0  0  0  0  0
   18.0354  -17.5192    0.0000 C   0  0  0  0  0  0  0  0  0  0  0  0
   17.3973  -18.0392    0.0000 C   0  0  0  0  0  0  0  0  0  0  0  0
   16.7032  -17.5876    0.0000 C   0  0  0  0  0  0  0  0  0  0  0  0
   15.9083  -17.8028    0.0000 C   0  0  0  0  0  0  0  0  0  0  0  0
   15.3244  -17.2189    0.0000 C   0  0  0  0  0  0  0  0  0  0  0  0
   15.5354  -16.4240    0.0000 C   0  0  0  0  0  0  0  0  0  0  0  0
   16.3345  -16.2088    0.0000 C   0  0  0  0  0  0  0  0  0  0  0  0
   16.9184  -16.7927    0.0000 C   0  0  0  0  0  0  0  0  0  0  0  0
   17.4378  -18.8625    0.0000 C   0  0  0  0  0  0  0  0  0  0  0  0
   18.1536  -19.2750    0.0000 O   0  0  0  0  0  0  0  0  0  0  0  0
   16.7478  -19.3100    0.0000 O   0  0  0  0  0  0  0  0  0  0  0  0
   18.1891  -16.0581    0.0000 C   0  0  0  0  0  0  0  0  0  0  0  0
   16.0319  -18.8975    0.0000 C   0  0  0  0  0  0  0  0  0  0  0  0
   13.8885  -20.1350    0.0000 N   0  0  0  0  0  0  0  0  0  0  0  0
   14.6043  -20.5475    0.0000 C   0  0  0  0  0  0  0  0  0  0  0  0
   15.3202  -20.1350    0.0000 C   0  0  0  0  0  0  0  0  0  0  0  0
   15.3202  -19.3100    0.0000 C   0  0  0  0  0  0  0  0  0  0  0  0
   14.6043  -18.8975    0.0000 C   0  0  0  0  0  0  0  0  0  0  0  0
   13.8885  -19.3100    0.0000 C   0  0  0  0  0  0  0  0  0  0  0  0
   13.1726  -20.5475    0.0000 C   0  0  0  0  0  0  0  0  0  0  0  0
   12.4609  -20.1350    0.0000 C   0  0  0  0  0  0  0  0  0  0  0  0
   12.4609  -19.3100    0.0000 N   0  0  0  0  0  0  0  0  0  0  0  0
   11.7450  -18.8975    0.0000 S   0  0  0  0  0  0  0  0  0  0  0  0
   12.1575  -18.1858    0.0000 O   0  0  0  0  0  0  0  0  0  0  0  0
   11.3325  -19.6133    0.0000 O   0  0  0  0  0  0  0  0  0  0  0  0
   11.0333  -18.4850    0.0000 C   0  0  0  0  0  0  0  0  0  0  0  0
   18.7708  -15.4667    0.0000 H   0  0  0  0  0  0  0  0  0  0  0  0
   17.5457  -15.5417    0.0000 H   0  0  0  0  0  0  0  0  0  0  0  0
   18.8269  -16.5813    0.0000 H   0  0  0  0  0  0  0  0  0  0  0  0
  3  4  1  0  0  0  0
  4  5  1  0  0  0  0
  5  6  2  0  0  0  0
  6  7  1  0  0  0  0
  7  8  2  0  0  0  0
  8  9  1  0  0  0  0
  1  9  1  0  0  0  0
  4  9  2  0  0  0  0
 10 11  2  0  0  0  0
 10 12  1  0  0  0  0
  3 10  1  0  0  0  0
  1 13  1  0  0  0  0
 12 14  1  0  0  0  0
 15 16  1  0  0  0  0
 16 17  1  0  0  0  0
 17 18  1  0  0  0  0
 18 19  1  0  0  0  0
 19 20  1  0  0  0  0
 15 20  1  0  0  0  0
 21 22  1  0  0  0  0
 24 25  2  0  0  0  0
 24 26  2  0  0  0  0
 24 27  1  0  0  0  0
 23 24  1  0  0  0  0
 22 23  1  0  0  0  0
 15 21  1  0  0  0  0
 18 14  1  0  0  0  0
 13 28  1  0  0  0  0
  1  2  1  0  0  0  0
 13 29  1  0  0  0  0
  2  3  2  0  0  0  0
 13 30  1  0  0  0  0
M  ISO  3  28   3  29   3  30   3
M  END