
  SciTegic12171313032D

 30 30  0  0  0  0            999 V2000
   17.7154  -11.2067    0.0000 C   0  0  1  0  0  0
   17.0057  -11.6282    0.0000 C   0  0
   16.2862  -11.2246    0.0000 O   0  0
   17.0159  -12.4532    0.0000 O   0  0
   18.4351  -11.6103    0.0000 N   0  0
   19.1512  -11.2006    0.0000 C   0  0
   19.1544  -10.3756    0.0000 O   0  0
   19.8640  -11.6159    0.0000 N   0  0
   20.5801  -11.2062    0.0000 C   0  0  2  0  0  0
   21.2930  -11.6216    0.0000 C   0  0
   20.5834  -10.3812    0.0000 C   0  0
   21.2995   -9.9716    0.0000 C   0  0
   21.3028   -9.1466    0.0000 C   0  0
   22.0188   -8.7369    0.0000 O   0  0
   20.5899   -8.7313    0.0000 O   0  0
   21.2897  -12.4466    0.0000 O   0  0
   22.0090  -11.2119    0.0000 O   0  0
   17.7052  -10.3818    0.0000 C   0  0
   16.9857   -9.9782    0.0000 C   0  0
   16.9754   -9.1533    0.0000 C   0  0
   16.2559   -8.7496    0.0000 C   0  0
   16.2457   -7.9247    0.0000 N   0  0
   15.5261   -7.5211    0.0000 C   0  0
   14.8169   -7.9424    0.0000 C   0  0
   14.0983   -7.5362    0.0000 C   0  0
   13.3894   -7.9569    0.0000 C   0  0
   13.3992   -8.7828    0.0000 C   0  0
   14.1238   -9.1861    0.0000 C   0  0
   14.8296   -8.7632    0.0000 C   0  0
   12.6905   -9.2051    0.0000 I   0  0
  1  2  1  6
  2  3  2  0
  2  4  1  0
  1  5  1  0
  5  6  1  0
  6  7  2  0
  6  8  1  0
  8  9  1  0
  9 10  1  1
  9 11  1  0
 11 12  1  0
 12 13  1  0
 13 14  2  0
 13 15  1  0
 10 16  1  0
 10 17  2  0
  1 18  1  0
 18 19  1  0
 19 20  1  0
 20 21  1  0
 21 22  1  0
 22 23  1  0
 23 24  1  0
 24 25  2  0
 25 26  1  0
 26 27  2  0
 27 28  1  0
 28 29  2  0
 29 24  1  0
 27 30  1  0
M  ISO  1  30 125
M  END