
  SciTegic10041313282D

 75 83  0  0  1  0            999 V2000
    1.5349   -5.3003    0.0000 O   0  0
    0.9096   -4.7536    0.0000 C   0  0
    0.1303   -5.0244    0.0000 C   0  0  2  0  0  0
   -0.1119   -5.8083    0.0000 C   0  0  2  0  0  0
   -0.9349   -5.8223    0.0000 C   0  0  2  0  0  0
   -1.2038   -5.0480    0.0000 C   0  0  1  0  0  0
   -0.5469   -4.5544    0.0000 O   0  0
   -1.9946   -4.8066    0.0000 N   0  0
   -2.6567   -5.3029    0.0000 C   0  0
   -3.3327   -4.8395    0.0000 N   0  0
   -3.0878   -4.0487    0.0000 C   0  0
   -3.5170   -3.3433    0.0000 C   0  0
   -3.1220   -2.6188    0.0000 N   0  0
   -2.2927   -2.5984    0.0000 C   0  0
   -1.8637   -3.3098    0.0000 N   0  0
   -2.2617   -4.0323    0.0000 C   0  0
    4.8754   -2.9934    0.0000 O   0  0
    4.2518   -2.4523    0.0000 C   0  0
    3.4688   -2.7211    0.0000 C   0  0  2  0  0  0
    3.2265   -3.5049    0.0000 C   0  0  2  0  0  0
    2.4016   -3.5226    0.0000 C   0  0  1  0  0  0
    1.9335   -4.1976    0.0000 O   0  0
    2.1346   -2.7447    0.0000 C   0  0  1  0  0  0
    2.7916   -2.2510    0.0000 O   0  0
    1.3419   -2.5068    0.0000 N   0  0
    0.6833   -3.0051    0.0000 C   0  0
    0.0095   -2.5381    0.0000 N   0  0
    0.2508   -1.7452    0.0000 C   0  0
   -0.1785   -1.0399    0.0000 C   0  0
    0.2165   -0.3154    0.0000 N   0  0
    1.0457   -0.2950    0.0000 C   0  0
    1.4749   -1.0064    0.0000 N   0  0
    1.0768   -1.7290    0.0000 C   0  0
    2.2811   -4.9457    0.0000 P   0  0
    3.0311   -4.5990    0.0000 O   0  0
    8.2150   -0.6974    0.0000 O   0  0
    7.5877   -0.1542    0.0000 C   0  0
    6.8105   -0.4216    0.0000 C   0  0  2  0  0  0
    6.5661   -1.2089    0.0000 C   0  0  2  0  0  0
    5.7432   -1.2229    0.0000 C   0  0  1  0  0  0
    5.2731   -1.9017    0.0000 O   0  0
    5.4763   -0.4451    0.0000 C   0  0  1  0  0  0
    6.1312    0.0450    0.0000 O   0  0
    4.6835   -0.2072    0.0000 N   0  0
    4.0214   -0.7035    0.0000 C   0  0
    3.3455   -0.2402    0.0000 N   0  0
    3.5903    0.5507    0.0000 C   0  0
    3.1611    1.2560    0.0000 C   0  0
    3.5561    1.9805    0.0000 N   0  0
    4.3854    2.0009    0.0000 C   0  0
    4.8145    1.2895    0.0000 N   0  0
    4.4165    0.5670    0.0000 C   0  0
    5.6192   -2.6440    0.0000 P   0  0
    6.3671   -2.3010    0.0000 O   0  0
    9.0034   -0.4723    0.0000 P   0  0
    9.8030   -0.2510    0.0000 O   0  0
    8.7895    0.3208    0.0000 O   0  0
    9.3595    0.9104    0.0000 P   0  0
    9.9398    1.4989    0.0000 O   0  0
    9.9504    0.3334    0.0000 O   0  0
    9.7150    2.2957    0.0000 P   0  0
   10.5079    2.5057    0.0000 O   0  0
   -1.4050   -6.5009    0.0000 O   0  0
    0.3831   -6.4656    0.0000 O   0  0
   -4.3432   -3.3567    0.0000 N   0  0
    2.6244   -5.6977    0.0000 O   0  0
    3.7216   -4.1623    0.0000 O   0  0
   -1.0051   -1.0533    0.0000 N   0  0
    5.9660   -3.3981    0.0000 O   0  0
    7.0632   -1.8627    0.0000 O   0  0
    2.3345    1.2426    0.0000 N   0  0
    9.2285   -1.2692    0.0000 O   0  0
    8.7747    1.4887    0.0000 O   0  0
    9.4928    3.0785    0.0000 O   0  0
    8.9247    2.0717    0.0000 O   0  0
 11 12  1  0
 12 13  2  0
 13 14  1  0
 14 15  2  0
 15 16  1  0
 11 16  2  0
  8 16  1  0
 17 18  1  0
 19 18  1  6
 19 20  1  0
 20 21  1  0
 21 22  1  1
 21 23  1  0
 23 24  1  0
 19 24  1  0
 23 25  1  6
 25 26  1  0
 26 27  2  0
 27 28  1  0
 28 29  1  0
 29 30  2  0
 30 31  1  0
 31 32  2  0
 32 33  1  0
 28 33  2  0
 25 33  1  0
 22 34  1  0
 34 35  2  0
 34  1  1  0
 36 37  1  0
 38 37  1  6
 38 39  1  0
 39 40  1  0
 40 41  1  1
 40 42  1  0
 42 43  1  0
 38 43  1  0
 42 44  1  6
 44 45  1  0
 45 46  2  0
 46 47  1  0
 47 48  1  0
 48 49  2  0
 49 50  1  0
 50 51  2  0
 51 52  1  0
 47 52  2  0
 44 52  1  0
 41 53  1  0
 53 54  2  0
 36 55  1  0
 55 56  2  0
 55 57  1  0
 57 58  1  0
 58 59  1  0
 58 60  2  0
 59 61  1  0
 61 62  2  0
 53 17  1  0
  1  2  1  0
  3  2  1  6
  3  4  1  0
  4  5  1  0
  5  6  1  0
  6  7  1  0
  3  7  1  0
  6  8  1  6
  8  9  1  0
  9 10  2  0
 10 11  1  0
 12 65  1  0
 53 69  1  0
 39 70  1  1
 34 66  1  0
 48 71  1  0
  4 64  1  1
 55 72  1  0
 20 67  1  1
 58 73  1  0
  5 63  1  1
 61 74  1  0
 29 68  1  0
 61 75  1  0
M  END