
  CDK    9/16/09,9:56

 60 62  0  0  0  0  0  0  0  0999 V2000
   18.4842   -3.9708    0.0000 N   0  0  0  0  0  0  0  0  0  0  0  0
   19.2026   -4.3875    0.0000 C   0  0  0  0  0  0  0  0  0  0  0  0
   19.9171   -3.9750    0.0000 C   0  0  0  0  0  0  0  0  0  0  0  0
   19.2026   -5.2125    0.0000 C   0  0  0  0  0  0  0  0  0  0  0  0
   20.6315   -4.3875    0.0000 N   0  0  0  0  0  0  0  0  0  0  0  0
   19.9171   -3.1500    0.0000 O   0  0  0  0  0  0  0  0  0  0  0  0
   19.9171   -5.6250    0.0000 C   0  0  0  0  0  0  0  0  0  0  0  0
   19.9171   -6.4500    0.0000 C   0  0  0  0  0  0  0  0  0  0  0  0
   20.6315   -6.8625    0.0000 N   0  0  0  0  0  0  0  0  0  0  0  0
   20.6315   -7.6875    0.0000 C   0  0  0  0  0  0  0  0  0  0  0  0
   21.3460   -8.1000    0.0000 N   0  0  0  0  0  0  0  0  0  0  0  0
   19.9171   -8.1000    0.0000 N   0  0  0  0  0  0  0  0  0  0  0  0
   17.7697   -4.3833    0.0000 C   0  0  0  0  0  0  0  0  0  0  0  0
   16.3368   -4.3833    0.0000 N   0  0  0  0  0  0  0  0  0  0  0  0
   17.0513   -3.9708    0.0000 C   0  0  0  0  0  0  0  0  0  0  0  0
   17.0513   -3.1458    0.0000 C   0  0  0  0  0  0  0  0  0  0  0  0
   17.7658   -2.7333    0.0000 C   0  0  0  0  0  0  0  0  0  0  0  0
   17.7658   -1.9083    0.0000 C   0  0  0  0  0  0  0  0  0  0  0  0
   18.4802   -1.4958    0.0000 N   0  0  0  0  0  0  0  0  0  0  0  0
   18.4802   -0.6708    0.0000 C   0  0  0  0  0  0  0  0  0  0  0  0
   19.1947   -0.2583    0.0000 N   0  0  0  0  0  0  0  0  0  0  0  0
   17.7658   -0.2583    0.0000 N   0  0  0  0  0  0  0  0  0  0  0  0
   17.7658   -5.2083    0.0000 O   0  0  0  0  0  0  0  0  0  0  0  0
    4.9387   -4.3832    0.0000 O   0  0  0  0  0  0  0  0  0  0  0  0
    4.9352   -5.2056    0.0000 C   0  0  0  0  0  0  0  0  0  0  0  0
    4.2000   -5.5800    0.0000 C   0  0  0  0  0  0  0  0  0  0  0  0
    3.4668   -5.2035    0.0000 C   0  0  0  0  0  0  0  0  0  0  0  0
    3.3375   -4.3871    0.0000 O   0  0  0  0  0  0  0  0  0  0  0  0
    2.8819   -5.7871    0.0000 C   0  0  0  0  0  0  0  0  0  0  0  0
    2.0659   -5.6546    0.0000 O   0  0  0  0  0  0  0  0  0  0  0  0
    3.2563   -6.5224    0.0000 C   0  0  0  0  0  0  0  0  0  0  0  0
    4.0675   -6.3960    0.0000 O   0  0  0  0  0  0  0  0  0  0  0  0
    2.8798   -7.2556    0.0000 N   0  0  0  0  0  0  0  0  0  0  0  0
    2.0634   -7.3848    0.0000 C   0  0  0  0  0  0  0  0  0  0  0  0
    1.9310   -8.2008    0.0000 N   0  0  0  0  0  0  0  0  0  0  0  0
    2.6693   -8.5744    0.0000 C   0  0  0  0  0  0  0  0  0  0  0  0
    2.8810   -9.3731    0.0000 C   0  0  0  0  0  0  0  0  0  0  0  0
    2.2961   -9.9567    0.0000 N   0  0  0  0  0  0  0  0  0  0  0  0
    3.6774   -9.5881    0.0000 N   0  0  0  0  0  0  0  0  0  0  0  0
    4.2623   -9.0045    0.0000 C   0  0  0  0  0  0  0  0  0  0  0  0
    4.0495   -8.2099    0.0000 N   0  0  0  0  0  0  0  0  0  0  0  0
    3.2531   -7.9949    0.0000 C   0  0  0  0  0  0  0  0  0  0  0  0
    5.6377   -5.6383    0.0000 N   0  0  0  0  0  0  0  0  0  0  0  0
    9.1917   -4.3875    0.0000 C   0  0  0  0  0  0  0  0  0  0  0  0
    9.9061   -3.9750    0.0000 N   0  0  0  0  0  0  0  0  0  0  0  0
    8.4730   -3.9750    0.0000 C   0  0  0  0  0  0  0  0  0  0  0  0
    9.1917   -5.2167    0.0000 O   0  0  0  0  0  0  0  0  0  0  0  0
    7.7544   -4.3875    0.0000 C   0  0  0  0  0  0  0  0  0  0  0  0
    7.0358   -3.9750    0.0000 C   0  0  0  0  0  0  0  0  0  0  0  0
    6.3200   -4.3808    0.0000 C   0  0  0  0  0  0  0  0  0  0  0  0
    6.3410   -5.2091    0.0000 C   0  0  0  0  0  0  0  0  0  0  0  0
   10.6206   -4.3875    0.0000 C   0  0  0  0  0  0  0  0  0  0  0  0
   11.3351   -3.9750    0.0000 C   0  0  0  0  0  0  0  0  0  0  0  0
   12.0496   -4.3875    0.0000 C   0  0  0  0  0  0  0  0  0  0  0  0
   12.7640   -3.9750    0.0000 C   0  0  0  0  0  0  0  0  0  0  0  0
   13.4785   -4.3875    0.0000 C   0  0  0  0  0  0  0  0  0  0  0  0
   14.1930   -3.9750    0.0000 C   0  0  0  0  0  0  0  0  0  0  0  0
   14.9074   -4.3875    0.0000 C   0  0  0  0  0  0  0  0  0  0  0  0
   15.6219   -3.9750    0.0000 C   0  0  0  0  0  0  0  0  0  0  0  0
   15.6219   -3.1500    0.0000 O   0  0  0  0  0  0  0  0  0  0  0  0
 18 19  1  0  0  0  0 
  9 10  1  0  0  0  0 
 19 20  1  0  0  0  0 
  2  3  1  0  0  0  0 
 20 21  2  0  0  0  0 
 24 25  2  0  0  0  0 
 26 25  1  1  0  0  0 
 26 27  1  0  0  0  0 
 27 28  1  6  0  0  0 
 27 29  1  0  0  0  0 
 29 30  1  6  0  0  0 
 29 31  1  0  0  0  0 
 31 32  1  0  0  0  0 
 26 32  1  0  0  0  0 
 31 33  1  1  0  0  0 
 33 34  1  0  0  0  0 
 34 35  2  0  0  0  0 
 35 36  1  0  0  0  0 
 36 37  1  0  0  0  0 
 37 38  1  0  0  0  0 
 37 39  2  0  0  0  0 
 39 40  1  0  0  0  0 
 40 41  2  0  0  0  0 
 41 42  1  0  0  0  0 
 36 42  2  0  0  0  0 
 33 42  1  0  0  0  0 
 10 11  1  0  0  0  0 
 25 43  1  0  0  0  0 
 20 22  1  0  0  0  0 
  3  6  2  0  0  0  0 
 44 45  1  0  0  0  0 
 13 23  2  0  0  0  0 
 44 46  1  0  0  0  0 
 10 12  2  0  0  0  0 
 44 47  2  0  0  0  0 
  1  2  1  0  0  0  0 
 46 48  1  0  0  0  0 
 13  1  1  0  0  0  0 
 48 49  1  0  0  0  0 
  4  7  1  0  0  0  0 
 49 50  1  0  0  0  0 
  2  4  1  1  0  0  0 
 50 51  1  0  0  0  0 
 51 43  1  0  0  0  0 
 14 15  1  0  0  0  0 
 45 52  1  0  0  0  0 
 15 13  1  0  0  0  0 
 52 53  1  0  0  0  0 
  7  8  1  0  0  0  0 
 53 54  1  0  0  0  0 
 15 16  1  6  0  0  0 
 54 55  1  0  0  0  0 
 55 56  1  0  0  0  0 
 16 17  1  0  0  0  0 
 56 57  1  0  0  0  0 
  8  9  1  0  0  0  0 
 57 58  1  0  0  0  0 
 17 18  1  0  0  0  0 
 58 59  1  0  0  0  0 
 59 14  1  0  0  0  0 
  3  5  1  0  0  0  0 
 59 60  2  0  0  0  0 
M  END