
          11280715202D 1   1.00000     0.00000     0

 20 21  0     0  0            999 V2000
    0.7000   -3.6292    0.0000 N   0  0  0  0  0  0           0  0  0
    6.5167   -3.9542    0.0000 C   0  0  0  0  0  0           0  0  0
    6.3417   -4.7667    0.0000 C   0  0  0  0  0  0           0  0  0
    0.2875   -4.9042    0.0000 N   0  0  0  0  0  0           0  0  0
    0.0375   -4.1167    0.0000 C   0  0  0  0  0  0           0  0  0
    1.3667   -4.1167    0.0000 C   0  0  0  0  0  0           0  0  0
    5.9000   -3.4042    0.0000 C   0  0  0  0  0  0           0  0  0
    7.3042   -3.7042    0.0000 C   0  0  0  0  0  0           0  0  0
    7.4750   -2.8917    0.0000 N   0  0  0  0  0  0           0  0  0
    1.1125   -4.9042    0.0000 C   0  0  0  0  0  0           0  0  0
    5.5625   -5.0167    0.0000 C   0  0  0  0  0  0           0  0  0
    4.9500   -4.4667    0.0000 C   0  0  0  0  0  0           0  0  0
    5.1167   -3.6625    0.0000 C   0  0  0  0  0  0           0  0  0
    8.2542   -2.6417    0.0000 O   0  0  0  0  0  0           0  0  0
    4.1667   -4.7167    0.0000 O   0  0  0  0  0  0           0  0  0
    6.9542   -5.3167    0.0000 C   0  0  0  0  0  0           0  0  0
    2.1542   -3.8667    0.0000 C   0  0  0  0  0  0           0  0  0
    7.9167   -4.2542    0.0000 C   0  0  0  0  0  0           0  0  0
    3.5542   -4.1667    0.0000 C   0  0  0  0  0  0           0  0  0
    2.7667   -4.4167    0.0000 C   0  0  0  0  0  0           0  0  0
  2  7  1  0     0  0
  3 11  1  0     0  0
  4  5  1  0     0  0
  5  1  2  0     0  0
  6  1  1  0     0  0
  7 13  2  0     0  0
  8  2  1  0     0  0
  9  8  2  0     0  0
 10  6  2  0     0  0
 11 12  2  0     0  0
 12 15  1  0     0  0
 13 12  1  0     0  0
 14  9  1  0     0  0
 15 19  1  0     0  0
 16  3  1  0     0  0
 17  6  1  0     0  0
 18  8  1  0     0  0
 19 20  1  0     0  0
 20 17  1  0     0  0
 10  4  1  0     0  0
  2  3  2  0     0  0
M  END