
  SciTegic09031215512D

 20 21  0  0  0  0            999 V2000
   -0.1068    0.7394    0.0000 C   0  0
    0.4452    0.1263    0.0000 C   0  0
   -0.9138    0.5679    0.0000 O   0  0
    0.1889    1.5096    0.0000 N   0  0
   -0.3303    2.1508    0.0000 C   0  0
   -1.1452    2.0217    0.0000 C   0  0
    0.1903   -1.9932    0.0000 S   0  0
    0.6752   -1.3258    0.0000 C   0  0
    0.1903   -0.6583    0.0000 N   0  0
   -0.5943   -0.9133    0.0000 C   0  0
   -0.5943   -1.7383    0.0000 C   0  0
   -1.3088   -2.1508    0.0000 C   0  0
   -2.0233   -1.7383    0.0000 C   0  0
   -2.0233   -0.9133    0.0000 C   0  0
   -1.3088   -0.5008    0.0000 C   0  0
   -2.7377   -2.1508    0.0000 O   0  0
    1.5002   -1.3258    0.0000 N   0  0
    1.9127   -0.6113    0.0000 C   0  0
    1.5002    0.1032    0.0000 N   0  0
    2.7377   -0.6113    0.0000 N   0  0
  1  2  1  0
  1  3  2  0
  1  4  1  0
  5  6  1  0
  4  5  1  0
  7  8  1  0
  8  9  1  0
  9 10  1  0
 10 11  1  0
  7 11  1  0
 12 13  1  0
 13 14  2  0
 14 15  1  0
 10 15  2  0
 11 12  2  0
 13 16  1  0
 18 19  1  0
 18 20  2  0
 17 18  1  0
  8 17  2  0
  2  9  1  0
M  END