
  SciTegic12151613572D

 24 26  0  0  0  0            999 V2000
    1.2990   -0.7500    0.0000 C   0  0
    1.2990    0.7500    0.0000 C   0  0
    0.0000    1.5000    0.0000 C   0  0
   -1.2990    0.7500    0.0000 C   0  0
   -1.2990   -0.7500    0.0000 C   0  0
    0.0000   -1.5000    0.0000 C   0  0
   -0.0031    3.0008    0.0000 C   0  0
    1.0351    3.6026    0.0000 C   0  0
   -1.0432    3.5993    0.0000 O   0  0
    2.5973   -1.5031    0.0000 N   0  0
    2.5951   -3.0039    0.0000 C   0  0
    1.5548   -3.6021    0.0000 O   0  0
    3.8933   -3.7570    0.0000 C   0  0
    4.0312   -5.2378    0.0000 C   0  0
    5.4984   -5.5497    0.0000 S   0  0
    6.2484   -4.2507    0.0000 C   0  0
    5.2447   -3.1359    0.0000 C   0  0
    7.4419   -4.1252    0.0000 C   0  0
    5.4872   -1.9607    0.0000 C   0  0
    2.9100   -6.2354    0.0000 N   0  0
    1.4433   -6.0211    0.0000 N   0  0
    0.7951   -7.3737    0.0000 N   0  0
    1.8812   -8.4083    0.0000 N   0  0
    3.2008   -7.6950    0.0000 C   0  0
  1  2  2  0
  2  3  1  0
  3  4  2  0
  4  5  1  0
  5  6  2  0
  6  1  1  0
  3  7  1  0
  7  8  1  0
  7  9  2  0
  1 10  1  0
 10 11  1  0
 11 12  2  0
 11 13  1  0
 13 14  2  0
 14 15  1  0
 15 16  1  0
 16 17  2  0
 17 13  1  0
 16 18  1  0
 17 19  1  0
 20 21  1  0
 21 22  2  0
 22 23  1  0
 23 24  2  0
 24 20  1  0
 14 20  1  0
M  END