
  CDK    9/16/09,10:2

 76 80  0  0  0  0  0  0  0  0999 V2000
    8.1607   -2.0391    0.0000 C   0  0  0  0  0  0  0  0  0  0  0  0
    8.8542   -3.2894    0.0000 O   0  0  0  0  0  0  0  0  0  0  0  0
    8.8684   -2.4657    0.0000 C   0  0  0  0  0  0  0  0  0  0  0  0
    8.1749   -1.2139    0.0000 C   0  0  0  0  0  0  0  0  0  0  0  0
    8.8976   -0.8115    0.0000 C   0  0  0  0  0  0  0  0  0  0  0  0
    8.9118    0.0111    0.0000 C   0  0  0  0  0  0  0  0  0  0  0  0
    9.6348    0.4137    0.0000 O   0  0  0  0  0  0  0  0  0  0  0  0
   10.2941   -2.4880    0.0000 C   0  0  0  0  0  0  0  0  0  0  0  0
   11.0290   -1.2638    0.0000 O   0  0  0  0  0  0  0  0  0  0  0  0
   11.0148   -2.0866    0.0000 C   0  0  0  0  0  0  0  0  0  0  0  0
   12.4434   -2.1090    0.0000 C   0  0  0  0  0  0  0  0  0  0  0  0
   13.1379   -3.3618    0.0000 O   0  0  0  0  0  0  0  0  0  0  0  0
   13.1521   -2.5362    0.0000 C   0  0  0  0  0  0  0  0  0  0  0  0
   12.4576   -1.2864    0.0000 C   0  0  0  0  0  0  0  0  0  0  0  0
   13.1806   -0.8838    0.0000 C   0  0  0  0  0  0  0  0  0  0  0  0
   13.1948   -0.0613    0.0000 C   0  0  0  0  0  0  0  0  0  0  0  0
   13.8893   -1.3110    0.0000 C   0  0  0  0  0  0  0  0  0  0  0  0
   14.5794   -2.5607    0.0000 C   0  0  0  0  0  0  0  0  0  0  0  0
   15.3064   -1.3370    0.0000 O   0  0  0  0  0  0  0  0  0  0  0  0
   15.2930   -2.1633    0.0000 C   0  0  0  0  0  0  0  0  0  0  0  0
   14.5652   -3.3864    0.0000 C   0  0  0  0  0  0  0  0  0  0  0  0
    6.0118   -2.4126    0.0000 C   0  0  0  0  0  0  0  0  0  0  0  0
    6.7322   -2.0115    0.0000 C   0  0  0  0  0  0  0  0  0  0  0  0
    6.7464   -1.1859    0.0000 O   0  0  0  0  0  0  0  0  0  0  0  0
    5.9976   -3.2394    0.0000 C   0  0  0  0  0  0  0  0  0  0  0  0
    6.7037   -3.6607    0.0000 C   0  0  0  0  0  0  0  0  0  0  0  0
    6.6819   -4.4880    0.0000 C   0  0  0  0  0  0  0  0  0  0  0  0
    7.3975   -4.9130    0.0000 C   0  0  0  0  0  0  0  0  0  0  0  0
    8.1176   -4.5115    0.0000 C   0  0  0  0  0  0  0  0  0  0  0  0
    8.1270   -3.6813    0.0000 C   0  0  0  0  0  0  0  0  0  0  0  0
    7.4182   -3.2611    0.0000 C   0  0  0  0  0  0  0  0  0  0  0  0
    8.8252   -4.9338    0.0000 O   0  0  0  0  0  0  0  0  0  0  0  0
    8.8110   -5.7598    0.0000 P   0  0  0  0  0  0  0  0  0  0  0  0
    7.9892   -5.7457    0.0000 O   0  0  0  0  0  0  0  0  0  0  0  0
    7.4384   -2.4378    0.0000 N   0  0  0  0  0  0  0  0  0  0  0  0
    8.2061    0.4371    0.0000 N   0  0  0  0  0  0  0  0  0  0  0  0
    9.5877   -2.0617    0.0000 N   0  0  0  0  0  0  0  0  0  0  0  0
   11.7226   -2.5103    0.0000 N   0  0  0  0  0  0  0  0  0  0  0  0
   13.8728   -2.1348    0.0000 N   0  0  0  0  0  0  0  0  0  0  0  0
   15.2764   -3.8156    0.0000 O   0  0  0  0  0  0  0  0  0  0  0  0
   16.0066   -2.5887    0.0000 N   0  0  0  0  0  0  0  0  0  0  0  0
    5.3055   -1.9863    0.0000 N   0  0  0  0  0  0  0  0  0  0  0  0
    8.7972   -6.5836    0.0000 O   0  0  0  0  0  0  0  0  0  0  0  0
    9.6419   -5.7738    0.0000 O   0  0  0  0  0  0  0  0  0  0  0  0
   -0.8511   -0.9544    0.0000 C   0  0  0  0  0  0  0  0  0  0  0  0
   -1.3775   -1.5880    0.0000 C   0  0  0  0  0  0  0  0  0  0  0  0
   -1.0913   -2.3611    0.0000 C   0  0  0  0  0  0  0  0  0  0  0  0
   -0.2816   -2.5067    0.0000 C   0  0  0  0  0  0  0  0  0  0  0  0
    0.0044   -3.2794    0.0000 C   0  0  0  0  0  0  0  0  0  0  0  0
   -1.6328   -2.9921    0.0000 O   0  0  0  0  0  0  0  0  0  0  0  0
   -1.3445   -3.7717    0.0000 C   0  0  0  0  0  0  0  0  0  0  0  0
   -0.5333   -3.9147    0.0000 C   0  0  0  0  0  0  0  0  0  0  0  0
   -0.2496   -4.6864    0.0000 C   0  0  0  0  0  0  0  0  0  0  0  0
   -0.7810   -5.3197    0.0000 C   0  0  0  0  0  0  0  0  0  0  0  0
   -1.5926   -5.1737    0.0000 C   0  0  0  0  0  0  0  0  0  0  0  0
   -1.8718   -4.3981    0.0000 C   0  0  0  0  0  0  0  0  0  0  0  0
   -1.1324   -0.1817    0.0000 O   0  0  0  0  0  0  0  0  0  0  0  0
    1.0145   -3.6456    0.0000 C   0  0  0  0  0  0  0  0  0  0  0  0
    1.7337   -3.2306    0.0000 C   0  0  0  0  0  0  0  0  0  0  0  0
    2.4395   -4.4715    0.0000 C   0  0  0  0  0  0  0  0  0  0  0  0
    1.7230   -4.8819    0.0000 C   0  0  0  0  0  0  0  0  0  0  0  0
    1.0105   -4.4704    0.0000 C   0  0  0  0  0  0  0  0  0  0  0  0
    3.1541   -4.8857    0.0000 N   0  0  0  0  0  0  0  0  0  0  0  0
    3.8687   -5.2957    0.0000 C   0  0  0  0  0  0  0  0  0  0  0  0
    4.5833   -5.7099    0.0000 S   0  0  0  0  0  0  0  0  0  0  0  0
    1.7337   -2.4038    0.0000 C   0  0  0  0  0  0  0  0  0  0  0  0
    0.2498   -1.8696    0.0000 C   0  0  0  0  0  0  0  0  0  0  0  0
    1.0176   -1.9930    0.0000 O   0  0  0  0  0  0  0  0  0  0  0  0
   -0.0307   -1.1000    0.0000 C   0  0  0  0  0  0  0  0  0  0  0  0
    2.4396   -3.6422    0.0000 C   0  0  0  0  0  0  0  0  0  0  0  0
   -2.1272   -5.8055    0.0000 O   0  0  0  0  0  0  0  0  0  0  0  0
    2.4476   -1.9903    0.0000 N   0  0  0  0  0  0  0  0  0  0  0  0
    3.1626   -2.4018    0.0000 C   0  0  0  0  0  0  0  0  0  0  0  0
    3.8765   -1.9883    0.0000 C   0  0  0  0  0  0  0  0  0  0  0  0
    4.5916   -2.3998    0.0000 C   0  0  0  0  0  0  0  0  0  0  0  0
    4.5927   -3.2248    0.0000 O   0  0  0  0  0  0  0  0  0  0  0  0
 35  1  1  0  0  0  0 
 21 40  1  0  0  0  0 
 37  8  1  0  0  0  0 
  3 37  1  0  0  0  0 
 20 41  1  0  0  0  0 
 42 22  1  0  0  0  0 
 38 11  1  0  0  0  0 
 10 38  1  0  0  0  0 
 33 43  1  0  0  0  0 
  6 36  1  0  0  0  0 
 33 44  1  0  0  0  0 
 39 18  1  0  0  0  0 
 13 39  1  0  0  0  0 
  6  7  2  0  0  0  0 
  8 10  1  0  0  0  0 
 10  9  2  0  0  0  0 
 11 13  1  0  0  0  0 
 13 12  2  0  0  0  0 
 11 14  1  1  0  0  0 
 14 15  1  0  0  0  0 
 15 16  1  0  0  0  0 
 15 17  1  0  0  0  0 
 18 20  1  0  0  0  0 
 20 19  2  0  0  0  0 
 18 21  1  6  0  0  0 
 22 23  1  0  0  0  0 
 23 24  2  0  0  0  0 
 22 25  1  6  0  0  0 
 25 26  1  0  0  0  0 
 26 27  2  0  0  0  0 
 27 28  1  0  0  0  0 
 28 29  2  0  0  0  0 
 29 30  1  0  0  0  0 
 30 31  2  0  0  0  0 
 31 26  1  0  0  0  0 
 29 32  1  0  0  0  0 
 32 33  1  0  0  0  0 
 33 34  2  0  0  0  0 
  1  3  1  0  0  0  0 
 45 69  1  0  0  0  0 
 69 67  2  0  0  0  0 
 67 48  1  0  0  0  0 
 47 46  2  0  0  0  0 
 46 45  1  0  0  0  0 
 47 48  1  0  0  0  0 
 47 50  1  0  0  0  0 
 48 49  2  0  0  0  0 
 49 52  1  0  0  0  0 
 51 50  1  0  0  0  0 
 51 52  2  0  0  0  0 
 52 53  1  0  0  0  0 
 53 54  2  0  0  0  0 
 54 55  1  0  0  0  0 
 55 56  2  0  0  0  0 
 56 51  1  0  0  0  0 
 45 57  2  0  0  0  0 
 58 59  2  0  0  0  0 
 59 70  1  0  0  0  0 
 70 60  2  0  0  0  0 
 60 61  1  0  0  0  0 
 61 62  2  0  0  0  0 
 62 58  1  0  0  0  0 
 49 58  1  0  0  0  0 
 60 63  1  0  0  0  0 
 63 64  2  0  0  0  0 
 64 65  2  0  0  0  0 
 59 66  1  0  0  0  0 
 66 68  2  0  0  0  0 
 55 71  1  0  0  0  0 
  3  2  2  0  0  0  0 
 66 72  1  0  0  0  0 
  1  4  1  1  0  0  0 
 72 73  1  0  0  0  0 
  4  5  1  0  0  0  0 
 73 74  1  0  0  0  0 
  5  6  1  0  0  0  0 
 74 75  1  0  0  0  0 
 75 42  1  0  0  0  0 
 23 35  1  0  0  0  0 
 75 76  2  0  0  0  0 
M  END