
          11280715172D 1   1.00000     0.00000     0

 39 43  0     0  0            999 V2000
   -1.2958    0.7708    0.0000 C   0  0  0  0  0  0           0  0  0
   -2.0500    0.4333    0.0000 N   0  0  3  0  0  0           0  0  0
   -2.6083    1.0458    0.0000 N   0  0  0  0  0  0           0  0  0
   -1.3875    1.5958    0.0000 C   0  0  0  0  0  0           0  0  0
   -2.1958    1.7625    0.0000 C   0  0  0  0  0  0           0  0  0
   -0.5833    0.3583    0.0000 N   0  0  0  0  0  0           0  0  0
    0.1292    0.7750    0.0000 C   0  0  0  0  0  0           0  0  0
    1.5625    0.7833    0.0000 C   0  0  0  0  0  0           0  0  0
   -2.2208   -0.3667    0.0000 C   0  0  0  0  0  0           0  0  0
    0.8417    0.3625    0.0000 N   0  0  0  0  0  0           0  0  0
    2.2792    0.3708    0.0000 C   0  0  0  0  0  0           0  0  0
    2.9917    0.7833    0.0000 C   0  0  0  0  0  0           0  0  0
   -1.7708   -1.7292    0.0000 N   0  0  0  0  0  0           0  0  0
   -2.5333    2.5208    0.0000 C   0  0  3  0  0  0           0  0  0
    4.4167    4.0750    0.0000 N   0  0  3  0  0  0           0  0  0
    2.9875    1.6000    0.0000 C   0  0  0  0  0  0           0  0  0
   -1.6083   -0.9167    0.0000 C   0  0  0  0  0  0           0  0  0
    0.1292    1.6000    0.0000 O   0  0  0  0  0  0           0  0  0
    1.5625    1.6083    0.0000 C   0  0  0  0  0  0           0  0  0
   -3.0000   -0.6292    0.0000 C   0  0  0  0  0  0           0  0  0
    2.2750    2.0208    0.0000 C   0  0  0  0  0  0           0  0  0
    4.4167    5.7167    0.0000 O   0  0  0  0  0  0           0  0  0
   -2.5583   -1.9875    0.0000 C   0  0  0  0  0  0           0  0  0
   -3.1708   -1.4375    0.0000 C   0  0  0  0  0  0           0  0  0
    3.7042    2.0208    0.0000 O   0  0  0  0  0  0           0  0  0
    4.4167    3.2500    0.0000 C   0  0  0  0  0  0           0  0  0
    3.7042    2.8375    0.0000 C   0  0  0  0  0  0           0  0  0
    3.7042    4.4792    0.0000 C   0  0  0  0  0  0           0  0  0
    5.1292    4.4792    0.0000 C   0  0  0  0  0  0           0  0  0
    2.2792   -0.4417    0.0000 C   0  0  0  0  0  0           0  0  0
    3.7000    0.3833    0.0000 C   0  0  0  0  0  0           0  0  0
   -2.0500    3.1833    0.0000 C   0  0  0  0  0  0           0  0  0
   -3.3583    2.6000    0.0000 C   0  0  0  0  0  0           0  0  0
   -2.9500    3.2333    0.0000 C   0  0  0  0  0  0           0  0  0
    5.1292    5.3042    0.0000 C   0  0  0  0  0  0           0  0  0
    3.7042    5.3042    0.0000 C   0  0  0  0  0  0           0  0  0
   -2.7250   -2.7917    0.0000 C   0  0  0  0  0  0           0  0  0
    3.7042   -0.4375    0.0000 C   0  0  0  0  0  0           0  0  0
    2.9917   -0.8542    0.0000 C   0  0  0  0  0  0           0  0  0
  2  1  1  0     0  0
  3  2  1  0     0  0
  4  1  2  0     0  0
  5  4  1  0     0  0
  6  1  1  0     0  0
  7  6  1  0     0  0
  8 10  1  0     0  0
  9  2  1  0     0  0
 10  7  1  0     0  0
 11  8  2  0     0  0
 12 11  1  0     0  0
 13 17  2  0     0  0
 14  5  1  0     0  0
 15 26  1  0     0  0
 16 21  1  0     0  0
 17  9  1  0     0  0
 18  7  2  0     0  0
 19  8  1  0     0  0
 20  9  2  0     0  0
 21 19  2  0     0  0
 22 35  1  0     0  0
 23 24  2  0     0  0
 24 20  1  0     0  0
 25 16  1  0     0  0
 26 27  1  0     0  0
 27 25  1  0     0  0
 28 15  1  0     0  0
 29 15  1  0     0  0
 30 11  1  0     0  0
 31 12  1  0     0  0
 32 14  1  0     0  0
 33 14  1  0     0  0
 34 14  1  0     0  0
 35 29  1  0     0  0
 36 28  1  0     0  0
 37 23  1  0     0  0
 38 39  1  0     0  0
 39 30  2  0     0  0
  3  5  2  0     0  0
 23 13  1  0     0  0
 16 12  2  0     0  0
 31 38  2  0     0  0
 22 36  1  0     0  0
M  END