
  SciTegic01161211242D

 21 21  0  0  0  0            999 V2000
   -1.8868    1.9750    0.0000 C   0  0
   -1.9045    0.3879    0.0000 C   0  0
   -0.4408    1.1638    0.0000 C   0  0
   -1.8868   -1.3225    0.0000 C   0  0
   -0.4408   -0.4761    0.0000 C   0  0
   -3.3152    1.1638    0.0000 C   0  0
    0.8588    1.9243    0.0000 N   0  0
   -3.3152   -0.4761    0.0000 C   0  0
    7.3632    1.2136    0.0000 N   0  0
    2.1633    1.1821    0.0000 O   0  0
    4.7632    1.1979    0.0000 C   0  0
    3.4587    1.9400    0.0000 C   0  0
    6.0587    1.9557    0.0000 C   0  0
   -1.8868    3.1750    0.0000 C   0  0
   -0.8607   -0.2041    0.0000 C   0  0
   -3.0160   -0.0642    0.0000 C   0  0
   12.4631    1.1374    0.0000 Cl  0  0
    4.7705   -0.0021    0.0000 O   0  0
    8.6586    1.9714    0.0000 C   0  0
    9.7016    1.3781    0.0000 C   0  0
    8.6513    3.1714    0.0000 C   0  0
  1  2  1  0
  1  3  1  0
  2  4  1  0
  3  5  1  0
  4  5  1  0
  1  6  1  0
  3  7  2  0
  4  8  1  0
  6  8  1  0
  7 10  1  0
 10 12  1  0
 11 12  1  0
  9 13  1  0
 11 13  1  0
  1 14  1  0
  2 15  1  0
  2 16  1  0
 11 18  1  0
  9 19  1  0
 19 20  1  0
 19 21  1  0
M  END