
  SciTegic12121614142D

 27 30  0  0  0  0            999 V2000
    0.2917   -0.7475    0.0000 C   0  0
    0.2917    0.7475    0.0000 C   0  0
   -1.0028    1.5132    0.0000 C   0  0
   -2.3155    0.7475    0.0000 C   0  0
   -2.3155   -0.7475    0.0000 C   0  0
   -1.0028   -1.5132    0.0000 N   0  0
    2.5889    0.0182    0.0000 S   0  0
    1.7138    1.2033    0.0000 N   0  0
    1.7138   -1.2033    0.0000 C   0  0
    2.1852   -2.6281    0.0000 N   0  0
    1.1955   -3.7580    0.0000 C   0  0
    1.4480   -5.2366    0.0000 C   0  0
    2.7615   -5.9611    0.0000 N   0  0
    4.1468   -5.3859    0.0000 C   0  0
    4.5609   -3.9442    0.0000 C   0  0
    3.6918   -2.7216    0.0000 C   0  0
    2.6952   -7.1593    0.0000 C   0  0
   -3.6168    1.4950    0.0000 C   0  0
   -4.9144    0.7421    0.0000 C   0  0
   -6.2151    1.4892    0.0000 C   0  0
   -6.2185    2.9892    0.0000 C   0  0
   -4.9211    3.7421    0.0000 C   0  0
   -3.6204    2.9950    0.0000 C   0  0
   -7.5184    3.7394    0.0000 O   0  0
   -7.5193    4.9394    0.0000 C   0  0
   -7.5116    0.7332    0.0000 O   0  0
   -7.5072   -0.4668    0.0000 C   0  0
  1  2  1  0
  2  3  1  0
  3  4  2  0
  4  5  1  0
  5  6  2  0
  1  6  1  0
  7  8  1  0
  7  9  1  0
  1  9  2  0
  2  8  2  0
 10 11  1  0
 11 12  1  0
 12 13  1  0
 13 14  1  0
 14 15  1  0
 15 16  1  0
 10 16  1  0
 13 17  1  0
  9 10  1  0
 18 19  1  0
 19 20  2  0
 20 21  1  0
 21 22  2  0
 22 23  1  0
 18 23  2  0
 24 25  1  0
 21 24  1  0
 26 27  1  0
 20 26  1  0
  4 18  1  0
M  END