
  SciTegic05191616092D

 28 29  0  0  0  0            999 V2000
   -2.6111    0.7486    0.0000 C   0  0
   -2.6111   -0.7486    0.0000 C   0  0
   -1.2964   -1.4973    0.0000 C   0  0
   -1.2964    1.4973    0.0000 C   0  0
    0.0000    0.7486    0.0000 C   0  0
    0.0000   -0.7486    0.0000 C   0  0
    1.2964   -1.4973    0.0000 O   0  0
    2.5929   -0.7486    0.0000 C   0  0
    2.5929    0.7486    0.0000 C   0  0  1  0  0  0
    1.2964    1.4973    0.0000 O   0  0
    3.8942    1.4964    0.0000 C   0  0
    5.1929    0.7441    0.0000 N   0  0
    6.4942    1.4919    0.0000 C   0  0
    7.7928    0.7396    0.0000 C   0  0
    9.0941    1.4873    0.0000 O   0  0
   10.3928    0.7351    0.0000 C   0  0
   10.4001   -0.7826    0.0000 C   0  0
   11.6959   -1.5282    0.0000 C   0  0
   13.0143   -0.7723    0.0000 C   0  0
    9.1073   -1.5450    0.0000 O   0  0
    9.1178   -2.7450    0.0000 C   0  0
   11.7004    1.4772    0.0000 C   0  0
   12.9962    0.7316    0.0000 C   0  0
   14.1005    1.7368    0.0000 C   0  0
   13.4782    3.1046    0.0000 C   0  0
   12.0146    2.9371    0.0000 N   0  0
   18.0737    0.5043    0.0000 Cl  0  0
   20.4005    0.0294    0.0000 Cl  0  0
  1  2  2  0
  2  3  1  0
  3  6  2  0
  5  4  2  0
  4  1  1  0
  5  6  1  0
  5 10  1  0
  6  7  1  0
  7  8  1  0
  8  9  1  0
  9 10  1  0
  9 11  1  1
 11 12  1  0
 12 13  1  0
 13 14  1  0
 14 15  1  0
 15 16  1  0
 16 17  2  0
 17 18  1  0
 18 19  2  0
 19 23  1  0
 22 16  1  0
 17 20  1  0
 20 21  1  0
 22 23  2  0
 23 24  1  0
 24 25  1  0
 25 26  1  0
 26 22  1  0
M  END