
  SciTegic12131016242D

 21 23  0  0  0  0            999 V2000
   -4.1206    2.0909    0.0000 C   0  0
   -4.1217    1.2638    0.0000 C   0  0
   -3.4072    0.8512    0.0000 C   0  0
   -3.4090    2.5035    0.0000 C   0  0
   -2.6939    2.0945    0.0000 C   0  0
   -2.6932    1.2680    0.0000 C   0  0
   -1.9782    0.8572    0.0000 C   0  0
   -1.2634    1.2718    0.0000 C   0  0
   -1.2682    2.1014    0.0000 C   0  0
   -1.9838    2.5085    0.0000 C   0  0
   -3.4115    3.3282    0.0000 O   0  0
   -1.9882    3.3332    0.0000 O   0  0
   -4.8362    0.8521    0.0000 C   0  0
   -3.4053    0.0265    0.0000 C   0  0
   -4.1203   -0.3895    0.0000 C   0  0
   -4.1204   -1.2106    0.0000 C   0  0
   -3.4071   -1.6251    0.0000 C   0  0
   -2.6921   -1.2123    0.0000 C   0  0
   -2.6903   -0.3850    0.0000 O   0  0
   -4.8352   -1.6218    0.0000 O   0  0
   -1.9784   -1.6254    0.0000 O   0  0
 10  5  1  0
  4 11  1  0
  2  3  1  0
 10 12  1  0
  5  6  1  0
  2 13  1  0
  3  6  2  0
  3 14  1  0
 14 15  2  0
  6  7  1  0
  1  2  2  0
  7  8  2  0
  5  4  2  0
  8  9  1  0
 14 19  1  0
 15 16  1  0
 16 17  1  0
 17 18  2  0
 18 19  1  0
  4  1  1  0
 16 20  2  0
  9 10  2  0
 18 21  1  0
M  END