
          11280715362D 1   1.00000     0.00000     0

 39 42  0     1  0            999 V2000
    3.6625   -4.9292    0.0000 C   0  0  1  0  0  0           0  0  0
    3.7042   -4.1042    0.0000 C   0  0  2  0  0  0           0  0  0
    4.3042   -5.4417    0.0000 N   0  0  3  0  0  0           0  0  0
    7.0167   -1.7000    0.0000 C   0  0  0  0  0  0           0  0  0
    6.6167   -2.4167    0.0000 C   0  0  0  0  0  0           0  0  0
    2.8667   -5.1417    0.0000 C   0  0  0  0  0  0           0  0  0
    6.6000   -0.9792    0.0000 C   0  0  3  0  0  0           0  0  0
    2.9417   -3.8042    0.0000 C   0  0  2  0  0  0           0  0  0
    5.7917   -2.4250    0.0000 C   0  0  0  0  0  0           0  0  0
    7.9042   -4.5042    0.0000 C   0  0  0  0  0  0           0  0  0
    2.7292   -3.0125    0.0000 O   0  0  0  0  0  0           0  0  0
    7.8542   -3.1250    0.0000 N   0  0  0  0  0  0           0  0  0
    2.4167   -4.4417    0.0000 C   0  0  0  0  0  0           0  0  0
    8.5125   -4.2042    0.0000 O   0  0  0  0  0  0           0  0  0
    5.3667   -1.7042    0.0000 C   0  0  0  0  0  0           0  0  0
    5.3792   -3.1417    0.0000 C   0  0  0  0  0  0           0  0  0
    5.6125   -3.9000    0.0000 C   0  0  0  0  0  0           0  0  0
    6.2917   -4.0167    0.0000 C   0  0  0  0  0  0           0  0  0
    4.4000   -3.6542    0.0000 O   0  0  0  0  0  0           0  0  0
    3.3167   -2.4250    0.0000 C   0  0  0  0  0  0           0  0  0
    7.0292   -3.1292    0.0000 C   0  0  0  0  0  0           0  0  0
    4.1417   -2.4292    0.0000 C   0  0  0  0  0  0           0  0  0
    8.0417   -5.1417    0.0000 O   0  0  0  0  0  0           0  0  0
    4.5417   -1.7167    0.0000 C   0  0  0  0  0  0           0  0  0
    4.5542   -3.1500    0.0000 C   0  0  0  0  0  0           0  0  0
    4.1167   -6.2542    0.0000 C   0  0  0  0  0  0           0  0  0
    5.0417   -5.1000    0.0000 C   0  0  0  0  0  0           0  0  0
    7.8417   -1.6917    0.0000 C   0  0  0  0  0  0           0  0  0
    5.1125   -4.1417    0.0000 C   0  0  0  0  0  0           0  0  0
    7.2625   -4.2417    0.0000 C   0  0  0  0  0  0           0  0  0
    8.2667   -2.4042    0.0000 C   0  0  0  0  0  0           0  0  0
    7.0042   -0.2625    0.0000 C   0  0  0  0  0  0           0  0  0
    5.7750   -0.9875    0.0000 C   0  0  0  0  0  0           0  0  0
    7.3917   -0.7625    0.0000 C   0  0  0  0  0  0           0  0  0
    6.6042   -4.4917    0.0000 C   0  0  0  0  0  0           0  0  0
    4.6250   -6.9042    0.0000 C   0  0  0  0  0  0           0  0  0
    5.7917   -5.4625    0.0000 C   0  0  0  0  0  0           0  0  0
    5.4542   -6.9042    0.0000 C   0  0  0  0  0  0           0  0  0
    5.9667   -6.2667    0.0000 C   0  0  0  0  0  0           0  0  0
  2  1  1  0     0  0
  1  3  1  1     0  0
  4  5  1  0     0  0
  5  9  1  0     0  0
  6  1  1  0     0  0
  7  4  1  0     0  0
  8  2  1  0     0  0
  9 16  2  0     0  0
 10 30  1  0     0  0
  8 11  1  1     0  0
 12 21  1  0     0  0
 13  6  1  0     0  0
 14 10  2  0     0  0
 15 24  2  0     0  0
 16 25  1  0     0  0
 17 29  1  0     0  0
 18 17  2  0     0  0
  2 19  1  6     0  0
 20 11  1  0     0  0
 21  5  2  0     0  0
 22 20  1  0     0  0
 23 10  1  0     0  0
 24 22  1  0     0  0
 25 22  2  0     0  0
 26  3  1  0     0  0
 27  3  1  0     0  0
 28  4  2  0     0  0
 29 19  1  0     0  0
 30 35  1  0     0  0
 31 12  2  0     0  0
 32  7  1  0     0  0
 33  7  1  0     0  0
 34  7  1  0     0  0
 35 18  1  0     0  0
 36 26  1  0     0  0
 37 27  1  0     0  0
 38 36  1  0     0  0
 39 37  1  0     0  0
 13  8  1  0     0  0
 38 39  1  0     0  0
 15  9  1  0     0  0
 28 31  1  0     0  0
M  END