
  SciTegic10041313242D

 24 26  0  0  0  0            999 V2000
   11.5898  -11.4960    0.0000 C   0  0
   12.3023  -11.9128    0.0000 C   0  0
   13.0160  -11.5003    0.0000 C   0  0
   13.0157  -10.6744    0.0000 C   0  0
   12.2958  -10.2628    0.0000 C   0  0
   11.5851  -10.6776    0.0000 C   0  0
   10.8684  -10.2688    0.0000 O   0  0
   10.1562  -10.6852    0.0000 C   0  0
    9.4405  -10.2745    0.0000 C   0  0
    8.7287  -10.6901    0.0000 C   0  0
    8.7326  -11.5160    0.0000 C   0  0
    9.4544  -11.9246    0.0000 C   0  0
   10.1632  -11.5066    0.0000 C   0  0
    8.0209  -11.9333    0.0000 O   0  0
   13.7306  -11.9125    0.0000 C   0  0
   14.4449  -11.4997    0.0000 C   0  0
   15.1982  -11.8297    0.0000 C   0  0
   15.7500  -11.2165    0.0000 N   0  0
   15.3372  -10.5021    0.0000 C   0  0
   14.5303  -10.6741    0.0000 N   0  0
   15.6723   -9.7482    0.0000 O   0  0
   15.3723  -12.6363    0.0000 O   0  0
   12.2921   -9.4377    0.0000 I   0  0
   10.8754  -11.9085    0.0000 I   0  0
 11 12  1  0
  6  1  1  0
 12 13  2  0
 13  8  1  0
  1  2  2  0
 11 14  1  0
  6  7  1  0
  3 15  1  0
  3  4  2  0
 16 15  1  0
 16 17  1  0
  7  8  1  0
  8  9  2  0
  4  5  1  0
 17 18  1  0
 18 19  1  0
 19 20  1  0
 20 16  1  0
  9 10  1  0
 19 21  2  0
  2  3  1  0
 17 22  2  0
 10 11  2  0
  5 23  1  0
  5  6  2  0
  1 24  1  0
M  END