
  SciTegic08171211362D

 25 26  0  0  0  0            999 V2000
    6.5427  -14.1297    0.0000 S   0  3
    7.2118  -14.6119    0.0000 C   0  0  1  0  0  0
    6.9536  -15.3944    0.0000 O   0  0
    5.8741  -14.6107    0.0000 C   0  0
    6.1325  -15.3980    0.0000 C   0  0  1  0  0  0
    6.5341  -13.3019    0.0000 O   0  5
    4.9830  -16.2570    0.0000 N   0  3
    7.9589  -14.9482    0.0000 C   0  0
    7.5338  -13.8598    0.0000 C   0  0
    5.3059  -15.4990    0.0000 C   0  0
    3.6755  -15.1245    0.0000 I   0  5
    5.7492  -16.5842    0.0000 C   0  0
    4.2209  -15.9216    0.0000 C   0  0
    4.6525  -17.0258    0.0000 C   0  0
    8.0499  -15.7613    0.0000 C   0  0
    8.6350  -14.4564    0.0000 C   0  0
    8.3388  -13.7645    0.0000 C   0  0
    7.0361  -13.2036    0.0000 C   0  0
    9.3796  -14.7892    0.0000 C   0  0
    8.7971  -16.0976    0.0000 C   0  0
    7.3616  -12.4489    0.0000 C   0  0
    8.6692  -13.0165    0.0000 C   0  0
    8.1781  -12.3554    0.0000 C   0  0
    9.4698  -15.6083    0.0000 C   0  0
    6.6160  -16.0700    0.0000 H   0  0
  2  1  1  0
  3  2  1  0
  4  1  1  0
  5  4  1  0
  6  1  1  0
  7 10  1  0
  2  8  1  6
  2  9  1  1
  5 10  1  6
 12  7  1  0
 13  7  1  0
 14  7  1  0
 15  8  1  0
 16  8  2  0
 17  9  1  0
 18  9  1  0
 19 16  1  0
 20 15  2  0
 21 18  1  0
 22 17  1  0
 23 22  1  0
 24 20  1  0
  5 25  1  1
  3  5  1  0
 21 23  1  0
 19 24  2  0
M  CHG  4   1   1   6  -1   7   1  11  -1
M  END