
          11280715062D 1   1.00000     0.00000     0

 38 40  0     0  0            999 V2000
   10.8417   -2.4542    0.0000 N   0  3  0  0  0  0           0  0  0
    6.1667   -3.3417    0.0000 N   0  0  0  0  0  0           0  0  0
    6.6917   -3.0417    0.0000 C   0  0  0  0  0  0           0  0  0
    6.1667   -3.9417    0.0000 C   0  0  0  0  0  0           0  0  0
   10.8417   -1.8542    0.0000 N   0  5  0  0  0  0           0  0  0
    7.2042   -2.7417    0.0000 N   0  0  0  0  0  0           0  0  0
    8.7667   -4.2500    0.0000 C   0  0  0  0  0  0           0  0  0
    9.2875   -3.9500    0.0000 C   0  0  0  0  0  0           0  0  0
   10.8417   -3.0542    0.0000 N   0  0  0  0  0  0           0  0  0
   10.3292   -3.3500    0.0000 C   0  0  0  0  0  0           0  0  0
   10.3292   -3.9500    0.0000 C   0  0  0  0  0  0           0  0  0
    9.8042   -4.2500    0.0000 C   0  0  0  0  0  0           0  0  0
    0.9792   -3.9417    0.0000 N   0  0  3  0  0  0           0  0  0
    8.7667   -4.8500    0.0000 O   0  0  0  0  0  0           0  0  0
    9.8042   -3.0500    0.0000 C   0  0  0  0  0  0           0  0  0
    9.2875   -3.3500    0.0000 C   0  0  0  0  0  0           0  0  0
    1.5000   -4.2417    0.0000 C   0  0  0  0  0  0           0  0  0
    5.6500   -4.2417    0.0000 N   0  0  0  0  0  0           0  0  0
    6.6917   -4.2417    0.0000 N   0  0  0  0  0  0           0  0  0
    2.0167   -3.9417    0.0000 C   0  0  0  0  0  0           0  0  0
    8.2500   -3.9500    0.0000 N   0  0  0  0  0  0           0  0  0
   10.8417   -4.2500    0.0000 I   0  0  0  0  0  0           0  0  0
    2.5375   -4.2417    0.0000 C   0  0  0  0  0  0           0  0  0
    3.0542   -3.9417    0.0000 C   0  0  0  0  0  0           0  0  0
    4.6125   -4.2417    0.0000 C   0  0  0  0  0  0           0  0  0
    3.5750   -4.2417    0.0000 O   0  0  0  0  0  0           0  0  0
    0.4542   -4.2417    0.0000 C   0  0  0  0  0  0           0  0  0
    0.9792   -3.3417    0.0000 C   0  0  0  0  0  0           0  0  0
    2.5292   -3.0417    0.0000 C   0  0  0  0  0  0           0  0  0
    5.1292   -3.9417    0.0000 C   0  0  0  0  0  0           0  0  0
    2.0167   -3.3417    0.0000 C   0  0  0  0  0  0           0  0  0
    4.0917   -3.9417    0.0000 C   0  0  0  0  0  0           0  0  0
    7.2125   -3.9417    0.0000 C   0  0  0  0  0  0           0  0  0
    7.7292   -4.2417    0.0000 C   0  0  0  0  0  0           0  0  0
    3.0542   -3.3417    0.0000 C   0  0  0  0  0  0           0  0  0
   -0.0625   -3.9417    0.0000 C   0  0  0  0  0  0           0  0  0
    0.4625   -3.0417    0.0000 C   0  0  0  0  0  0           0  0  0
   -0.0625   -3.3417    0.0000 C   0  0  0  0  0  0           0  0  0
  2  4  1  0     0  0
  3  2  1  0     0  0
  4 19  2  0     0  0
  5  1  2  0     0  0
  6  3  3  0     0  0
  7  8  1  0     0  0
  8 16  1  0     0  0
  9  1  2  0     0  0
 10  9  1  0     0  0
 11 10  2  0     0  0
 12 11  1  0     0  0
 13 17  1  0     0  0
 14  7  2  0     0  0
 15 10  1  0     0  0
 16 15  2  0     0  0
 17 20  1  0     0  0
 18  4  1  0     0  0
 19 33  1  0     0  0
 20 23  2  0     0  0
 21  7  1  0     0  0
 22 11  1  0     0  0
 23 24  1  0     0  0
 24 26  1  0     0  0
 25 30  1  0     0  0
 26 32  1  0     0  0
 27 13  1  0     0  0
 28 13  1  0     0  0
 29 35  1  0     0  0
 30 18  1  0     0  0
 31 29  2  0     0  0
 32 25  1  0     0  0
 33 34  1  0     0  0
 34 21  1  0     0  0
 35 24  2  0     0  0
 36 27  1  0     0  0
 37 28  1  0     0  0
 38 37  1  0     0  0
  8 12  2  0     0  0
 31 20  1  0     0  0
 36 38  1  0     0  0
M  CHG  2   1   1   5  -1
M  END