
  SciTegic10031211142D

 26 29  0  0  0  0            999 V2000
   -3.5966  -22.5387    0.0000 C   0  0
   -4.0094  -23.2546    0.0000 C   0  0
   -3.5959  -23.9679    0.0000 C   0  0
   -2.7697  -23.9665    0.0000 C   0  0
   -2.3589  -23.2459    0.0000 C   0  0
   -2.7748  -22.5355    0.0000 C   0  0
   -1.5307  -23.2410    0.0000 C   0  0
   -1.1158  -23.9540    0.0000 C   0  0
   -0.2953  -23.9512    0.0000 C   0  0
    0.1164  -23.2371    0.0000 N   0  0
   -0.2985  -22.5240    0.0000 C   0  0
   -1.1251  -22.5251    0.0000 C   0  0
    0.9384  -23.2408    0.0000 C   0  0
    1.3506  -23.9554    0.0000 C   0  0
    2.1733  -22.5285    0.0000 C   0  0
    1.3466  -22.5265    0.0000 C   0  0
    2.5854  -23.2431    0.0000 C   0  0  1  0  0  0
    2.1667  -23.9570    0.0000 C   0  0  1  0  0  0
    2.5733  -24.6727    0.0000 C   0  0
    3.4003  -24.6805    0.0000 C   0  0
    3.8190  -23.9667    0.0000 C   0  0
    3.4108  -23.2449    0.0000 C   0  0
   -2.3663  -21.8199    0.0000 I   0  0
    0.9339  -21.8133    0.0000 O   0  0
    2.9922  -22.5271    0.0000 H   0  0
    1.7479  -24.6662    0.0000 H   0  0
 13 14  1  0
  6  1  1  0
  7  8  1  0
  1  2  2  0
  3  4  2  0
 13 16  1  0
 14 18  1  0
 17 15  1  0
 15 16  1  0
 10 13  1  0
 17 18  1  0
  4  5  1  0
  2  3  1  0
  5  6  2  0
  7 12  1  0
  8  9  1  0
 17 22  1  0
 18 19  1  0
 19 20  1  0
 20 21  1  0
 21 22  1  0
  9 10  1  0
  6 23  1  0
 10 11  1  0
 16 24  1  0
 11 12  1  0
 17 25  1  1
  5  7  1  0
 18 26  1  6
M  ISO  1  23 125
M  END