
  SciTegic04091414352D

 51 55  0  0  0  0            999 V2000
   16.9450   -4.0199    0.0000 C   0  0
   16.9438   -4.8394    0.0000 C   0  0
   17.6519   -5.2484    0.0000 C   0  0
   17.6501   -3.6110    0.0000 C   0  0
   18.3587   -4.0163    0.0000 C   0  0
   18.3590   -4.8395    0.0000 C   0  0
   19.1419   -5.0936    0.0000 S   0  0
   19.6257   -4.4275    0.0000 C   0  0
   19.1415   -3.7617    0.0000 N   0  0
   20.4412   -4.4274    0.0000 C   0  0
   20.9218   -5.0884    0.0000 C   0  0
   21.6989   -4.8356    0.0000 N   0  0
   21.6986   -4.0183    0.0000 C   0  0
   20.9213   -3.7662    0.0000 S   0  0
   22.3595   -3.5377    0.0000 C   0  0
   22.2737   -2.7250    0.0000 C   0  0
   20.6695   -5.8657    0.0000 O   0  0
   19.3938   -2.9845    0.0000 C   0  0
   22.3602   -5.3157    0.0000 C   0  0
   22.2750   -6.1284    0.0000 C   0  0
   22.9358   -2.2459    0.0000 N   0  3
   22.8504   -1.4339    0.0000 C   0  0
   22.1031   -1.1011    0.0000 C   0  0
   21.4403   -1.5863    0.0000 C   0  0
   21.5290   -2.3966    0.0000 C   0  0
   23.6820   -2.5790    0.0000 C   0  0
   24.3436   -2.0992    0.0000 C   0  0
   25.0898   -2.4323    0.0000 C   0  0
   25.7513   -1.9526    0.0000 C   0  0
   26.4976   -2.2856    0.0000 C   0  0
   27.1591   -1.8059    0.0000 C   0  0
   27.9054   -2.1390    0.0000 N   0  0
   28.5669   -1.6592    0.0000 C   0  0
   29.3132   -1.9923    0.0000 C   0  0
   28.4823   -0.8464    0.0000 O   0  0
   29.9747   -1.5126    0.0000 C   0  0
   30.7210   -1.8456    0.0000 C   0  0
   31.3825   -1.3659    0.0000 C   0  0
   32.1288   -1.6990    0.0000 C   0  0  2  0  0  0
   32.2958   -2.4961    0.0000 S   0  0
   33.1085   -2.5823    0.0000 C   0  0
   32.8347   -1.2887    0.0000 C   0  0  2  0  0  0
   33.4388   -1.8345    0.0000 C   0  0  1  0  0  0
   34.1446   -1.4286    0.0000 N   0  0
   33.9766   -0.6319    0.0000 C   0  0
   33.1671   -0.5456    0.0000 N   0  0
   34.5244   -0.0255    0.0000 O   0  0
   32.2502   -0.7058    0.0000 H   0  0
   34.0125   -2.4103    0.0000 H   0  0
   17.6521   -6.0656    0.0000 Cl  0  0
   25.7209   -4.1066    0.0000 Cl  0  5
  1  2  2  0
  2  3  1  0
  3  6  2  0
  5  4  2  0
  4  1  1  0
  5  6  1  0
  6  7  1  0
  7  8  1  0
  8  9  1  0
  9  5  1  0
 10 11  1  0
 11 12  1  0
 12 13  1  0
 13 14  1  0
 14 10  1  0
  8 10  2  0
 13 15  2  0
 15 16  1  0
 11 17  2  0
  9 18  1  0
 12 19  1  0
 19 20  1  0
 16 21  2  0
 21 22  1  0
 22 23  2  0
 23 24  1  0
 24 25  2  0
 25 16  1  0
 21 26  1  0
 26 27  1  0
 27 28  1  0
 28 29  1  0
 29 30  1  0
 30 31  1  0
 31 32  1  0
 32 33  1  0
 33 34  1  0
 33 35  2  0
 34 36  1  0
 36 37  1  0
 37 38  1  0
 39 38  1  1
 39 40  1  0
 40 41  1  0
 41 43  1  0
 42 39  1  0
 42 43  1  0
 43 44  1  0
 44 45  1  0
 45 46  1  0
 46 42  1  0
 45 47  2  0
 42 48  1  6
 43 49  1  6
  3 50  1  0
M  CHG  2  21   1  51  -1
M  END