
  SciTegic01161211252D

 31 33  0  0  0  0            999 V2000
   -2.4016   -0.4895    0.0000 C   0  0  2  0  0  0
   -2.4016   -1.3149    0.0000 C   0  0  2  0  0  0
   -1.6886   -1.7254    0.0000 C   0  0
   -0.9757   -1.3149    0.0000 C   0  0  2  0  0  0
   -0.9757   -0.4895    0.0000 C   0  0  1  0  0  0
   -1.6886   -0.0747    0.0000 O   0  0
   -0.2591   -0.0809    0.0000 C   0  0
    0.4510   -0.4937    0.0000 C   0  0
    1.1675   -0.0850    0.0000 O   0  0
    1.8816   -0.4978    0.0000 C   0  0
    2.5983   -0.0892    0.0000 C   0  0
    3.3093   -0.5095    0.0000 C   0  0
    4.0254   -0.0975    0.0000 C   0  0
    4.0282    0.7289    0.0000 C   0  0
    3.3091    1.1456    0.0000 C   0  0
    2.5959    0.7312    0.0000 C   0  0
   -0.2609   -1.7306    0.0000 O   0  0
    0.4510   -1.3170    0.0000 C   0  0
    1.1657   -1.7327    0.0000 C   0  0
    1.1616   -2.5561    0.0000 C   0  0
    1.8756   -2.9719    0.0000 C   0  0
    2.5926   -2.5581    0.0000 C   0  0
    2.5911   -1.7283    0.0000 C   0  0
    1.8765   -1.3165    0.0000 C   0  0
   -3.1164   -1.7306    0.0000 O   0  0
   -3.1181   -0.0809    0.0000 C   0  0
   -3.8324   -0.4937    0.0000 O   0  0
   -2.4058   -2.1403    0.0000 H   0  0
   -0.9830   -2.1403    0.0000 H   0  0
   -0.9830    0.3360    0.0000 H   0  0
   -2.4058    0.3360    0.0000 H   0  0
  1  2  1  0
 15 16  2  0
 16 11  1  0
  7  8  1  0
  4 17  1  0
  1  6  1  0
 17 18  1  0
  8  9  1  0
 18 19  1  0
  2  3  1  0
 19 20  2  0
  9 10  1  0
 20 21  1  0
  3  4  1  0
 21 22  2  0
 10 11  1  0
 22 23  1  0
  4  5  1  0
 23 24  2  0
 24 19  1  0
 11 12  2  0
  2 25  1  0
  5  6  1  0
  1 26  1  0
 12 13  1  0
 26 27  1  0
  2 28  1  1
 13 14  2  0
  4 29  1  1
  5  7  1  0
  5 30  1  6
 14 15  1  0
  1 31  1  6
M  END