
  SciTegic09261414462D

 17 19  0  0  0  0            999 V2000
    6.0796   -4.8555    0.0000 N   0  0
    6.0796   -5.6805    0.0000 C   0  0
    6.7941   -6.0930    0.0000 N   0  0
    6.7941   -6.9180    0.0000 C   0  0
    6.0796   -7.3305    0.0000 C   0  0
    5.3651   -6.9180    0.0000 C   0  0
    5.3651   -6.0930    0.0000 N   0  0
    4.6507   -7.3305    0.0000 C   0  0
    4.5644   -8.1510    0.0000 C   0  0
    3.7575   -8.3225    0.0000 C   0  0
    3.3450   -7.6081    0.0000 C   0  0
    3.8970   -6.9950    0.0000 C   0  0
    7.5085   -7.3305    0.0000 N   0  0
    8.3054   -7.1170    0.0000 C   0  0
    8.5190   -7.9139    0.0000 C   0  0
    7.7221   -8.1274    0.0000 C   0  0
    9.2334   -8.3264    0.0000 N   0  0
  2  3  1  0
  3  4  2  0
  4  5  1  0
  5  6  2  0
  6  7  1  0
  2  7  2  0
  1  2  1  0
  8  9  1  0
  9 10  1  0
 10 11  1  0
 11 12  1  0
  8 12  1  0
  6  8  1  0
 13 14  1  0
 14 15  1  0
 15 16  1  0
 13 16  1  0
 15 17  1  0
  4 13  1  0
M  END