
  SciTegic01161211222D

 12 11  0  0  0  0            999 V2000
    4.6417    1.2125    0.0000 N   0  0
    5.3561    1.6250    0.0000 C   0  0
    6.0706    1.2125    0.0000 S   0  0
    5.3561    2.4500    0.0000 S   0  0
    6.7851    1.6250    0.0000 S   0  0
    7.4996    1.2125    0.0000 C   0  0
    8.2140    1.6250    0.0000 N   0  0
    7.4996    0.3875    0.0000 S   0  0
    3.9272    1.6250    0.0000 C   0  0
    4.6417    0.3875    0.0000 C   0  0
    8.2140    2.4500    0.0000 C   0  0
    8.9285    1.2125    0.0000 C   0  0
  1  2  1  0
  6  7  1  0
  2  4  2  0
  6  8  2  0
  1  9  1  0
  3  5  1  0
  1 10  1  0
  2  3  1  0
  7 11  1  0
  5  6  1  0
  7 12  1  0
M  END