
  SciTegic01161211252D

 41 42  0  0  0  0            999 V2000
    0.4833    0.9392    0.0000 C   0  0  1  0  0  0
    0.4833    0.1105    0.0000 C   0  0  2  0  0  0
    1.1951   -0.2995    0.0000 C   0  0  2  0  0  0
    1.9110    0.1105    0.0000 C   0  0
    1.9110    0.9392    0.0000 C   0  0  2  0  0  0
    1.1951    1.3578    0.0000 O   0  0
    2.6228    0.5228    0.0000 O   0  0
    2.3163    1.6538    0.0000 C   0  0
    3.1449    1.6652    0.0000 O   0  0
    1.8984    2.3677    0.0000 O   0  5
   -0.2338    1.3483    0.0000 C   0  0  2  0  0  0
   -0.9516    0.9329    0.0000 C   0  0  1  0  0  0
   -2.3790    0.0969    0.0000 C   0  0
   -3.0968   -0.3184    0.0000 C   0  0
   -2.3827    0.9257    0.0000 O   0  0
   -3.8089    0.0962    0.0000 C   0  0
   -4.5260   -0.3181    0.0000 C   0  0
   -4.5230   -1.1481    0.0000 C   0  0
   -3.7981   -1.5570    0.0000 C   0  0
   -3.0898   -1.1389    0.0000 C   0  0
   -0.9517    0.1074    0.0000 C   0  0
   -0.2298   -1.1261    0.0000 C   0  0
   -0.9443   -1.5400    0.0000 O   0  0
    0.4907   -1.5368    0.0000 C   0  0
    0.4620    1.7634    0.0000 H   0  0
    2.6181   -0.3016    0.0000 C   0  0
    3.3297   -0.7180    0.0000 C   0  0
    3.3204   -1.5413    0.0000 C   0  0
    4.0312   -1.9576    0.0000 C   0  0
    4.0393   -0.3080    0.0000 C   0  0
   -5.2342   -1.5653    0.0000 Cl  0  0
    4.7507   -0.7206    0.0000 C   0  0
    4.7453   -1.5467    0.0000 C   0  0
    4.0400    0.5165    0.0000 F   0  0
    5.4665   -0.3113    0.0000 F   0  0
    4.5765    2.2819    0.0000 Na  0  3
   -0.2338    2.1791    0.0000 O   0  0
   -1.6659    1.3479    0.0000 O   0  0
   -1.6623   -0.3117    0.0000 N   0  0
    1.1988   -1.1219    0.0000 O   0  0
   -0.2316   -0.3011    0.0000 N   0  0
 12 21  1  0
 13 14  1  0
 13 15  2  0
 14 16  2  0
 16 17  1  0
 17 18  2  0
 18 19  1  0
 19 20  2  0
 20 14  1  0
 22 23  2  0
 22 24  1  0
  1 25  1  1
  7 26  1  0
 26 27  1  0
  1  2  1  0
 27 28  2  0
  1  6  1  0
 28 29  1  0
 29 33  2  0
  2  3  1  0
 32 30  2  0
 30 27  1  0
  3  4  1  0
 18 31  1  0
  4  5  1  0
  5  6  1  0
 32 33  1  0
  5  7  1  0
 30 34  1  0
  5  8  1  1
 32 35  1  0
  8  9  2  0
  8 10  1  0
  1 11  1  0
 11 12  1  0
 12 38  1  1
 21 39  1  0
 39 13  1  0
 11 37  1  6
  3 40  1  6
  2 41  1  1
 41 22  1  0
M  CHG  2  10  -1  36   1
M  END