
  SciTegic10311217562D

 28 31  0  0  0  0            999 V2000
    7.7569  -11.6333    0.0000 C   0  0
    7.7557  -12.4607    0.0000 C   0  0
    8.4706  -12.8735    0.0000 N   0  0
    9.1870  -12.4602    0.0000 C   0  0
    9.1841  -11.6297    0.0000 N   0  0
    8.4688  -11.2205    0.0000 C   0  0
    8.4663  -10.3955    0.0000 N   0  0
    9.1795   -9.9809    0.0000 C   0  0
    9.9716  -10.2109    0.0000 C   0  0
   10.4331   -9.5270    0.0000 C   0  0
    9.9253   -8.8767    0.0000 N   0  0
    9.1500   -9.1588    0.0000 N   0  0
    9.9021  -12.8716    0.0000 N   0  0
   11.2576   -9.4984    0.0000 C   0  0
   10.6159  -12.4579    0.0000 C   0  0
   11.3308  -12.8695    0.0000 C   0  0
   11.3349  -13.6924    0.0000 O   0  0
   12.1214  -13.9417    0.0000 N   0  0
   12.6016  -13.2708    0.0000 C   0  0
   12.1119  -12.6069    0.0000 C   0  0
   13.4266  -13.2649    0.0000 C   0  0
   11.6946  -10.1981    0.0000 C   0  0
   12.5191  -10.1695    0.0000 C   0  0
   12.9508  -10.8705    0.0000 C   0  0
   13.7745  -10.8423    0.0000 C   0  0
   14.1628  -10.1134    0.0000 C   0  0
   13.7213   -9.4114    0.0000 C   0  0
   12.8990   -9.4431    0.0000 C   0  0
  1  2  2  0
 10 14  1  0
  6  7  1  0
 13 15  1  0
  3  4  2  0
 15 16  1  0
 16 17  1  0
  7  8  1  0
  8  9  1  0
  4  5  1  0
 17 18  1  0
 18 19  2  0
 19 20  1  0
 20 16  2  0
  2  3  1  0
 19 21  1  0
  5  6  2  0
 14 22  1  0
  9 10  2  0
 22 23  1  0
 10 11  1  0
 23 24  2  0
 11 12  1  0
 24 25  1  0
 12  8  2  0
 25 26  2  0
  6  1  1  0
 26 27  1  0
  4 13  1  0
 27 28  2  0
 28 23  1  0
M  END