
  SciTegic11201309402D

 31 34  0  0  0  0            999 V2000
   -3.5375   -2.9167    0.0000 C   0  0
   -3.5375   -3.7417    0.0000 C   0  0
   -2.8255   -4.1500    0.0000 C   0  0  1  0  0  0
   -2.8255   -2.5000    0.0000 C   0  0
   -2.1135   -2.9167    0.0000 C   0  0  1  0  0  0
   -2.1170   -3.7417    0.0000 C   0  0  1  0  0  0
   -1.4082   -4.1549    0.0000 C   0  0  2  0  0  0
   -0.6914   -3.7477    0.0000 C   0  0
   -1.4128   -4.9799    0.0000 O   0  0
   -3.2458   -4.8625    0.0000 C   0  0
   -2.4208   -4.8625    0.0000 C   0  0
   -2.1195   -4.7417    0.0000 H   0  0
   -1.4012   -2.5049    0.0000 C   0  0  2  0  0  0
   -0.6855   -2.9236    0.0000 C   0  0
    0.0283   -0.0164    0.0000 C   0  0
   -0.6865   -0.4354    0.0000 C   0  0
   -0.6777   -1.2682    0.0000 C   0  0
   -1.4004   -1.6780    0.0000 C   0  0
   -0.5335   -2.0078    0.0000 H   0  0
   -1.4043   -0.0288    0.0000 C   0  0
   -1.4110    0.7962    0.0000 C   0  0
   -2.1288    1.2029    0.0000 C   0  0  1  0  0  0
   -2.2194    2.0199    0.0000 O   0  0
   -3.0278    2.1799    0.0000 C   0  0
   -3.4345    1.4644    0.0000 C   0  0
   -2.8774    0.8604    0.0000 C   0  0
   -3.3694    2.9373    0.0000 O   0  0
   -2.1208   -2.0917    0.0000 C   0  0
    0.0316   -2.5157    0.0000 C   0  0
   -3.0400    0.0516    0.0000 C   0  0
   -0.5453   -4.6603    0.0000 H   0  0
  1  4  1  0
  2  3  1  0
  5 13  1  0
  6  7  1  0
  7  8  1  0
 13 18  1  0
 15 16  1  0
 16 17  1  0
 17 18  1  0
  8 14  1  0
 13 19  1  6
  3  6  1  0
 16 20  2  0
  7  9  1  0
 20 21  1  0
  5  4  1  0
 22 21  1  6
 22 23  1  0
  3 10  1  1
  5  6  1  0
  3 11  1  0
  9 11  1  0
 23 24  1  0
 24 25  1  0
 25 26  2  0
 26 22  1  0
 24 27  2  0
  6 12  1  6
  5 28  1  1
 13 14  1  0
 14 29  2  0
  1  2  1  0
 26 30  1  0
  7 31  1  1
M  END