
          03140815512D 1   1.00000     0.00000     0

 17 18  0     0  0            999 V2000
   11.7753    2.3624    0.0000 C   0  0  0  0  0  0           0  0  0
   11.7753    1.5337    0.0000 C   0  0  0  0  0  0           0  0  0
   12.4889    1.1216    0.0000 N   0  0  3  0  0  0           0  0  0
   13.2072    1.5337    0.0000 C   0  0  0  0  0  0           0  0  0
   13.2072    2.3624    0.0000 C   0  0  0  0  0  0           0  0  0
   12.4889    2.7790    0.0000 C   0  0  0  0  0  0           0  0  0
   12.4877    0.2975    0.0000 S   0  0  3  0  0  0           0  0  0
   12.4802   -0.5219    0.0000 N   0  0  0  0  0  0           0  0  0
   13.3118    0.2933    0.0000 O   0  0  0  0  0  0           0  0  0
   11.6636    0.2973    0.0000 O   0  0  0  0  0  0           0  0  0
   11.7628   -0.9274    0.0000 C   0  0  0  0  0  0           0  0  0
   11.0561   -0.5061    0.0000 C   0  0  0  0  0  0           0  0  0
   10.3393   -0.9109    0.0000 C   0  0  0  0  0  0           0  0  0
   10.3312   -1.7358    0.0000 C   0  0  0  0  0  0           0  0  0
   11.0461   -2.1543    0.0000 C   0  0  0  0  0  0           0  0  0
   11.7601   -1.7471    0.0000 C   0  0  0  0  0  0           0  0  0
    9.6144   -2.1423    0.0000 Br  0  0  0  0  0  0           0  0  0
  1  6  1  0     0  0
  7  9  2  0     0  0
  2  3  1  0     0  0
  7 10  2  0     0  0
  3  4  1  0     0  0
  8 11  1  0     0  0
  4  5  1  0     0  0
 11 12  2  0     0  0
  5  6  1  0     0  0
 12 13  1  0     0  0
 13 14  2  0     0  0
  3  7  1  0     0  0
 14 15  1  0     0  0
  1  2  1  0     0  0
 15 16  2  0     0  0
 16 11  1  0     0  0
  7  8  1  0     0  0
 14 17  1  0     0  0
M  END