
          11280714482D 1   1.00000     0.00000     0

 52 57  0     0  0            999 V2000
    5.9167    1.4958    0.0000 C   0  0  0  0  0  0           0  0  0
    6.6167    2.7708    0.0000 C   0  0  0  0  0  0           0  0  0
    6.6250    1.9250    0.0000 C   0  0  0  0  0  0           0  0  0
    5.9292    0.6458    0.0000 C   0  0  0  0  0  0           0  0  0
    5.8917    3.1833    0.0000 O   0  0  0  0  0  0           0  0  0
    6.6500    0.2333    0.0000 C   0  0  0  0  0  0           0  0  0
    5.2000    2.7500    0.0000 C   0  0  0  0  0  0           0  0  0
    5.2042    1.8958    0.0000 C   0  0  0  0  0  0           0  0  0
    7.3167    3.1958    0.0000 C   0  0  0  0  0  0           0  0  0
    7.3375    1.5125    0.0000 C   0  0  0  0  0  0           0  0  0
    6.6625   -0.6042    0.0000 C   0  0  0  0  0  0           0  0  0
    7.4417    0.4583    0.0000 C   0  0  0  0  0  0           0  0  0
   -0.4583   -2.5292    0.0000 N   0  0  3  0  0  0           0  0  0
    5.9750   -1.8875    0.0000 C   0  0  0  0  0  0           0  0  0
    5.9542   -1.0375    0.0000 C   0  0  0  0  0  0           0  0  0
    5.2292    0.2083    0.0000 C   0  0  0  0  0  0           0  0  0
   -1.1833   -2.1375    0.0000 C   0  0  0  0  0  0           0  0  0
    4.4792    3.1708    0.0000 C   0  0  0  0  0  0           0  0  0
    8.0292    1.9458    0.0000 C   0  0  0  0  0  0           0  0  0
    8.0167    2.7833    0.0000 C   0  0  0  0  0  0           0  0  0
    4.4917    1.4625    0.0000 C   0  0  0  0  0  0           0  0  0
   -1.1958   -1.3042    0.0000 N   0  0  0  0  0  0           0  0  0
   -0.4500   -3.3542    0.0000 C   0  0  0  0  0  0           0  0  0
    5.2417   -0.6375    0.0000 C   0  0  0  0  0  0           0  0  0
    7.6875    1.0083    0.0000 O   0  0  0  0  0  0           0  0  0
    6.6917   -2.3000    0.0000 O   0  0  0  0  0  0           0  0  0
    0.2542   -2.0792    0.0000 C   0  0  0  0  0  0           0  0  0
    8.7375    3.1958    0.0000 O   0  0  0  0  0  0           0  0  0
    5.2750   -2.3250    0.0000 N   0  0  0  0  0  0           0  0  0
    3.7750    2.7333    0.0000 C   0  0  0  0  0  0           0  0  0
   -1.1625   -3.8125    0.0000 C   0  0  0  0  0  0           0  0  0
    1.6917   -2.0167    0.0000 N   0  0  3  0  0  0           0  0  0
    8.0167   -0.1292    0.0000 O   0  0  0  0  0  0           0  0  0
    3.7792    1.8833    0.0000 C   0  0  0  0  0  0           0  0  0
    0.9792   -2.4667    0.0000 C   0  0  0  0  0  0           0  0  0
   -2.5958   -4.7000    0.0000 C   0  0  0  0  0  0           0  0  0
   -1.1583   -4.6417    0.0000 C   0  0  0  0  0  0           0  0  0
   -1.8833   -3.4250    0.0000 C   0  0  0  0  0  0           0  0  0
   -1.8750   -5.0875    0.0000 C   0  0  0  0  0  0           0  0  0
   -2.6083   -3.8667    0.0000 C   0  0  0  0  0  0           0  0  0
    3.0500    3.1458    0.0000 O   0  0  0  0  0  0           0  0  0
   -3.3125   -5.1417    0.0000 O   0  0  0  0  0  0           0  0  0
   -1.8958   -2.5875    0.0000 C   0  0  0  0  0  0           0  0  0
   -1.9125   -0.9167    0.0000 C   0  0  0  0  0  0           0  0  0
    4.5417   -1.9375    0.0000 C   0  0  0  0  0  0           0  0  0
    2.4167   -2.4125    0.0000 C   0  0  0  0  0  0           0  0  0
    1.6917   -1.1792    0.0000 C   0  0  0  0  0  0           0  0  0
   -3.3083   -5.9667    0.0000 C   0  0  0  0  0  0           0  0  0
    3.1167   -1.9792    0.0000 C   0  0  0  0  0  0           0  0  0
    3.8417   -2.3667    0.0000 C   0  0  0  0  0  0           0  0  0
   -2.6208   -2.2042    0.0000 C   0  0  0  0  0  0           0  0  0
   -2.6333   -1.3667    0.0000 C   0  0  0  0  0  0           0  0  0
  2  3  1  0     0  0
  3  1  2  0     0  0
  4  1  1  0     0  0
  5  7  1  0     0  0
  6  4  2  0     0  0
  7  8  2  0     0  0
  8  1  1  0     0  0
  9  2  2  0     0  0
 10  3  1  0     0  0
 11  6  1  0     0  0
 12  6  1  0     0  0
 13 27  1  0     0  0
 14 15  1  0     0  0
 15 24  1  0     0  0
 16  4  1  0     0  0
 17 13  1  0     0  0
 18  7  1  0     0  0
 19 10  2  0     0  0
 20 19  1  0     0  0
 21  8  1  0     0  0
 22 17  2  0     0  0
 23 13  1  0     0  0
 24 16  2  0     0  0
 25 12  2  0     0  0
 26 14  2  0     0  0
 27 35  1  0     0  0
 28 20  2  0     0  0
 29 14  1  0     0  0
 30 34  1  0     0  0
 31 23  1  0     0  0
 32 46  1  0     0  0
 33 12  1  0     0  0
 34 21  2  0     0  0
 35 32  1  0     0  0
 36 40  2  0     0  0
 37 31  1  0     0  0
 38 31  2  0     0  0
 39 37  2  0     0  0
 40 38  1  0     0  0
 41 30  1  0     0  0
 42 36  1  0     0  0
 43 17  1  0     0  0
 44 22  1  0     0  0
 45 29  1  0     0  0
 46 49  1  0     0  0
 47 32  1  0     0  0
 48 42  1  0     0  0
 49 50  1  0     0  0
 50 45  1  0     0  0
 51 43  2  0     0  0
 52 51  1  0     0  0
  2  5  1  0     0  0
 18 30  2  0     0  0
 15 11  2  0     0  0
 20  9  1  0     0  0
 36 39  1  0     0  0
 44 52  2  0     0  0
M  END