
          11280715492D 1   1.00000     0.00000     0

 26 29  0     0  0            999 V2000
    7.8493   -7.5838    0.0000 C   0  0  0  0  0  0           0  0  0
    7.0545   -7.4594    0.0000 N   0  0  3  0  0  0           0  0  0
    7.5039   -6.9091    0.0000 C   0  0  0  0  0  0           0  0  0
    6.3624   -8.0214    0.0000 C   0  0  0  0  0  0           0  0  0
    6.9091   -6.4478    0.0000 C   0  0  0  0  0  0           0  0  0
    6.7212   -6.7947    0.0000 C   0  0  3  0  0  0           0  0  0
    6.0617   -7.3411    0.0000 C   0  0  3  0  0  0           0  0  0
    6.5188   -5.9439    0.0000 C   0  0  0  0  0  0           0  0  0
    5.6321   -6.6334    0.0000 O   0  0  0  0  0  0           0  0  0
    4.8099   -6.6516    0.0000 C   0  0  0  0  0  0           0  0  0
    5.3484   -7.7631    0.0000 C   0  0  0  0  0  0           0  0  0
    4.6390   -8.1848    0.0000 C   0  0  0  0  0  0           0  0  0
    3.9298   -8.6064    0.0000 C   0  0  3  0  0  0           0  0  0
    3.2204   -9.0279    0.0000 C   0  0  0  0  0  0           0  0  0
    4.3499   -9.3133    0.0000 C   0  0  0  0  0  0           0  0  0
    3.5096   -7.8994    0.0000 O   0  0  0  0  0  0           0  0  0
    2.4991   -8.6251    0.0000 C   0  0  0  0  0  0           0  0  0
    1.7937   -9.0451    0.0000 C   0  0  0  0  0  0           0  0  0
    1.8037   -9.8711    0.0000 C   0  0  0  0  0  0           0  0  0
    2.5257  -10.2751    0.0000 C   0  0  0  0  0  0           0  0  0
    3.2309   -9.8520    0.0000 C   0  0  0  0  0  0           0  0  0
    5.1928  -10.7290    0.0000 N   0  0  0  0  0  0           0  0  0
    5.5943  -10.0102    0.0000 C   0  0  0  0  0  0           0  0  0
    5.1750   -9.3070    0.0000 C   0  0  0  0  0  0           0  0  0
    3.9507  -10.0351    0.0000 C   0  0  0  0  0  0           0  0  0
    4.3718  -10.7445    0.0000 C   0  0  0  0  0  0           0  0  0
  2  5  1  0     0  0
 12 13  1  0     0  0
  3  6  1  0     0  0
 13 14  1  0     0  0
  4  7  1  0     0  0
 13 15  1  0     0  0
  5  8  1  0     0  0
 13 16  1  0     0  0
  6  7  1  0     0  0
 14 17  2  0     0  0
  6  8  1  0     0  0
 17 18  1  0     0  0
 18 19  2  0     0  0
  7  9  1  0     0  0
 19 20  1  0     0  0
  1  2  1  0     0  0
 20 21  2  0     0  0
 21 14  1  0     0  0
  9 10  1  0     0  0
  1  3  1  0     0  0
  7 11  1  0     0  0
  2  4  1  0     0  0
 11 12  3  0     0  0
 22 26  2  0     0  0
 22 23  1  0     0  0
 23 24  2  0     0  0
 24 15  1  0     0  0
 15 25  2  0     0  0
 25 26  1  0     0  0
M  END