
  SciTegic04091416462D

 45 47  0  0  0  0            999 V2000
   18.8376  -17.3660    0.0000 S   0  0
   19.6304  -17.1378    0.0000 C   0  0
   19.6604  -16.3132    0.0000 C   0  0
   18.8825  -16.0306    0.0000 N   0  0
   18.3781  -16.6823    0.0000 C   0  0
   17.5535  -16.6546    0.0000 C   0  0
   20.3446  -15.8522    0.0000 C   0  0
   17.1651  -15.9267    0.0000 C   0  0
   17.1173  -17.3548    0.0000 C   0  0
   21.0858  -16.2142    0.0000 N   0  0
   21.7699  -15.7533    0.0000 C   0  0
   21.0924  -17.0393    0.0000 C   0  0
   22.5114  -16.1152    0.0000 N   0  0
   21.7671  -14.9282    0.0000 O   0  0
   23.2196  -15.6921    0.0000 C   0  0  2  0  0  0
   23.9401  -16.0938    0.0000 C   0  0
   23.2072  -14.8671    0.0000 C   0  0
   23.9155  -14.4439    0.0000 C   0  0
   22.4866  -14.4653    0.0000 C   0  0
   23.9525  -16.9187    0.0000 O   0  0
   24.6483  -15.6707    0.0000 N   0  0
   25.3690  -16.0724    0.0000 C   0  0  2  0  0  0
   26.0772  -15.6493    0.0000 C   0  0
   25.3813  -16.8973    0.0000 C   0  0
   26.7978  -16.0510    0.0000 C   0  0
   27.5061  -15.6279    0.0000 C   0  0  2  0  0  0
   27.4936  -14.8029    0.0000 C   0  0
   28.2264  -16.0296    0.0000 N   0  0
   28.9447  -15.6236    0.0000 C   0  0
   29.6553  -16.0427    0.0000 O   0  0
   28.9523  -14.7987    0.0000 O   0  0
   30.3736  -15.6367    0.0000 C   0  0
   31.0843  -16.0558    0.0000 C   0  0
   31.1622  -16.8754    0.0000 C   0  0
   31.9677  -17.0544    0.0000 N   0  0
   32.3868  -16.3437    0.0000 C   0  0
   31.8403  -15.7256    0.0000 S   0  0
   26.1019  -17.2991    0.0000 C   0  0
   26.7731  -14.4011    0.0000 C   0  0
   26.0715  -14.8245    0.0000 C   0  0
   26.1101  -18.1223    0.0000 C   0  0
   26.8298  -18.5239    0.0000 C   0  0
   27.5391  -18.1007    0.0000 C   0  0
   27.5240  -17.2716    0.0000 C   0  0
   26.8038  -16.8737    0.0000 C   0  0
  1  2  1  0
  2  3  2  0
  3  4  1  0
  4  5  2  0
  5  1  1  0
  5  6  1  0
  3  7  1  0
  6  8  1  0
  6  9  1  0
  7 10  1  0
 10 11  1  0
 10 12  1  0
 11 13  1  0
 11 14  2  0
 13 15  1  0
 15 16  1  0
 15 17  1  1
 17 18  1  0
 17 19  1  0
 16 20  2  0
 16 21  1  0
 21 22  1  0
 22 23  1  0
 22 24  1  6
 23 25  1  0
 25 26  1  0
 26 27  1  6
 26 28  1  0
 28 29  1  0
 29 30  1  0
 29 31  2  0
 30 32  1  0
 32 33  1  0
 33 34  2  0
 34 35  1  0
 35 36  2  0
 36 37  1  0
 37 33  1  0
 24 38  1  0
 27 39  1  0
 40 39  1  0
 38 41  2  0
 41 42  1  0
 42 43  2  0
 43 44  1  0
 44 45  2  0
 45 38  1  0
M  END