
  SciTegic05191616042D

 27 29  0  0  0  0            999 V2000
    1.2821  -12.6912    0.0000 C   0  0
    1.2810  -13.5107    0.0000 C   0  0
    1.9891  -13.9197    0.0000 C   0  0
    1.9873  -12.2823    0.0000 C   0  0
    2.6959  -12.6876    0.0000 C   0  0
    2.6993  -13.5128    0.0000 C   0  0
    3.4116  -13.9202    0.0000 O   0  0
    4.1252  -13.5069    0.0000 C   0  0
    4.1218  -12.6817    0.0000 C   0  0  1  0  0  0
    3.4049  -12.2698    0.0000 O   0  0
    4.8283  -12.2710    0.0000 C   0  0
    5.5372  -12.6774    0.0000 N   0  0
    6.2437  -12.2666    0.0000 C   0  0
    6.9526  -12.6730    0.0000 C   0  0
    7.6591  -12.2622    0.0000 O   0  0
    8.3681  -12.6686    0.0000 C   0  0
    8.3657  -13.4847    0.0000 C   0  0
    9.0738  -13.8911    0.0000 C   0  0
    9.7812  -13.4802    0.0000 C   0  0
    7.6579  -13.8932    0.0000 O   0  0
    6.9503  -13.4846    0.0000 C   0  0
    9.0673  -12.2562    0.0000 C   0  0
    9.7778  -12.6578    0.0000 C   0  0
   10.3793  -12.1061    0.0000 C   0  0
   10.0406  -11.3636    0.0000 C   0  0
    9.2298  -11.4564    0.0000 O   0  0
    5.9102  -14.6929    0.0000 Cl  0  0
  1  2  2  0
  2  3  1  0
  3  6  2  0
  5  4  2  0
  4  1  1  0
  5  6  1  0
  5 10  1  0
  6  7  1  0
  7  8  1  0
  8  9  1  0
  9 10  1  0
  9 11  1  1
 11 12  1  0
 12 13  1  0
 13 14  1  0
 14 15  1  0
 15 16  1  0
 16 17  2  0
 17 18  1  0
 18 19  2  0
 19 23  1  0
 22 16  1  0
 17 20  1  0
 20 21  1  0
 22 23  2  0
 23 24  1  0
 24 25  1  0
 25 26  1  0
 26 22  1  0
M  END