
          11280714442D 1   1.00000     0.00000     0

 59 64  0     1  0            999 V2000
    9.8167   -3.3000    0.0000 N   0  0  3  0  0  0           0  0  0
    9.8167   -1.9667    0.0000 C   0  0  0  0  0  0           0  0  0
    9.0375   -3.0417    0.0000 C   0  0  0  0  0  0           0  0  0
   10.3042   -2.6292    0.0000 C   0  0  0  0  0  0           0  0  0
   10.8792   -4.2542    0.0000 C   0  0  0  0  0  0           0  0  0
    9.0375   -2.2167    0.0000 C   0  0  0  0  0  0           0  0  0
   10.0750   -4.0875    0.0000 C   0  0  0  0  0  0           0  0  0
    6.1750   -3.0417    0.0000 C   0  0  0  0  0  0           0  0  0
    4.0292   -3.4542    0.0000 C   0  0  0  0  0  0           0  0  0
    3.3167   -3.0417    0.0000 N   0  0  0  0  0  0           0  0  0
    5.4625   -3.4542    0.0000 N   0  0  0  0  0  0           0  0  0
    4.7417   -3.0417    0.0000 C   0  0  1  0  0  0           0  0  0
    1.8875   -3.0417    0.0000 C   0  0  0  0  0  0           0  0  0
    1.1792   -6.7667    0.0000 C   0  0  0  0  0  0           0  0  0
   10.0750   -1.1792    0.0000 C   0  0  0  0  0  0           0  0  0
    8.3250   -3.4542    0.0000 C   0  0  0  0  0  0           0  0  0
    9.5167   -0.5667    0.0000 N   0  0  3  0  0  0           0  0  0
    6.8875   -3.4542    0.0000 N   0  0  0  0  0  0           0  0  0
    1.1750   -3.4542    0.0000 N   0  0  0  0  0  0           0  0  0
    8.3250   -1.8042    0.0000 C   0  0  0  0  0  0           0  0  0
    5.6875   -0.2417    0.0000 C   0  0  0  0  0  0           0  0  0
    2.6042   -3.4542    0.0000 C   0  0  2  0  0  0           0  0  0
   11.1292   -5.0417    0.0000 C   0  0  0  0  0  0           0  0  0
   11.4250   -3.6417    0.0000 C   0  0  0  0  0  0           0  0  0
    0.4667   -7.1792    0.0000 N   0  0  0  0  0  0           0  0  0
    7.6042   -3.0417    0.0000 C   0  0  0  0  0  0           0  0  0
    6.4917   -0.4500    0.0000 C   0  0  0  0  0  0           0  0  0
    4.7417   -2.2125    0.0000 C   0  0  0  0  0  0           0  0  0
    6.1792   -2.2167    0.0000 O   0  0  0  0  0  0           0  0  0
    4.0292   -4.2792    0.0000 O   0  0  0  0  0  0           0  0  0
    5.1042   -0.8292    0.0000 C   0  0  0  0  0  0           0  0  0
    5.3292   -1.6250    0.0000 C   0  0  0  0  0  0           0  0  0
    1.8875   -2.2125    0.0000 O   0  0  0  0  0  0           0  0  0
   -0.9708   -5.5250    0.0000 N   0  0  0  0  0  0           0  0  0
    1.1792   -5.9375    0.0000 N   0  0  0  0  0  0           0  0  0
    6.7125   -1.2500    0.0000 C   0  0  0  0  0  0           0  0  0
    1.8917   -7.1792    0.0000 N   0  0  0  0  0  0           0  0  0
    7.6042   -2.2167    0.0000 C   0  0  0  0  0  0           0  0  0
    1.1750   -4.2792    0.0000 C   0  0  0  0  0  0           0  0  0
    5.4667    0.5583    0.0000 F   0  0  0  0  0  0           0  0  0
    6.1292   -1.8375    0.0000 C   0  0  0  0  0  0           0  0  0
   11.1667   -2.8625    0.0000 Cl  0  0  0  0  0  0           0  0  0
   10.5667   -5.6542    0.0000 Cl  0  0  0  0  0  0           0  0  0
    7.0792    0.1333    0.0000 F   0  0  0  0  0  0           0  0  0
    0.4625   -4.6917    0.0000 C   0  0  0  0  0  0           0  0  0
    8.7000   -0.6542    0.0000 C   0  0  0  0  0  0           0  0  0
    9.6792    0.2375    0.0000 C   0  0  0  0  0  0           0  0  0
   12.4875   -4.6042    0.0000 C   0  0  0  0  0  0           0  0  0
   12.2292   -3.8167    0.0000 C   0  0  0  0  0  0           0  0  0
   11.9292   -5.2167    0.0000 C   0  0  0  0  0  0           0  0  0
   -0.9708   -4.6917    0.0000 C   0  0  0  0  0  0           0  0  0
   -0.2500   -5.9375    0.0000 C   0  0  0  0  0  0           0  0  0
    2.6042   -4.2792    0.0000 C   0  0  0  0  0  0           0  0  0
    1.8917   -5.5250    0.0000 C   0  0  0  0  0  0           0  0  0
   -0.2583   -4.2792    0.0000 C   0  0  0  0  0  0           0  0  0
    0.4625   -5.5250    0.0000 C   0  0  0  0  0  0           0  0  0
    1.8917   -4.6917    0.0000 C   0  0  0  0  0  0           0  0  0
    8.3625    0.0958    0.0000 C   0  0  0  0  0  0           0  0  0
    8.9667    0.6458    0.0000 C   0  0  0  0  0  0           0  0  0
  2  4  2  0     0  0
  3  1  1  0     0  0
  4  1  1  0     0  0
  5  7  1  0     0  0
  6  3  2  0     0  0
  7  1  1  0     0  0
  8 18  1  0     0  0
  9 12  1  0     0  0
 10  9  1  0     0  0
 11  8  1  0     0  0
 12 11  1  0     0  0
 13 22  1  0     0  0
 14 35  1  0     0  0
 15  2  1  0     0  0
 16  3  1  0     0  0
 17 15  1  0     0  0
 18 26  1  0     0  0
 19 13  1  0     0  0
 20  6  1  0     0  0
 21 31  2  0     0  0
 22 10  1  0     0  0
 23  5  2  0     0  0
 24  5  1  0     0  0
 25 14  2  0     0  0
 26 16  2  0     0  0
 27 36  2  0     0  0
 12 28  1  6     0  0
 29  8  2  0     0  0
 30  9  2  0     0  0
 31 32  1  0     0  0
 32 28  1  0     0  0
 33 13  2  0     0  0
 34 52  2  0     0  0
 35 54  1  0     0  0
 36 41  1  0     0  0
 37 14  1  0     0  0
 38 26  1  0     0  0
 39 19  1  0     0  0
 40 21  1  0     0  0
 41 32  2  0     0  0
 42 24  1  0     0  0
 43 23  1  0     0  0
 44 27  1  0     0  0
 45 39  1  0     0  0
 46 17  1  0     0  0
 47 17  1  0     0  0
 48 49  1  0     0  0
 49 24  2  0     0  0
 50 23  1  0     0  0
 51 55  2  0     0  0
 52 56  1  0     0  0
 22 53  1  1     0  0
 54 57  1  0     0  0
 55 45  1  0     0  0
 56 45  2  0     0  0
 57 53  1  0     0  0
 58 46  1  0     0  0
 59 47  1  0     0  0
  2  6  1  0     0  0
 48 50  2  0     0  0
 38 20  2  0     0  0
 58 59  1  0     0  0
 27 21  1  0     0  0
 34 51  1  0     0  0
M  END