
  SciTegic11201309402D

108110  0  0  1  0            999 V2000
   18.2149   -4.3559    0.0000 C   0  0  1  0  0  0
   18.9289   -4.7903    0.0000 C   0  0
   17.4473   -4.7128    0.0000 N   0  0
   -4.3677   -4.2488    0.0000 N   0  0
   -3.6179   -3.8441    0.0000 C   0  0  2  0  0  0
   -3.6000   -7.9858    0.0000 P   0  0
   11.8774   -0.2024    0.0000 P   0  0
   -5.0996   -3.8620    0.0000 C   0  0
   16.7450   -4.2726    0.0000 C   0  0
   14.5017   -4.5403    0.0000 C   0  0
   19.6787   -4.4451    0.0000 N   0  0
   -2.8860   -4.2369    0.0000 C   0  0
   15.2693   -4.1952    0.0000 N   0  0
    1.5412   -4.2130    0.0000 C   0  0
   -5.8315   -4.2548    0.0000 C   0  0  1  0  0  0
   13.7994   -4.1059    0.0000 C   0  0  1  0  0  0
   10.2530   -4.9688    0.0000 C   0  0
   20.3928   -4.8735    0.0000 C   0  0  2  0  0  0
   21.1604   -4.5343    0.0000 C   0  0
    0.7915   -3.8203    0.0000 C   0  0  1  0  0  0
   13.0497   -4.4511    0.0000 N   0  0
   -6.5694   -3.8798    0.0000 N   0  0
    0.0536   -4.2190    0.0000 N   0  0
   15.9834   -4.6117    0.0000 C   0  0  1  0  0  0
    6.9325   -4.7307    0.0000 C   0  0
    6.1053   -4.7307    0.0000 C   0  0
   -0.6723   -3.8263    0.0000 C   0  0
   12.3356   -4.0227    0.0000 C   0  0
   -2.1541   -3.8263    0.0000 N   0  0
    2.2672   -3.8203    0.0000 N   0  0
   10.7349   -4.2905    0.0000 N   0  0
   -7.2954   -4.2666    0.0000 C   0  0
    3.7489   -3.8024    0.0000 C   0  0
   -3.3919   -7.2300    0.0000 O   0  0
   11.6096   -0.9343    0.0000 O   0  0
    9.4318   -4.9092    0.0000 C   0  0
   16.5843   -6.6230    0.0000 C   0  0
   -4.4570   -7.9262    0.0000 O   0  0
   12.3416    0.4582    0.0000 O   0  0
   18.8872   -5.5757    0.0000 O   0  0
   -5.1056   -3.0765    0.0000 O   0  0
   16.7867   -3.4990    0.0000 O   0  0
   14.4600   -5.3080    0.0000 O   0  0
   -5.8315   -5.0342    0.0000 C   0  0
   13.8590   -3.3205    0.0000 C   0  0
   -2.8681   -5.0224    0.0000 O   0  0
    1.5531   -4.9867    0.0000 O   0  0
   10.6278   -5.6768    0.0000 O   0  0
   21.2080   -3.7489    0.0000 O   0  0
   20.3392   -5.6590    0.0000 C   0  0
    0.7915   -3.0348    0.0000 C   0  0
   18.2684   -3.5763    0.0000 C   0  0  2  0  0  0
   -3.6357   -3.0587    0.0000 C   0  0  2  0  0  0
   -0.6902   -3.0408    0.0000 O   0  0
   11.8417   -3.2015    0.0000 O   0  0
   -7.2954   -5.0402    0.0000 O   0  0
    3.7310   -3.0170    0.0000 O   0  0
   17.3044   -7.0515    0.0000 O   0  0
   15.9238   -5.3973    0.0000 C   0  0
   11.3062    0.3928    0.0000 O   0  0
   12.7165   -0.2678    0.0000 O   0  0
   -4.0881   -8.6284    0.0000 O   0  0
   -3.0467   -8.5748    0.0000 O   0  0
   -1.4103   -4.2369    0.0000 C   0  0
   11.5679   -4.3619    0.0000 C   0  0
    3.0170   -4.2012    0.0000 C   0  0
    7.7655   -4.7903    0.0000 C   0  0
    9.0509   -4.1952    0.0000 C   0  0
    8.9497   -5.5757    0.0000 C   0  0
   21.8685   -4.9688    0.0000 N   0  0
    4.4869   -4.1952    0.0000 N   0  0
   16.6438   -5.8375    0.0000 C   0  0
   -4.0107   -6.6825    0.0000 C   0  0
   12.1631   -1.5234    0.0000 C   0  0
   -5.2246   -5.5757    0.0000 C   0  0
   13.2818   -2.7313    0.0000 C   0  0
   15.8405   -6.9682    0.0000 O   0  0
    8.1286   -5.5162    0.0000 C   0  0
    8.2297   -4.1476    0.0000 C   0  0
    5.2663   -4.7188    0.0000 C   0  0
   12.4488   -2.8741    0.0000 C   0  0
   13.5673   -1.9637    0.0000 C   0  0
   -5.4388   -6.3434    0.0000 C   0  0
   -4.4094   -5.3734    0.0000 C   0  0
   13.0021   -1.3806    0.0000 C   0  0
   11.8893   -2.2851    0.0000 C   0  0
   -4.8200   -6.8908    0.0000 C   0  0
   -3.8024   -5.9268    0.0000 C   0  0
   -2.9038   -2.6659    0.0000 O   0  0
   19.0182   -3.2193    0.0000 O   0  0
    1.2021   -2.3446    0.0000 C   0  0
   20.9105   -6.2542    0.0000 C   0  0
   -8.0452   -3.8798    0.0000 C   0  0
   -4.3856   -2.6837    0.0000 C   0  0
   17.5543   -3.1479    0.0000 C   0  0
   20.6248   -6.9979    0.0000 C   0  0
   21.7435   -6.1053    0.0000 C   0  0
    2.0530   -2.3446    0.0000 C   0  0
    0.7557   -1.6840    0.0000 C   0  0
   17.5349   -3.8887    0.0000 H   0  0
   -2.9148   -3.4126    0.0000 H   0  0
   -6.5347   -4.6862    0.0000 H   0  0
   13.1220   -3.6349    0.0000 H   0  0
   21.0683   -5.3471    0.0000 H   0  0
    0.0830   -3.3978    0.0000 H   0  0
   16.6578   -5.0869    0.0000 H   0  0
   18.3080   -2.7523    0.0000 H   0  0
   -3.6476   -2.2338    0.0000 H   0  0
  2  1  1  0
  3  1  1  0
  4  5  1  0
  5 12  1  0
  6 34  1  0
  7 35  1  0
  8  4  1  0
  9  3  1  0
 10 13  1  0
 11  2  1  0
 12 29  1  0
 13 24  1  0
 14 30  1  0
 15  8  1  0
 16 10  1  0
 17 31  1  0
 18 11  1  0
 19 18  1  0
 20 14  1  0
 21 16  1  0
 22 15  1  0
 23 20  1  0
 24  9  1  0
 25 67  1  0
 26 25  3  0
 27 23  1  0
 28 21  1  0
 29 64  1  0
 30 66  1  0
 31 65  1  0
 32 22  1  0
 33 71  1  0
 34 73  1  0
 35 74  1  0
 36 17  1  0
 37 72  1  0
 38  6  2  0
 39  7  2  0
 40  2  2  0
 41  8  2  0
 42  9  2  0
 43 10  2  0
 15 44  1  0
 16 45  1  0
 46 12  2  0
 47 14  2  0
 48 17  2  0
 49 19  2  0
 18 50  1  0
 20 51  1  0
  1 52  1  0
  5 53  1  0
 54 27  2  0
 55 28  2  0
 56 32  2  0
 57 33  2  0
 58 37  2  0
 24 59  1  0
 60  7  1  0
 61  7  1  0
 62  6  1  0
 63  6  1  0
 64 27  1  0
 65 28  1  0
 66 33  1  0
 67 78  2  0
 68 36  1  0
 69 36  2  0
 70 19  1  0
 71 80  1  0
 72 59  1  0
 73 88  1  0
 74 85  2  0
 75 44  1  0
 76 45  1  0
 77 37  1  0
 78 69  1  0
 79 68  2  0
 80 26  1  0
 81 76  1  0
 82 76  2  0
 83 75  2  0
 84 75  1  0
 85 82  1  0
 86 81  2  0
 87 83  1  0
 88 84  2  0
 89 53  1  0
 90 52  1  0
 91 51  1  0
 92 50  1  0
 93 32  1  0
 53 94  1  0
 52 95  1  0
 96 92  1  0
 97 92  1  0
 98 91  1  0
 99 91  1  0
 86 74  1  0
 79 67  1  0
 87 73  2  0
  1100  1  6
  5101  1  6
 15102  1  1
 16103  1  6
 18104  1  1
 20105  1  6
 24106  1  1
 52107  1  6
 53108  1  6
M  END