
  SciTegic09261414532D

 49 52  0  0  0  0            999 V2000
   10.8561   -5.9969    0.0000 O   0  0
   10.1470   -6.4055    0.0000 C   0  0  1  0  0  0
   10.1470   -7.2227    0.0000 C   0  0  2  0  0  0
   10.8561   -7.6312    0.0000 O   0  0
    9.4379   -7.6312    0.0000 C   0  0  1  0  0  0
    9.4379   -8.4484    0.0000 O   0  0
    8.7330   -7.2227    0.0000 C   0  0  2  0  0  0
    8.0239   -7.6354    0.0000 O   0  0
    8.7330   -6.4096    0.0000 C   0  0  2  0  0  0
    9.4379   -6.0010    0.0000 O   0  0
    8.0239   -6.0010    0.0000 C   0  0
   11.5635   -6.4061    0.0000 C   0  0
   12.2715   -5.9981    0.0000 C   0  0
   12.9789   -6.4072    0.0000 C   0  0
   12.9767   -7.2237    0.0000 C   0  0
   13.6832   -7.6328    0.0000 C   0  0
   14.3923   -7.2248    0.0000 C   0  0
   14.3903   -6.4034    0.0000 C   0  0
   13.6832   -5.9979    0.0000 C   0  0
   15.1002   -7.6330    0.0000 O   0  0
    7.3165   -6.4102    0.0000 O   0  0
    6.6085   -6.0022    0.0000 C   0  0
    5.9011   -6.4114    0.0000 C   0  0
    6.6078   -5.1850    0.0000 O   0  0
    5.1931   -6.0034    0.0000 C   0  0  1  0  0  0
    5.1909   -5.1878    0.0000 C   0  0
    4.4869   -4.7799    0.0000 C   0  0  1  0  0  0
    3.7771   -5.1856    0.0000 O   0  0
    3.7759   -6.0038    0.0000 C   0  0
    4.4844   -6.4162    0.0000 C   0  0
    4.4845   -7.2334    0.0000 C   0  0
    3.7769   -7.6421    0.0000 O   0  0
    5.1923   -7.6419    0.0000 O   0  0
    3.0691   -7.2336    0.0000 C   0  0
    5.8984   -4.7789    0.0000 C   0  0
    5.8979   -3.9617    0.0000 C   0  0
    4.4893   -3.9628    0.0000 O   0  0
    3.7828   -3.5521    0.0000 C   0  0  2  0  0  0
    3.7851   -2.7323    0.0000 O   0  0
    3.0827   -2.3218    0.0000 C   0  0  1  0  0  0
    2.3714   -2.7248    0.0000 C   0  0  2  0  0  0
    2.3670   -3.5429    0.0000 C   0  0  1  0  0  0
    3.0740   -3.9580    0.0000 C   0  0  1  0  0  0
    3.0695   -4.7752    0.0000 O   0  0
    1.6568   -3.9470    0.0000 O   0  0
    1.6665   -2.3114    0.0000 O   0  0
    3.0882   -1.5046    0.0000 C   0  0
    3.7986   -1.1008    0.0000 O   0  0
    5.0641   -4.1974    0.0000 H   0  0
  2  1  1  1
  2  3  1  0
  3  4  1  6
  3  5  1  0
  5  6  1  1
  5  7  1  0
  7  8  1  6
  7  9  1  0
  9 10  1  0
  9 11  1  1
  2 10  1  0
  1 12  1  0
 12 13  1  0
 13 14  1  0
 14 15  2  0
 15 16  1  0
 16 17  2  0
 17 18  1  0
 18 19  2  0
 19 14  1  0
 17 20  1  0
 11 21  1  0
 21 22  1  0
 22 23  1  0
 22 24  2  0
 25 23  1  6
 25 26  1  0
 25 30  1  0
 26 27  1  0
 27 28  1  0
 28 29  1  0
 29 30  2  0
 30 31  1  0
 31 32  1  0
 31 33  2  0
 32 34  1  0
 26 35  2  0
 35 36  1  0
 27 37  1  0
 38 37  1  1
 38 39  1  0
 38 43  1  0
 39 40  1  0
 40 41  1  0
 41 42  1  0
 42 43  1  0
 43 44  1  6
 42 45  1  1
 41 46  1  6
 40 47  1  1
 47 48  1  0
 27 49  1  6
M  END