
          08180812482D 1   1.00000     0.00000     0

 43 47  0     0  0            999 V2000
    6.2861   -9.4958    0.0000 C   0  0  0  0  0  0           0  0  0
    6.2849  -10.3232    0.0000 C   0  0  0  0  0  0           0  0  0
    6.9997  -10.7360    0.0000 C   0  0  0  0  0  0           0  0  0
    6.9979   -9.0830    0.0000 C   0  0  0  0  0  0           0  0  0
    7.7181  -10.3203    0.0000 C   0  0  0  0  0  0           0  0  0
    7.7133   -9.4922    0.0000 C   0  0  0  0  0  0           0  0  0
    8.3604   -8.9663    0.0000 N   0  0  3  0  0  0           0  0  0
    8.3744  -10.8347    0.0000 N   0  0  3  0  0  0           0  0  0
    9.1726   -9.1405    0.0000 C   0  0  0  0  0  0           0  0  0
    9.1850  -10.6417    0.0000 C   0  0  0  0  0  0           0  0  0
    9.5374   -9.8869    0.0000 N   0  0  3  0  0  0           0  0  0
    9.7063  -11.2812    0.0000 O   0  0  0  0  0  0           0  0  0
    9.6809   -8.4907    0.0000 O   0  0  0  0  0  0           0  0  0
    8.1679   -8.1640    0.0000 C   0  0  0  0  0  0           0  0  0
    8.7664   -7.5962    0.0000 C   0  0  0  0  0  0           0  0  0
    9.5574   -7.8306    0.0000 O   0  0  0  0  0  0           0  0  0
   10.3623   -9.8796    0.0000 C   0  0  0  0  0  0           0  0  0
   10.7684   -9.1615    0.0000 C   0  0  0  0  0  0           0  0  0
   11.5934   -9.1541    0.0000 N   0  0  0  0  0  0           0  0  0
   10.3496   -8.4507    0.0000 O   0  0  0  0  0  0           0  0  0
   11.9995   -8.4360    0.0000 C   0  0  0  0  0  0           0  0  0
   12.8229   -8.4309    0.0000 C   0  0  0  0  0  0           0  0  0
   13.2290   -7.7136    0.0000 C   0  0  0  0  0  0           0  0  0
   12.8101   -7.0019    0.0000 C   0  0  0  0  0  0           0  0  0
   11.9808   -7.0119    0.0000 C   0  0  0  0  0  0           0  0  0
   11.5785   -7.7298    0.0000 C   0  0  0  0  0  0           0  0  0
    8.5739   -6.7940    0.0000 C   0  0  3  0  0  0           0  0  0
    8.3542   -5.9917    0.0000 C   0  0  0  0  0  0           0  0  0
    9.3729   -6.5887    0.0000 C   0  0  0  0  0  0           0  0  0
    7.7766   -7.0060    0.0000 C   0  0  0  0  0  0           0  0  0
    8.1967  -11.6371    0.0000 C   0  0  3  0  0  0           0  0  0
    8.8426  -12.1442    0.0000 C   0  0  0  0  0  0           0  0  0
    8.8517  -12.9711    0.0000 C   0  0  0  0  0  0           0  0  0
    7.3924  -11.8292    0.0000 C   0  0  0  0  0  0           0  0  0
    8.2154  -13.4941    0.0000 C   0  0  0  0  0  0           0  0  0
    7.0422  -12.5777    0.0000 C   0  0  0  0  0  0           0  0  0
    7.4108  -13.3169    0.0000 C   0  0  0  0  0  0           0  0  0
   14.0539   -7.7067    0.0000 C   0  0  0  0  0  0           0  0  0
   14.5441   -8.3648    0.0000 N   0  0  0  0  0  0           0  0  0
   15.3265   -8.1033    0.0000 C   0  0  0  0  0  0           0  0  0
   15.3196   -7.2783    0.0000 O   0  0  0  0  0  0           0  0  0
   14.5328   -7.0301    0.0000 N   0  0  0  0  0  0           0  0  0
   15.9981   -8.5826    0.0000 O   0  0  0  0  0  0           0  0  0
 19 21  1  0     0  0
 21 22  2  0     0  0
  9 11  1  0     0  0
 22 23  1  0     0  0
 10 11  1  0     0  0
 23 24  2  0     0  0
  2  3  1  0     0  0
 24 25  1  0     0  0
 10 12  2  0     0  0
 25 26  2  0     0  0
 26 21  1  0     0  0
  5  6  1  0     0  0
 15 27  1  0     0  0
  9 13  2  0     0  0
 27 28  1  0     0  0
  3  5  2  0     0  0
 27 29  1  0     0  0
  7 14  1  0     0  0
 27 30  1  0     0  0
  6  7  1  0     0  0
 14 15  1  0     0  0
 31 32  1  0     0  0
  1  2  2  0     0  0
 32 33  1  0     0  0
 15 16  2  0     0  0
 31 34  1  0     0  0
  5  8  1  0     0  0
 33 35  1  0     0  0
 11 17  1  0     0  0
 34 36  1  0     0  0
  6  4  2  0     0  0
 35 37  1  0     0  0
 36 37  1  0     0  0
  8 31  1  0     0  0
 17 18  1  0     0  0
 23 38  1  0     0  0
 38 39  2  0     0  0
  7  9  1  0     0  0
 18 19  1  0     0  0
  4  1  1  0     0  0
 18 20  2  0     0  0
 39 40  1  0     0  0
 40 41  1  0     0  0
 41 42  1  0     0  0
 42 38  1  0     0  0
  8 10  1  0     0  0
 40 43  2  0     0  0
M  END