
          11280715142D 1   1.00000     0.00000     0

 35 37  0     1  0            999 V2000
   -1.5083   -1.8417    0.0000 C   0  0  0  0  0  0           0  0  0
   -1.5083   -1.0292    0.0000 C   0  0  0  0  0  0           0  0  0
   -2.2208   -2.2625    0.0000 C   0  0  0  0  0  0           0  0  0
   -0.7958   -0.6167    0.0000 C   0  0  0  0  0  0           0  0  0
   -0.7875   -2.2542    0.0000 C   0  0  0  0  0  0           0  0  0
   -0.0833   -1.0292    0.0000 C   0  0  1  0  0  0           0  0  0
   -2.9333   -1.8500    0.0000 C   0  0  0  0  0  0           0  0  0
    0.6375   -0.6167    0.0000 N   0  0  3  0  0  0           0  0  0
   -2.2208   -0.6125    0.0000 C   0  0  0  0  0  0           0  0  0
   -0.0750   -1.8417    0.0000 C   0  0  0  0  0  0           0  0  0
   -2.9333   -1.0250    0.0000 C   0  0  0  0  0  0           0  0  0
    8.5042   -1.7917    0.0000 C   0  0  0  0  0  0           0  0  0
    8.5000   -0.9667    0.0000 C   0  0  0  0  0  0           0  0  0
   -2.2083   -3.0875    0.0000 O   0  0  0  0  0  0           0  0  0
    5.6375   -1.0000    0.0000 N   0  0  0  0  0  0           0  0  0
   -3.6458   -2.2625    0.0000 O   0  0  0  0  0  0           0  0  0
    7.7917   -2.2042    0.0000 O   0  0  0  0  0  0           0  0  0
    7.7792   -0.5625    0.0000 O   0  0  0  0  0  0           0  0  0
    1.3542   -1.0167    0.0000 C   0  0  0  0  0  0           0  0  0
    0.6375    0.2208    0.0000 C   0  0  0  0  0  0           0  0  0
    9.2042   -0.5500    0.0000 C   0  0  0  0  0  0           0  0  0
    9.2167   -2.2000    0.0000 C   0  0  0  0  0  0           0  0  0
    6.3500   -0.5792    0.0000 C   0  0  0  0  0  0           0  0  0
    4.9167   -0.5917    0.0000 C   0  0  0  0  0  0           0  0  0
    7.0667   -0.9792    0.0000 C   0  0  0  0  0  0           0  0  0
    7.8000   -3.0292    0.0000 C   0  0  0  0  0  0           0  0  0
    1.3542    0.6333    0.0000 C   0  0  0  0  0  0           0  0  0
    2.0667   -0.6125    0.0000 C   0  0  0  0  0  0           0  0  0
    4.2042   -1.0042    0.0000 C   0  0  0  0  0  0           0  0  0
    2.0667    0.2125    0.0000 C   0  0  0  0  0  0           0  0  0
    3.4917   -0.5917    0.0000 C   0  0  0  0  0  0           0  0  0
    2.7792   -1.0125    0.0000 C   0  0  0  0  0  0           0  0  0
    2.7792    0.6250    0.0000 C   0  0  0  0  0  0           0  0  0
    9.9167   -0.9500    0.0000 C   0  0  0  0  0  0           0  0  0
    9.9292   -1.7792    0.0000 C   0  0  0  0  0  0           0  0  0
  2  1  1  0     0  0
  3  1  2  0     0  0
  4  2  1  0     0  0
  5  1  1  0     0  0
  6 10  1  0     0  0
  7  3  1  0     0  0
  6  8  1  1     0  0
  9  2  2  0     0  0
 10  5  1  0     0  0
 11  7  2  0     0  0
 12 13  2  0     0  0
 13 18  1  0     0  0
 14  3  1  0     0  0
 15 24  1  0     0  0
 16  7  1  0     0  0
 17 12  1  0     0  0
 18 25  1  0     0  0
 19  8  1  0     0  0
 20  8  1  0     0  0
 21 13  1  0     0  0
 22 12  1  0     0  0
 23 15  1  0     0  0
 24 29  1  0     0  0
 25 23  1  0     0  0
 26 17  1  0     0  0
 27 20  1  0     0  0
 28 19  1  0     0  0
 29 31  1  0     0  0
 30 27  1  0     0  0
 31 32  1  0     0  0
 32 28  1  0     0  0
 33 30  1  0     0  0
 34 21  2  0     0  0
 35 34  1  0     0  0
  4  6  1  0     0  0
  9 11  1  0     0  0
 22 35  2  0     0  0
M  END