
          11280714502D 1   1.00000     0.00000     0

 25 29  0     1  0            999 V2000
    4.5292    0.5500    0.0000 N   0  0  3  0  0  0           0  0  0
    4.0125    0.2583    0.0000 C   0  0  1  0  0  0           0  0  0
    3.5000    0.5500    0.0000 C   0  0  0  0  0  0           0  0  0
    3.5000    1.1500    0.0000 C   0  0  0  0  0  0           0  0  0
    4.0042   -0.3417    0.0000 C   0  0  0  0  0  0           0  0  0
    2.9792    0.2583    0.0000 C   0  0  0  0  0  0           0  0  0
    4.5292   -0.6417    0.0000 C   0  0  1  0  0  0           0  0  0
    2.4667    0.5500    0.0000 C   0  0  0  0  0  0           0  0  0
    5.0542    0.2583    0.0000 C   0  0  0  0  0  0           0  0  0
    2.4625    1.1583    0.0000 C   0  0  0  0  0  0           0  0  0
    5.0500   -0.3500    0.0000 C   0  0  3  0  0  0           0  0  0
    2.9792    1.4500    0.0000 C   0  0  0  0  0  0           0  0  0
    1.9417    0.2583    0.0000 O   0  0  0  0  0  0           0  0  0
    4.5292    1.1500    0.0000 C   0  0  0  0  0  0           0  0  0
    1.9417    1.4500    0.0000 O   0  0  0  0  0  0           0  0  0
    1.2167    0.8375    0.0000 C   0  0  0  0  0  0           0  0  0
    4.0125    1.4500    0.0000 C   0  0  0  0  0  0           0  0  0
    4.5167   -1.2375    0.0000 C   0  0  0  0  0  0           0  0  0
    5.5625   -0.6500    0.0000 C   0  0  0  0  0  0           0  0  0
    5.0292   -1.5417    0.0000 C   0  0  1  0  0  0           0  0  0
    5.5542   -1.2500    0.0000 C   0  0  0  0  0  0           0  0  0
    5.3292   -2.0542    0.0000 O   0  0  0  0  0  0           0  0  0
    4.7292   -2.0542    0.0000 H   0  0  0  0  0  0           0  0  0
    4.0042   -0.9375    0.0000 H   0  0  0  0  0  0           0  0  0
    3.4917   -0.0292    0.0000 H   0  0  0  0  0  0           0  0  0
  2  1  1  0     0  0
  3  2  1  0     0  0
  4 17  1  0     0  0
  5  2  1  0     0  0
  6  3  1  0     0  0
  7 11  1  0     0  0
  8  6  2  0     0  0
  9  1  1  0     0  0
 10 12  2  0     0  0
 11  9  1  0     0  0
 12  4  1  0     0  0
 13  8  1  0     0  0
 14  1  1  0     0  0
 15 10  1  0     0  0
 16 13  1  0     0  0
 17 14  1  0     0  0
 18  7  1  0     0  0
 19 11  1  0     0  0
 20 21  1  0     0  0
 21 19  1  0     0  0
 20 22  1  1     0  0
 20 23  1  6     0  0
  7 24  1  6     0  0
  2 25  1  1     0  0
  4  3  2  0     0  0
  7  5  1  0     0  0
  8 10  1  0     0  0
 20 18  1  0     0  0
 15 16  1  0     0  0
M  END