
  SciTegic10011413212D

 28 30  0  0  0  0            999 V2000
   29.1876  -16.6542    0.0000 N   0  0
   29.9021  -16.2417    0.0000 C   0  0
   30.6167  -16.6542    0.0000 C   0  0
   31.3311  -16.2417    0.0000 C   0  0
   32.0456  -16.6542    0.0000 N   0  0
   32.7601  -16.2417    0.0000 C   0  0
   33.4745  -16.6542    0.0000 N   0  0
   32.7601  -15.4167    0.0000 N   0  0
   34.1890  -16.2417    0.0000 C   0  0
   34.9035  -16.6542    0.0000 C   0  0
   35.6179  -16.2417    0.0000 C   0  0
   36.3324  -16.6542    0.0000 C   0  0
   35.6179  -15.4167    0.0000 C   0  0
   34.1890  -15.4167    0.0000 O   0  0
   36.3308  -17.4804    0.0000 C   0  0
   37.0445  -17.8928    0.0000 C   0  0
   37.7598  -17.4803    0.0000 C   0  0
   37.7572  -16.6509    0.0000 C   0  0
   37.0430  -16.2422    0.0000 C   0  0
   28.4001  -16.3939    0.0000 C   0  0
   27.9080  -17.0561    0.0000 N   0  0
   28.3859  -17.7287    0.0000 C   0  0
   29.1731  -17.4821    0.0000 C   0  0
   36.3353  -15.0070    0.0000 C   0  0
   36.3356  -14.1828    0.0000 C   0  0
   35.6207  -13.7695    0.0000 C   0  0
   34.9038  -14.1865    0.0000 C   0  0
   34.9069  -15.0093    0.0000 C   0  0
  1  2  1  0
  2  3  1  0
  3  4  1  0
  4  5  1  0
  5  6  1  0
  6  7  2  0
  6  8  1  0
  7  9  1  0
  9 10  1  0
 10 11  1  0
 11 12  1  0
 11 13  1  0
  9 14  2  0
 12 15  2  0
 15 16  1  0
 16 17  2  0
 17 18  1  0
 18 19  2  0
 19 12  1  0
  1 20  1  0
 20 21  2  0
 21 22  1  0
 22 23  2  0
 23  1  1  0
 13 24  2  0
 24 25  1  0
 25 26  2  0
 26 27  1  0
 27 28  2  0
 28 13  1  0
M  END