
  SciTegic05311213042D

 34 38  0  0  0  0            999 V2000
   -0.2165  -11.2926    0.0000 C   0  0
   -1.0062  -11.5506    0.0000 C   0  0
   -1.0024  -12.3795    0.0000 C   0  0
   -0.2129  -12.6325    0.0000 N   0  0
    0.2723  -11.9603    0.0000 C   0  0
   -1.6733  -11.0699    0.0000 C   0  0
   -1.5882  -10.2484    0.0000 C   0  0
   -2.2563   -9.7656    0.0000 C   0  0
   -3.0098  -10.1034    0.0000 N   0  0
   -3.0912  -10.9286    0.0000 C   0  0
   -2.4223  -11.4075    0.0000 C   0  0
   -1.6667  -12.8676    0.0000 C   0  0
   -2.4223  -12.5336    0.0000 C   0  0
   -3.0870  -13.0208    0.0000 C   0  0
   -1.5760  -13.6841    0.0000 C   0  0
   -2.2377  -14.1732    0.0000 C   0  0
   -3.0025  -13.8414    0.0000 C   0  0
   -3.5544  -14.4663    0.0000 C   0  0
   -3.1305  -15.1843    0.0000 C   0  0
   -2.3170  -15.0030    0.0000 C   0  0
   -4.3754  -14.3879    0.0000 N   0  0
   -4.8539  -15.0599    0.0000 O   0  0
    1.0971  -11.9575    0.0000 C   0  0
    1.5120  -12.6706    0.0000 C   0  0
    2.3370  -12.6678    0.0000 C   0  0
    2.7471  -11.9519    0.0000 C   0  0
    2.3321  -11.2388    0.0000 C   0  0
    1.5072  -11.2416    0.0000 C   0  0
    3.5721  -11.9491    0.0000 O   0  0
    3.9821  -11.2332    0.0000 C   0  0
    4.8071  -11.2304    0.0000 C   0  0
    5.2172  -10.5145    0.0000 N   0  0
    6.0422  -10.5117    0.0000 C   0  0
    4.8023   -9.8015    0.0000 C   0  0
 13 14  1  0
 14 17  2  0
  1  2  1  0
 16 15  2  0
 15 12  1  0
  3 12  1  0
 16 17  1  0
  7  8  1  0
  3  4  1  0
  8  9  2  0
  4  5  1  0
  9 10  1  0
 17 18  1  0
 18 19  1  0
 19 20  1  0
 20 16  1  0
  5  1  2  0
 18 21  2  0
 10 11  2  0
 21 22  1  0
 11  6  1  0
  5 23  1  0
  2  6  1  0
  2  3  2  0
 12 13  2  0
  6  7  2  0
 23 24  1  0
 23 28  2  0
 24 25  2  0
 25 26  1  0
 26 27  2  0
 27 28  1  0
 26 29  1  0
 29 30  1  0
 30 31  1  0
 31 32  1  0
 32 33  1  0
 32 34  1  0
M  END