
  SciTegic04091415222D

 27 30  0  0  0  0            999 V2000
   28.9593  -10.6647    0.0000 C   0  0
   30.3731  -10.6611    0.0000 C   0  0
   29.6645  -10.2559    0.0000 C   0  0
   30.3759  -11.4838    0.0000 C   0  0
   30.3721  -13.1189    0.0000 C   0  0
   31.0833  -12.7066    0.0000 C   0  0
   31.0813  -11.8909    0.0000 C   0  0
   29.6654  -11.8911    0.0000 C   0  0
   28.9582  -11.4843    0.0000 C   0  0
   28.2544  -11.8933    0.0000 C   0  0
   28.2566  -12.7089    0.0000 O   0  0
   28.9685  -13.1138    0.0000 C   0  0
   29.6694  -12.7025    0.0000 C   0  0
   31.0762  -10.2512    0.0000 C   0  0
   31.7857  -10.6588    0.0000 N   0  0
   32.4914  -10.2482    0.0000 C   0  0
   32.4888   -9.4302    0.0000 N   0  0
   31.7746   -9.0244    0.0000 C   0  0
   31.0718   -9.4373    0.0000 N   0  0
   29.6620   -9.4387    0.0000 Cl  0  0
   31.7686   -8.2072    0.0000 N   0  0
   33.2005  -10.6545    0.0000 S   0  0
   33.9068  -10.2436    0.0000 C   0  0
   34.6159  -10.6498    0.0000 C   0  0
   35.3222  -10.2389    0.0000 C   0  0
   36.0313  -10.6452    0.0000 N   0  0
   35.3196   -9.4217    0.0000 O   0  0
  1  9  2  0
  4  2  1  0
  2  3  2  0
  3  1  1  0
  4  8  1  0
 13  5  1  0
  5  6  2  0
  6  7  1  0
  7  4  2  0
  8  9  1  0
  9 10  1  0
 10 11  1  0
 11 12  1  0
 12 13  1  0
 13  8  2  0
 14 15  2  0
 15 16  1  0
 16 17  2  0
 17 18  1  0
 18 19  2  0
 19 14  1  0
  2 14  1  0
  3 20  1  0
 18 21  1  0
 16 22  1  0
 22 23  1  0
 23 24  1  0
 24 25  1  0
 25 26  1  0
 25 27  2  0
M  END