
          11280715122D 1   1.00000     0.00000     0

 15 16  0     1  0            999 V2000
    4.2792   -0.9000    0.0000 C   0  0  0  0  0  0           0  0  0
    4.8292   -0.2792    0.0000 N   0  0  3  0  0  0           0  0  0
    5.5042   -1.4375    0.0000 N   0  0  0  0  0  0           0  0  0
    2.5625   -2.7542    0.0000 O   0  0  0  0  0  0           0  0  0
    2.9750   -1.4792    0.0000 C   0  0  2  0  0  0           0  0  0
    3.4625   -0.8125    0.0000 C   0  0  0  0  0  0           0  0  0
    5.5875   -0.6167    0.0000 C   0  0  0  0  0  0           0  0  0
    1.9000   -2.2667    0.0000 C   0  0  3  0  0  0           0  0  0
    2.1500   -1.4792    0.0000 C   0  0  1  0  0  0           0  0  0
    4.6917   -1.6125    0.0000 C   0  0  0  0  0  0           0  0  0
    3.2292   -2.2667    0.0000 C   0  0  0  0  0  0           0  0  0
    1.1167   -2.5167    0.0000 O   0  0  0  0  0  0           0  0  0
    4.6625    0.5208    0.0000 C   0  0  0  0  0  0           0  0  0
    1.6667   -0.8125    0.0000 C   0  0  0  0  0  0           0  0  0
    0.8417   -0.9000    0.0000 C   0  0  0  0  0  0           0  0  0
  2  1  1  0     0  0
  3 10  1  0     0  0
  4 11  1  0     0  0
  5  6  1  1     0  0
  6  1  1  0     0  0
  7  2  1  0     0  0
  8  9  1  0     0  0
  9  5  1  0     0  0
 10  1  2  0     0  0
 11  5  1  0     0  0
 12  8  1  0     0  0
 13  2  1  0     0  0
  9 14  1  1     0  0
 15 14  1  0     0  0
  3  7  2  0     0  0
  4  8  1  0     0  0
M  END