
  SciTegic10261211122D

134141  0  0  0  0            999 V2000
    4.7542   -0.4208    0.0000 N   0  3
    4.0125   -0.1417    0.0000 C   0  0
   -1.6250    2.1292    0.0000 S   0  0
    4.0458    0.6458    0.0000 C   0  0
   -1.6583   -0.6083    0.0000 C   0  0
    5.2458    0.2000    0.0000 C   0  0
   -2.3625   -0.9708    0.0000 N   0  0
    1.2750   -0.3125    0.0000 C   0  0
   -1.7875    0.1708    0.0000 C   0  0
    4.8042    0.8583    0.0000 C   0  0
    3.3500   -0.5750    0.0000 C   0  0
    4.9167   -5.3750    0.0000 C   0  0
   -2.5667    0.2875    0.0000 C   0  0
    2.7167  -10.1625    0.0000 P   0  0
    9.6333   -9.1333    0.0000 P   0  0
   -0.9708   -4.2208    0.0000 P   0  0
    4.7667   -6.6625    0.0000 C   0  0
    3.7458   -5.7000    0.0000 C   0  0
    3.5750   -6.1333    0.0000 C   0  0
   -2.9250   -0.4167    0.0000 C   0  0
   -2.1417   -3.5083    0.0000 C   0  0
   10.8625   -9.7458    0.0000 C   0  0
    3.7417  -11.0708    0.0000 C   0  0
    1.9833   -0.6583    0.0000 C   0  0
    0.6167   -0.7458    0.0000 C   0  0
   -0.9500   -0.9583    0.0000 C   0  0
    2.6417   -0.2250    0.0000 C   0  0
   -0.0958   -0.3917    0.0000 C   0  0
    4.2667  -10.4792    0.0000 C   0  0
   10.5083  -10.4542    0.0000 C   0  0
   -2.9333   -3.4917    0.0000 C   0  0
   -0.9167    1.7792    0.0000 C   0  0
    1.3708   -5.6500    0.0000 C   0  0
    7.2625   -9.2792    0.0000 C   0  0
    0.6583   -8.3458    0.0000 C   0  0
    7.1792   -7.9083    0.0000 N   0  0
    1.4042   -4.2792    0.0000 N   0  0
    1.9625   -7.9125    0.0000 N   0  0
    5.4417   -4.7833    0.0000 N   0  0
    1.2167    0.7167    0.0000 O   0  0
   -2.3333    2.4833    0.0000 O   0  5
    0.9875   -4.9542    0.0000 C   0  0  1  0  0  0
    1.4375   -8.5042    0.0000 C   0  0  1  0  0  0
    7.6167   -8.5708    0.0000 C   0  0  1  0  0  0
   -1.7583   -4.2042    0.0000 C   0  0
   10.4250   -9.0875    0.0000 C   0  0
    2.9667  -10.9125    0.0000 C   0  0
    2.7375   -8.0667    0.0000 C   0  0
    6.3917   -7.9542    0.0000 C   0  0
    2.1958   -4.2958    0.0000 C   0  0
   -1.9750    1.4208    0.0000 O   0  0
   -1.2708    2.8375    0.0000 O   0  0
    5.1917   -4.0292    0.0000 C   0  0
    5.2750   -6.0667    0.0000 C   0  0
    4.1042   -5.5167    0.0000 C   0  0
    4.2250   -5.1167    0.0000 C   0  0
    4.1000   -6.3375    0.0000 C   0  0
    3.9417   -6.8250    0.0000 C   0  0
    2.8542   -5.8125    0.0000 C   0  0
   12.8792  -10.3125    0.0000 C   0  0
   -0.5292   -2.1750    0.0000 C   0  0
    3.7167  -13.1708    0.0000 C   0  0
    8.4042   -8.5250    0.0000 C   0  0
    0.1958   -4.9375    0.0000 C   0  0
    1.6875   -9.2542    0.0000 C   0  0
    9.5833   -8.3458    0.0000 O   0  0
   -0.9542   -3.4292    0.0000 O   0  0
    3.4667   -9.9167    0.0000 O   0  0
   -1.7292   -2.8333    0.0000 C   0  0
   11.6500   -9.7000    0.0000 C   0  0
    3.9917  -11.8208    0.0000 C   0  0
   10.9417  -11.1125    0.0000 O   0  0
    4.0125   -9.7250    0.0000 O   0  0
   -3.3458   -4.1667    0.0000 O   0  0
    7.7000   -9.9375    0.0000 O   0  0
    2.1583   -5.6708    0.0000 O   0  0
    0.1375   -8.9417    0.0000 O   0  0
    2.4625   -9.4167    0.0000 C   0  0
   -0.1792   -4.2417    0.0000 C   0  0
    8.8458   -9.1833    0.0000 C   0  0
    4.9625   -1.1833    0.0000 C   0  0
    2.6042   -3.6167    0.0000 O   0  0
    6.0375   -8.6625    0.0000 O   0  0
    2.9917   -8.8208    0.0000 O   0  0
    5.7125   -3.4333    0.0000 O   0  0
   13.2292   -9.6042    0.0000 O   0  0
   -0.9083   -1.4833    0.0000 O   0  0
    4.4958  -13.3250    0.0000 O   0  0
   -0.2542    2.2167    0.0000 C   0  0
   -0.8625    0.9875    0.0000 C   0  0
    3.0458   -6.7250    0.0000 C   0  0
    5.1667   -7.3458    0.0000 C   0  0
    3.3625   -5.0083    0.0000 C   0  0
    0.5083    1.0708    0.0000 C   0  0
    1.9667  -10.4125    0.0000 O   0  0
    9.6792   -9.9208    0.0000 O   0  0
   -0.9917   -5.0125    0.0000 O   0  0
   -0.9417   -2.8500    0.0000 C   0  0
   12.0875  -10.3583    0.0000 C   0  0
    3.4667  -12.4167    0.0000 C   0  0
    3.2667   -7.4750    0.0000 C   0  0
    2.5750   -4.9875    0.0000 C   0  0
    5.9542   -7.2958    0.0000 C   0  0
   -3.3083   -2.7917    0.0000 O   0  0
    9.7167  -10.5042    0.0000 O   0  0
    5.0417  -10.6375    0.0000 O   0  0
    6.4750   -9.3292    0.0000 O   0  0
    0.4042   -7.6000    0.0000 O   0  0
    0.9542   -6.3208    0.0000 O   0  0
    3.2542    0.6000    0.0000 C   0  0
    3.9125    1.4292    0.0000 C   0  0
    0.2625   -2.2000    0.0000 O   0  0
   13.3167  -10.9708    0.0000 O   0  5
    3.1958  -13.7625    0.0000 O   0  0
   -0.1542    0.6417    0.0000 C   0  0
    0.4542    1.8667    0.0000 C   0  0
   -1.7500    0.9625    0.0000 C   0  0
   -1.0000    0.2208    0.0000 C   0  0
    6.0333    0.2458    0.0000 C   0  0
    5.1583    1.5708    0.0000 C   0  0
    0.6583   -1.5333    0.0000 C   0  0
    2.0292   -1.4542    0.0000 C   0  0
   -3.0000    0.9500    0.0000 C   0  0
   -3.7167   -0.4583    0.0000 C   0  0
    1.3667   -1.8875    0.0000 C   0  0
    4.4125   -3.8708    0.0000 C   0  0
    4.4375   -1.7750    0.0000 C   0  0
    4.1667   -3.1167    0.0000 C   0  0
    4.6917   -2.5250    0.0000 C   0  0
    6.3833    0.9542    0.0000 C   0  0
    5.9458    1.6208    0.0000 C   0  0
   -3.7917    0.9125    0.0000 C   0  0
   -4.1458    0.2000    0.0000 C   0  0
   -2.2875    3.3750    0.0000 Na  0  3
  2  1  2  0
  3 32  1  0
  4  2  1  0
  5 26  2  0
  6  1  1  0
  7  5  1  0
  8 24  2  0
  9  5  1  0
 10  6  2  0
 11  2  1  0
 12 39  1  0
 13  9  1  0
 14 78  1  0
 15 80  1  0
 16 79  1  0
 17 54  1  0
 18 56  1  0
 19 55  1  0
 20  7  1  0
 21 45  1  0
 22 46  1  0
 23 47  1  0
 24 27  1  0
 25  8  1  0
 26 28  1  0
 27 11  2  0
 28 25  2  0
 29 23  1  0
 30 22  1  0
 31 21  1  0
 32 89  1  0
 33 42  1  0
 34 44  1  0
 35 43  1  0
 36 49  1  0
 37 50  1  0
 38 48  1  0
 39 53  1  0
 40  8  1  0
 41  3  1  0
 42 37  1  6
 43 38  1  1
 44 36  1  1
 45 16  1  0
 46 15  1  0
 47 14  1  0
 48101  1  0
 49103  1  0
 50102  1  0
 51  3  2  0
 52  3  2  0
 53126  1  0
 54 12  1  0
 55 12  1  0
 56 12  1  0
 57 18  1  0
 58 17  1  0
 59 18  1  0
 60 99  1  0
 61 98  1  0
 62100  1  0
 63 44  1  0
 64 42  1  0
 65 43  1  0
 66 15  2  0
 67 16  2  0
 68 14  2  0
 69 21  1  0
 70 22  1  0
 71 23  1  0
 72 30  2  0
 73 29  2  0
 74 31  2  0
 75 34  2  0
 76 33  2  0
 77 35  2  0
 78 65  1  0
 79 64  1  0
 80 63  1  0
 81  1  1  0
 82 50  2  0
 83 49  2  0
 84 48  2  0
 85 53  2  0
 86 60  2  0
 87 61  2  0
 88 62  2  0
 89116  2  0
 90115  1  0
 91 19  1  0
 92 17  1  0
 93 18  1  0
 94 40  1  0
 95 14  1  0
 96 15  1  0
 97 16  1  0
 98 69  1  0
 99 70  1  0
100 71  1  0
101 91  1  0
102 93  1  0
103 92  1  0
104 31  1  0
105 30  1  0
106 29  1  0
107 34  1  0
108 35  1  0
109 33  1  0
110  4  1  0
111  4  1  0
112 61  1  0
113 60  1  0
114 62  1  0
115 94  2  0
116 94  1  0
117  9  1  0
118  9  1  0
119  6  1  0
120 10  1  0
121125  1  0
122 24  1  0
123 13  1  0
124 20  1  0
125122  1  0
126128  1  0
127 81  1  0
128129  1  0
129127  1  0
130119  2  0
131130  1  0
132123  2  0
133124  2  0
  4 10  1  0
120131  2  0
121 25  1  0
 90 32  2  0
 13 20  2  0
 17 57  1  0
 19 59  1  0
 58 19  1  0
133132  1  0
M  CHG  4   1   1  41  -1 113  -1 134   1
M  END