
  SciTegic01161211242D

 32 35  0  0  0  0            999 V2000
   -0.6493  -10.7010    0.0000 C   0  0
    0.0258  -11.1752    0.0000 N   0  0
    0.6867  -10.6811    0.0000 N   0  0
    0.4189   -9.8980    0.0000 C   0  0
   -0.4052   -9.9142    0.0000 C   0  0
    0.8419   -9.1897    0.0000 C   0  0
    1.6668   -9.2019    0.0000 C   0  0
    0.4400   -8.4692    0.0000 C   0  0
    1.4166   -9.7816    0.0000 C   0  0
   -1.4300  -10.9669    0.0000 N   0  0
   -2.1311  -10.5320    0.0000 C   0  0
   -2.8582  -10.9216    0.0000 N   0  0
   -2.1050   -9.7074    0.0000 O   0  0
   -3.5593  -10.4867    0.0000 C   0  0
    0.0380  -12.0001    0.0000 C   0  0
   -3.5356   -9.6644    0.0000 C   0  0
   -4.2358   -9.2296    0.0000 C   0  0
   -4.9640   -9.6193    0.0000 C   0  0
   -0.6728  -12.4208    0.0000 C   0  0
   -0.6610  -13.2450    0.0000 C   0  0
    0.0601  -13.6477    0.0000 C   0  0
    0.7707  -13.2202    0.0000 C   0  0
    0.7553  -12.3974    0.0000 C   0  0
    1.4951  -13.6217    0.0000 N   0  3
    2.2019  -13.1961    0.0000 O   0  0
    1.5102  -14.4465    0.0000 O   0  5
   -4.2875  -10.8810    0.0000 C   0  0
   -4.9884  -10.4496    0.0000 C   0  0
   -5.7103  -10.8409    0.0000 C   0  0
   -5.7325  -11.6634    0.0000 C   0  0
   -5.0268  -12.0930    0.0000 C   0  0
   -4.3078  -11.6993    0.0000 C   0  0
 14 16  2  0
  6  8  1  0
 16 17  1  0
  3  4  2  0
 17 18  2  0
 18 28  1  0
 27 14  1  0
  6  9  1  0
 15 19  2  0
  4  5  1  0
 19 20  1  0
  1 10  1  0
 20 21  2  0
  5  1  2  0
 21 22  1  0
 10 11  1  0
 22 23  2  0
 23 15  1  0
  1  2  1  0
 11 12  1  0
  4  6  1  0
 24 25  2  0
 24 26  1  0
 22 24  1  0
 11 13  2  0
 27 28  1  0
 12 14  1  0
 28 29  2  0
  6  7  1  0
 29 30  1  0
  2 15  1  0
 30 31  2  0
  2  3  1  0
 31 32  1  0
 32 27  2  0
M  CHG  2  24   1  26  -1
M  END