
  SciTegic01061414252D

 22 23  0  0  0  0            999 V2000
   21.5199   -4.0665    0.0000 O   0  0
   20.6949   -4.0665    0.0000 S   0  0
   21.1074   -4.7809    0.0000 O   0  0
   19.9852   -2.0041    0.0000 C   0  0
   19.9841   -2.8314    0.0000 C   0  0
   20.6988   -3.2443    0.0000 C   0  0
   21.4153   -2.8309    0.0000 C   0  0
   21.4124   -2.0004    0.0000 C   0  0
   20.6970   -1.5913    0.0000 C   0  0
   22.1253   -1.5852    0.0000 C   0  0
   22.8412   -1.9950    0.0000 C   0  0
   22.1221   -0.7603    0.0000 O   0  0
   23.5541   -1.5799    0.0000 S   0  0
   24.2701   -1.9896    0.0000 C   0  0
   24.2701   -2.8135    0.0000 N   0  0
   24.9852   -3.2232    0.0000 C   0  0
   25.6991   -2.8080    0.0000 C   0  0
   25.6934   -1.9787    0.0000 C   0  0
   24.9776   -1.5727    0.0000 N   0  0
   19.9841   -4.4815    0.0000 N   0  0
   26.4048   -1.5610    0.0000 O   0  0
   24.9879   -4.0481    0.0000 C   0  0
  2  1  2  0
  3  2  2  0
  4  5  2  0
  5  6  1  0
  6  7  2  0
  7  8  1  0
  8  9  2  0
  9  4  1  0
  8 10  1  0
 10 11  1  0
 10 12  2  0
 11 13  1  0
 13 14  1  0
 14 15  2  0
 15 16  1  0
 16 17  2  0
 17 18  1  0
 18 19  1  0
 19 14  1  0
  6  2  1  0
  2 20  1  0
 18 21  2  0
 16 22  1  0
M  END