
  SciTegic06051315212D

 32 37  0  0  0  0            999 V2000
    4.2125   -5.1631    0.0000 C   0  0
    4.2113   -5.9827    0.0000 N   0  0
    4.9194   -6.3916    0.0000 C   0  0
    5.6290   -5.9822    0.0000 C   0  0
    5.6262   -5.1595    0.0000 C   0  0
    4.9176   -4.7543    0.0000 C   0  0
    6.2714   -4.6579    0.0000 N   0  0
    7.0123   -3.5600    0.0000 N   0  0
    6.2439   -3.8401    0.0000 C   0  0
    7.5155   -4.2053    0.0000 C   0  0
    7.0562   -4.8803    0.0000 C   0  0
    7.4111   -5.6135    0.0000 C   0  0
    8.2251   -5.6729    0.0000 C   0  0
    8.6830   -4.9932    0.0000 C   0  0
    8.3255   -4.2627    0.0000 C   0  0
    4.9192   -7.2088    0.0000 N   0  0
    4.2114   -7.6172    0.0000 C   0  0
    5.5210   -3.4627    0.0000 C   0  0
    5.4904   -2.6450    0.0000 C   0  0
    4.1106   -3.5210    0.0000 C   0  0
    4.8332   -3.8979    0.0000 C   0  0
    4.0759   -2.7003    0.0000 C   0  0
    4.7706   -2.2650    0.0000 C   0  0
    4.7401   -1.4476    0.0000 C   0  0
    4.0155   -1.0645    0.0000 C   0  0
    3.3203   -1.5049    0.0000 C   0  0
    3.3543   -2.3208    0.0000 C   0  0
    3.5049   -7.2101    0.0000 C   0  0
    2.7992   -7.6150    0.0000 C   0  0
    2.7948   -8.4325    0.0000 C   0  0
    3.5022   -8.8435    0.0000 C   0  0
    4.2141   -8.4369    0.0000 C   0  0
  1  2  2  0
  2  3  1  0
  3  4  2  0
  4  5  1  0
  5  6  2  0
  6  1  1  0
  5  7  1  0
  7 11  1  0
 10  8  1  0
  8  9  2  0
  9  7  1  0
 10 11  2  0
 11 12  1  0
 12 13  2  0
 13 14  1  0
 14 15  2  0
 15 10  1  0
  3 16  1  0
 16 17  1  0
 18 19  2  0
 19 23  1  0
 22 20  1  0
 20 21  2  0
 21 18  1  0
  9 18  1  0
 22 23  1  0
 23 24  2  0
 24 25  1  0
 25 26  2  0
 26 27  1  0
 27 22  2  0
 17 28  1  0
 17 32  1  0
 28 29  1  0
 29 30  1  0
 30 31  1  0
 31 32  1  0
M  END