
  SciTegic01161211252D

 25 27  0  0  0  0            999 V2000
   12.2646   -4.2444    0.0000 C   0  0
   11.5482   -3.8328    0.0000 C   0  0  2  0  0  0
   11.5452   -3.0066    0.0000 C   0  0
   12.2655   -5.0669    0.0000 O   0  0
   12.9778   -3.8300    0.0000 N   0  0
   13.7790   -5.0598    0.0000 S   0  0
   13.6919   -4.2380    0.0000 C   0  0
   14.4419   -3.9003    0.0000 N   0  0
   14.9979   -4.5142    0.0000 C   0  0
   14.5863   -5.2304    0.0000 C   0  0
   10.8350   -4.2471    0.0000 C   0  0
   10.8380   -5.0732    0.0000 C   0  0
   10.1248   -5.4877    0.0000 C   0  0
    9.4085   -5.0760    0.0000 C   0  0
    9.4055   -4.2499    0.0000 C   0  0
   10.1188   -3.8355    0.0000 C   0  0
   12.2586   -2.5922    0.0000 C   0  0
   12.3434   -1.7733    0.0000 C   0  0
   13.1452   -1.6000    0.0000 C   0  0
   13.5596   -2.3132    0.0000 C   0  0
   13.0140   -2.9275    0.0000 C   0  0
    8.6951   -5.4905    0.0000 S   0  0
    7.9795   -5.0800    0.0000 C   0  0
    8.1042   -6.0708    0.0000 O   0  0
    9.2750   -6.0708    0.0000 O   0  0
  1  5  1  0
  6  7  1  0
  7  8  2  0
  8  9  1  0
  9 10  2  0
  6 10  1  0
  5  7  1  0
 11 12  1  0
 12 13  2  0
 13 14  1  0
 14 15  2  0
 15 16  1  0
 11 16  2  0
  2 11  1  0
 17 18  1  0
 18 19  1  0
 19 20  1  0
 20 21  1  0
 17 21  1  0
  3 17  1  0
 14 22  1  0
  1  2  1  0
 22 23  1  0
  2  3  1  1
 22 24  2  0
  1  4  2  0
 22 25  2  0
M  END