
          02060813482D 1   1.00000     0.00000     0

 43 46  0     1  0            999 V2000
   21.3283  -16.1203    0.0000 C   0  0  0  0  0  0           0  0  0
   22.0393  -16.5399    0.0000 C   0  0  0  0  0  0           0  0  0
   22.7551  -16.1311    0.0000 C   0  0  0  0  0  0           0  0  0
   22.7589  -15.3053    0.0000 C   0  0  0  0  0  0           0  0  0
   22.0412  -14.8899    0.0000 C   0  0  0  0  0  0           0  0  0
   21.3285  -15.3011    0.0000 C   0  0  0  0  0  0           0  0  0
   12.0543  -14.0298    0.0000 N   0  0  0  0  0  0           0  0  0
   12.7688  -13.6173    0.0000 C   0  0  2  0  0  0           0  0  0
   13.4833  -14.0298    0.0000 C   0  0  0  0  0  0           0  0  0
   12.7688  -12.7923    0.0000 C   0  0  0  0  0  0           0  0  0
   12.0543  -12.3798    0.0000 C   0  0  0  0  0  0           0  0  0
   12.0571  -11.5537    0.0000 C   0  0  0  0  0  0           0  0  0
   11.3434  -11.1413    0.0000 C   0  0  0  0  0  0           0  0  0
   10.6280  -11.5538    0.0000 C   0  0  0  0  0  0           0  0  0
   10.6306  -12.3831    0.0000 C   0  0  0  0  0  0           0  0  0
   11.3449  -12.7917    0.0000 C   0  0  0  0  0  0           0  0  0
   11.3475  -13.6167    0.0000 C   0  0  0  0  0  0           0  0  0
   12.7724  -11.1425    0.0000 C   0  0  0  0  0  0           0  0  0
    9.9130  -11.1423    0.0000 O   0  0  0  0  0  0           0  0  0
   13.4833  -14.8548    0.0000 O   0  0  0  0  0  0           0  0  0
   14.1978  -13.6173    0.0000 N   0  0  3  0  0  0           0  0  0
   14.9066  -14.0322    0.0000 C   0  0  1  0  0  0           0  0  0
   15.6190  -13.6232    0.0000 C   0  0  0  0  0  0           0  0  0
   14.1903  -12.7938    0.0000 C   0  0  0  0  0  0           0  0  0
   14.9089  -12.3832    0.0000 C   0  0  0  0  0  0           0  0  0
   15.6202  -12.7976    0.0000 C   0  0  0  0  0  0           0  0  0
   16.3326  -12.3887    0.0000 C   0  0  0  0  0  0           0  0  0
   16.3349  -11.5658    0.0000 C   0  0  0  0  0  0           0  0  0
   15.6188  -11.1534    0.0000 C   0  0  0  0  0  0           0  0  0
   14.9094  -11.5644    0.0000 C   0  0  0  0  0  0           0  0  0
   14.9032  -14.8572    0.0000 C   0  0  0  0  0  0           0  0  0
   14.1870  -15.2668    0.0000 O   0  0  0  0  0  0           0  0  0
   15.6159  -15.2728    0.0000 N   0  0  0  0  0  0           0  0  0
   14.9006  -13.2048    0.0000 H   0  0  0  0  0  0           0  0  0
   16.3321  -14.8633    0.0000 C   0  0  0  0  0  0           0  0  0
   17.0448  -15.2787    0.0000 C   0  0  0  0  0  0           0  0  0
   17.7610  -14.8693    0.0000 C   0  0  0  0  0  0           0  0  0
   18.4737  -15.2848    0.0000 C   0  0  0  0  0  0           0  0  0
   19.1900  -14.8753    0.0000 C   0  0  1  0  0  0           0  0  0
   19.9028  -15.2908    0.0000 C   0  0  0  0  0  0           0  0  0
   19.1935  -14.0504    0.0000 N   0  0  0  0  0  0           0  0  0
   19.8992  -16.1159    0.0000 O   0  0  0  0  0  0           0  0  0
   20.6190  -14.8813    0.0000 N   0  0  0  0  0  0           0  0  0
 21 22  1  0     0  0
 10 11  1  0     0  0
  5  6  2  0     0  0
 11 12  2  0     0  0
 21 24  1  0     0  0
 22 23  1  0     0  0
 23 26  1  0     0  0
 25 24  1  0     0  0
  6  1  1  0     0  0
 12 13  1  0     0  0
 25 26  2  0     0  0
  1  2  2  0     0  0
 26 27  1  0     0  0
 13 14  2  0     0  0
 27 28  2  0     0  0
  3  4  2  0     0  0
 28 29  1  0     0  0
 14 15  1  0     0  0
 29 30  2  0     0  0
 30 25  1  0     0  0
  7  8  1  0     0  0
 22 31  1  0     0  0
 15 16  2  0     0  0
 31 32  2  0     0  0
 16 11  1  0     0  0
 31 33  1  0     0  0
 22 34  1  6     0  0
 16 17  1  0     0  0
 33 35  1  0     0  0
  8  9  1  0     0  0
 35 36  1  0     0  0
 12 18  1  0     0  0
 36 37  1  0     0  0
  4  5  1  0     0  0
 37 38  1  0     0  0
 14 19  1  0     0  0
 38 39  1  0     0  0
  8 10  1  1     0  0
 39 40  1  0     0  0
  9 20  2  0     0  0
 39 41  1  6     0  0
  2  3  1  0     0  0
 40 42  2  0     0  0
  9 21  1  0     0  0
 40 43  1  0     0  0
 43  6  1  0     0  0
M  END