
  SciTegic01161211242D

 40 45  0  0  0  0            999 V2000
    0.5258  -15.2672    0.0000 C   0  0
    1.2117  -14.8092    0.0000 C   0  0
    1.9833  -15.0982    0.0000 N   0  0
    1.2421  -13.9880    0.0000 C   0  0
    2.0362  -13.7643    0.0000 N   0  0
    2.4890  -14.4499    0.0000 C   0  0
    3.2810  -14.2312    0.0000 S   0  0
    2.5484  -13.1218    0.0000 C   0  0
    3.3184  -13.4145    0.0000 C   0  0
    3.9548  -12.8944    0.0000 C   0  0
    3.8224  -12.0816    0.0000 C   0  0
    3.0480  -11.7915    0.0000 C   0  0
    2.4149  -12.3135    0.0000 C   0  0
   -0.9014  -15.2708    0.0000 C   0  0
   -0.9026  -16.0982    0.0000 C   0  0
   -0.1878  -16.5110    0.0000 C   0  0
    0.5287  -16.0977    0.0000 C   0  0
   -0.1896  -14.8580    0.0000 C   0  0
   -1.6174  -16.5101    0.0000 N   0  0
   -2.3315  -16.0970    0.0000 C   0  0
   -3.0463  -16.5090    0.0000 N   0  0
   -2.3309  -15.2720    0.0000 O   0  0
   -3.7605  -16.0959    0.0000 C   0  0
   -3.8418  -15.2726    0.0000 C   0  0
   -4.6487  -15.1004    0.0000 C   0  0
   -5.0617  -15.8146    0.0000 O   0  0
   -4.5101  -16.4280    0.0000 N   0  0
   -4.9836  -14.3465    0.0000 C   0  0
   -4.4982  -13.6794    0.0000 C   0  0
   -5.8125  -14.3458    0.0000 C   0  0
   -5.4042  -13.6292    0.0000 C   0  0
    4.4603  -11.5584    0.0000 O   0  0
    5.2323  -11.8492    0.0000 C   0  0
    5.9185  -11.3919    0.0000 C   0  0
    6.6427  -11.7871    0.0000 N   0  0
    6.6600  -12.6127    0.0000 C   0  0
    7.3802  -13.0078    0.0000 C   0  0
    8.0870  -12.5816    0.0000 C   0  0
    8.0690  -11.7558    0.0000 C   0  0
    7.3442  -11.3563    0.0000 C   0  0
  5  4  1  0
 15 19  1  0
  8  9  2  0
 19 20  1  0
  4  2  2  0
 20 21  1  0
  9 10  1  0
 20 22  2  0
  5  6  1  0
 21 23  1  0
 23 24  1  0
 10 11  2  0
  2  3  1  0
 11 12  1  0
 24 25  2  0
 25 26  1  0
 26 27  1  0
 27 23  2  0
 12 13  2  0
 25 28  1  0
 13  8  1  0
 28 29  1  0
  1  2  1  0
 28 30  1  0
  6  7  1  0
 28 31  1  0
 14 15  2  0
 11 32  1  0
  7  9  1  0
 32 33  1  0
 15 16  1  0
 33 34  1  0
  8  5  1  0
 34 35  1  0
 35 36  1  0
 16 17  2  0
 17  1  1  0
  3  6  2  0
  1 18  2  0
 18 14  1  0
 35 40  1  0
 36 37  1  0
 37 38  1  0
 38 39  1  0
 39 40  1  0
M  END