
          11280715022D 1   1.00000     0.00000     0

 22 24  0     1  0            999 V2000
    7.8250   -1.6292    0.0000 C   0  0  1  0  0  0           0  0  0
    8.6167   -2.0875    0.0000 C   0  0  0  0  0  0           0  0  0
    8.0625   -0.7292    0.0000 C   0  0  0  0  0  0           0  0  0
    7.0292   -3.0000    0.0000 N   0  0  3  0  0  0           0  0  0
    7.8250   -2.5417    0.0000 C   0  0  0  0  0  0           0  0  0
    7.8250   -4.3750    0.0000 C   0  0  3  0  0  0           0  0  0
    8.2792   -5.1667    0.0000 C   0  0  0  0  0  0           0  0  0
    8.7417   -4.3667    0.0000 C   0  0  0  0  0  0           0  0  0
    8.0625    0.1833    0.0000 C   0  0  0  0  0  0           0  0  0
    7.0292   -3.9167    0.0000 C   0  0  0  0  0  0           0  0  0
    8.6125   -3.0042    0.0000 O   0  0  0  0  0  0           0  0  0
    7.0292   -1.1667    0.0000 C   0  0  0  0  0  0           0  0  0
    9.4125   -1.6292    0.0000 O   0  0  0  0  0  0           0  0  0
    8.8417    0.6333    0.0000 C   0  0  0  0  0  0           0  0  0
    6.2417   -2.5417    0.0000 C   0  0  0  0  0  0           0  0  0
    8.8417   -1.1917    0.0000 C   0  0  0  0  0  0           0  0  0
    8.8417    1.5500    0.0000 O   0  0  0  0  0  0           0  0  0
    6.2417   -1.6292    0.0000 C   0  0  0  0  0  0           0  0  0
    9.6417   -0.7375    0.0000 C   0  0  0  0  0  0           0  0  0
    9.6417    0.1833    0.0000 C   0  0  0  0  0  0           0  0  0
   10.2000   -2.0917    0.0000 C   0  0  0  0  0  0           0  0  0
   10.9917   -1.6292    0.0000 C   0  0  0  0  0  0           0  0  0
  1  2  1  1     0  0
  1  3  1  6     0  0
  4  5  1  0     0  0
  5  1  1  0     0  0
  6 10  1  0     0  0
  7  6  1  0     0  0
  8  6  1  0     0  0
  9  3  1  0     0  0
 10  4  1  0     0  0
 11  2  2  0     0  0
 12  1  1  0     0  0
 13  2  1  0     0  0
 14  9  2  0     0  0
 15 18  1  0     0  0
 16  3  2  0     0  0
 17 14  1  0     0  0
 18 12  1  0     0  0
 19 16  1  0     0  0
 20 19  2  0     0  0
 21 13  1  0     0  0
 22 21  1  0     0  0
 15  4  1  0     0  0
 20 14  1  0     0  0
  8  7  1  0     0  0
M  END