
  SciTegic11201309402D

 52 54  0  0  1  0            999 V2000
    1.6167   -1.8625    0.0000 N   0  0
    1.6167   -2.6875    0.0000 C   0  0
    1.6167   -3.5125    0.0000 C   0  0
    2.1917   -4.1000    0.0000 O   0  0
    3.0542   -1.8667    0.0000 C   0  0
    5.6792   -7.7000    0.0000 O   0  0
    2.9667   -4.3917    0.0000 C   0  0
    3.7667   -1.4542    0.0000 O   0  0
    2.3292   -1.4542    0.0000 C   0  0  2  0  0  0
    6.9792   -5.7417    0.0000 C   0  0
    4.9042   -7.4125    0.0000 C   0  0
    6.8667   -1.6000    0.0000 C   0  0
    3.7542   -0.6292    0.0000 C   0  0  1  0  0  0
    3.0917   -5.2000    0.0000 C   0  0
    6.9917   -0.1750    0.0000 C   0  0
    7.3417   -0.9250    0.0000 C   0  0
    6.6167   -4.4417    0.0000 O   0  0
    2.4417   -2.6875    0.0000 O   0  0
    0.7917   -3.5125    0.0000 O   0  0
    7.2167   -2.3417    0.0000 C   0  0
    3.0417   -2.6917    0.0000 O   0  0
    3.6042   -3.8667    0.0000 O   0  0
    7.6667   -6.0542    0.0000 O   0  0
    4.2667   -7.9375    0.0000 O   0  0
    0.8917    1.0000    0.0000 N   0  0
    6.1667   -0.0917    0.0000 C   0  0
    2.4542   -5.7250    0.0000 O   0  0
    7.4667    0.5000    0.0000 O   0  0
    4.7042   -0.4042    0.0000 C   0  0  1  0  0  0
    3.0417   -0.2167    0.0000 C   0  0
    5.6917   -0.7750    0.0000 C   0  0
    8.6417   -0.3167    0.0000 C   0  0
    9.4542   -0.3875    0.0000 C   0  0
    0.9167   -1.4542    0.0000 C   0  0
    3.0292    0.6000    0.0000 C   0  0
    7.0917   -3.7667    0.0000 C   0  0
    2.3167    1.0083    0.0000 C   0  0
    8.1667   -0.9875    0.0000 C   0  0
    2.3292   -0.6292    0.0000 C   0  0
    4.7792   -6.5917    0.0000 C   0  0
    3.8667   -5.4917    0.0000 C   0  0
    1.6042    0.5875    0.0000 C   0  0
    6.7417   -3.0250    0.0000 C   0  0
    4.0042   -6.3000    0.0000 C   0  0
    0.8792    1.8250    0.0000 C   0  0
    8.0417   -2.4167    0.0000 C   0  0
    4.7042    0.5333    0.0000 C   0  0
    2.3042    1.8333    0.0000 C   0  0
    0.9167   -0.6292    0.0000 C   0  0
    1.5917    2.2375    0.0000 C   0  0
    1.6167   -0.2125    0.0000 C   0  0
    3.1936   -0.9515    0.0000 H   0  0
  2  1  1  0
  3  2  1  0
  4  3  1  0
  9  5  1  0
  6 11  1  0
  7  4  1  0
  8  5  1  0
  9  1  1  0
 10  6  1  0
 11 40  1  0
 12 16  1  0
 13  8  1  0
 14  7  1  0
 15 26  1  0
 16 15  1  0
 17 10  1  0
 18  2  2  0
 19  3  2  0
 20 12  2  0
 21  5  2  0
 22  7  2  0
 23 10  2  0
 24 11  2  0
 25 42  2  0
 26 31  1  0
 27 14  2  0
 28 15  2  0
 29 13  1  0
 13 30  1  6
 31 29  1  0
 32 38  1  0
 33 32  2  0
 34  1  1  0
 35 30  1  0
 36 43  1  0
 37 35  1  0
 38 16  1  0
 39  9  1  0
 40 44  1  0
 41 14  1  0
 42 37  1  0
 43 20  1  0
 44 41  1  0
 45 50  2  0
 46 20  1  0
 29 47  1  6
 48 37  2  0
 49 34  1  0
 50 48  1  0
 51 49  1  0
 51 39  1  0
 45 25  1  0
 36 17  1  0
  9 52  1  6
M  END