
  SciTegic09261414462D

 18 19  0  0  0  0            999 V2000
   17.1052   -7.9499    0.0000 N   0  0
   17.0902   -8.7682    0.0000 C   0  0
   16.3748   -9.1655    0.0000 N   0  0
   16.3619   -9.9803    0.0000 C   0  0
   17.0624  -10.4012    0.0000 C   0  0
   17.7757  -10.0074    0.0000 C   0  0
   17.7907   -9.1891    0.0000 N   0  0
   18.4762  -10.4283    0.0000 N   0  0
   18.5447  -11.2384    0.0000 C   0  0
   19.3435  -11.4261    0.0000 C   0  0  1  0  0  0
   19.7644  -10.7257    0.0000 C   0  0
   19.2258  -10.1049    0.0000 C   0  0
   19.6611  -12.1772    0.0000 N   0  0
   20.4739  -12.2754    0.0000 C   0  0
   15.6465  -10.3776    0.0000 C   0  0
   14.9456   -9.9573    0.0000 C   0  0
   14.9592   -9.1402    0.0000 C   0  0
   14.2584   -8.7199    0.0000 C   0  0
  2  3  1  0
  3  4  2  0
  4  5  1  0
  5  6  2  0
  6  7  1  0
  2  7  2  0
  1  2  1  0
  8  9  1  0
  9 10  1  0
 10 11  1  0
 11 12  1  0
  8 12  1  0
 13 14  1  0
 10 13  1  1
  6  8  1  0
  4 15  1  0
 15 16  1  0
 16 17  1  0
 17 18  1  0
M  END