
  SciTegic12231509382D

 16 16  0  0  0  0            999 V2000
    3.7417   -1.3417    0.0000 C   0  0
    4.4542   -0.9292    0.0000 C   0  0
    5.1750   -1.3417    0.0000 C   0  0
    3.7417   -2.1667    0.0000 C   0  0
    5.8875   -0.9250    0.0000 C   0  0
    5.1750   -2.1667    0.0000 C   0  0
    4.4542   -2.5792    0.0000 C   0  0
    3.0292   -0.9292    0.0000 O   0  0
    4.4542   -0.1042    0.0000 O   0  0
    7.3167   -0.9167    0.0000 N   0  0
    3.0292   -2.5792    0.0000 O   0  0
    6.6042   -1.3292    0.0000 C   0  0
    3.0292   -0.1042    0.0000 C   0  0
    5.1667    0.3083    0.0000 C   0  0
    2.3167   -2.1667    0.0000 C   0  0
    6.6042   -2.1542    0.0000 C   0  0
  2  1  1  0
  3  2  2  0
  4  1  2  0
  5  3  1  0
  6  7  2  0
  7  4  1  0
  8  1  1  0
  9  2  1  0
 10 12  1  0
 11  4  1  0
 12  5  1  0
 13  8  1  0
 14  9  1  0
 15 11  1  0
 16 12  1  0
  6  3  1  0
M  END