
          05080814032D 1   1.00000     0.00000     0

 35 40  0     1  0            999 V2000
    2.7866    1.0084    0.0000 C   0  0  0  0  0  0           0  0  0
    2.7866    0.1787    0.0000 C   0  0  0  0  0  0           0  0  0
    3.5012   -0.2337    0.0000 N   0  0  3  0  0  0           0  0  0
    4.2201    0.1787    0.0000 C   0  0  0  0  0  0           0  0  0
    4.2201    1.0084    0.0000 C   0  0  0  0  0  0           0  0  0
    3.5012    1.4254    0.0000 O   0  0  0  0  0  0           0  0  0
    3.5000   -1.0587    0.0000 C   0  0  0  0  0  0           0  0  0
    4.2139   -1.4722    0.0000 C   0  0  0  0  0  0           0  0  0
    4.2128   -2.2972    0.0000 C   0  0  0  0  0  0           0  0  0
    4.9267   -2.7107    0.0000 O   0  0  0  0  0  0           0  0  0
    5.6417   -2.2992    0.0000 C   0  0  0  0  0  0           0  0  0
    6.3529   -2.7140    0.0000 C   0  0  0  0  0  0           0  0  0
    6.3502   -1.0639    0.0000 C   0  0  0  0  0  0           0  0  0
    5.6386   -1.4772    0.0000 C   0  0  0  0  0  0           0  0  0
    7.0691   -1.4773    0.0000 C   0  0  0  0  0  0           0  0  0
    7.0675   -2.3054    0.0000 C   0  0  0  0  0  0           0  0  0
    8.5001   -1.4800    0.0000 C   0  0  0  0  0  0           0  0  0
    7.7831   -1.0624    0.0000 C   0  0  1  0  0  0           0  0  0
    8.4985   -2.3082    0.0000 N   0  0  3  0  0  0           0  0  0
    7.7797   -2.7141    0.0000 C   0  0  2  0  0  0           0  0  0
    7.9436   -3.5232    0.0000 C   0  0  0  0  0  0           0  0  0
    8.7638   -3.6173    0.0000 C   0  0  0  0  0  0           0  0  0
    9.1066   -2.8664    0.0000 C   0  0  0  0  0  0           0  0  0
    7.7836   -0.2374    0.0000 C   0  0  0  0  0  0           0  0  0
    7.0629   -3.1212    0.0000 H   0  0  0  0  0  0           0  0  0
    8.4984    0.1704    0.0000 C   0  0  0  0  0  0           0  0  0
    8.4991    0.9946    0.0000 C   0  0  0  0  0  0           0  0  0
    7.7844    1.4083    0.0000 C   0  0  0  0  0  0           0  0  0
    7.0673    0.9918    0.0000 C   0  0  0  0  0  0           0  0  0
    7.0700    0.1690    0.0000 C   0  0  0  0  0  0           0  0  0
    7.7872    2.2342    0.0000 N   0  0  3  0  0  0           0  0  0
    8.4543    2.7196    0.0000 C   0  0  0  0  0  0           0  0  0
    8.1987    3.5040    0.0000 N   0  0  0  0  0  0           0  0  0
    7.3736    3.5035    0.0000 C   0  0  0  0  0  0           0  0  0
    7.1194    2.7186    0.0000 C   0  0  0  0  0  0           0  0  0
  1  6  1  0     0  0
 15 18  1  0     0  0
 16 20  1  0     0  0
 19 17  1  0     0  0
 17 18  1  0     0  0
 19 20  1  0     0  0
  8  9  1  0     0  0
  2  3  1  0     0  0
  9 10  1  0     0  0
  3  4  1  0     0  0
 10 11  1  0     0  0
 20 21  1  0     0  0
 21 22  1  0     0  0
 22 23  1  0     0  0
 23 19  1  0     0  0
  4  5  1  0     0  0
 18 24  1  6     0  0
 11 12  2  0     0  0
 20 25  1  1     0  0
 12 16  1  0     0  0
 24 26  2  0     0  0
  5  6  1  0     0  0
 26 27  1  0     0  0
 15 13  1  0     0  0
 27 28  2  0     0  0
 28 29  1  0     0  0
 13 14  2  0     0  0
 29 30  2  0     0  0
 30 24  1  0     0  0
 31 32  1  0     0  0
 14 11  1  0     0  0
 15 16  2  0     0  0
  3  7  1  0     0  0
  1  2  1  0     0  0
  7  8  1  0     0  0
 32 33  2  0     0  0
 33 34  1  0     0  0
 34 35  2  0     0  0
 35 31  1  0     0  0
 28 31  1  0     0  0
M  END