
          11280715362D 1   1.00000     0.00000     0

 35 38  0     1  0            999 V2000
   -0.0250   -2.1792    0.0000 C   0  0  1  0  0  0           0  0  0
    0.0167   -1.3542    0.0000 C   0  0  2  0  0  0           0  0  0
    0.6167   -2.7000    0.0000 N   0  0  3  0  0  0           0  0  0
   -0.8208   -2.3917    0.0000 C   0  0  0  0  0  0           0  0  0
   -0.7500   -1.0625    0.0000 C   0  0  2  0  0  0           0  0  0
    4.1042   -2.8250    0.0000 C   0  0  0  0  0  0           0  0  0
    2.1042    0.3208    0.0000 C   0  0  0  0  0  0           0  0  0
   -0.9583   -0.2667    0.0000 O   0  0  0  0  0  0           0  0  0
    4.1667   -0.3792    0.0000 N   0  0  0  0  0  0           0  0  0
   -1.2708   -1.7042    0.0000 C   0  0  0  0  0  0           0  0  0
    4.8000   -2.8667    0.0000 O   0  0  0  0  0  0           0  0  0
    2.9292    0.3333    0.0000 C   0  0  0  0  0  0           0  0  0
    1.6792    1.0375    0.0000 C   0  0  0  0  0  0           0  0  0
    1.6917   -0.3917    0.0000 C   0  0  0  0  0  0           0  0  0
    1.9917   -1.0542    0.0000 C   0  0  0  0  0  0           0  0  0
    2.8792   -1.3625    0.0000 C   0  0  0  0  0  0           0  0  0
    0.7125   -0.9125    0.0000 O   0  0  0  0  0  0           0  0  0
   -0.3708    0.3208    0.0000 C   0  0  0  0  0  0           0  0  0
    0.4542    0.3125    0.0000 C   0  0  0  0  0  0           0  0  0
    3.7167   -3.4042    0.0000 O   0  0  0  0  0  0           0  0  0
    0.8667   -0.4042    0.0000 C   0  0  0  0  0  0           0  0  0
    0.8542    1.0333    0.0000 C   0  0  0  0  0  0           0  0  0
    1.3542   -2.3542    0.0000 C   0  0  0  0  0  0           0  0  0
    0.4292   -3.5042    0.0000 C   0  0  0  0  0  0           0  0  0
    3.3417   -0.3792    0.0000 C   0  0  0  0  0  0           0  0  0
    1.3042   -1.4250    0.0000 C   0  0  0  0  0  0           0  0  0
    3.7917   -2.2000    0.0000 C   0  0  0  0  0  0           0  0  0
    4.5792    0.3458    0.0000 C   0  0  0  0  0  0           0  0  0
    3.0917   -2.1542    0.0000 C   0  0  0  0  0  0           0  0  0
    3.3292    1.0458    0.0000 C   0  0  0  0  0  0           0  0  0
    0.9375   -4.1542    0.0000 C   0  0  0  0  0  0           0  0  0
    2.1042   -2.7167    0.0000 C   0  0  0  0  0  0           0  0  0
    4.1542    1.0583    0.0000 C   0  0  0  0  0  0           0  0  0
    1.7667   -4.1625    0.0000 C   0  0  0  0  0  0           0  0  0
    2.2792   -3.5167    0.0000 C   0  0  0  0  0  0           0  0  0
  2  1  1  0     0  0
  1  3  1  1     0  0
  4  1  1  0     0  0
  5  2  1  0     0  0
  6 27  1  0     0  0
  7 13  1  0     0  0
  5  8  1  1     0  0
  9 25  1  0     0  0
 10  4  1  0     0  0
 11  6  2  0     0  0
 12  7  1  0     0  0
 13 22  2  0     0  0
 14 21  1  0     0  0
 15 26  1  0     0  0
 16 15  2  0     0  0
  2 17  1  6     0  0
 18  8  1  0     0  0
 19 18  1  0     0  0
 20  6  1  0     0  0
 21 19  2  0     0  0
 22 19  1  0     0  0
 23  3  1  0     0  0
 24  3  1  0     0  0
 25 12  2  0     0  0
 26 17  1  0     0  0
 27 29  1  0     0  0
 28 33  1  0     0  0
 29 16  1  0     0  0
 30 12  1  0     0  0
 31 24  1  0     0  0
 32 23  1  0     0  0
 33 30  2  0     0  0
 34 31  1  0     0  0
 35 32  1  0     0  0
 10  5  1  0     0  0
 34 35  1  0     0  0
  7 14  2  0     0  0
 28  9  2  0     0  0
M  END