
  SciTegic12171313052D

 37 42  0  0  0  0            999 V2000
   35.1787   -3.7029    0.0000 C   0  0
   35.8912   -4.1154    0.0000 C   0  0
   36.6008   -3.7069    0.0000 C   0  0
   36.6040   -2.8842    0.0000 N   0  0
   35.8915   -2.4717    0.0000 C   0  0
   35.1758   -2.8819    0.0000 C   0  0
   37.3196   -2.4735    0.0000 C   0  0
   38.0330   -2.8879    0.0000 C   0  0
   38.0288   -3.7120    0.0000 C   0  0
   38.7381   -4.1263    0.0000 C   0  0
   39.4561   -3.7191    0.0000 N   0  0
   39.4602   -2.8932    0.0000 C   0  0
   38.7463   -2.4743    0.0000 C   0  0
   34.4976   -4.1684    0.0000 N   0  0
   33.6848   -5.2273    0.0000 N   0  0
   34.4764   -4.9949    0.0000 C   0  0
   33.2193   -4.5461    0.0000 C   0  0
   33.7240   -3.8938    0.0000 C   0  0
   33.4112   -3.1326    0.0000 C   0  0
   32.5940   -3.0226    0.0000 C   0  0
   32.0905   -3.6798    0.0000 C   0  0
   32.4060   -4.4384    0.0000 C   0  0
   40.1679   -4.1362    0.0000 C   0  0
   40.8850   -3.7282    0.0000 C   0  0
   41.5950   -4.1498    0.0000 C   0  0
   42.3116   -3.7425    0.0000 C   0  0
   42.3173   -2.9167    0.0000 N   0  0
   41.6004   -2.4998    0.0000 C   0  0
   40.8868   -2.9094    0.0000 C   0  0
   35.1304   -5.4978    0.0000 O   0  0
   37.3217   -1.6485    0.0000 O   0  0
   43.0232   -4.1599    0.0000 N   0  0
   31.2767   -3.5731    0.0000 F   0  0
   33.4075   -6.0043    0.0000 C   0  0
   32.5959   -6.1526    0.0000 C   0  0
   31.8180   -5.8794    0.0000 C   0  0
   31.9663   -6.6910    0.0000 C   0  0
  1  2  1  0
  1  6  1  0
  2  3  1  0
  3  4  1  0
  4  5  1  0
  5  6  1  0
  4  7  1  0
  7  8  1  0
  8  9  1  0
  8 13  1  0
  9 10  1  0
 10 11  1  0
 11 12  1  0
 12 13  1  0
  1 14  1  0
 14 18  1  0
 17 15  1  0
 15 16  1  0
 16 14  1  0
 17 18  2  0
 18 19  1  0
 19 20  2  0
 20 21  1  0
 21 22  2  0
 22 17  1  0
 11 23  1  0
 23 24  1  0
 24 25  2  0
 25 26  1  0
 26 27  2  0
 27 28  1  0
 28 29  2  0
 29 24  1  0
 16 30  2  0
  7 31  2  0
 26 32  1  0
 21 33  1  0
 15 34  1  0
 34 35  1  0
 36 35  1  0
 37 36  1  0
 35 37  1  0
M  END