
  SciTegic11201309402D

 78 81  0  0  1  0            999 V2000
    8.6042   -2.2125    0.0000 N   0  0
    7.8792   -2.6167    0.0000 C   0  0
   10.1375   -2.6167    0.0000 C   0  0
    1.5000   -2.2375    0.0000 C   0  0
   -0.7625   -0.8667    0.0000 C   0  0
    7.1792   -2.2167    0.0000 C   0  0  1  0  0  0
    0.0792   -2.2375    0.0000 N   0  0
   -0.6333   -2.6375    0.0000 C   0  0
    9.4250   -2.2125    0.0000 C   0  0  1  0  0  0
    5.7625   -2.2250    0.0000 C   0  0
    6.4667   -2.6167    0.0000 N   0  0
    3.6292   -2.6250    0.0000 C   0  0
    0.3417   -0.4000    0.0000 N   0  0
    4.3417   -2.2250    0.0000 N   0  0
    2.2125   -2.6292    0.0000 N   0  0
    0.7917   -2.6375    0.0000 C   0  0  1  0  0  0
   10.8500   -2.2167    0.0000 N   0  0
    5.0542   -2.6250    0.0000 C   0  0  2  0  0  0
   -0.0375   -1.0292    0.0000 C   0  0
   -2.7708   -2.2417    0.0000 C   0  0
    5.0542   -3.4292    0.0000 C   0  0
   -1.3375   -2.2417    0.0000 C   0  0  2  0  0  0
   12.2667   -2.1917    0.0000 C   0  0
   13.0417   -5.7917    0.0000 C   0  0
   -2.0500   -2.6417    0.0000 N   0  0
   -0.8333   -0.1417    0.0000 C   0  0
   -1.3458   -1.4417    0.0000 C   0  0
   -3.4833   -2.6417    0.0000 C   0  0
    2.9167   -2.2292    0.0000 C   0  0  1  0  0  0
    5.7667   -3.8250    0.0000 C   0  0
   12.9917   -2.5875    0.0000 N   0  0
   -0.1458    0.1458    0.0000 C   0  0
   11.5667   -2.6125    0.0000 C   0  0  2  0  0  0
   -4.1875   -2.2417    0.0000 C   0  0
   14.4125   -2.5667    0.0000 C   0  0
   12.3417   -6.2125    0.0000 N   0  0
    3.6250   -0.2167    0.0000 C   0  0
    7.8792   -3.4167    0.0000 O   0  0
   10.1292   -3.4167    0.0000 O   0  0
    1.4917   -1.4292    0.0000 O   0  0
   -0.6333   -3.4417    0.0000 O   0  0
    5.7542   -1.4167    0.0000 O   0  0
    3.6250   -3.4292    0.0000 O   0  0
   -2.7708   -1.4417    0.0000 O   0  0
   12.2542   -1.3917    0.0000 O   0  0
    6.4750   -3.4250    0.0000 O   0  0
   14.4250   -3.3667    0.0000 O   0  0
    4.3292    0.1833    0.0000 O   0  0
    2.9125   -1.4292    0.0000 C   0  0
   13.0292   -4.9917    0.0000 N   0  0
   13.7000   -2.1667    0.0000 C   0  0
   13.7667   -6.1875    0.0000 N   0  0
    8.3417   -1.4417    0.0000 C   0  0
   -4.1958   -3.0500    0.0000 S   0  0
    0.7917   -3.4417    0.0000 C   0  0  2  0  0  0
    5.7667   -4.6292    0.0000 N   0  0
    3.6250   -1.0167    0.0000 C   0  0
   15.1250   -2.1542    0.0000 N   0  0
    7.1750   -1.4167    0.0000 C   0  0
    7.8792   -1.0042    0.0000 S   0  0
    2.9125    0.1750    0.0000 O   0  0
    9.6792   -1.4417    0.0000 C   0  0
    9.0125   -0.9792    0.0000 C   0  0
   -1.4250    0.2958    0.0000 C   0  0
   -4.9083   -2.6500    0.0000 C   0  0
   -4.1875   -1.4417    0.0000 C   0  0
   11.5792   -3.4125    0.0000 C   0  0
   -0.0500    0.8708    0.0000 C   0  0
   12.3167   -4.6042    0.0000 C   0  0
    0.0792   -3.8417    0.0000 C   0  0
    1.5042   -3.8375    0.0000 C   0  0
   12.2917   -3.8042    0.0000 C   0  0
    0.0792   -4.6417    0.0000 C   0  0
   -1.3375    1.0208    0.0000 C   0  0
   -5.6125   -2.2417    0.0000 C   0  0
   -4.9083   -1.0417    0.0000 C   0  0
   -0.6500    1.3083    0.0000 C   0  0
   -5.6125   -1.4417    0.0000 C   0  0
  2  1  1  0
  9  3  1  6
  4 15  1  0
  5 27  1  0
  6  2  1  0
 16  7  1  6
  8  7  1  0
  9  1  1  0
 10 11  1  0
  6 11  1  1
 12 14  1  0
 13 19  1  0
 18 14  1  1
 29 15  1  1
 16  4  1  0
 17  3  1  0
 18 10  1  0
 19  5  2  0
 20 25  1  0
 18 21  1  0
 22  8  1  0
 23 33  1  0
 24 50  2  0
 22 25  1  6
 26  5  1  0
 22 27  1  0
 28 20  1  0
 29 12  1  0
 30 21  1  0
 31 23  1  0
 32 26  2  0
 33 17  1  6
 34 28  1  0
 35 51  1  0
 36 24  1  0
 37 57  1  0
 38  2  2  0
 39  3  2  0
 40  4  2  0
 41  8  2  0
 42 10  2  0
 43 12  2  0
 44 20  2  0
 45 23  2  0
 46 30  2  0
 47 35  2  0
 48 37  2  0
 29 49  1  0
 50 69  1  0
 51 31  1  0
 52 24  1  0
 53  1  1  0
 54 34  1  0
 16 55  1  0
 56 30  1  0
 57 49  1  0
 58 35  1  0
  6 59  1  0
 60 59  1  0
 61 37  1  0
  9 62  1  0
 63 53  1  0
 64 26  1  0
 65 34  1  0
 66 34  1  0
 33 67  1  0
 68 32  1  0
 69 72  1  0
 70 55  1  0
 55 71  1  1
 72 67  1  0
 73 70  1  0
 74 64  2  0
 75 65  1  0
 76 66  1  0
 77 74  1  0
 78 76  1  0
 62 63  1  0
 32 13  1  0
 68 77  2  0
 75 78  1  0
M  END