
  SciTegic08261113352D

 17 17  0  0  0  0            999 V2000
    6.8578   -5.8667    0.0000 C   0  0
    6.8464   -6.7031    0.0000 N   0  3
    6.1417   -5.4542    0.0000 C   0  0
    7.5683   -5.4542    0.0000 C   0  0
    6.8578   -4.2167    0.0000 C   0  0
    6.1417   -4.6292    0.0000 C   0  0
    7.5683   -4.6292    0.0000 C   0  0
    6.1417   -7.1156    0.0000 O   0  5
    7.5683   -7.1156    0.0000 O   0  0
    6.8636   -3.3917    0.0000 C   0  0
    8.2730   -5.8667    0.0000 O   0  0
    5.4313   -4.2109    0.0000 O   0  0
    7.5797   -2.1542    0.0000 N   0  0
    7.5797   -2.9792    0.0000 C   0  0  2  0  0  0
    8.9948   -5.4542    0.0000 C   0  0
    4.7151   -4.6234    0.0000 C   0  0
    8.2901   -3.3917    0.0000 C   0  0
  2  1  1  0
  3  1  2  0
  4  1  1  0
  5  7  1  0
  6  3  1  0
  7  4  2  0
  8  2  1  0
  9  2  2  0
 10  5  1  0
 11  4  1  0
 12  6  1  0
 14 13  1  6
 14 10  1  0
 15 11  1  0
 16 12  1  0
 17 14  1  0
  6  5  2  0
M  CHG  2   2   1   8  -1
M  END