
          11280715362D 1   1.00000     0.00000     0

 24 26  0     0  0            999 V2000
    4.8500   -6.7792    0.0000 C   0  0  0  0  0  0           0  0  0
    4.3292   -6.4792    0.0000 C   0  0  3  0  0  0           0  0  0
    4.8500   -7.3792    0.0000 C   0  0  0  0  0  0           0  0  0
    4.3292   -7.6792    0.0000 O   0  0  0  0  0  0           0  0  0
    3.8042   -7.3875    0.0000 C   0  0  3  0  0  0           0  0  0
    3.8042   -6.7792    0.0000 C   0  0  3  0  0  0           0  0  0
    5.3667   -6.4792    0.0000 C   0  0  0  0  0  0           0  0  0
    3.2792   -6.4792    0.0000 C   0  0  0  0  0  0           0  0  0
    6.9292   -7.3625    0.0000 C   0  0  0  0  0  0           0  0  0
    7.4500   -7.0500    0.0000 C   0  0  0  0  0  0           0  0  0
    4.3292   -5.8750    0.0000 C   0  0  0  0  0  0           0  0  0
    3.2792   -5.8750    0.0000 C   0  0  0  0  0  0           0  0  0
    3.8167   -5.5750    0.0000 C   0  0  0  0  0  0           0  0  0
    5.3667   -7.6792    0.0000 C   0  0  0  0  0  0           0  0  0
    5.8917   -6.7792    0.0000 C   0  0  0  0  0  0           0  0  0
    5.8917   -7.3792    0.0000 C   0  0  0  0  0  0           0  0  0
    5.3542   -5.8792    0.0000 O   0  0  0  0  0  0           0  0  0
    6.4167   -7.6667    0.0000 C   0  0  0  0  0  0           0  0  0
    3.2417   -7.1875    0.0000 C   0  0  0  0  0  0           0  0  0
    3.6042   -7.9542    0.0000 C   0  0  0  0  0  0           0  0  0
    7.9667   -6.7375    0.0000 C   0  0  0  0  0  0           0  0  0
    3.8292   -4.9750    0.0000 C   0  0  0  0  0  0           0  0  0
    8.4917   -7.0292    0.0000 C   0  0  0  0  0  0           0  0  0
    9.0042   -6.7167    0.0000 C   0  0  0  0  0  0           0  0  0
  2  1  1  0     0  0
  3  1  1  0     0  0
  4  3  1  0     0  0
  5  4  1  0     0  0
  6  2  1  0     0  0
  7  1  2  0     0  0
  8  6  1  0     0  0
  9 18  1  0     0  0
 10  9  3  0     0  0
 11  2  1  0     0  0
 12 13  2  0     0  0
 13 11  1  0     0  0
 14  3  2  0     0  0
 15  7  1  0     0  0
 16 15  2  0     0  0
 17  7  1  0     0  0
 18 16  1  0     0  0
 19  5  1  0     0  0
 20  5  1  0     0  0
 21 10  1  0     0  0
 22 13  1  0     0  0
 23 21  1  0     0  0
 24 23  1  0     0  0
  5  6  1  0     0  0
 16 14  1  0     0  0
 12  8  1  0     0  0
M  END