
  SciTegic04091415222D

 47 50  0  0  0  0            999 V2000
   15.5484   -9.4446    0.0000 N   0  0
   15.0675  -10.1037    0.0000 C   0  0
   11.7074  -12.9049    0.0000 N   0  5
    7.3623  -12.1568    0.0000 C   0  0  2  0  0  0
   17.7396  -10.5122    0.0000 C   0  0
   17.7374   -9.6904    0.0000 N   0  0
    6.5542  -11.9968    0.0000 C   0  0  1  0  0  0
   12.9366  -13.9003    0.0000 O   0  0
   15.7790  -12.1998    0.0000 C   0  0  2  0  0  0
    8.8758  -12.9565    0.0000 C   0  0
   13.1194  -12.7598    0.0000 O   0  0
   16.3256   -9.6929    0.0000 C   0  0
    6.7119  -13.3211    0.0000 S   0  0
    7.3484  -10.0356    0.0000 O   0  0
   16.3238  -10.5115    0.0000 C   0  0
   10.2915  -12.9307    0.0000 C   0  0
    7.7554  -11.4389    0.0000 N   0  0
   15.3001  -11.5421    0.0000 C   0  0  2  0  0  0
   15.5525  -10.7649    0.0000 N   0  0
    8.1656  -12.3120    0.0000 H   0  0
   17.0285  -10.9206    0.0000 C   0  0
    6.4540  -11.1883    0.0000 N   0  0
   11.0090  -13.3267    0.0000 C   0  0
   14.5238  -11.7929    0.0000 O   0  0
    5.7584  -11.8098    0.0000 H   0  0
   13.8654  -13.0897    0.0000 C   0  0
    7.1939  -10.8385    0.0000 C   0  0
   14.5271  -12.6066    0.0000 C   0  0  2  0  0  0
   12.4578  -13.2345    0.0000 S   0  0
   11.0197  -14.1438    0.0000 O   0  0
    8.1783  -13.3701    0.0000 C   0  0
   17.0261   -8.4674    0.0000 N   0  0
   17.0280   -9.2851    0.0000 C   0  0
    9.5890  -13.3522    0.0000 C   0  0
    6.1551  -12.7195    0.0000 C   0  0
   15.5548  -13.6358    0.0000 O   0  0
    7.4609  -12.9740    0.0000 C   0  0  1  0  0  0
   16.5966  -12.1985    0.0000 O   0  0
   15.3021  -12.8587    0.0000 C   0  0  1  0  0  0
   12.1237  -13.9888    0.0000 O   0  0
   11.1667   -9.2175    0.0000 N   0  3
    9.7551   -9.2134    0.0000 C   0  0
   11.8769  -10.4481    0.0000 C   0  0
   11.8726   -7.9869    0.0000 C   0  0
   11.1667   -8.3957    0.0000 C   0  0
   11.8769   -9.6264    0.0000 C   0  0
   10.4609   -9.6222    0.0000 C   0  0
 22  7  1  0
 12 15  2  0
  7 35  1  0
 40 29  2  0
 11 26  1  0
  5  6  1  0
 37  4  1  0
 23  3  1  0
 34 16  1  0
 28 26  1  1
 39  9  1  0
 33 32  1  0
 21  5  2  0
 12  1  1  0
  2 19  1  0
 19 15  1  0
  9 38  1  6
 27 14  2  0
  4  7  1  0
 23 30  2  0
  7 25  1  1
 29 11  1  0
 33 12  1  0
 31 10  1  0
  3 29  1  0
  4 20  1  1
 18 19  1  1
 15 21  1  0
 35 13  1  0
  6 33  2  0
 13 37  1  0
  4 17  1  0
  1  2  2  0
 18 24  1  0
 16 23  1  0
 28 39  1  0
 17 27  1  0
  9 18  1  0
 24 28  1  0
 29  8  2  0
 10 34  1  0
 39 36  1  6
 27 22  1  0
 37 31  1  6
 47 42  1  0
 41 45  1  0
 45 44  1  0
 46 43  1  0
 47 41  1  0
 41 46  1  0
M  CHG  2   3  -1  41   1
M  END