
          11280714512D 1   1.00000     0.00000     0

 21 21  0     0  0            999 V2000
    1.0167   -2.3667    0.0000 C   0  0  0  0  0  0           0  0  0
    1.0167   -3.2000    0.0000 C   0  0  3  0  0  0           0  0  0
    6.7292   -2.3417    0.0000 C   0  0  0  0  0  0           0  0  0
    1.7292   -1.9542    0.0000 O   0  0  0  0  0  0           0  0  0
    0.3042   -1.9542    0.0000 C   0  0  0  0  0  0           0  0  0
    6.0167   -1.9375    0.0000 C   0  0  0  0  0  0           0  0  0
   -0.4083   -2.3750    0.0000 C   0  0  0  0  0  0           0  0  0
    6.7375   -3.1667    0.0000 O   0  0  0  0  0  0           0  0  0
   -0.4083   -3.2000    0.0000 C   0  0  0  0  0  0           0  0  0
    2.4417   -2.3625    0.0000 C   0  0  0  0  0  0           0  0  0
    3.1625   -1.9500    0.0000 C   0  0  3  0  0  0           0  0  0
    4.5917   -1.9417    0.0000 N   0  0  0  0  0  0           0  0  0
    7.4500   -1.9292    0.0000 O   0  0  0  0  0  0           0  0  0
    0.3042   -3.6125    0.0000 C   0  0  0  0  0  0           0  0  0
    3.1542   -1.1250    0.0000 O   0  0  0  0  0  0           0  0  0
    5.3042   -2.3542    0.0000 C   0  0  0  0  0  0           0  0  0
    1.7375   -3.6125    0.0000 C   0  0  0  0  0  0           0  0  0
    0.8042   -3.9917    0.0000 C   0  0  0  0  0  0           0  0  0
    3.8792   -2.3542    0.0000 C   0  0  0  0  0  0           0  0  0
    8.1625   -2.3417    0.0000 C   0  0  0  0  0  0           0  0  0
    8.8792   -1.9292    0.0000 C   0  0  0  0  0  0           0  0  0
  2  1  1  0     0  0
  3  6  1  0     0  0
  4  1  1  0     0  0
  5  1  2  0     0  0
  6 16  1  0     0  0
  7  5  1  0     0  0
  8  3  2  0     0  0
  9  7  2  0     0  0
 10  4  1  0     0  0
 11 10  1  0     0  0
 12 19  1  0     0  0
 13  3  1  0     0  0
 14  2  1  0     0  0
 15 11  1  0     0  0
 16 12  1  0     0  0
 17  2  1  0     0  0
 18  2  1  0     0  0
 19 11  1  0     0  0
 20 13  1  0     0  0
 21 20  1  0     0  0
  9 14  1  0     0  0
M  END