
  SciTegic04091415222D

 28 31  0  0  0  0            999 V2000
   18.8187  -10.3841    0.0000 C   0  0
   20.2325  -10.3805    0.0000 C   0  0
   19.5239   -9.9752    0.0000 C   0  0
   20.2353  -11.2031    0.0000 C   0  0
   20.2315  -12.8382    0.0000 C   0  0
   20.9427  -12.4260    0.0000 C   0  0
   20.9407  -11.6102    0.0000 C   0  0
   19.5248  -11.6104    0.0000 C   0  0
   18.8176  -11.2036    0.0000 C   0  0
   18.1138  -11.6126    0.0000 C   0  0
   18.1160  -12.4282    0.0000 O   0  0
   18.8279  -12.8332    0.0000 C   0  0
   19.5288  -12.4218    0.0000 C   0  0
   20.9356   -9.9705    0.0000 C   0  0
   21.6451  -10.3781    0.0000 N   0  0
   22.3508   -9.9676    0.0000 C   0  0
   22.3482   -9.1495    0.0000 N   0  0
   21.6340   -8.7438    0.0000 C   0  0
   20.9312   -9.1567    0.0000 N   0  0
   19.5214   -9.1580    0.0000 Cl  0  0
   21.6280   -7.9266    0.0000 N   0  0
   23.0599  -10.3738    0.0000 S   0  0
   23.7662   -9.9629    0.0000 C   0  0
   24.4753  -10.3692    0.0000 C   0  0
   25.1816   -9.9583    0.0000 O   0  0
   25.8907  -10.3645    0.0000 C   0  0
   26.5971   -9.9536    0.0000 N   0  0
   25.8934  -11.1817    0.0000 O   0  0
  1  9  2  0
  4  2  1  0
  2  3  2  0
  3  1  1  0
  4  8  1  0
 13  5  1  0
  5  6  2  0
  6  7  1  0
  7  4  2  0
  8  9  1  0
  9 10  1  0
 10 11  1  0
 11 12  1  0
 12 13  1  0
 13  8  2  0
 14 15  2  0
 15 16  1  0
 16 17  2  0
 17 18  1  0
 18 19  2  0
 19 14  1  0
  2 14  1  0
  3 20  1  0
 18 21  1  0
 16 22  1  0
 22 23  1  0
 23 24  1  0
 24 25  1  0
 25 26  1  0
 26 27  1  0
 26 28  2  0
M  END