
          11280714592D 1   1.00000     0.00000     0

 31 34  0     0  0            999 V2000
    6.9542   -3.3542    0.0000 C   0  0  0  0  0  0           0  0  0
    6.2292   -2.9750    0.0000 C   0  0  0  0  0  0           0  0  0
    5.5542   -4.2250    0.0000 C   0  0  0  0  0  0           0  0  0
    5.5292   -3.4000    0.0000 C   0  0  0  0  0  0           0  0  0
    6.9792   -4.1917    0.0000 C   0  0  0  0  0  0           0  0  0
    6.2792   -4.6167    0.0000 O   0  0  0  0  0  0           0  0  0
   -0.8458   -5.6250    0.0000 N   0  0  3  0  0  0           0  0  0
   -1.5458   -6.0500    0.0000 C   0  0  0  0  0  0           0  0  0
    4.8500   -4.6542    0.0000 C   0  0  0  0  0  0           0  0  0
    0.5667   -4.7542    0.0000 N   0  0  3  0  0  0           0  0  0
    4.8042   -3.0042    0.0000 C   0  0  0  0  0  0           0  0  0
    7.7042   -4.5792    0.0000 O   0  0  0  0  0  0           0  0  0
   -0.8583   -4.7917    0.0000 C   0  0  0  0  0  0           0  0  0
   -0.1208   -6.0042    0.0000 C   0  0  0  0  0  0           0  0  0
   -2.2708   -5.6542    0.0000 C   0  0  0  0  0  0           0  0  0
   -0.1583   -4.3667    0.0000 C   0  0  0  0  0  0           0  0  0
    0.5875   -5.5792    0.0000 C   0  0  0  0  0  0           0  0  0
    4.1250   -4.2542    0.0000 C   0  0  0  0  0  0           0  0  0
    6.2125   -2.1500    0.0000 O   0  0  0  0  0  0           0  0  0
    4.1042   -3.4417    0.0000 C   0  0  0  0  0  0           0  0  0
   -2.2875   -4.8250    0.0000 O   0  0  0  0  0  0           0  0  0
    1.2667   -4.3292    0.0000 C   0  0  0  0  0  0           0  0  0
    1.9917   -4.7250    0.0000 C   0  0  0  0  0  0           0  0  0
    3.4250   -4.6875    0.0000 O   0  0  0  0  0  0           0  0  0
   -1.5208   -6.8667    0.0000 C   0  0  0  0  0  0           0  0  0
    2.6917   -4.2917    0.0000 C   0  0  0  0  0  0           0  0  0
   -2.9708   -6.0792    0.0000 C   0  0  0  0  0  0           0  0  0
    5.4792   -1.7542    0.0000 C   0  0  0  0  0  0           0  0  0
   -3.0125   -4.4250    0.0000 C   0  0  0  0  0  0           0  0  0
   -2.2208   -7.3000    0.0000 C   0  0  0  0  0  0           0  0  0
   -2.9500   -6.9042    0.0000 C   0  0  0  0  0  0           0  0  0
  2  1  2  0     0  0
  3  6  1  0     0  0
  4  2  1  0     0  0
  5  1  1  0     0  0
  6  5  1  0     0  0
  7 14  1  0     0  0
  8  7  1  0     0  0
  9  3  1  0     0  0
 10 22  1  0     0  0
 11  4  1  0     0  0
 12  5  2  0     0  0
 13 16  1  0     0  0
 14 17  1  0     0  0
 15  8  2  0     0  0
 16 10  1  0     0  0
 17 10  1  0     0  0
 18  9  2  0     0  0
 19  2  1  0     0  0
 20 11  2  0     0  0
 21 15  1  0     0  0
 22 23  1  0     0  0
 23 26  1  0     0  0
 24 18  1  0     0  0
 25  8  1  0     0  0
 26 24  1  0     0  0
 27 15  1  0     0  0
 28 19  1  0     0  0
 29 21  1  0     0  0
 30 25  2  0     0  0
 31 30  1  0     0  0
  4  3  2  0     0  0
 20 18  1  0     0  0
 13  7  1  0     0  0
 27 31  2  0     0  0
M  END