
          11280715012D 1   1.00000     0.00000     0

 38 42  0     0  0            999 V2000
    6.8792   -4.1417    0.0000 S   0  0  3  0  0  0           0  0  0
    2.9375   -4.1042    0.0000 N   0  0  3  0  0  0           0  0  0
    2.1542   -3.8542    0.0000 C   0  0  0  0  0  0           0  0  0
    2.9375   -2.7667    0.0000 N   0  0  0  0  0  0           0  0  0
    6.8750   -3.3167    0.0000 N   0  0  0  0  0  0           0  0  0
    3.4250   -3.4417    0.0000 C   0  0  0  0  0  0           0  0  0
    2.1542   -3.0292    0.0000 C   0  0  0  0  0  0           0  0  0
    6.9667   -4.9667    0.0000 C   0  0  0  0  0  0           0  0  0
    1.4375   -4.2667    0.0000 N   0  0  0  0  0  0           0  0  0
    7.5792   -2.8917    0.0000 C   0  0  0  0  0  0           0  0  0
    6.4167   -5.5792    0.0000 C   0  0  0  0  0  0           0  0  0
    1.4375   -2.6167    0.0000 C   0  0  0  0  0  0           0  0  0
    7.5417   -3.6542    0.0000 O   0  0  0  0  0  0           0  0  0
    6.1250   -3.8042    0.0000 O   0  0  0  0  0  0           0  0  0
    3.1917   -4.8917    0.0000 C   0  0  0  0  0  0           0  0  0
    5.6125   -5.4042    0.0000 C   0  0  0  0  0  0           0  0  0
    0.7250   -3.8542    0.0000 C   0  0  0  0  0  0           0  0  0
    0.7250   -3.0292    0.0000 C   0  0  0  0  0  0           0  0  0
    7.5792   -2.0667    0.0000 O   0  0  0  0  0  0           0  0  0
    8.3000   -3.3042    0.0000 C   0  0  0  0  0  0           0  0  0
    5.3542   -4.6167    0.0000 C   0  0  0  0  0  0           0  0  0
    5.0625   -6.0167    0.0000 C   0  0  0  0  0  0           0  0  0
    4.0000   -5.0667    0.0000 C   0  0  0  0  0  0           0  0  0
    4.2500   -3.4417    0.0000 C   0  0  0  0  0  0           0  0  0
    4.2542   -5.8500    0.0000 C   0  0  0  0  0  0           0  0  0
    4.5500   -4.4542    0.0000 C   0  0  0  0  0  0           0  0  0
    7.7667   -5.1292    0.0000 C   0  0  0  0  0  0           0  0  0
    6.6667   -6.3625    0.0000 C   0  0  0  0  0  0           0  0  0
    1.4292   -1.7917    0.0000 C   0  0  0  0  0  0           0  0  0
    0.0042   -4.2667    0.0000 C   0  0  0  0  0  0           0  0  0
    8.3042   -4.1292    0.0000 C   0  0  0  0  0  0           0  0  0
    9.0042   -2.8875    0.0000 C   0  0  0  0  0  0           0  0  0
    4.6625   -2.7250    0.0000 C   0  0  0  0  0  0           0  0  0
    8.0292   -5.9167    0.0000 C   0  0  0  0  0  0           0  0  0
    7.4792   -6.5292    0.0000 C   0  0  0  0  0  0           0  0  0
    9.7250   -3.2917    0.0000 C   0  0  0  0  0  0           0  0  0
    9.0167   -4.5375    0.0000 C   0  0  0  0  0  0           0  0  0
    9.7292   -4.1167    0.0000 C   0  0  0  0  0  0           0  0  0
  2 15  1  0     0  0
  3  2  1  0     0  0
  4  6  2  0     0  0
  5  1  1  0     0  0
  6  2  1  0     0  0
  7  3  1  0     0  0
  8  1  1  0     0  0
  9  3  2  0     0  0
 10  5  1  0     0  0
 11  8  1  0     0  0
 12  7  2  0     0  0
 13  1  2  0     0  0
 14  1  2  0     0  0
 15 23  1  0     0  0
 16 11  1  0     0  0
 17  9  1  0     0  0
 18 17  2  0     0  0
 19 10  2  0     0  0
 20 10  1  0     0  0
 21 16  1  0     0  0
 22 16  2  0     0  0
 23 25  2  0     0  0
 24  6  1  0     0  0
 25 22  1  0     0  0
 26 21  2  0     0  0
 27  8  2  0     0  0
 28 11  2  0     0  0
 29 12  1  0     0  0
 30 17  1  0     0  0
 31 20  2  0     0  0
 32 20  1  0     0  0
 33 24  1  0     0  0
 34 27  1  0     0  0
 35 34  2  0     0  0
 36 32  2  0     0  0
 37 31  1  0     0  0
 38 36  1  0     0  0
 35 28  1  0     0  0
 23 26  1  0     0  0
 38 37  2  0     0  0
  7  4  1  0     0  0
 18 12  1  0     0  0
M  END