
          11280715482D 1   1.00000     0.00000     0

 36 41  0     0  0            999 V2000
    0.9417    0.4750    0.0000 C   0  0  0  0  0  0           0  0  0
    0.2750    0.9583    0.0000 N   0  0  0  0  0  0           0  0  0
   -0.3875    0.4750    0.0000 C   0  0  0  0  0  0           0  0  0
    0.6875   -0.3125    0.0000 C   0  0  0  0  0  0           0  0  0
   -0.1375   -0.3125    0.0000 N   0  0  0  0  0  0           0  0  0
    1.7292    0.7333    0.0000 C   0  0  0  0  0  0           0  0  0
    1.3167   -2.4000    0.0000 C   0  0  3  0  0  0           0  0  0
   -1.1708    0.7333    0.0000 C   0  0  0  0  0  0           0  0  0
    2.3417    0.1750    0.0000 N   0  0  0  0  0  0           0  0  0
    5.1292   -0.4250    0.0000 C   0  0  0  0  0  0           0  0  0
    4.5167    0.1250    0.0000 C   0  0  0  0  0  0           0  0  0
    2.6250   -2.7542    0.0000 C   0  0  3  0  0  0           0  0  0
    1.4792   -3.6542    0.0000 C   0  0  3  0  0  0           0  0  0
    1.9042   -3.9000    0.0000 C   0  0  3  0  0  0           0  0  0
    1.9042    1.5333    0.0000 O   0  0  0  0  0  0           0  0  0
    1.1750   -0.9792    0.0000 C   0  0  0  0  0  0           0  0  0
    3.1292    0.4333    0.0000 C   0  0  0  0  0  0           0  0  0
    3.7375   -0.1250    0.0000 C   0  0  0  0  0  0           0  0  0
    2.0875   -2.1375    0.0000 C   0  0  0  0  0  0           0  0  0
    1.3375   -3.2625    0.0000 C   0  0  0  0  0  0           0  0  0
    0.9500   -3.0667    0.0000 C   0  0  0  0  0  0           0  0  0
    4.9542   -1.2292    0.0000 O   0  0  0  0  0  0           0  0  0
   -1.7833    0.1750    0.0000 C   0  0  0  0  0  0           0  0  0
    0.8375   -1.7292    0.0000 C   0  0  0  0  0  0           0  0  0
    2.1875   -3.3917    0.0000 C   0  0  0  0  0  0           0  0  0
    2.6667   -3.6292    0.0000 C   0  0  0  0  0  0           0  0  0
    1.4500   -4.5917    0.0000 C   0  0  0  0  0  0           0  0  0
    5.9167   -0.1750    0.0000 O   0  0  0  0  0  0           0  0  0
    4.6917    0.9333    0.0000 C   0  0  0  0  0  0           0  0  0
   -1.3458    1.5333    0.0000 C   0  0  0  0  0  0           0  0  0
    4.0792    1.4875    0.0000 C   0  0  0  0  0  0           0  0  0
    3.2917    1.2333    0.0000 C   0  0  0  0  0  0           0  0  0
   -1.6083   -0.6292    0.0000 C   0  0  0  0  0  0           0  0  0
   -2.5625    0.4250    0.0000 C   0  0  0  0  0  0           0  0  0
   -2.1250    1.7875    0.0000 C   0  0  0  0  0  0           0  0  0
   -2.7375    1.2375    0.0000 C   0  0  0  0  0  0           0  0  0
  2  1  1  0     0  0
  3  2  2  0     0  0
  4  1  2  0     0  0
  5  4  1  0     0  0
  6  1  1  0     0  0
  7 24  1  0     0  0
  8  3  1  0     0  0
  9  6  1  0     0  0
 10 11  1  0     0  0
 11 18  1  0     0  0
 12 19  1  0     0  0
 13 21  1  0     0  0
 14 20  1  0     0  0
 15  6  2  0     0  0
 16  4  1  0     0  0
 17  9  1  0     0  0
 18 17  2  0     0  0
 19  7  1  0     0  0
 20  7  1  0     0  0
 21  7  1  0     0  0
 22 10  2  0     0  0
 23  8  1  0     0  0
 24 16  1  0     0  0
 25 13  1  0     0  0
 26 14  1  0     0  0
 27 13  1  0     0  0
 28 10  1  0     0  0
 29 31  1  0     0  0
 30  8  2  0     0  0
 31 32  2  0     0  0
 32 17  1  0     0  0
 33 23  1  0     0  0
 34 23  2  0     0  0
 35 30  1  0     0  0
 36 35  2  0     0  0
  3  5  1  0     0  0
 11 29  2  0     0  0
 34 36  1  0     0  0
 14 27  1  0     0  0
 25 12  1  0     0  0
 26 12  1  0     0  0
M  END