
          11280715592D 1   1.00000     0.00000     0

104115  0     0  0            999 V2000
   -1.4000   -6.1792    0.0000 N   0  0  3  0  0  0           0  0  0
    2.8875   -6.2042    0.0000 N   0  0  3  0  0  0           0  0  0
   13.6042   -6.5750    0.0000 N   0  0  3  0  0  0           0  0  0
    9.3167   -6.5917    0.0000 N   0  0  3  0  0  0           0  0  0
   -1.4583   -7.0042    0.0000 C   0  0  0  0  0  0           0  0  0
   13.6667   -7.3917    0.0000 C   0  0  0  0  0  0           0  0  0
    2.3792   -6.8542    0.0000 C   0  0  0  0  0  0           0  0  0
    9.8250   -7.2417    0.0000 C   0  0  0  0  0  0           0  0  0
   -0.6833   -5.7667    0.0000 C   0  0  0  0  0  0           0  0  0
    2.1750   -5.7792    0.0000 C   0  0  0  0  0  0           0  0  0
   12.8917   -6.1667    0.0000 C   0  0  0  0  0  0           0  0  0
   10.0292   -6.1792    0.0000 C   0  0  0  0  0  0           0  0  0
    8.8875   -8.3917    0.0000 C   0  0  0  0  0  0           0  0  0
   15.1292   -7.6250    0.0000 C   0  0  0  0  0  0           0  0  0
   -2.9250   -7.2292    0.0000 C   0  0  0  0  0  0           0  0  0
    3.3167   -8.0000    0.0000 C   0  0  0  0  0  0           0  0  0
   14.2125   -6.0167    0.0000 C   0  0  0  0  0  0           0  0  0
    8.4917   -6.5792    0.0000 C   0  0  0  0  0  0           0  0  0
    3.7042   -6.1917    0.0000 C   0  0  0  0  0  0           0  0  0
   -2.0083   -5.6250    0.0000 C   0  0  0  0  0  0           0  0  0
    9.6292   -8.0417    0.0000 C   0  0  0  0  0  0           0  0  0
    2.5667   -7.6500    0.0000 C   0  0  0  0  0  0           0  0  0
   14.3417   -7.8667    0.0000 C   0  0  0  0  0  0           0  0  0
   -2.1333   -7.4667    0.0000 C   0  0  0  0  0  0           0  0  0
    4.0542   -7.6292    0.0000 N   0  0  0  0  0  0           0  0  0
   -3.2333   -6.4667    0.0000 N   0  0  0  0  0  0           0  0  0
    8.1417   -8.0292    0.0000 N   0  0  0  0  0  0           0  0  0
   15.4375   -6.8542    0.0000 N   0  0  0  0  0  0           0  0  0
    7.9750   -7.2167    0.0000 C   0  0  0  0  0  0           0  0  0
    4.2292   -6.8292    0.0000 C   0  0  0  0  0  0           0  0  0
   -2.8208   -5.7500    0.0000 C   0  0  0  0  0  0           0  0  0
   15.0292   -6.1417    0.0000 C   0  0  0  0  0  0           0  0  0
    2.1792   -3.3042    0.0000 C   0  0  0  0  0  0           0  0  0
   10.0167   -3.7000    0.0000 C   0  0  0  0  0  0           0  0  0
   10.7500   -6.5875    0.0000 C   0  0  0  0  0  0           0  0  0
   12.1792   -6.5792    0.0000 C   0  0  0  0  0  0           0  0  0
    0.0292   -6.1875    0.0000 C   0  0  0  0  0  0           0  0  0
    1.4542   -6.1917    0.0000 C   0  0  0  0  0  0           0  0  0
   13.9125   -5.2500    0.0000 N   0  0  0  0  0  0           0  0  0
    3.9917   -5.4167    0.0000 N   0  0  0  0  0  0           0  0  0
    8.2042   -5.8125    0.0000 N   0  0  0  0  0  0           0  0  0
   -1.7083   -4.8542    0.0000 N   0  0  0  0  0  0           0  0  0
   -0.6833   -4.9417    0.0000 O   0  0  0  0  0  0           0  0  0
    2.1750   -4.9542    0.0000 O   0  0  0  0  0  0           0  0  0
   12.8875   -5.3417    0.0000 O   0  0  0  0  0  0           0  0  0
   10.0292   -5.3542    0.0000 O   0  0  0  0  0  0           0  0  0
    0.7417   -5.7792    0.0000 N   0  0  3  0  0  0           0  0  0
   11.4625   -6.1750    0.0000 N   0  0  3  0  0  0           0  0  0
   15.6917   -8.2292    0.0000 O   0  0  0  0  0  0           0  0  0
    3.3292   -8.8250    0.0000 O   0  0  0  0  0  0           0  0  0
   -3.4833   -7.8375    0.0000 O   0  0  0  0  0  0           0  0  0
    8.8750   -9.2167    0.0000 O   0  0  0  0  0  0           0  0  0
    2.8917   -3.7167    0.0000 N   0  0  3  0  0  0           0  0  0
    9.3125   -4.1125    0.0000 N   0  0  3  0  0  0           0  0  0
    2.1792   -2.4792    0.0000 O   0  0  0  0  0  0           0  0  0
   10.0167   -2.8750    0.0000 O   0  0  0  0  0  0           0  0  0
   14.2667   -8.6792    0.0000 C   0  0  0  0  0  0           0  0  0
   10.2292   -8.6042    0.0000 C   0  0  0  0  0  0           0  0  0
    1.9750   -8.2125    0.0000 C   0  0  0  0  0  0           0  0  0
   -2.0625   -8.2875    0.0000 C   0  0  0  0  0  0           0  0  0
   -0.7208   -7.3417    0.0000 C   0  0  0  0  0  0           0  0  0
   10.6042   -7.0042    0.0000 C   0  0  0  0  0  0           0  0  0
    1.6042   -6.6167    0.0000 C   0  0  0  0  0  0           0  0  0
   12.9292   -7.7417    0.0000 C   0  0  0  0  0  0           0  0  0
    7.1625   -7.0917    0.0000 C   0  0  0  0  0  0           0  0  0
   15.5417   -5.5042    0.0000 C   0  0  0  0  0  0           0  0  0
    5.0417   -6.6917    0.0000 C   0  0  0  0  0  0           0  0  0
   -3.3375   -5.1042    0.0000 C   0  0  0  0  0  0           0  0  0
    1.4667   -3.7167    0.0000 C   0  0  0  0  0  0           0  0  0
   10.7417   -4.1125    0.0000 C   0  0  0  0  0  0           0  0  0
   -2.2250   -4.2125    0.0000 C   0  0  0  0  0  0           0  0  0
   14.4292   -4.6042    0.0000 C   0  0  0  0  0  0           0  0  0
    7.3917   -5.6792    0.0000 C   0  0  0  0  0  0           0  0  0
    4.8042   -5.2875    0.0000 C   0  0  0  0  0  0           0  0  0
    8.6000   -3.7042    0.0000 C   0  0  0  0  0  0           0  0  0
    3.6042   -4.1292    0.0000 C   0  0  0  0  0  0           0  0  0
   11.4542   -5.3500    0.0000 C   0  0  0  0  0  0           0  0  0
    0.7417   -4.9542    0.0000 C   0  0  0  0  0  0           0  0  0
    9.3125   -4.9375    0.0000 C   0  0  0  0  0  0           0  0  0
    2.8917   -4.5417    0.0000 C   0  0  0  0  0  0           0  0  0
    0.7542   -3.3042    0.0000 C   0  0  0  0  0  0           0  0  0
   11.4542   -3.7000    0.0000 C   0  0  0  0  0  0           0  0  0
    4.3250   -3.7167    0.0000 C   0  0  0  0  0  0           0  0  0
    7.8875   -4.1167    0.0000 C   0  0  0  0  0  0           0  0  0
    0.0292   -4.5375    0.0000 C   0  0  0  0  0  0           0  0  0
   12.1667   -4.9292    0.0000 C   0  0  0  0  0  0           0  0  0
   15.2500   -4.7375    0.0000 C   0  0  0  0  0  0           0  0  0
    5.3292   -5.9250    0.0000 C   0  0  0  0  0  0           0  0  0
    6.8667   -6.3167    0.0000 C   0  0  0  0  0  0           0  0  0
   -3.0458   -4.3417    0.0000 C   0  0  0  0  0  0           0  0  0
   11.0167   -8.3667    0.0000 C   0  0  0  0  0  0           0  0  0
   13.5292   -9.0292    0.0000 C   0  0  0  0  0  0           0  0  0
    1.1917   -7.9750    0.0000 C   0  0  0  0  0  0           0  0  0
   -1.3208   -8.6292    0.0000 C   0  0  0  0  0  0           0  0  0
   11.2000   -7.5667    0.0000 C   0  0  0  0  0  0           0  0  0
   -0.6458   -8.1542    0.0000 C   0  0  0  0  0  0           0  0  0
    1.0042   -7.1667    0.0000 C   0  0  0  0  0  0           0  0  0
   12.8542   -8.5542    0.0000 C   0  0  0  0  0  0           0  0  0
   12.1667   -4.1042    0.0000 C   0  0  0  0  0  0           0  0  0
    5.7500   -3.7125    0.0000 C   0  0  0  0  0  0           0  0  0
    6.4625   -4.1167    0.0000 C   0  0  0  0  0  0           0  0  0
    7.1750   -3.7042    0.0000 C   0  0  0  0  0  0           0  0  0
    0.0375   -3.7125    0.0000 C   0  0  0  0  0  0           0  0  0
    5.0375   -4.1250    0.0000 C   0  0  0  0  0  0           0  0  0
  2 10  1  0     0  0
  3 11  1  0     0  0
  4 12  1  0     0  0
  5  1  1  0     0  0
  6  3  1  0     0  0
  7  2  1  0     0  0
  8  4  1  0     0  0
  9  1  1  0     0  0
 10 38  1  0     0  0
 11 36  1  0     0  0
 12 35  1  0     0  0
 13 21  1  0     0  0
 14 23  1  0     0  0
 15 24  1  0     0  0
 16 22  1  0     0  0
 17  3  1  0     0  0
 18  4  1  0     0  0
 19  2  1  0     0  0
 20  1  1  0     0  0
 21  8  2  0     0  0
 22  7  2  0     0  0
 23  6  2  0     0  0
 24  5  2  0     0  0
 25 30  1  0     0  0
 26 31  1  0     0  0
 27 29  1  0     0  0
 28 32  1  0     0  0
 29 18  2  0     0  0
 30 19  2  0     0  0
 31 20  2  0     0  0
 32 17  2  0     0  0
 33 69  1  0     0  0
 34 54  1  0     0  0
 35 48  1  0     0  0
 36 48  1  0     0  0
 37  9  1  0     0  0
 38 47  1  0     0  0
 39 17  1  0     0  0
 40 19  1  0     0  0
 41 18  1  0     0  0
 42 20  1  0     0  0
 43  9  2  0     0  0
 44 10  2  0     0  0
 45 11  2  0     0  0
 46 12  2  0     0  0
 47 37  1  0     0  0
 48 77  1  0     0  0
 49 14  2  0     0  0
 50 16  2  0     0  0
 51 15  2  0     0  0
 52 13  2  0     0  0
 53 33  1  0     0  0
 54 75  1  0     0  0
 55 33  2  0     0  0
 56 34  2  0     0  0
 57 23  1  0     0  0
 58 21  1  0     0  0
 59 22  1  0     0  0
 60 24  1  0     0  0
 61  5  1  0     0  0
 62  8  1  0     0  0
 63  7  1  0     0  0
 64  6  1  0     0  0
 65 29  1  0     0  0
 66 32  1  0     0  0
 67 30  1  0     0  0
 68 31  1  0     0  0
 69 81  1  0     0  0
 70 34  1  0     0  0
 71 42  2  0     0  0
 72 39  2  0     0  0
 73 41  2  0     0  0
 74 40  2  0     0  0
 75 84  1  0     0  0
 76 53  1  0     0  0
 77 86  1  0     0  0
 78 47  1  0     0  0
 79 54  1  0     0  0
 80 53  1  0     0  0
 81103  1  0     0  0
 82 70  1  0     0  0
 83 76  1  0     0  0
 84102  1  0     0  0
 85 78  1  0     0  0
 86 99  1  0     0  0
 87 72  1  0     0  0
 88 74  1  0     0  0
 89 73  1  0     0  0
 90 71  1  0     0  0
 91 95  1  0     0  0
 92 98  1  0     0  0
 93 97  1  0     0  0
 94 96  1  0     0  0
 95 62  2  0     0  0
 96 61  2  0     0  0
 97 63  2  0     0  0
 98 64  2  0     0  0
 99 82  1  0     0  0
100104  1  0     0  0
101100  1  0     0  0
102101  1  0     0  0
103 85  1  0     0  0
104 83  1  0     0  0
 15 26  1  0     0  0
 90 68  2  0     0  0
 60 94  2  0     0  0
 16 25  1  0     0  0
 67 88  2  0     0  0
 59 93  2  0     0  0
 14 28  1  0     0  0
 13 27  1  0     0  0
 87 66  2  0     0  0
 57 92  2  0     0  0
 89 65  2  0     0  0
 58 91  2  0     0  0
M  END