
  SciTegic11201309402D

 50 55  0  0  1  0            999 V2000
    0.3542    0.0083    0.0000 S   0  0
   -0.2375   -0.3375    0.0000 N   0  0
    3.1792    0.7125    0.0000 C   0  0
    2.7792    1.2625    0.0000 N   0  0
    2.7875    0.1583    0.0000 S   0  0
    0.9500    0.3583    0.0000 C   0  0
   -3.2083   -0.0042    0.0000 C   0  0
    2.1292    0.3625    0.0000 C   0  0
   -4.5333   -1.2125    0.0000 C   0  0  2  0  0  0
   -0.8333    0.0083    0.0000 C   0  0
    2.1292    1.0458    0.0000 C   0  0
    1.5417    0.0208    0.0000 C   0  0
   -5.2083   -1.3542    0.0000 C   0  0  1  0  0  0
   -4.4583   -0.5292    0.0000 C   0  0  1  0  0  0
   -2.6083   -0.3417    0.0000 N   0  0
   -5.5458   -0.7542    0.0000 O   0  0
   -1.4208   -0.3375    0.0000 C   0  0  2  0  0  0
   -2.0208    0.0000    0.0000 C   0  0  2  0  0  0
   -3.8000   -0.3417    0.0000 O   0  0
    0.8417   -0.4792    0.0000 O   0  0
   -0.1333    0.4958    0.0000 O   0  0
    5.6417    0.3833    0.0000 N   0  0
   -0.2458   -1.0167    0.0000 C   0  0
   -5.0833   -0.2500    0.0000 C   0  0
   -5.2833   -2.0292    0.0000 O   0  0
   -3.2125    0.6833    0.0000 O   0  0
    0.9375    1.0375    0.0000 C   0  0
    3.8667    0.7208    0.0000 N   0  0
   -2.0208    0.6833    0.0000 C   0  0
    1.5292    1.3875    0.0000 C   0  0
   -1.4208   -1.0167    0.0000 O   0  0
   -4.1875   -1.8000    0.0000 C   0  0
   -1.4208    1.0375    0.0000 C   0  0
   -4.6458   -2.3125    0.0000 C   0  0
    4.4625    0.3833    0.0000 C   0  0
    5.0542    0.7208    0.0000 C   0  0
    5.7167   -0.3000    0.0000 C   0  0
    6.2792    0.6625    0.0000 C   0  0
    0.3417   -1.3750    0.0000 C   0  0
   -1.4333    1.7125    0.0000 C   0  0
   -0.8333    0.6833    0.0000 C   0  0
    0.3417   -2.0542    0.0000 C   0  0
    0.9417   -1.0292    0.0000 C   0  0
    6.3917   -0.4500    0.0000 C   0  0
    6.7375    0.1500    0.0000 C   0  0
   -0.8458    2.0583    0.0000 C   0  0
   -0.2458    1.0333    0.0000 C   0  0
   -0.2458    1.7208    0.0000 C   0  0
   -6.1882   -1.5537    0.0000 H   0  0
   -3.5555   -1.0027    0.0000 H   0  0
  2  1  1  0
  3  5  1  0
  4 11  1  0
  5  8  1  0
  6  1  1  0
  7 15  1  0
  8 12  1  0
  9 14  1  0
 10  2  1  0
 11 30  1  0
 12  6  2  0
 13  9  1  0
 14 19  1  6
 18 15  1  1
 16 24  1  0
 17 10  1  0
 18 17  1  0
 19  7  1  0
 20  1  2  0
 21  1  2  0
 22 36  1  0
 23  2  1  0
 24 14  1  0
 13 25  1  0
 26  7  2  0
 27  6  1  0
 28  3  1  0
 18 29  1  0
 30 27  2  0
 17 31  1  1
  9 32  1  0
 33 29  1  0
 34 32  1  0
 35 28  1  0
 36 35  1  0
 37 22  1  0
 38 22  1  0
 39 23  1  0
 40 33  1  0
 41 33  2  0
 42 39  1  0
 43 39  1  0
 44 37  1  0
 45 38  1  0
 46 40  2  0
 47 41  1  0
 48 47  2  0
 11  8  2  0
  3  4  2  0
 48 46  1  0
 16 13  1  0
 45 44  1  0
 34 25  1  0
 13 49  1  1
  9 50  1  1
M  END