
          11280715302D 1   1.00000     0.00000     0

 22 25  0     0  0            999 V2000
    4.2625   -3.7542    0.0000 C   0  0  0  0  0  0           0  0  0
    3.5417   -4.1750    0.0000 C   0  0  0  0  0  0           0  0  0
    4.2625   -2.9292    0.0000 N   0  0  0  0  0  0           0  0  0
    3.5417   -5.0042    0.0000 C   0  0  0  0  0  0           0  0  0
    4.9750   -2.5125    0.0000 C   0  0  3  0  0  0           0  0  0
    5.7042   -1.2750    0.0000 N   0  0  3  0  0  0           0  0  0
    3.0042   -6.2167    0.0000 N   0  0  0  0  0  0           0  0  0
    2.8292   -5.4167    0.0000 C   0  0  0  0  0  0           0  0  0
    2.8250   -3.7667    0.0000 C   0  0  0  0  0  0           0  0  0
    3.8250   -6.3042    0.0000 C   0  0  0  0  0  0           0  0  0
    4.9667   -1.6875    0.0000 C   0  0  0  0  0  0           0  0  0
    4.9792   -4.1667    0.0000 O   0  0  0  0  0  0           0  0  0
    4.1542   -5.5542    0.0000 C   0  0  0  0  0  0           0  0  0
    5.6875   -2.9250    0.0000 C   0  0  3  0  0  0           0  0  0
    2.1125   -5.0042    0.0000 C   0  0  0  0  0  0           0  0  0
    2.1042   -4.1750    0.0000 C   0  0  0  0  0  0           0  0  0
    6.3917   -2.5125    0.0000 C   0  0  0  0  0  0           0  0  0
    6.0917   -2.2042    0.0000 C   0  0  0  0  0  0           0  0  0
    6.4000   -1.6875    0.0000 C   0  0  0  0  0  0           0  0  0
    5.2917   -1.9917    0.0000 C   0  0  0  0  0  0           0  0  0
    2.8167   -2.9417    0.0000 O   0  0  0  0  0  0           0  0  0
    2.1042   -2.5292    0.0000 C   0  0  0  0  0  0           0  0  0
  2  1  1  0     0  0
  3  1  1  0     0  0
  4  2  2  0     0  0
  5  3  1  0     0  0
  6 11  1  0     0  0
  7  8  1  0     0  0
  8  4  1  0     0  0
  9  2  1  0     0  0
 10 13  2  0     0  0
 11  5  1  0     0  0
 12  1  2  0     0  0
 13  4  1  0     0  0
 14  5  1  0     0  0
 15 16  1  0     0  0
 16  9  2  0     0  0
 17 14  1  0     0  0
 18 14  1  0     0  0
 19 17  1  0     0  0
 20 18  1  0     0  0
 21  9  1  0     0  0
 22 21  1  0     0  0
 15  8  2  0     0  0
 10  7  1  0     0  0
 20  6  1  0     0  0
 19  6  1  0     0  0
M  END