
          08180812472D 1   1.00000     0.00000     0

 30 33  0     1  0            999 V2000
   -4.8298   -6.6931    0.0000 C   0  0  0  0  0  0           0  0  0
   -4.8298   -5.8678    0.0000 C   0  0  0  0  0  0           0  0  0
   -4.1154   -5.4551    0.0000 C   0  0  0  0  0  0           0  0  0
   -5.5442   -7.1058    0.0000 O   0  0  0  0  0  0           0  0  0
   -4.1154   -7.1058    0.0000 C   0  0  0  0  0  0           0  0  0
   -2.6866   -7.1058    0.0000 C   0  0  0  0  0  0           0  0  0
   -1.9723   -6.6931    0.0000 C   0  0  0  0  0  0           0  0  0
   -1.9723   -5.8678    0.0000 C   0  0  1  0  0  0           0  0  0
   -1.2579   -5.4551    0.0000 C   0  0  2  0  0  0           0  0  0
   -0.4724   -5.7106    0.0000 C   0  0  0  0  0  0           0  0  0
    0.0106   -5.0425    0.0000 C   0  0  0  0  0  0           0  0  0
   -0.4724   -4.3744    0.0000 C   0  0  1  0  0  0           0  0  0
   -0.2170   -3.5890    0.0000 C   0  0  0  0  0  0           0  0  0
    0.5874   -3.4175    0.0000 C   0  0  0  0  0  0           0  0  0
   -1.2579   -4.6298    0.0000 C   0  0  2  0  0  0           0  0  0
   -1.1737   -3.8075    0.0000 C   0  0  0  0  0  0           0  0  0
   -1.9723   -4.2172    0.0000 C   0  0  0  0  0  0           0  0  0
   -2.6866   -4.6298    0.0000 C   0  0  2  0  0  0           0  0  0
   -3.4010   -4.2172    0.0000 O   0  0  0  0  0  0           0  0  0
   -2.6866   -5.4551    0.0000 C   0  0  2  0  0  0           0  0  0
   -3.4010   -5.8678    0.0000 C   0  0  1  0  0  0           0  0  0
   -3.4010   -5.0425    0.0000 C   0  0  0  0  0  0           0  0  0
   -2.6866   -6.2805    0.0000 H   0  0  0  0  0  0           0  0  0
   -1.9723   -5.0425    0.0000 H   0  0  0  0  0  0           0  0  0
   -1.2579   -6.2805    0.0000 H   0  0  0  0  0  0           0  0  0
    0.3485   -4.3741    0.0000 O   0  0  0  0  0  0           0  0  0
    0.8421   -2.6325    0.0000 C   0  0  0  0  0  0           0  0  0
    1.6493   -2.4606    0.0000 N   0  0  0  0  0  0           0  0  0
   -3.4010   -6.6931    0.0000 C   0  0  2  0  0  0           0  0  0
   -3.4010   -7.5181    0.0000 H   0  0  0  0  0  0           0  0  0
  1  4  2  0     0  0
  1  5  1  0     0  0
  5 29  1  0     0  0
 29  6  1  0     0  0
  6  7  1  0     0  0
  7  8  1  0     0  0
  8  9  1  0     0  0
  9 10  1  0     0  0
 10 11  1  0     0  0
 11 12  1  0     0  0
 12 13  1  0     0  0
 13 14  1  0     0  0
 12 15  1  0     0  0
  9 15  1  0     0  0
 15 16  1  1     0  0
 15 17  1  0     0  0
 17 18  1  0     0  0
 18 19  1  1     0  0
 18 20  1  0     0  0
  8 20  1  0     0  0
 20 21  1  0     0  0
  3 21  1  0     0  0
 29 21  1  0     0  0
 21 22  1  1     0  0
 20 23  1  6     0  0
  8 24  1  1     0  0
  9 25  1  6     0  0
 12 26  1  1     0  0
  1  2  1  0     0  0
 14 27  1  0     0  0
  2  3  1  0     0  0
 27 28  1  0     0  0
 29 30  1  6     0  0
M  END