
          11280715362D 1   1.00000     0.00000     0

 56 61  0     1  0            999 V2000
    5.8000   -6.5875    0.0000 C   0  0  3  0  0  0           0  0  0
    5.0792   -7.0000    0.0000 C   0  0  0  0  0  0           0  0  0
    8.4542   -4.1167    0.0000 N   0  0  0  0  0  0           0  0  0
    7.6792   -3.8167    0.0000 C   0  0  0  0  0  0           0  0  0
    7.1792   -2.4792    0.0000 C   0  0  0  0  0  0           0  0  0
    9.2625   -5.5167    0.0000 C   0  0  0  0  0  0           0  0  0
    6.3542   -7.1917    0.0000 C   0  0  0  0  0  0           0  0  0
    4.3625   -6.5875    0.0000 N   0  0  3  0  0  0           0  0  0
    6.1417   -4.2917    0.0000 N   0  0  0  0  0  0           0  0  0
    9.1375   -6.3375    0.0000 N   0  0  0  0  0  0           0  0  0
    6.8542   -3.8792    0.0000 C   0  0  1  0  0  0           0  0  0
    9.0167   -4.7250    0.0000 C   0  0  1  0  0  0           0  0  0
    5.6792   -4.9792    0.0000 C   0  0  0  0  0  0           0  0  0
    7.7417   -1.2667    0.0000 N   0  0  0  0  0  0           0  0  0
    7.1292   -7.4917    0.0000 N   0  0  0  0  0  0           0  0  0
    7.0167   -1.6667    0.0000 C   0  0  0  0  0  0           0  0  0
    6.6167   -3.0917    0.0000 C   0  0  0  0  0  0           0  0  0
    8.0000   -2.5792    0.0000 C   0  0  0  0  0  0           0  0  0
    5.5542   -5.7917    0.0000 C   0  0  0  0  0  0           0  0  0
    2.9375   -5.7625    0.0000 N   0  0  3  0  0  0           0  0  0
    8.3417   -1.8292    0.0000 C   0  0  0  0  0  0           0  0  0
    5.0792   -7.8250    0.0000 O   0  0  0  0  0  0           0  0  0
    8.6667   -7.0167    0.0000 C   0  0  1  0  0  0           0  0  0
    7.8042   -3.0000    0.0000 O   0  0  0  0  0  0           0  0  0
   10.0792   -5.4542    0.0000 O   0  0  0  0  0  0           0  0  0
    9.7292   -4.3125    0.0000 C   0  0  0  0  0  0           0  0  0
    5.8917   -7.8750    0.0000 O   0  0  0  0  0  0           0  0  0
    3.6500   -7.0042    0.0000 C   0  0  0  0  0  0           0  0  0
    4.3625   -5.7625    0.0000 C   0  0  0  0  0  0           0  0  0
    4.9042   -4.6792    0.0000 O   0  0  0  0  0  0           0  0  0
    7.9542   -7.4292    0.0000 C   0  0  0  0  0  0           0  0  0
    2.9292   -6.5875    0.0000 C   0  0  0  0  0  0           0  0  0
    3.6500   -5.3542    0.0000 C   0  0  0  0  0  0           0  0  0
    9.2375   -7.6250    0.0000 C   0  0  0  0  0  0           0  0  0
   10.4500   -4.7250    0.0000 C   0  0  0  0  0  0           0  0  0
    8.9917   -8.4167    0.0000 C   0  0  0  0  0  0           0  0  0
    2.2167   -5.3500    0.0000 C   0  0  0  0  0  0           0  0  0
   -1.3500   -5.7500    0.0000 O   0  0  0  0  0  0           0  0  0
    8.4750   -3.2542    0.0000 C   0  0  0  0  0  0           0  0  0
    0.7917   -5.3417    0.0000 O   0  0  0  0  0  0           0  0  0
    9.1667   -1.7542    0.0000 C   0  0  0  0  0  0           0  0  0
   -0.6375   -5.3417    0.0000 C   0  0  0  0  0  0           0  0  0
    1.5042   -5.7625    0.0000 C   0  0  0  0  0  0           0  0  0
    0.0750   -5.7542    0.0000 C   0  0  0  0  0  0           0  0  0
   10.4500   -5.5542    0.0000 C   0  0  0  0  0  0           0  0  0
   11.1667   -4.3125    0.0000 C   0  0  0  0  0  0           0  0  0
    8.1792   -8.6000    0.0000 C   0  0  0  0  0  0           0  0  0
    9.5542   -9.0167    0.0000 C   0  0  0  0  0  0           0  0  0
    9.3000   -3.1875    0.0000 C   0  0  0  0  0  0           0  0  0
    9.6417   -2.4292    0.0000 C   0  0  0  0  0  0           0  0  0
    9.3042   -9.8125    0.0000 C   0  0  0  0  0  0           0  0  0
    7.9417   -9.3875    0.0000 C   0  0  0  0  0  0           0  0  0
   11.8792   -4.7250    0.0000 C   0  0  0  0  0  0           0  0  0
   11.1667   -5.9667    0.0000 C   0  0  0  0  0  0           0  0  0
    8.5042   -9.9917    0.0000 C   0  0  0  0  0  0           0  0  0
   11.8792   -5.5542    0.0000 C   0  0  0  0  0  0           0  0  0
  2  1  1  0     0  0
  3  4  1  0     0  0
  4 11  1  0     0  0
  5 17  1  0     0  0
  6 10  1  0     0  0
  7  1  1  0     0  0
  8  2  1  0     0  0
  9 13  1  0     0  0
 10 23  1  0     0  0
 11  9  1  0     0  0
 12  3  1  0     0  0
 13 19  1  0     0  0
 14 16  1  0     0  0
 15  7  1  0     0  0
 16  5  2  0     0  0
 11 17  1  1     0  0
 18  5  1  0     0  0
 19  1  1  0     0  0
 20 33  1  0     0  0
 21 18  2  0     0  0
 22  2  2  0     0  0
 23 31  1  0     0  0
 24  4  2  0     0  0
 25  6  2  0     0  0
 12 26  1  6     0  0
 27  7  2  0     0  0
 28  8  1  0     0  0
 29  8  1  0     0  0
 30 13  2  0     0  0
 31 15  1  0     0  0
 32 28  1  0     0  0
 33 29  1  0     0  0
 23 34  1  6     0  0
 35 26  1  0     0  0
 36 34  1  0     0  0
 37 20  1  0     0  0
 38 42  1  0     0  0
 39 18  1  0     0  0
 40 43  1  0     0  0
 41 21  1  0     0  0
 42 44  1  0     0  0
 43 37  1  0     0  0
 44 40  1  0     0  0
 45 35  2  0     0  0
 46 35  1  0     0  0
 47 36  1  0     0  0
 48 36  2  0     0  0
 49 39  2  0     0  0
 50 49  1  0     0  0
 51 48  1  0     0  0
 52 47  2  0     0  0
 53 46  2  0     0  0
 54 45  1  0     0  0
 55 51  2  0     0  0
 56 53  1  0     0  0
 32 20  1  0     0  0
 12  6  1  0     0  0
 14 21  1  0     0  0
 55 52  1  0     0  0
 50 41  2  0     0  0
 54 56  2  0     0  0
M  END