
          11280715032D 1   1.00000     0.00000     0

 24 27  0     0  0            999 V2000
    3.4625   -2.3167    0.0000 S   0  0  3  0  0  0           0  0  0
    7.0667   -3.3292    0.0000 C   0  0  3  0  0  0           0  0  0
    5.8542   -2.3042    0.0000 C   0  0  0  0  0  0           0  0  0
    4.0625   -2.3167    0.0000 C   0  0  0  0  0  0           0  0  0
    6.1625   -2.8167    0.0000 N   0  0  0  0  0  0           0  0  0
    3.4542   -2.9167    0.0000 O   0  0  0  0  0  0           0  0  0
    3.4542   -1.7125    0.0000 O   0  0  0  0  0  0           0  0  0
    7.3792   -3.4917    0.0000 C   0  0  3  0  0  0           0  0  0
    6.5667   -4.1792    0.0000 C   0  0  3  0  0  0           0  0  0
    7.5292   -4.4125    0.0000 C   0  0  3  0  0  0           0  0  0
    5.2542   -2.3042    0.0000 C   0  0  0  0  0  0           0  0  0
    2.8625   -2.3125    0.0000 N   0  0  0  0  0  0           0  0  0
    6.5167   -3.5417    0.0000 C   0  0  0  0  0  0           0  0  0
    7.3875   -2.8125    0.0000 C   0  0  0  0  0  0           0  0  0
    7.5000   -3.7792    0.0000 C   0  0  0  0  0  0           0  0  0
    6.7667   -2.8167    0.0000 C   0  0  0  0  0  0           0  0  0
    6.1542   -1.7750    0.0000 O   0  0  0  0  0  0           0  0  0
    4.3667   -2.8292    0.0000 C   0  0  0  0  0  0           0  0  0
    4.3542   -1.7917    0.0000 C   0  0  0  0  0  0           0  0  0
    4.9500   -1.7875    0.0000 C   0  0  0  0  0  0           0  0  0
    4.9625   -2.8292    0.0000 C   0  0  0  0  0  0           0  0  0
    6.9792   -4.6167    0.0000 C   0  0  0  0  0  0           0  0  0
    6.8792   -3.7125    0.0000 C   0  0  0  0  0  0           0  0  0
    7.7917   -3.9167    0.0000 C   0  0  0  0  0  0           0  0  0
  2 16  1  0     0  0
  3 11  1  0     0  0
  4  1  1  0     0  0
  5  3  1  0     0  0
  6  1  2  0     0  0
  7  1  2  0     0  0
  8 14  1  0     0  0
  9 13  1  0     0  0
 10 15  1  0     0  0
 11 20  1  0     0  0
 12  1  1  0     0  0
 13  2  1  0     0  0
 14  2  1  0     0  0
 15  2  1  0     0  0
 16  5  1  0     0  0
 17  3  2  0     0  0
 18  4  2  0     0  0
 19  4  1  0     0  0
 20 19  2  0     0  0
 21 18  1  0     0  0
 22 10  1  0     0  0
 23  8  1  0     0  0
 24 10  1  0     0  0
 21 11  2  0     0  0
  8 24  1  0     0  0
  9 22  1  0     0  0
 23  9  1  0     0  0
M  END