
  SciTegic01091216402D

 82 83  0  0  0  0            999 V2000
    6.9651   -1.0555    0.0000 Na  0  3
   -2.5376   -5.4382    0.0000 C   0  0  1  0  0  0
   -2.5415   -6.2652    0.0000 C   0  0  1  0  0  0
   -1.8290   -6.6758    0.0000 C   0  0  2  0  0  0
   -1.1128   -6.2718    0.0000 C   0  0
   -1.1099   -5.4426    0.0000 C   0  0  1  0  0  0
   -1.8213   -5.0218    0.0000 O   0  0
   -1.1080   -4.6149    0.0000 C   0  0
   -1.8238   -4.1977    0.0000 O   0  0
   -1.8329   -7.5028    0.0000 O   0  0
   -3.2554   -6.6744    0.0000 N   0  0
   -3.2495   -5.0214    0.0000 C   0  0  1  0  0  0
   -3.2480   -4.1943    0.0000 C   0  0  1  0  0  0
   -3.2581   -7.5013    0.0000 C   0  0
   -3.9761   -7.9146    0.0000 C   0  0
   -2.5467   -7.9192    0.0000 O   0  0
   -3.9669   -5.4357    0.0000 O   0  0
   -2.5379   -4.6112    0.0000 H   0  0
   -3.9641   -3.7817    0.0000 C   0  0
   -2.5347   -3.7842    0.0000 O   0  0
   -0.4034   -5.8554    0.0000 O   0  0
   -3.9647   -2.9589    0.0000 O   0  0
    3.8780   -0.9909    0.0000 C   0  0  1  0  0  0
    3.1705   -1.4192    0.0000 C   0  0  1  0  0  0
    3.1921   -2.2411    0.0000 C   0  0  2  0  0  0
    3.9104   -2.6413    0.0000 C   0  0
    4.6193   -2.2110    0.0000 C   0  0  1  0  0  0
    4.6070   -1.3846    0.0000 O   0  0
    5.3263   -1.7806    0.0000 C   0  0
    5.3086   -0.9523    0.0000 O   0  0
    2.4846   -2.6694    0.0000 O   0  0
    2.4489   -1.0237    0.0000 N   0  0
    3.8620   -0.1661    0.0000 C   0  0  1  0  0  0
    4.5682    0.2643    0.0000 C   0  0  1  0  0  0
    1.7421   -1.4530    0.0000 C   0  0
    1.0147   -1.0561    0.0000 C   0  0
    1.7568   -2.2779    0.0000 O   0  0
    3.1341    0.2297    0.0000 O   0  0
    4.5832   -0.5590    0.0000 H   0  0
    4.5465    1.0905    0.0000 C   0  0
    5.2904   -0.1302    0.0000 O   0  0
    4.6359   -3.0291    0.0000 O   0  0
    0.3166   -5.4498    0.0000 C   0  0  2  0  0  0
    1.0259   -5.8668    0.0000 C   0  0  2  0  0  0
    1.7398   -5.4668    0.0000 C   0  0  1  0  0  0
    1.7506   -4.6442    0.0000 O   0  0
    1.0414   -4.2231    0.0000 C   0  0  1  0  0  0
    0.3213   -4.6287    0.0000 C   0  0  2  0  0  0
   -0.3918   -4.2066    0.0000 O   0  0
    1.0509   -3.3961    0.0000 C   0  0
    0.3388   -2.9765    0.0000 O   0  0
    2.4475   -5.8867    0.0000 O   0  0
    1.0172   -6.6937    0.0000 O   0  0
    3.1690   -5.4838    0.0000 C   0  0  2  0  0  0
    3.8773   -5.9068    0.0000 C   0  0  2  0  0  0
    4.5967   -5.5072    0.0000 C   0  0  2  0  0  0
    4.6108   -4.6800    0.0000 O   0  0
    3.8991   -4.2538    0.0000 C   0  0  1  0  0  0
    3.1734   -4.6590    0.0000 C   0  0  2  0  0  0
    3.1625   -6.3085    0.0000 H   0  0
    2.4611   -4.2358    0.0000 O   0  0
    3.9117   -3.4269    0.0000 C   0  0
    5.3069   -5.9298    0.0000 O   0  0
    3.8643   -6.7336    0.0000 N   0  0
    4.5704   -7.1562    0.0000 C   0  0
    4.5574   -7.9790    0.0000 C   0  0
    5.2893   -6.7561    0.0000 O   0  0
    6.0249   -5.5277    0.0000 C   0  0  1  0  0  0
    6.7320   -5.9484    0.0000 C   0  0  2  0  0  0
    6.0356   -4.7049    0.0000 C   0  0
    6.7213   -6.7712    0.0000 N   0  0
    7.4499   -5.5463    0.0000 C   0  0
    8.1572   -5.9670    0.0000 O   0  0
    7.4607   -4.7236    0.0000 O   0  0
    8.8750   -5.5650    0.0000 C   0  0
    7.4285   -7.1919    0.0000 C   0  0
    7.4177   -8.0147    0.0000 C   0  0
    8.1464   -6.7898    0.0000 O   0  0
    6.0479   -2.1761    0.0000 O   0  5
    5.2481    1.5204    0.0000 O   0  0
   -1.1138   -3.7901    0.0000 O   0  5
   -1.3756   -2.0529    0.0000 Na  0  3
  8  9  2  0
 34 41  1  1
 13 20  1  1
 27 42  1  0
 43 44  1  0
  6 21  1  0
  4 10  1  6
 19 22  1  0
 23 24  1  0
 43 48  1  0
 44 45  1  0
 45 46  1  0
 46 47  1  0
 47 48  1  0
  3 11  1  1
 48 49  1  1
  2  7  1  0
 47 50  1  1
  2 12  1  0
 50 51  1  0
  3  4  1  0
 45 52  1  1
 43 21  1  1
 12 13  1  0
 44 53  1  6
 23 28  1  0
 54 52  1  0
 54 55  1  0
 24 25  1  0
 25 26  1  0
 26 27  1  0
 27 28  1  0
  4  5  1  0
 54 59  1  0
 55 56  1  0
 56 57  1  0
 57 58  1  0
 58 59  1  0
 27 29  1  1
 54 60  1  6
 11 14  1  0
 59 61  1  1
 29 30  2  0
 58 62  1  1
 62 42  1  0
  5  6  1  0
 56 63  1  6
 25 31  1  6
 55 64  1  6
 14 15  1  0
 64 65  1  0
 24 32  1  1
 65 66  1  0
  6  7  1  0
 65 67  2  0
 23 33  1  0
 63 68  1  0
 14 16  2  0
 68 69  1  0
 33 34  1  0
 68 70  1  6
 69 71  1  1
 32 35  1  0
 69 72  1  0
 12 17  1  6
 72 73  1  0
 35 36  1  0
 72 74  2  0
  6  8  1  1
 73 75  1  0
 35 37  2  0
 71 76  1  0
  2 18  1  1
 76 77  1  0
 33 38  1  6
 76 78  2  0
  2  3  1  0
 29 79  1  0
 23 39  1  1
 40 80  1  0
 13 19  1  0
  8 81  1  0
 34 40  1  0
M  CHG  4   1   1  79  -1  81  -1  82   1
M  END