
  SciTegic02271514512D

 30 33  0  0  0  0            999 V2000
    8.1423   -5.7466    0.0000 N   0  0
    6.3212   -6.9133    0.0000 C   0  0
    7.1160   -6.7219    0.0000 N   0  0
    7.3476   -5.9380    0.0000 C   0  0
    6.7845   -5.3454    0.0000 C   0  0
    5.9897   -5.5368    0.0000 C   0  0
    5.7581   -6.3208    0.0000 N   0  0
    7.0161   -4.5614    0.0000 F   0  0
    5.3412   -8.7879    0.0000 C   0  0
    5.3192   -7.9707    0.0000 C   0  0
    4.6005   -7.5812    0.0000 C   0  0
    3.9038   -8.0088    0.0000 C   0  0
    3.9258   -8.8260    0.0000 C   0  0
    4.6445   -9.2156    0.0000 N   0  0
    6.1252   -9.0195    0.0000 N   0  0
    6.0896   -7.6973    0.0000 C   0  0
    6.5877   -8.3455    0.0000 C   0  0
    3.1851   -7.6193    0.0000 F   0  0
    8.7053   -6.3389    0.0000 C   0  0  1  0  0  0
    8.4704   -7.1232    0.0000 C   0  0
    9.0295   -7.7143    0.0000 C   0  0
    9.8253   -7.5270    0.0000 C   0  0
   10.0590   -6.7430    0.0000 C   0  0  2  0  0  0
    9.4969   -6.1462    0.0000 C   0  0
   10.8541   -6.5543    0.0000 N   0  0
   11.4150   -7.1486    0.0000 C   0  0
   12.2101   -6.9600    0.0000 C   0  0
   11.1808   -7.9315    0.0000 O   0  0
   12.7711   -7.5543    0.0000 O   0  0
   12.5369   -8.3372    0.0000 C   0  0
  2  3  1  0
  3  4  2  0
  4  5  1  0
  5  6  2  0
  6  7  1  0
  2  7  2  0
  5  8  1  0
  9 10  1  0
 10 11  2  0
 11 12  1  0
 12 13  2  0
 13 14  1  0
  9 14  2  0
 16 17  2  0
 15 17  1  0
  9 15  1  0
 10 16  1  0
 12 18  1  0
  2 16  1  0
  1  4  1  0
 19  1  1  6
 19 20  1  0
 19 24  1  0
 20 21  1  0
 21 22  1  0
 22 23  1  0
 23 24  1  0
 23 25  1  6
 25 26  1  0
 26 27  1  0
 26 28  2  0
 27 29  1  0
 29 30  1  0
M  END