
          11290712382D 1   1.00000     0.00000     0

 35 37  0     0  0            999 V2000
   -1.9125  -14.8792    0.0000 C   0  0  0  0  0  0           0  0  0
   -1.9125  -15.7042    0.0000 N   0  0  3  0  0  0           0  0  0
   -1.2005  -16.1125    0.0000 C   0  0  0  0  0  0           0  0  0
   -0.4885  -15.7042    0.0000 C   0  0  0  0  0  0           0  0  0
   -0.4885  -14.8792    0.0000 C   0  0  0  0  0  0           0  0  0
   -1.2005  -14.4625    0.0000 C   0  0  0  0  0  0           0  0  0
   -2.6264  -16.1177    0.0000 C   0  0  0  0  0  0           0  0  0
   -1.2005  -13.6375    0.0000 C   0  0  0  0  0  0           0  0  0
   -0.5392  -13.1516    0.0000 C   0  0  0  0  0  0           0  0  0
   -0.7940  -12.3667    0.0000 N   0  0  0  0  0  0           0  0  0
   -1.6191  -12.3667    0.0000 S   0  0  0  0  0  0           0  0  0
   -1.8739  -13.1513    0.0000 N   0  0  0  0  0  0           0  0  0
    0.1825  -13.5513    0.0000 O   0  0  0  0  0  0           0  0  0
    0.8894  -13.1259    0.0000 C   0  0  0  0  0  0           0  0  0
    1.6112  -13.5254    0.0000 C   0  0  0  0  0  0           0  0  0
    2.3181  -13.1001    0.0000 O   0  0  0  0  0  0           0  0  0
    3.0399  -13.4996    0.0000 C   0  0  0  0  0  0           0  0  0
    3.7468  -13.0742    0.0000 C   0  0  0  0  0  0           0  0  0
    4.4686  -13.4738    0.0000 O   0  0  0  0  0  0           0  0  0
    5.1755  -13.0484    0.0000 C   0  0  0  0  0  0           0  0  0
    5.8973  -13.4479    0.0000 C   0  0  0  0  0  0           0  0  0
    6.6042  -13.0226    0.0000 O   0  0  0  0  0  0           0  0  0
    7.3260  -13.4221    0.0000 C   0  0  0  0  0  0           0  0  0
    8.0329  -12.9967    0.0000 C   0  0  0  0  0  0           0  0  0
    8.7547  -13.3962    0.0000 O   0  0  0  0  0  0           0  0  0
    9.4616  -12.9709    0.0000 C   0  0  0  0  0  0           0  0  0
   10.1834  -13.3704    0.0000 C   0  0  0  0  0  0           0  0  0
   10.8903  -12.9450    0.0000 O   0  0  0  0  0  0           0  0  0
   11.6117  -13.3451    0.0000 C   0  0  0  0  0  0           0  0  0
   11.5951  -14.1693    0.0000 C   0  0  0  0  0  0           0  0  0
   12.3744  -14.4402    0.0000 N   0  0  0  0  0  0           0  0  0
   12.8729  -13.7828    0.0000 S   0  0  0  0  0  0           0  0  0
   12.4016  -13.1057    0.0000 N   0  0  0  0  0  0           0  0  0
   10.9180  -14.6406    0.0000 O   0  0  0  0  0  0           0  0  0
   10.1713  -14.2899    0.0000 C   0  0  0  0  0  0           0  0  0
 16 17  1  0     0  0
  8  9  1  0     0  0
 17 18  1  0     0  0
  1  6  1  0     0  0
 18 19  1  0     0  0
  2  3  1  0     0  0
 19 20  1  0     0  0
  3  4  1  0     0  0
 20 21  1  0     0  0
  4  5  1  0     0  0
 21 22  1  0     0  0
  9 10  2  0     0  0
 22 23  1  0     0  0
 10 11  1  0     0  0
 23 24  1  0     0  0
 11 12  1  0     0  0
 24 25  1  0     0  0
 12  8  2  0     0  0
 25 26  1  0     0  0
  5  6  2  0     0  0
 26 27  1  0     0  0
  9 13  1  0     0  0
 27 28  1  0     0  0
 28 29  1  0     0  0
 29 30  1  0     0  0
 13 14  1  0     0  0
  2  7  1  0     0  0
 14 15  1  0     0  0
  1  2  1  0     0  0
 30 31  2  0     0  0
 31 32  1  0     0  0
 32 33  1  0     0  0
 33 29  2  0     0  0
 15 16  1  0     0  0
 30 34  1  0     0  0
  6  8  1  0     0  0
 34 35  1  0     0  0
M  END