
  Mrv0541 04051115152D          

 24 25  0  0  0  0            999 V2000
    2.9606    1.6214    0.0000 O   0  0  0  0  0  0  0  0  0  0  0  0
    2.2461    1.2089    0.0000 C   0  0  0  0  0  0  0  0  0  0  0  0
    1.5316    1.6214    0.0000 O   0  0  0  0  0  0  0  0  0  0  0  0
    2.2461    0.3839    0.0000 C   0  0  0  0  0  0  0  0  0  0  0  0
    2.9606   -0.0286    0.0000 C   0  0  0  0  0  0  0  0  0  0  0  0
    2.9606   -0.8536    0.0000 C   0  0  0  0  0  0  0  0  0  0  0  0
    2.2461   -1.2661    0.0000 C   0  0  0  0  0  0  0  0  0  0  0  0
    1.5316   -0.8536    0.0000 C   0  0  0  0  0  0  0  0  0  0  0  0
    1.5316   -0.0286    0.0000 C   0  0  0  0  0  0  0  0  0  0  0  0
    0.8172    0.3839    0.0000 C   0  0  0  0  0  0  0  0  0  0  0  0
    0.1027   -0.0286    0.0000 N   0  0  0  0  0  0  0  0  0  0  0  0
   -0.6118    0.3839    0.0000 C   0  0  0  0  0  0  0  0  0  0  0  0
   -0.6118    1.2089    0.0000 O   0  0  0  0  0  0  0  0  0  0  0  0
    0.1027   -0.8536    0.0000 C   0  0  0  0  0  0  0  0  0  0  0  0
    0.8172   -1.2661    0.0000 O   0  0  0  0  0  0  0  0  0  0  0  0
   -0.6118   -1.2661    0.0000 C   0  0  0  0  0  0  0  0  0  0  0  0
   -1.3263   -0.8536    0.0000 C   0  0  0  0  0  0  0  0  0  0  0  0
   -1.3263   -0.0286    0.0000 N   0  0  0  0  0  0  0  0  0  0  0  0
   -2.0407    0.3839    0.0000 C   0  0  0  0  0  0  0  0  0  0  0  0
   -2.7552   -0.0286    0.0000 C   0  0  2  0  0  0  0  0  0  0  0  0
   -2.7552   -0.8536    0.0000 N   0  0  0  0  0  0  0  0  0  0  0  0
   -3.4697    0.3839    0.0000 C   0  0  0  0  0  0  0  0  0  0  0  0
   -4.1841   -0.0286    0.0000 O   0  0  0  0  0  0  0  0  0  0  0  0
   -3.4697    1.2089    0.0000 O   0  0  0  0  0  0  0  0  0  0  0  0
  2  1  1  0  0  0  0
  2  3  2  0  0  0  0
  2  4  1  0  0  0  0
  4  5  2  0  0  0  0
  9  4  1  0  0  0  0
  5  6  1  0  0  0  0
  6  7  2  0  0  0  0
  7  8  1  0  0  0  0
  9  8  2  0  0  0  0
 10  9  1  0  0  0  0
 10 11  1  0  0  0  0
 12 11  1  0  0  0  0
 14 11  1  0  0  0  0
 12 13  2  0  0  0  0
 12 18  1  0  0  0  0
 14 15  2  0  0  0  0
 14 16  1  0  0  0  0
 16 17  2  0  0  0  0
 17 18  1  0  0  0  0
 19 18  1  0  0  0  0
 20 19  1  0  0  0  0
 20 21  1  6  0  0  0
 22 20  1  0  0  0  0
 22 23  1  0  0  0  0
 22 24  2  0  0  0  0
M  END