
  Mrv0541 04051115152D          

 26 28  0  0  0  0            999 V2000
    3.1032    0.7928    0.0000 C   0  0  0  0  0  0  0  0  0  0  0  0
    2.0426    0.7928    0.0000 C   0  0  0  0  0  0  0  0  0  0  0  0
    3.1032   -2.1211    0.0000 C   0  0  0  0  0  0  0  0  0  0  0  0
    2.0426   -2.1211    0.0000 C   0  0  0  0  0  0  0  0  0  0  0  0
   -4.5718    0.9859    0.0000 O   0  0  0  0  0  0  0  0  0  0  0  0
   -0.2850    0.9859    0.0000 O   0  0  0  0  0  0  0  0  0  0  0  0
   -3.8574    2.2234    0.0000 O   0  0  0  0  0  0  0  0  0  0  0  0
   -2.4284   -0.2516    0.0000 C   0  0  0  0  0  0  0  0  0  0  0  0
   -1.7140    0.9859    0.0000 C   0  0  0  0  0  0  0  0  0  0  0  0
   -3.1429    0.1609    0.0000 C   0  0  0  0  0  0  0  0  0  0  0  0
   -2.4284    1.3984    0.0000 C   0  0  0  0  0  0  0  0  0  0  0  0
    0.4295   -1.0766    0.0000 C   0  0  0  0  0  0  0  0  0  0  0  0
    1.1439   -1.4891    0.0000 C   0  0  0  0  0  0  0  0  0  0  0  0
    1.1439    0.1609    0.0000 C   0  0  0  0  0  0  0  0  0  0  0  0
    3.2873   -0.2516    0.0000 C   0  0  0  0  0  0  0  0  0  0  0  0
    3.2873   -1.0766    0.0000 C   0  0  0  0  0  0  0  0  0  0  0  0
   -0.9995   -0.2516    0.0000 N   0  0  0  0  0  0  0  0  0  0  0  0
   -3.8574    1.3984    0.0000 C   0  0  0  0  0  0  0  0  0  0  0  0
   -0.2850    0.1609    0.0000 C   0  0  0  0  0  0  0  0  0  0  0  0
   -1.7140    0.1609    0.0000 C   0  0  0  0  0  0  0  0  0  0  0  0
   -3.1429    0.9859    0.0000 C   0  0  0  0  0  0  0  0  0  0  0  0
    0.4295   -0.2516    0.0000 C   0  0  0  0  0  0  0  0  0  0  0  0
    1.8584   -1.0766    0.0000 C   0  0  0  0  0  0  0  0  0  0  0  0
    1.8584   -0.2516    0.0000 C   0  0  0  0  0  0  0  0  0  0  0  0
    2.5729    0.1609    0.0000 C   0  0  0  0  0  0  0  0  0  0  0  0
    2.5729   -1.4891    0.0000 C   0  0  0  0  0  0  0  0  0  0  0  0
  1 25  1  0  0  0  0
  2 25  1  0  0  0  0
  3 26  1  0  0  0  0
  4 26  1  0  0  0  0
 18  5  2  0  0  0  0
 19  6  2  0  0  0  0
 18  7  1  0  0  0  0
  8 10  2  0  0  0  0
  8 20  1  0  0  0  0
  9 11  1  0  0  0  0
  9 20  2  0  0  0  0
 10 21  1  0  0  0  0
 11 21  2  0  0  0  0
 12 13  2  0  0  0  0
 12 22  1  0  0  0  0
 13 23  1  0  0  0  0
 14 22  2  0  0  0  0
 14 24  1  0  0  0  0
 15 16  1  0  0  0  0
 15 25  1  0  0  0  0
 16 26  1  0  0  0  0
 19 17  1  0  0  0  0
 20 17  1  0  0  0  0
 18 21  1  0  0  0  0
 19 22  1  0  0  0  0
 23 24  2  0  0  0  0
 23 26  1  0  0  0  0
 24 25  1  0  0  0  0
M  END