
  SciTegic12231509382D

 24 26  0  0  0  0            999 V2000
    6.6903  -16.1569    0.0000 C   0  0
    6.6890  -16.9799    0.0000 C   0  0
    7.4021  -17.3928    0.0000 C   0  0
    8.1169  -16.9794    0.0000 C   0  0
    8.1137  -16.1528    0.0000 C   0  0
    7.4001  -15.7440    0.0000 C   0  0
    7.4006  -18.2178    0.0000 O   0  0
    8.8353  -15.7368    0.0000 S   0  0
    9.5520  -15.3181    0.0000 O   0  0
    9.2534  -16.4572    0.0000 N   0  0
    8.4197  -15.0195    0.0000 O   0  0
    9.0009  -17.2429    0.0000 C   0  0
    9.6733  -17.7213    0.0000 C   0  0
   10.3296  -17.2391    0.0000 C   0  0
   10.0784  -16.4561    0.0000 C   0  0  2  0  0  0
   10.5019  -15.7481    0.0000 C   0  0
   11.3268  -15.7607    0.0000 C   0  0
   11.7283  -16.4816    0.0000 N   0  0
   11.3014  -17.1842    0.0000 C   0  0
   11.6994  -17.9028    0.0000 C   0  0
   12.5246  -17.9198    0.0000 C   0  0
   12.9502  -17.2120    0.0000 C   0  0
   12.5508  -16.4871    0.0000 C   0  0
   12.9233  -18.6421    0.0000 C   0  0
  5  6  2  0
  6  1  1  0
  1  2  2  0
  3  7  1  0
 12 13  1  0
 13 14  1  0
 14 15  1  0
 15 10  1  0
  3  4  2  0
 15 16  1  1
  5  8  1  0
 16 17  1  0
 17 18  1  0
 18 19  1  0
  8  9  2  0
  4  5  1  0
  8 10  1  0
  2  3  1  0
  8 11  2  0
 18 23  1  0
 19 20  1  0
 20 21  1  0
 21 22  1  0
 22 23  1  0
 10 12  1  0
 21 24  1  0
M  END