
  SciTegic12231509382D

 12 11  0  0  0  0            999 V2000
    6.5000    0.7500    0.0000 C   0  0
    5.2000    0.0000    0.0000 C   0  0
    3.9000    0.7500    0.0000 C   0  0
    2.6000    0.0000    0.0000 C   0  0  1  0  0  0
    1.3000    0.7500    0.0000 C   0  0
    1.3000    1.9500    0.0000 O   0  0
    0.2606    0.1503    0.0000 O   0  0
    1.5608   -0.6002    0.0000 N   0  0
    2.6000   -1.5007    0.0000 C   0  0
    1.5611   -2.1014    0.0000 F   0  0
    3.6394   -2.1004    0.0000 F   0  0
    7.5394    0.1503    0.0000 N   0  0
  1  2  1  0
  2  3  1  0
  3  4  1  0
  4  5  1  0
  5  6  1  0
  5  7  2  0
  4  8  1  6
  4  9  1  0
  9 10  1  0
  9 11  1  0
  1 12  1  0
M  END