
          11280715482D 1   1.00000     0.00000     0

 48 51  0     1  0            999 V2000
    7.5750    0.3583    0.0000 C   0  0  0  0  0  0           0  0  0
    8.3250   -0.0792    0.0000 N   0  0  3  0  0  0           0  0  0
    5.3167   -0.0750    0.0000 C   0  0  0  0  0  0           0  0  0
    6.0750    0.3583    0.0000 N   0  0  0  0  0  0           0  0  0
    6.5125    2.3625    0.0000 C   0  0  0  0  0  0           0  0  0
   10.4542   -0.3917    0.0000 N   0  0  3  0  0  0           0  0  0
    3.0667    0.3625    0.0000 C   0  0  0  0  0  0           0  0  0
    6.5125    1.6625    0.0000 C   0  0  0  0  0  0           0  0  0
    5.9125    2.7083    0.0000 C   0  0  0  0  0  0           0  0  0
    4.5667    0.3583    0.0000 C   0  0  1  0  0  0           0  0  0
    3.8125   -0.0750    0.0000 N   0  0  0  0  0  0           0  0  0
    6.8167   -0.0750    0.0000 C   0  0  2  0  0  0           0  0  0
    5.3125    1.6625    0.0000 C   0  0  0  0  0  0           0  0  0
    5.3125    2.3625    0.0000 C   0  0  0  0  0  0           0  0  0
    5.9125    1.3208    0.0000 C   0  0  0  0  0  0           0  0  0
    4.5667    1.2250    0.0000 C   0  0  0  0  0  0           0  0  0
   11.1667   -0.8167    0.0000 C   0  0  0  0  0  0           0  0  0
    9.0625   -0.2000    0.0000 C   0  0  0  0  0  0           0  0  0
    8.8667   -0.7542    0.0000 C   0  0  0  0  0  0           0  0  0
    9.9167    0.2958    0.0000 C   0  0  0  0  0  0           0  0  0
    9.7667   -0.2625    0.0000 C   0  0  0  0  0  0           0  0  0
    7.5792    0.8958    0.0000 O   0  0  0  0  0  0           0  0  0
    5.3167   -0.9417    0.0000 O   0  0  0  0  0  0           0  0  0
    3.0667    1.2250    0.0000 O   0  0  0  0  0  0           0  0  0
   12.5792   -1.6625    0.0000 N   0  0  0  0  0  0           0  0  0
    2.3167   -0.0750    0.0000 N   0  0  0  0  0  0           0  0  0
    7.1125    1.3125    0.0000 Br  0  0  0  0  0  0           0  0  0
    5.9125    3.4000    0.0000 Br  0  0  0  0  0  0           0  0  0
    7.1125    2.7208    0.0000 O   0  0  0  0  0  0           0  0  0
   -0.7083   -0.0750    0.0000 C   0  0  0  0  0  0           0  0  0
   11.1542   -1.6417    0.0000 C   0  0  0  0  0  0           0  0  0
   11.8792   -0.4125    0.0000 C   0  0  0  0  0  0           0  0  0
   -1.4708    0.3583    0.0000 C   0  0  0  0  0  0           0  0  0
    0.0417    0.3625    0.0000 C   0  0  0  0  0  0           0  0  0
    8.3375   -3.5375    0.0000 N   0  0  0  0  0  0           0  0  0
    1.5625    0.3625    0.0000 C   0  0  0  0  0  0           0  0  0
   -2.2250   -0.0792    0.0000 O   0  0  0  0  0  0           0  0  0
   11.8542   -2.0625    0.0000 C   0  0  0  0  0  0           0  0  0
   12.5917   -0.8292    0.0000 C   0  0  0  0  0  0           0  0  0
    6.8167   -0.9417    0.0000 C   0  0  0  0  0  0           0  0  0
   -0.7125    1.6833    0.0000 C   0  0  0  0  0  0           0  0  0
    0.8042   -0.0750    0.0000 C   0  0  0  0  0  0           0  0  0
   -1.4708    1.2375    0.0000 C   0  0  0  0  0  0           0  0  0
    0.0417    1.2458    0.0000 C   0  0  0  0  0  0           0  0  0
    8.3292   -2.6667    0.0000 C   0  0  0  0  0  0           0  0  0
   -2.9958    0.3583    0.0000 C   0  0  0  0  0  0           0  0  0
    7.5750   -1.3750    0.0000 C   0  0  0  0  0  0           0  0  0
    7.5792   -2.2417    0.0000 C   0  0  0  0  0  0           0  0  0
  2  1  1  0     0  0
  3  4  1  0     0  0
  4 12  1  0     0  0
  5  8  1  0     0  0
  6 21  1  0     0  0
  7 11  1  0     0  0
  8 15  2  0     0  0
  9 14  1  0     0  0
 10  3  1  0     0  0
 11 10  1  0     0  0
 12  1  1  0     0  0
 13 16  1  0     0  0
 14 13  2  0     0  0
 15 13  1  0     0  0
 10 16  1  1     0  0
 17  6  1  0     0  0
 18  2  1  0     0  0
 19  2  1  0     0  0
 20 18  1  0     0  0
 21 19  1  0     0  0
 22  1  2  0     0  0
 23  3  2  0     0  0
 24  7  2  0     0  0
 25 39  1  0     0  0
 26  7  1  0     0  0
 27  8  1  0     0  0
 28  9  1  0     0  0
 29  5  1  0     0  0
 30 34  1  0     0  0
 31 17  2  0     0  0
 32 17  1  0     0  0
 33 30  2  0     0  0
 34 42  1  0     0  0
 35 45  1  0     0  0
 36 26  1  0     0  0
 37 33  1  0     0  0
 38 31  1  0     0  0
 39 32  2  0     0  0
 12 40  1  1     0  0
 41 44  1  0     0  0
 42 36  1  0     0  0
 43 41  2  0     0  0
 44 34  2  0     0  0
 45 48  1  0     0  0
 46 37  1  0     0  0
 47 40  1  0     0  0
 48 47  1  0     0  0
 20  6  1  0     0  0
 38 25  2  0     0  0
  5  9  2  0     0  0
 33 43  1  0     0  0
M  END