
  SciTegic12231509382D

 25 28  0  0  0  0            999 V2000
    0.2917   -0.7475    0.0000 C   0  0
    0.2917    0.7475    0.0000 C   0  0
   -1.0028   -1.5132    0.0000 C   0  0
   -7.4980   -0.8010    0.0000 N   0  0
    1.7138    1.2033    0.0000 S   0  0
   -8.7900   -1.5645    0.0000 C   0  0
   -4.9153    0.7255    0.0000 N   0  0
   -1.0028    1.5132    0.0000 C   0  0
   -2.3155    0.7475    0.0000 C   0  0
    1.7138   -1.2033    0.0000 C   0  0
    2.5889    0.0182    0.0000 C   0  0
   -2.3155   -0.7475    0.0000 C   0  0
   -0.9991   -2.7132    0.0000 O   0  0
   -6.1914   -1.5377    0.0000 C   0  0
   -7.5133    0.6990    0.0000 C   0  0
   -8.7772   -3.0645    0.0000 C   0  0
   -3.6217    1.4865    0.0000 C   0  0
   -6.2219    1.4621    0.0000 C   0  0
   -4.9001   -0.7745    0.0000 C   0  0
   -7.4726   -3.8065    0.0000 O   0  0
  -10.0955   -0.8258    0.0000 C   0  0
  -10.0698   -3.8256    0.0000 C   0  0
   -7.4641   -5.0065    0.0000 C   0  0
  -11.3881   -1.5869    0.0000 C   0  0
  -11.3752   -3.0868    0.0000 C   0  0
  1  2  2  0
  1  3  1  0
  2  5  1  0
  4  6  1  0
  2  8  1  0
  8  9  1  0
  1 10  1  0
  5 11  1  0
 10 11  2  0
  3 12  1  0
  9 12  1  0
  3 13  2  0
  4 14  1  0
  4 15  1  0
  6 16  2  0
  7 17  1  0
  9 17  1  0
  7 18  1  0
 15 18  1  0
  7 19  1  0
 14 19  1  0
 16 20  1  0
  6 21  1  0
 16 22  1  0
 20 23  1  0
 21 24  2  0
 22 25  2  0
 24 25  1  0
M  END