
          11280715322D 1   1.00000     0.00000     0

 38 42  0     1  0            999 V2000
    1.8917   -4.5875    0.0000 C   0  0  0  0  0  0           0  0  0
    2.1500   -3.8042    0.0000 N   0  0  0  0  0  0           0  0  0
    3.9042   -5.1625    0.0000 C   0  0  1  0  0  0           0  0  0
    4.7292   -5.1542    0.0000 C   0  0  1  0  0  0           0  0  0
    4.3167   -5.8667    0.0000 C   0  0  0  0  0  0           0  0  0
    1.4875   -3.3167    0.0000 C   0  0  0  0  0  0           0  0  0
    2.4750   -5.1667    0.0000 C   0  0  0  0  0  0           0  0  0
    3.1875   -4.7542    0.0000 N   0  0  0  0  0  0           0  0  0
    0.8167   -3.7917    0.0000 O   0  0  0  0  0  0           0  0  0
    1.0667   -4.5792    0.0000 C   0  0  0  0  0  0           0  0  0
    1.5042   -0.0167    0.0000 C   0  0  0  0  0  0           0  0  0
    1.4917   -2.4917    0.0000 C   0  0  0  0  0  0           0  0  0
    1.5042   -0.8417    0.0000 C   0  0  0  0  0  0           0  0  0
    5.7792   -0.0042    0.0000 C   0  0  0  0  0  0           0  0  0
    5.4500   -5.5500    0.0000 C   0  0  0  0  0  0           0  0  0
    2.4667   -5.9917    0.0000 O   0  0  0  0  0  0           0  0  0
    0.7917    0.3958    0.0000 C   0  0  0  0  0  0           0  0  0
    2.2167    0.3958    0.0000 C   0  0  0  0  0  0           0  0  0
    0.0792    1.6333    0.0000 N   0  0  0  0  0  0           0  0  0
    6.4917    0.4083    0.0000 O   0  0  0  0  0  0           0  0  0
    2.2125   -2.0792    0.0000 C   0  0  0  0  0  0           0  0  0
    0.7792   -2.0750    0.0000 C   0  0  0  0  0  0           0  0  0
    2.2125   -1.2542    0.0000 C   0  0  0  0  0  0           0  0  0
    0.7792   -1.2500    0.0000 C   0  0  0  0  0  0           0  0  0
    5.7792   -0.8292    0.0000 O   0  0  0  0  0  0           0  0  0
    0.7917    1.2208    0.0000 C   0  0  0  0  0  0           0  0  0
    5.0667    0.4083    0.0000 C   0  0  0  0  0  0           0  0  0
   -0.6333    1.2208    0.0000 C   0  0  0  0  0  0           0  0  0
    2.9292   -0.0167    0.0000 C   0  0  0  0  0  0           0  0  0
    5.4667   -6.3750    0.0000 C   0  0  0  0  0  0           0  0  0
    6.1417   -5.1167    0.0000 C   0  0  0  0  0  0           0  0  0
    0.0792   -0.0167    0.0000 C   0  0  0  0  0  0           0  0  0
    4.3542   -0.0125    0.0000 C   0  0  0  0  0  0           0  0  0
    3.6417    0.4000    0.0000 C   0  0  0  0  0  0           0  0  0
   -0.6333    0.3958    0.0000 C   0  0  0  0  0  0           0  0  0
    6.8667   -5.5125    0.0000 C   0  0  0  0  0  0           0  0  0
    6.1875   -6.7667    0.0000 C   0  0  0  0  0  0           0  0  0
    6.8917   -6.3375    0.0000 C   0  0  0  0  0  0           0  0  0
  2  1  1  0     0  0
  3  8  1  1     0  0
  4  3  1  0     0  0
  5  3  1  0     0  0
  6  2  2  0     0  0
  7  1  1  0     0  0
  8  7  1  0     0  0
  9 10  1  0     0  0
 10  1  2  0     0  0
 11 13  1  0     0  0
 12  6  1  0     0  0
 13 24  2  0     0  0
 14 27  1  0     0  0
  4 15  1  6     0  0
 16  7  2  0     0  0
 17 11  1  0     0  0
 18 11  2  0     0  0
 19 26  2  0     0  0
 20 14  2  0     0  0
 21 12  1  0     0  0
 22 12  2  0     0  0
 23 21  2  0     0  0
 24 22  1  0     0  0
 25 14  1  0     0  0
 26 17  1  0     0  0
 27 33  1  0     0  0
 28 35  2  0     0  0
 29 18  1  0     0  0
 30 15  2  0     0  0
 31 15  1  0     0  0
 32 17  2  0     0  0
 33 34  1  0     0  0
 34 29  1  0     0  0
 35 32  1  0     0  0
 36 31  2  0     0  0
 37 30  1  0     0  0
 38 36  1  0     0  0
  9  6  1  0     0  0
  5  4  1  0     0  0
 13 23  1  0     0  0
 38 37  2  0     0  0
 28 19  1  0     0  0
M  END