
  SciTegic07101214422D

 91 92  0  0  0  0            999 V2000
   -2.2051    0.6319    0.0000 O   0  0
   -1.6176    0.0486    0.0000 S   0  0
   -2.4166   -0.1686    0.0000 O   0  0
   -3.7607   -2.0098    0.0000 N   0  0
   -3.7619   -1.1824    0.0000 C   0  0
   -3.0471   -0.7696    0.0000 C   0  0
   -3.0489   -2.4226    0.0000 C   0  0
   -2.3335   -2.0134    0.0000 C   0  0
   -2.3327   -1.1866    0.0000 C   0  0
   -1.6174   -0.7756    0.0000 C   0  0
   -0.9024   -1.1904    0.0000 C   0  0
   -0.9072   -2.0204    0.0000 C   0  0
   -1.6231   -2.4276    0.0000 C   0  0
   -0.9004    0.4604    0.0000 N   0  0
   -0.1869    0.0462    0.0000 C   0  0
    0.5285    0.4569    0.0000 C   0  0
    1.2420    0.0427    0.0000 N   0  0
    1.9575    0.4535    0.0000 C   0  0
    2.6710    0.0393    0.0000 C   0  0
    3.3864    0.4500    0.0000 N   0  0
    4.0999    0.0358    0.0000 C   0  0
    1.9595    1.2785    0.0000 O   0  0
    4.8154    0.4466    0.0000 C   0  0
    5.5288    0.0324    0.0000 N   0  0
    4.8173    1.2716    0.0000 O   0  0
   14.1025    0.0117    0.0000 N   0  0
   14.8179    0.4225    0.0000 C   0  0  1  0  0  0
   15.5314    0.0083    0.0000 C   0  0
   16.2469    0.4191    0.0000 N   0  0
   15.5294   -0.8167    0.0000 O   0  0
   14.8199    1.2475    0.0000 C   0  0
   14.1064    1.6617    0.0000 C   0  0
   14.1084    2.4867    0.0000 C   0  0
   13.3949    2.9010    0.0000 N   0  0
   13.3969    3.7260    0.0000 C   0  0
   12.6835    4.1432    0.0000 N   0  0
   14.1124    4.1383    0.0000 N   0  0
   16.9603    0.0049    0.0000 C   0  0  1  0  0  0
   17.6758    0.4156    0.0000 C   0  0
   16.9583   -0.8201    0.0000 C   0  0
   16.2429   -1.2309    0.0000 C   0  0
   16.2409   -2.0559    0.0000 C   0  0
   15.5254   -2.4667    0.0000 N   0  0
   15.5235   -3.2917    0.0000 C   0  0
   14.8080   -3.7025    0.0000 N   0  0
   16.2369   -3.7059    0.0000 N   0  0
   18.3893    0.0014    0.0000 N   0  0
   17.6778    1.2406    0.0000 O   0  0
    9.8156    0.0221    0.0000 N   0  0
   10.5311    0.4328    0.0000 C   0  0  1  0  0  0
   11.2446    0.0186    0.0000 C   0  0
   11.9600    0.4294    0.0000 N   0  0
   11.2426   -0.8064    0.0000 O   0  0
   10.5331    1.2578    0.0000 C   0  0
    9.8196    1.6721    0.0000 C   0  0
    9.8216    2.4971    0.0000 C   0  0
    9.1081    2.9113    0.0000 N   0  0
    9.1101    3.7363    0.0000 C   0  0
    8.3966    4.1578    0.0000 N   0  0
    9.8256    4.1529    0.0000 N   0  0
   12.6735    0.0152    0.0000 C   0  0  1  0  0  0
   13.3890    0.4260    0.0000 C   0  0
   12.6715   -0.8098    0.0000 C   0  0
   11.9561   -1.2206    0.0000 C   0  0
   11.9541   -2.0456    0.0000 C   0  0
   11.2386   -2.4564    0.0000 N   0  0
   11.2366   -3.2814    0.0000 C   0  0
   10.5212   -3.6921    0.0000 N   0  0
   11.9501   -3.6956    0.0000 N   0  0
   13.3910    1.2510    0.0000 O   0  0
    6.2443    0.4432    0.0000 C   0  0  1  0  0  0
    6.9578    0.0289    0.0000 C   0  0
    7.6732    0.4397    0.0000 N   0  0
    6.9558   -0.7960    0.0000 O   0  0
    6.2463    1.2682    0.0000 C   0  0
    5.5328    1.6824    0.0000 C   0  0
    5.5348    2.5074    0.0000 C   0  0
    4.8213    2.9216    0.0000 N   0  0
    4.8233    3.7466    0.0000 C   0  0
    4.1098    4.1642    0.0000 N   0  0
    5.5388    4.1593    0.0000 N   0  0
    8.3867    0.0255    0.0000 C   0  0  1  0  0  0
    9.1022    0.4363    0.0000 C   0  0
    8.3847   -0.7995    0.0000 C   0  0
    7.6693   -1.2103    0.0000 C   0  0
    7.6673   -2.0353    0.0000 C   0  0
    6.9518   -2.4460    0.0000 N   0  0
    6.9498   -3.2710    0.0000 C   0  0
    6.2344   -3.6818    0.0000 N   0  0
    7.6633   -3.6853    0.0000 N   0  0
    9.1042    1.2613    0.0000 O   0  0
 18 22  2  0
 44 46  2  0
  6  9  2  0
 39 47  1  0
 21 23  1  0
 39 48  2  0
 11 12  1  0
 23 24  1  0
 49 50  1  0
 50 51  1  0
 23 25  2  0
 51 52  1  0
 12 13  2  0
 51 53  2  0
 13  8  1  0
 50 54  1  6
 26 27  1  0
 54 55  1  0
 10  2  1  0
 55 56  1  0
 27 28  1  0
 56 57  1  0
  8  7  2  0
 57 58  1  0
 28 29  1  0
 58 59  1  0
  2 14  1  0
 58 60  2  0
 28 30  2  0
 52 61  1  0
  7  4  1  0
 61 62  1  0
 27 31  1  6
 61 63  1  1
 14 15  1  0
 63 64  1  0
 31 32  1  0
 64 65  1  0
  2  1  2  0
 65 66  1  0
 32 33  1  0
 66 67  1  0
 15 16  1  0
 67 68  1  0
 33 34  1  0
 67 69  2  0
 62 26  1  0
  4  5  2  0
 62 70  2  0
 34 35  1  0
 24 71  1  0
 16 17  1  0
 71 72  1  0
 35 36  1  0
 72 73  1  0
  8  9  1  0
 72 74  2  0
 35 37  2  0
 71 75  1  6
 17 18  1  0
 75 76  1  0
 29 38  1  0
 76 77  1  0
  3  2  2  0
 77 78  1  0
 38 39  1  0
 78 79  1  0
 18 19  1  0
 79 80  1  0
 38 40  1  1
 79 81  2  0
  9 10  1  0
 73 82  1  0
 40 41  1  0
 82 83  1  0
 19 20  1  0
 82 84  1  1
 41 42  1  0
 84 85  1  0
  5  6  1  0
 85 86  1  0
 42 43  1  0
 86 87  1  0
 20 21  1  0
 87 88  1  0
 43 44  1  0
 88 89  1  0
 10 11  2  0
 88 90  2  0
 83 49  1  0
 44 45  1  0
 83 91  2  0
M  END