
  SciTegic02011310402D

 42 47  0  0  0  0            999 V2000
    3.3081  -12.3944    0.0000 N   0  0
    4.0245  -11.9810    0.0000 C   0  0
    4.0216  -11.1505    0.0000 C   0  0
    3.3063  -10.7414    0.0000 C   0  0
    2.5932  -11.9815    0.0000 C   0  0
    2.5945  -11.1526    0.0000 C   0  0
    1.8065  -10.8952    0.0000 N   0  0
    1.3182  -11.5651    0.0000 C   0  0
    1.8045  -12.2364    0.0000 S   0  0
    0.4932  -11.5639    0.0000 N   0  0
    0.0818  -10.8489    0.0000 C   0  0
    4.7396  -12.3924    0.0000 C   0  0
    4.7360  -13.2178    0.0000 C   0  0
    5.4503  -13.6291    0.0000 C   0  0
    6.1651  -13.2154    0.0000 C   0  0
    6.1611  -12.3861    0.0000 C   0  0
    5.4463  -11.9785    0.0000 C   0  0
    6.8735  -11.9700    0.0000 C   0  0
    7.5901  -12.3788    0.0000 N   0  0
    6.8693  -11.1450    0.0000 O   0  0
    8.3024  -11.9627    0.0000 C   0  0
    9.0208  -12.3786    0.0000 C   0  0
    9.7327  -11.9631    0.0000 C   0  0
    9.7289  -11.1372    0.0000 C   0  0
    9.0073  -10.7286    0.0000 C   0  0
    8.2984  -11.1464    0.0000 C   0  0
   10.4490  -12.3723    0.0000 C   0  0
   10.4528  -13.1973    0.0000 F   0  0
   11.1616  -11.9565    0.0000 F   0  0
   11.1583  -12.7833    0.0000 F   0  0
    0.4990  -10.1394    0.0000 N   0  0
    0.0882   -9.4248    0.0000 C   0  0
   -0.7377   -9.4232    0.0000 N   0  0
   -1.1511  -10.1421    0.0000 C   0  0
   -0.7379  -10.8537    0.0000 C   0  0
    0.5021   -8.7111    0.0000 C   0  0
   -1.9761  -10.1438    0.0000 N   0  0
   -2.3887   -9.4309    0.0000 C   0  0
   -3.2101   -9.4306    0.0000 C   0  0
   -3.6250  -10.1441    0.0000 N   0  0
   -3.2122  -10.8596    0.0000 C   0  0
   -2.3846  -10.8615    0.0000 C   0  0
 18 20  2  0
  4  6  1  0
 19 21  1  0
  8 10  1  0
 21 22  2  0
  5  6  2  0
 22 23  1  0
 10 11  1  0
 23 24  2  0
  1  2  2  0
 24 25  1  0
  2 12  1  0
 25 26  2  0
 26 21  1  0
  5  1  1  0
 23 27  1  0
 12 13  2  0
 27 28  1  0
  2  3  1  0
 27 29  1  0
 13 14  1  0
 27 30  1  0
 11 31  2  0
 14 15  2  0
 31 32  1  0
  3  4  2  0
 32 33  2  0
 15 16  1  0
 33 34  1  0
  6  7  1  0
 34 35  2  0
 35 11  1  0
 16 17  2  0
 32 36  1  0
 17 12  1  0
 34 37  1  0
 37 38  1  0
  7  8  2  0
 16 18  1  0
  8  9  1  0
 18 19  1  0
  9  5  1  0
 37 42  1  0
 38 39  1  0
 39 40  1  0
 40 41  1  0
 41 42  1  0
M  END