
          11280715352D 1   1.00000     0.00000     0

 47 50  0     1  0            999 V2000
    4.9750   -8.4042    0.0000 N   0  0  3  0  0  0           0  0  0
    5.3042   -7.6667    0.0000 C   0  0  0  0  0  0           0  0  0
    3.4667   -6.1292    0.0000 C   0  0  0  0  0  0           0  0  0
    2.7542   -5.7167    0.0000 C   0  0  3  0  0  0           0  0  0
    7.7542   -6.1292    0.0000 C   0  0  0  0  0  0           0  0  0
    6.1167   -7.7542    0.0000 C   0  0  0  0  0  0           0  0  0
    5.5792   -8.9542    0.0000 C   0  0  0  0  0  0           0  0  0
    5.6167   -5.7167    0.0000 C   0  0  0  0  0  0           0  0  0
    7.0417   -5.7167    0.0000 C   0  0  3  0  0  0           0  0  0
    6.3292   -6.1292    0.0000 N   0  0  0  0  0  0           0  0  0
    4.1875   -5.7167    0.0000 N   0  0  0  0  0  0           0  0  0
    4.9000   -6.9542    0.0000 C   0  0  0  0  0  0           0  0  0
    4.9000   -6.1292    0.0000 C   0  0  2  0  0  0           0  0  0
    8.4750   -5.7167    0.0000 N   0  0  3  0  0  0           0  0  0
    6.2875   -8.5542    0.0000 C   0  0  0  0  0  0           0  0  0
    4.1667   -8.5792    0.0000 C   0  0  0  0  0  0           0  0  0
    2.0417   -6.1292    0.0000 N   0  0  0  0  0  0           0  0  0
    1.3292   -5.7167    0.0000 C   0  0  0  0  0  0           0  0  0
    3.4667   -6.9542    0.0000 O   0  0  0  0  0  0           0  0  0
    9.1875   -6.1292    0.0000 C   0  0  0  0  0  0           0  0  0
    7.0417   -4.8917    0.0000 C   0  0  0  0  0  0           0  0  0
    7.7542   -6.9542    0.0000 O   0  0  0  0  0  0           0  0  0
    5.6167   -4.8917    0.0000 O   0  0  0  0  0  0           0  0  0
    3.6167   -7.9667    0.0000 O   0  0  0  0  0  0           0  0  0
    2.7542   -4.8917    0.0000 C   0  0  3  0  0  0           0  0  0
    1.3292   -4.8917    0.0000 O   0  0  0  0  0  0           0  0  0
    9.9042   -5.7167    0.0000 C   0  0  0  0  0  0           0  0  0
    6.6292   -4.1750    0.0000 C   0  0  0  0  0  0           0  0  0
    2.0417   -4.4792    0.0000 O   0  0  0  0  0  0           0  0  0
    8.4750   -4.8917    0.0000 C   0  0  0  0  0  0           0  0  0
    5.5750   -9.7667    0.0000 C   0  0  0  0  0  0           0  0  0
    6.9875   -8.9625    0.0000 C   0  0  0  0  0  0           0  0  0
    3.9125   -9.3625    0.0000 C   0  0  0  0  0  0           0  0  0
    0.6167   -6.1292    0.0000 C   0  0  0  0  0  0           0  0  0
    3.4667   -4.4792    0.0000 C   0  0  0  0  0  0           0  0  0
    5.8000   -4.1750    0.0000 C   0  0  0  0  0  0           0  0  0
    7.0417   -3.4500    0.0000 C   0  0  0  0  0  0           0  0  0
   10.6167   -6.1292    0.0000 C   0  0  0  0  0  0           0  0  0
    9.9000   -4.9000    0.0000 C   0  0  0  0  0  0           0  0  0
    6.2792  -10.1792    0.0000 C   0  0  0  0  0  0           0  0  0
    6.9917   -9.7750    0.0000 C   0  0  0  0  0  0           0  0  0
    6.6292   -2.7292    0.0000 C   0  0  0  0  0  0           0  0  0
   11.3292   -5.7250    0.0000 C   0  0  0  0  0  0           0  0  0
   10.6125   -4.4792    0.0000 C   0  0  0  0  0  0           0  0  0
    5.3792   -3.4542    0.0000 C   0  0  0  0  0  0           0  0  0
    5.7917   -2.7292    0.0000 C   0  0  0  0  0  0           0  0  0
   11.3292   -4.8917    0.0000 C   0  0  0  0  0  0           0  0  0
  2  1  1  0     0  0
  3 11  1  0     0  0
  4  3  1  0     0  0
  5  9  1  0     0  0
  6  2  2  0     0  0
  7  1  1  0     0  0
  8 13  1  0     0  0
  9 10  1  0     0  0
 10  8  1  0     0  0
 11 13  1  0     0  0
 12  2  1  0     0  0
 13 12  1  1     0  0
 14  5  1  0     0  0
 15  7  2  0     0  0
 16  1  1  0     0  0
 17  4  1  0     0  0
 18 17  1  0     0  0
 19  3  2  0     0  0
 20 14  1  0     0  0
 21  9  1  0     0  0
 22  5  2  0     0  0
 23  8  2  0     0  0
 24 16  2  0     0  0
 25  4  1  0     0  0
 26 18  2  0     0  0
 27 20  1  0     0  0
 28 21  1  0     0  0
 29 25  1  0     0  0
 30 14  1  0     0  0
 31  7  1  0     0  0
 32 15  1  0     0  0
 33 16  1  0     0  0
 34 18  1  0     0  0
 35 25  1  0     0  0
 36 28  1  0     0  0
 37 28  2  0     0  0
 38 27  2  0     0  0
 39 27  1  0     0  0
 40 31  2  0     0  0
 41 40  1  0     0  0
 42 37  1  0     0  0
 43 38  1  0     0  0
 44 39  2  0     0  0
 45 36  2  0     0  0
 46 42  2  0     0  0
 47 44  1  0     0  0
  6 15  1  0     0  0
 32 41  2  0     0  0
 46 45  1  0     0  0
 47 43  2  0     0  0
M  END