
  SciTegic12231509382D

 24 26  0  0  0  0            999 V2000
    0.3042  -11.0208    0.0000 C   0  0  1  0  0  0
   -0.3708  -11.2458    0.0000 C   0  0
    0.7292  -11.5958    0.0000 O   0  0
   -0.3667  -11.9583    0.0000 C   0  0
   -2.8250  -12.6625    0.0000 N   0  0
    0.3000  -10.3125    0.0000 C   0  0
   -2.2083  -12.3125    0.0000 C   0  0
   -0.9833  -10.8917    0.0000 C   0  0
    0.3125  -12.1750    0.0000 C   0  0
   -0.9833  -12.3125    0.0000 C   0  0
   -1.5958  -11.9583    0.0000 C   0  0
    0.9083   -9.9500    0.0000 C   0  0
   -0.3167   -9.9667    0.0000 C   0  0
   -1.5958  -11.2500    0.0000 C   0  0
    0.2833   -8.8958    0.0000 C   0  0
    0.9167  -10.6625    0.0000 C   0  0
    2.7583  -11.0000    0.0000 N   0  0
   -0.3292   -9.2583    0.0000 C   0  0
    0.9042   -9.2417    0.0000 C   0  0
    0.2750   -8.1875    0.0000 F   0  0
    1.5292  -11.0083    0.0000 C   0  0
    2.1417  -10.6500    0.0000 C   0  0
    3.3667  -10.6375    0.0000 C   0  0
    2.7625  -11.7083    0.0000 C   0  0
  2  1  1  0
  3  1  1  0
  4  2  1  0
  5  7  3  0
  6  1  1  0
  7 11  1  0
  8  2  2  0
  9  3  1  0
 10  4  2  0
 11 10  1  0
 12  6  2  0
 13  6  1  0
 14  8  1  0
 15 18  1  0
  1 16  1  1
 17 22  1  0
 18 13  2  0
 19 12  1  0
 20 15  1  0
 21 16  1  0
 22 21  1  0
 23 17  1  0
 24 17  1  0
  9  4  1  0
 15 19  2  0
 11 14  2  0
M  END