
          11280714452D 1   1.00000     0.00000     0

 20 21  0     0  0            999 V2000
    1.9625   -3.0500    0.0000 C   0  0  0  0  0  0           0  0  0
    1.2042   -2.7167    0.0000 N   0  0  0  0  0  0           0  0  0
    1.8750   -3.8667    0.0000 N   0  0  0  0  0  0           0  0  0
    2.6792   -2.6375    0.0000 C   0  0  0  0  0  0           0  0  0
    0.6542   -3.3292    0.0000 C   0  0  0  0  0  0           0  0  0
    1.0667   -4.0417    0.0000 C   0  0  0  0  0  0           0  0  0
    7.6792   -1.3792    0.0000 N   0  0  0  0  0  0           0  0  0
    2.6792   -1.8125    0.0000 C   0  0  0  0  0  0           0  0  0
    3.3917   -3.0500    0.0000 C   0  0  0  0  0  0           0  0  0
    4.8167   -1.3917    0.0000 O   0  0  0  0  0  0           0  0  0
    6.2500   -1.3875    0.0000 C   0  0  3  0  0  0           0  0  0
    4.1042   -1.8042    0.0000 C   0  0  0  0  0  0           0  0  0
    6.9667   -1.7917    0.0000 C   0  0  0  0  0  0           0  0  0
    5.5375   -1.8000    0.0000 C   0  0  0  0  0  0           0  0  0
    4.1042   -2.6375    0.0000 C   0  0  0  0  0  0           0  0  0
    3.3917   -1.3917    0.0000 C   0  0  0  0  0  0           0  0  0
    6.2417   -0.5625    0.0000 O   0  0  0  0  0  0           0  0  0
    8.3917   -1.7917    0.0000 C   0  0  3  0  0  0           0  0  0
    9.1042   -1.3750    0.0000 C   0  0  0  0  0  0           0  0  0
    8.3917   -2.6167    0.0000 C   0  0  0  0  0  0           0  0  0
  2  1  2  0     0  0
  3  1  1  0     0  0
  4  1  1  0     0  0
  5  2  1  0     0  0
  6  3  1  0     0  0
  7 13  1  0     0  0
  8  4  2  0     0  0
  9  4  1  0     0  0
 10 12  1  0     0  0
 11 14  1  0     0  0
 12 15  1  0     0  0
 13 11  1  0     0  0
 14 10  1  0     0  0
 15  9  2  0     0  0
 16  8  1  0     0  0
 17 11  1  0     0  0
 18  7  1  0     0  0
 19 18  1  0     0  0
 20 18  1  0     0  0
  5  6  2  0     0  0
 16 12  2  0     0  0
M  END