
  SciTegic11201309402D

112120  0  0  0  0            999 V2000
   -2.4783  -12.2513    0.0000 C   0  0
   -3.2653  -13.7069    0.0000 O   0  0
   11.1152  -13.6754    0.0000 C   0  0
   11.9402  -13.6788    0.0000 N   0  0
   10.6998  -14.3882    0.0000 O   0  0
   12.3498  -14.3949    0.0000 C   0  0  2  0  0  0
   13.1748  -14.3983    0.0000 C   0  0
   11.9344  -15.1077    0.0000 C   0  0  1  0  0  0
   11.1094  -15.1044    0.0000 C   0  0
   12.3440  -15.8239    0.0000 O   0  0
   13.5844  -15.1145    0.0000 N   0  0
   13.5902  -13.6855    0.0000 O   0  0
    9.8857  -12.9550    0.0000 N   0  0
   10.7061  -12.9595    0.0000 C   0  0  1  0  0  0
   10.9637  -12.1805    0.0000 C   0  0
   10.3023  -11.6948    0.0000 C   0  0
    9.6362  -12.1737    0.0000 C   0  0
   14.4094  -15.1178    0.0000 C   0  0  2  0  0  0
   14.8189  -15.8340    0.0000 C   0  0
   14.8248  -14.4050    0.0000 C   0  0
   14.4035  -16.5467    0.0000 O   0  0
   15.6415  -15.8372    0.0000 N   0  0
   15.6341  -16.6610    0.0000 C   0  0
   16.4150  -16.9272    0.0000 C   0  0
   16.9095  -16.2668    0.0000 C   0  0
   16.4346  -15.5909    0.0000 C   0  0  1  0  0  0
   16.8237  -14.8635    0.0000 C   0  0
   17.6476  -14.8369    0.0000 N   0  0
   16.3883  -14.1627    0.0000 O   0  0
   17.9270  -15.6124    0.0000 C   0  0
   18.7517  -15.5884    0.0000 C   0  0
   18.9837  -14.7967    0.0000 C   0  0
   18.3027  -14.3302    0.0000 C   0  0  1  0  0  0
   18.0127  -13.5579    0.0000 C   0  0
   18.5351  -12.9120    0.0000 N   0  0
   17.1988  -13.4230    0.0000 O   0  0
   11.3498  -14.3909    0.0000 H   0  0
    9.4760  -13.6711    0.0000 C   0  0
    8.6510  -13.6743    0.0000 C   0  0  1  0  0  0
    9.8913  -14.3840    0.0000 O   0  0
    8.2357  -12.9615    0.0000 N   0  0
    8.2413  -14.3904    0.0000 C   0  0
   18.1323  -12.1921    0.0000 C   0  0  2  0  0  0
   17.3074  -12.1806    0.0000 C   0  0
   18.5539  -11.4837    0.0000 C   0  0
   19.3788  -11.4696    0.0000 C   0  0
   19.8033  -12.1770    0.0000 C   0  0
   19.4046  -12.8994    0.0000 O   0  0
   20.6298  -12.1640    0.0000 O   0  0
   16.9046  -11.4605    0.0000 N   0  0
   16.8849  -12.8892    0.0000 O   0  0
    8.6566  -15.1033    0.0000 C   0  0
    7.4107  -12.9647    0.0000 C   0  0
    6.9955  -12.2518    0.0000 C   0  0
    7.0010  -13.6808    0.0000 O   0  0
    5.4491  -11.8525    0.0000 C   0  0
    4.7416  -12.2769    0.0000 C   0  0
    5.4353  -11.0276    0.0000 O   0  0
    4.0204  -11.8764    0.0000 C   0  0
    3.3129  -12.3008    0.0000 C   0  0
    2.5916  -11.9003    0.0000 C   0  0
    1.8841  -12.3247    0.0000 N   0  0
    1.1629  -11.9243    0.0000 C   0  0
    0.4554  -12.3487    0.0000 N   0  0
    1.1491  -11.0994    0.0000 S   0  0
   -0.2659  -11.9482    0.0000 C   0  0
   -0.2744  -11.1257    0.0000 C   0  0
   -0.9949  -10.7253    0.0000 C   0  0
   -0.9658  -12.3755    0.0000 C   0  0
   -1.6868  -11.9789    0.0000 C   0  0
   -1.7026  -11.1451    0.0000 C   0  0
   -2.5004  -10.9025    0.0000 C   0  0
   -2.9778  -11.5863    0.0000 O   0  0
   -2.7702  -10.1228    0.0000 O   0  0
   -2.0411  -12.9527    0.0000 C   0  0
   -2.4392  -13.6806    0.0000 C   0  0
   -2.0080  -14.3871    0.0000 C   0  0
   -1.1789  -14.3670    0.0000 C   0  0
   -0.7829  -13.6344    0.0000 C   0  0
   -1.2163  -12.9309    0.0000 C   0  0
   -3.6981  -13.0008    0.0000 C   0  0
   -3.3054  -12.2782    0.0000 C   0  0
   -3.7348  -11.5789    0.0000 C   0  0
   -4.5567  -11.6011    0.0000 C   0  0
   -4.9473  -12.3284    0.0000 C   0  0
   -4.5157  -13.0246    0.0000 C   0  0
   -0.7479  -15.0704    0.0000 O   0  0
   -5.7719  -12.3540    0.0000 O   0  0
    8.2469  -15.8193    0.0000 C   0  0
    7.4201  -15.8237    0.0000 O   0  0
    8.6604  -16.5333    0.0000 O   0  0
    7.4000  -11.5291    0.0000 C   0  0
    7.8051  -10.8104    0.0000 C   0  0
    8.6301  -10.8020    0.0000 C   0  0
   16.0171  -11.4600    0.0000 C   0  0
    6.5750  -11.5375    0.0000 C   0  0
    6.1698  -12.2562    0.0000 N   0  0
    9.0352  -10.0833    0.0000 C   0  0
   10.2602   -9.7541    0.0000 C   0  0
   12.3199   -9.7504    0.0000 C   0  0
   13.0042  -10.3167    0.0000 C   0  0
   13.8367  -10.0072    0.0000 C   0  0
   14.5209  -10.5735    0.0000 C   0  0
   15.3534  -10.2641    0.0000 C   0  0
   16.0168  -10.6470    0.0000 C   0  0
   17.4875  -10.8708    0.0000 C   0  0
   17.2694  -10.0752    0.0000 C   0  0
   17.8494   -9.4885    0.0000 O   0  0
   16.4713   -9.8663    0.0000 N   0  0
   19.0898  -13.7134    0.0000 H   0  0
   17.4328  -15.5303    0.0000 H   0  0
   11.7011  -12.8598    0.0000 H   0  0
 53 54  1  0
 13 14  1  0
 53 55  2  0
 54 97  1  0
 27 28  1  0
 97 56  1  0
  3  5  2  0
 56 57  1  0
 27 29  2  0
 56 58  2  0
 28 30  1  0
 57 59  1  0
 81  2  1  0
 59 60  1  0
  4  6  1  0
 60 61  1  0
  2 76  1  0
 61 62  1  0
  6  7  1  0
 62 63  1  0
 30 31  1  0
 63 64  1  0
 31 32  1  0
 63 65  2  0
 32 33  1  0
 64 66  1  0
 33 28  1  0
 66 67  2  0
 14 15  1  0
 67 68  1  0
 68 71  2  0
 33 34  1  0
 70 69  2  0
 69 66  1  0
 70 71  1  0
 15 16  1  0
 34 35  1  0
 16 17  1  0
 34 36  2  0
 71 72  1  0
 72 73  1  0
 73  1  1  0
  1 70  1  0
 17 13  1  0
 72 74  2  0
  6 37  1  1
 75 76  2  0
 13 38  1  0
 76 77  1  0
 11 18  1  0
 77 78  2  0
 38 39  1  0
 78 79  1  0
  6  8  1  0
 79 80  2  0
 80 75  1  0
 38 40  2  0
 18 19  1  0
 81 82  2  0
 39 41  1  0
 82 83  1  0
 14  3  1  0
 83 84  2  0
 39 42  1  6
 84 85  1  0
 18 20  1  1
 85 86  2  0
 86 81  1  0
 35 43  1  0
 78 87  1  0
  8  9  1  6
 85 88  1  0
 43 44  1  0
 52 89  1  0
 19 21  2  0
 43 45  1  6
 89 90  1  0
 89 91  2  0
  1 82  1  0
 45 46  1  0
 92 93  1  0
 19 22  1  0
 93 94  1  0
 46 47  1  0
 50 95  1  0
 22 23  1  0
  8 10  1  0
 47 48  1  0
 47 49  2  0
  3  4  1  0
 44 50  1  0
 92 96  1  0
  7 11  1  0
 96 97  1  0
 44 51  2  0
 94 98  1  0
  1 75  1  0
 98 99  1  0
 99100  2  0
100101  1  0
 23 24  1  0
101102  1  0
 24 25  1  0
102103  1  0
 25 26  1  0
103104  1  0
 26 22  1  0
104105  1  0
105 95  1  0
 42 52  1  0
 50106  1  0
  7 12  2  0
106107  1  0
 41 53  1  0
107108  2  0
 26 27  1  0
107109  1  0
 33110  1  1
 26111  1  1
 14112  1  6
M  END