
  SciTegic12231509382D

 28 32  0  0  0  0            999 V2000
    8.3917   -3.0667    0.0000 N   0  0
    2.2542   -3.8542    0.0000 C   0  0
    8.1292   -3.8542    0.0000 C   0  0
    8.7917   -4.3292    0.0000 C   0  0
    3.0542   -3.6792    0.0000 C   0  0
    9.2167   -3.0792    0.0000 O   0  0
    9.4667   -3.8667    0.0000 C   0  0
    2.0042   -4.6417    0.0000 C   0  0
    1.1667   -4.6417    0.0000 S   0  0
    5.7792   -4.5792    0.0000 N   0  0
    8.8667   -5.1542    0.0000 C   0  0
   10.2042   -4.2042    0.0000 C   0  0
    1.5917   -3.3667    0.0000 C   0  0
    0.9167   -3.8542    0.0000 C   0  0
    7.3417   -4.0917    0.0000 C   0  0
    3.6042   -4.3042    0.0000 C   0  0
    3.3167   -2.8917    0.0000 O   0  0
    2.5417   -5.2417    0.0000 C   0  0
    3.3542   -5.0792    0.0000 C   0  0
    4.4167   -4.1292    0.0000 C   0  0
   10.2917   -5.0167    0.0000 C   0  0
    6.7417   -3.5292    0.0000 C   0  0
    7.1542   -4.8917    0.0000 C   0  0
    4.9667   -4.7417    0.0000 C   0  0
    6.3792   -5.1417    0.0000 C   0  0
    5.9417   -3.7792    0.0000 C   0  0
    9.6042   -5.5042    0.0000 C   0  0
   11.0292   -5.3667    0.0000 F   0  0
  2  5  1  0
  3  1  2  0
  4  3  1  0
  5 16  1  0
  6  1  1  0
  7  6  1  0
  8 18  1  0
  9  8  1  0
 10 25  1  0
 11  4  1  0
 12  7  1  0
 13  2  1  0
 14 13  2  0
 15  3  1  0
 16 20  1  0
 17  5  2  0
 18 19  1  0
 19 16  1  0
 20 24  1  0
 21 12  2  0
 22 15  1  0
 23 15  1  0
 24 10  1  0
 25 23  1  0
 26 22  1  0
 27 11  2  0
 28 21  1  0
  4  7  2  0
 10 26  1  0
 21 27  1  0
  8  2  2  0
  9 14  1  0
M  END