
          11280715352D 1   1.00000     0.00000     0

 35 39  0     0  0            999 V2000
   -1.7250    2.7458    0.0000 S   0  0  3  0  0  0           0  0  0
   -1.7333    3.5708    0.0000 N   0  0  0  0  0  0           0  0  0
   -3.1625    5.2167    0.0000 N   0  0  0  0  0  0           0  0  0
   -2.4458    4.8125    0.0000 N   0  0  3  0  0  0           0  0  0
   -2.4458    3.9833    0.0000 C   0  0  0  0  0  0           0  0  0
   -3.1625    6.0417    0.0000 C   0  0  0  0  0  0           0  0  0
   -1.7458    6.0417    0.0000 C   0  0  3  0  0  0           0  0  0
   -1.7375    5.2167    0.0000 C   0  0  0  0  0  0           0  0  0
   -1.7333    1.9208    0.0000 C   0  0  0  0  0  0           0  0  0
   -0.9333    2.5333    0.0000 O   0  0  0  0  0  0           0  0  0
   -2.4458    2.3375    0.0000 O   0  0  0  0  0  0           0  0  0
   -3.7458    6.6292    0.0000 C   0  0  0  0  0  0           0  0  0
   -1.0250    1.5125    0.0000 C   0  0  0  0  0  0           0  0  0
   -1.0250    0.6958    0.0000 C   0  0  0  0  0  0           0  0  0
   -1.1583    6.6292    0.0000 C   0  0  0  0  0  0           0  0  0
   -3.1583    3.5708    0.0000 N   0  0  0  0  0  0           0  0  0
   -2.4500    1.5208    0.0000 C   0  0  0  0  0  0           0  0  0
   -1.7458    0.2833    0.0000 C   0  0  0  0  0  0           0  0  0
   -2.4583    0.6958    0.0000 C   0  0  0  0  0  0           0  0  0
   -4.5375    6.4167    0.0000 C   0  0  0  0  0  0           0  0  0
   -3.5333    7.4292    0.0000 C   0  0  0  0  0  0           0  0  0
   -4.9125    7.7917    0.0000 C   0  0  0  0  0  0           0  0  0
   -4.1125    8.0042    0.0000 C   0  0  0  0  0  0           0  0  0
   -5.1250    6.9917    0.0000 C   0  0  0  0  0  0           0  0  0
   -5.4958    8.3792    0.0000 Cl  0  0  0  0  0  0           0  0  0
   -0.3125    0.2750    0.0000 C   0  0  0  0  0  0           0  0  0
   -0.3625    6.4167    0.0000 C   0  0  0  0  0  0           0  0  0
   -1.3750    7.4250    0.0000 C   0  0  0  0  0  0           0  0  0
   -3.1583    2.7458    0.0000 C   0  0  0  0  0  0           0  0  0
   -1.7500   -0.5417    0.0000 C   0  0  0  0  0  0           0  0  0
   -0.3208   -0.5417    0.0000 C   0  0  0  0  0  0           0  0  0
    0.2167    7.0000    0.0000 C   0  0  0  0  0  0           0  0  0
   -0.7958    8.0042    0.0000 C   0  0  0  0  0  0           0  0  0
   -1.0333   -0.9625    0.0000 C   0  0  0  0  0  0           0  0  0
    0.0042    7.7917    0.0000 C   0  0  0  0  0  0           0  0  0
  2  1  1  0     0  0
  3  4  1  0     0  0
  4  5  1  0     0  0
  5  2  1  0     0  0
  6  3  2  0     0  0
  7  8  1  0     0  0
  8  4  1  0     0  0
  9  1  1  0     0  0
 10  1  2  0     0  0
 11  1  2  0     0  0
 12  6  1  0     0  0
 13  9  1  0     0  0
 14 13  2  0     0  0
 15  7  1  0     0  0
 16  5  2  0     0  0
 17  9  2  0     0  0
 18 19  2  0     0  0
 19 17  1  0     0  0
 20 12  1  0     0  0
 21 12  2  0     0  0
 22 23  2  0     0  0
 23 21  1  0     0  0
 24 20  2  0     0  0
 25 22  1  0     0  0
 26 14  1  0     0  0
 27 15  2  0     0  0
 28 15  1  0     0  0
 29 16  1  0     0  0
 30 18  1  0     0  0
 31 26  2  0     0  0
 32 27  1  0     0  0
 33 28  2  0     0  0
 34 30  2  0     0  0
 35 33  1  0     0  0
 18 14  1  0     0  0
  6  7  1  0     0  0
 34 31  1  0     0  0
 22 24  1  0     0  0
 35 32  2  0     0  0
M  END