
  Mrv0541 04051115152D          

 33 34  0  0  0  0            999 V2000
   -6.6963    1.2856    0.0000 S   0  0  0  0  0  0  0  0  0  0  0  0
   -7.4108    1.6981    0.0000 O   0  0  0  0  0  0  0  0  0  0  0  0
   -7.1088    0.5711    0.0000 O   0  0  0  0  0  0  0  0  0  0  0  0
   -6.2838    2.0000    0.0000 N   0  0  0  0  0  0  0  0  0  0  0  0
   -4.5529    0.0481    0.0000 C   0  0  0  0  0  0  0  0  0  0  0  0
   -5.2674   -0.3644    0.0000 C   0  0  0  0  0  0  0  0  0  0  0  0
   -5.9819    0.0481    0.0000 C   0  0  0  0  0  0  0  0  0  0  0  0
   -5.9819    0.8731    0.0000 C   0  0  0  0  0  0  0  0  0  0  0  0
   -5.2674    1.2856    0.0000 C   0  0  0  0  0  0  0  0  0  0  0  0
   -4.5529    0.8731    0.0000 C   0  0  0  0  0  0  0  0  0  0  0  0
   -3.8385   -0.3644    0.0000 C   0  0  0  0  0  0  0  0  0  0  0  0
   -3.8385   -1.1894    0.0000 O   0  0  0  0  0  0  0  0  0  0  0  0
   -3.1240    0.0481    0.0000 N   0  0  0  0  0  0  0  0  0  0  0  0
   -2.4095   -0.3644    0.0000 C   0  0  0  0  0  0  0  0  0  0  0  0
   -1.6950    0.0481    0.0000 C   0  0  0  0  0  0  0  0  0  0  0  0
   -0.9806   -0.3644    0.0000 O   0  0  0  0  0  0  0  0  0  0  0  0
   -0.2661    0.0481    0.0000 C   0  0  0  0  0  0  0  0  0  0  0  0
    0.4484   -0.3644    0.0000 C   0  0  0  0  0  0  0  0  0  0  0  0
    1.1628    0.0481    0.0000 O   0  0  0  0  0  0  0  0  0  0  0  0
    1.8773   -0.3644    0.0000 C   0  0  0  0  0  0  0  0  0  0  0  0
    2.5918    0.0481    0.0000 C   0  0  0  0  0  0  0  0  0  0  0  0
    3.3063   -0.3644    0.0000 N   0  0  0  0  0  0  0  0  0  0  0  0
    4.0207    0.0481    0.0000 C   0  0  0  0  0  0  0  0  0  0  0  0
    4.0207    0.8731    0.0000 O   0  0  0  0  0  0  0  0  0  0  0  0
    4.7352   -0.3644    0.0000 C   0  0  1  0  0  0  0  0  0  0  0  0
    4.7352   -1.1894    0.0000 N   0  0  0  0  0  0  0  0  0  0  0  0
    5.4497    0.0481    0.0000 C   0  0  0  0  0  0  0  0  0  0  0  0
    6.1641   -0.3644    0.0000 C   0  0  0  0  0  0  0  0  0  0  0  0
    6.8786    0.0481    0.0000 C   0  0  0  0  0  0  0  0  0  0  0  0
    7.5931   -0.3644    0.0000 C   0  0  0  0  0  0  0  0  0  0  0  0
    7.5931   -1.1894    0.0000 C   0  0  0  0  0  0  0  0  0  0  0  0
    6.8786   -1.6019    0.0000 C   0  0  0  0  0  0  0  0  0  0  0  0
    6.1641   -1.1894    0.0000 C   0  0  0  0  0  0  0  0  0  0  0  0
  2  1  2  0  0  0  0
  3  1  2  0  0  0  0
  4  1  1  0  0  0  0
  8  1  1  0  0  0  0
  5  6  2  0  0  0  0
  5 10  1  0  0  0  0
  5 11  1  0  0  0  0
  6  7  1  0  0  0  0
  7  8  2  0  0  0  0
  8  9  1  0  0  0  0
  9 10  2  0  0  0  0
 11 12  2  0  0  0  0
 11 13  1  0  0  0  0
 14 13  1  0  0  0  0
 14 15  1  0  0  0  0
 15 16  1  0  0  0  0
 17 16  1  0  0  0  0
 17 18  1  0  0  0  0
 18 19  1  0  0  0  0
 20 19  1  0  0  0  0
 20 21  1  0  0  0  0
 21 22  1  0  0  0  0
 23 22  1  0  0  0  0
 23 24  2  0  0  0  0
 23 25  1  0  0  0  0
 25 26  1  6  0  0  0
 25 27  1  0  0  0  0
 27 28  1  0  0  0  0
 28 29  2  0  0  0  0
 28 33  1  0  0  0  0
 29 30  1  0  0  0  0
 30 31  2  0  0  0  0
 31 32  1  0  0  0  0
 32 33  2  0  0  0  0
M  END