
          11280715142D 1   1.00000     0.00000     0

 30 33  0     0  0            999 V2000
    2.3292   -4.6167    0.0000 C   0  0  0  0  0  0           0  0  0
    1.5292   -4.7917    0.0000 C   0  0  0  0  0  0           0  0  0
    2.8792   -5.2417    0.0000 C   0  0  3  0  0  0           0  0  0
    1.2750   -5.5792    0.0000 C   0  0  0  0  0  0           0  0  0
    2.6250   -6.0167    0.0000 C   0  0  0  0  0  0           0  0  0
    5.0500   -5.5167    0.0000 N   0  0  3  0  0  0           0  0  0
    6.6625   -5.2042    0.0000 N   0  0  3  0  0  0           0  0  0
    8.8125   -3.3167    0.0000 C   0  0  0  0  0  0           0  0  0
    2.5917   -3.8292    0.0000 O   0  0  0  0  0  0           0  0  0
    9.6167   -3.1542    0.0000 C   0  0  0  0  0  0           0  0  0
    3.6917   -5.0667    0.0000 C   0  0  0  0  0  0           0  0  0
    8.2667   -2.6917    0.0000 O   0  0  0  0  0  0           0  0  0
    9.8792   -2.3792    0.0000 C   0  0  0  0  0  0           0  0  0
   10.1625   -3.7792    0.0000 C   0  0  0  0  0  0           0  0  0
    4.2417   -5.6792    0.0000 C   0  0  0  0  0  0           0  0  0
    5.3042   -4.7417    0.0000 C   0  0  0  0  0  0           0  0  0
    5.5875   -6.1417    0.0000 C   0  0  0  0  0  0           0  0  0
    6.3917   -5.9792    0.0000 C   0  0  0  0  0  0           0  0  0
    6.1167   -4.5792    0.0000 C   0  0  0  0  0  0           0  0  0
   11.2375   -2.8417    0.0000 C   0  0  0  0  0  0           0  0  0
   10.6875   -2.2167    0.0000 C   0  0  0  0  0  0           0  0  0
   10.9667   -3.6167    0.0000 C   0  0  0  0  0  0           0  0  0
   12.0417   -2.6792    0.0000 F   0  0  0  0  0  0           0  0  0
    7.4667   -5.0417    0.0000 C   0  0  0  0  0  0           0  0  0
    0.9792   -4.1792    0.0000 C   0  0  0  0  0  0           0  0  0
    0.4667   -5.7417    0.0000 C   0  0  0  0  0  0           0  0  0
    7.7375   -4.2542    0.0000 C   0  0  0  0  0  0           0  0  0
    8.5417   -4.1042    0.0000 C   0  0  0  0  0  0           0  0  0
    0.1792   -4.3417    0.0000 C   0  0  0  0  0  0           0  0  0
   -0.0833   -5.1292    0.0000 C   0  0  0  0  0  0           0  0  0
  2  1  1  0     0  0
  3  1  1  0     0  0
  4  2  1  0     0  0
  5  3  1  0     0  0
  6 15  1  0     0  0
  7 18  1  0     0  0
  8 28  1  0     0  0
  9  1  2  0     0  0
 10  8  1  0     0  0
 11  3  1  0     0  0
 12  8  2  0     0  0
 13 10  1  0     0  0
 14 10  2  0     0  0
 15 11  1  0     0  0
 16  6  1  0     0  0
 17  6  1  0     0  0
 18 17  1  0     0  0
 19 16  1  0     0  0
 20 22  2  0     0  0
 21 13  2  0     0  0
 22 14  1  0     0  0
 23 20  1  0     0  0
 24  7  1  0     0  0
 25  2  2  0     0  0
 26  4  2  0     0  0
 27 24  1  0     0  0
 28 27  1  0     0  0
 29 25  1  0     0  0
 30 29  2  0     0  0
  5  4  1  0     0  0
 26 30  1  0     0  0
 19  7  1  0     0  0
 21 20  1  0     0  0
M  END