
  SciTegic12191611222D

 26 27  0  0  0  0            999 V2000
   -1.0394    3.6005    0.0000 O   0  0
    0.0000    3.0008    0.0000 S   0  0
   -0.0006    4.2008    0.0000 O   0  0
    7.9939    0.9730    0.0000 C   0  0
    6.8550    0.5950    0.0000 C   0  0
    6.5517   -0.8722    0.0000 C   0  0
    5.2003   -1.4932    0.0000 C   0  0
    5.3382   -2.9741    0.0000 N   0  0
    6.8054   -3.2859    0.0000 C   0  0
    7.5554   -1.9869    0.0000 C   0  0
    9.0451   -1.8272    0.0000 C   0  0
    9.5316   -0.7302    0.0000 O   0  0
    9.7522   -2.7967    0.0000 C   0  0
    7.2935   -4.3822    0.0000 C   0  0
    3.8990   -0.7455    0.0000 C   0  0
    2.6003   -1.4977    0.0000 N   0  0
    1.2990   -0.7500    0.0000 C   0  0
    1.2990    0.7500    0.0000 C   0  0
    0.0000    1.5000    0.0000 C   0  0
   -1.2990    0.7500    0.0000 C   0  0
   -1.2990   -0.7500    0.0000 C   0  0
    0.0000   -1.5000    0.0000 C   0  0
    1.2993    3.7521    0.0000 N   0  0
    1.2992    4.9521    0.0000 C   0  0
    3.8969    0.4545    0.0000 O   0  0
    0.0000   -2.7000    0.0000 C   0  0
  2  1  2  0
  3  2  2  0
  4  5  1  0
  5  6  1  0
  6  7  2  0
  8  7  1  0
  9  8  1  0
 10  9  2  0
  6 10  1  0
 10 11  1  0
 11 12  2  0
 11 13  1  0
  9 14  1  0
  7 15  1  0
 15 16  1  0
 16 17  1  0
 17 18  2  0
 19 18  1  0
 20 19  2  0
 21 20  1  0
 22 21  2  0
 17 22  1  0
 19  2  1  0
  2 23  1  0
 23 24  1  0
 15 25  2  0
 22 26  1  0
M  END