
  SciTegic12171313052D

 38 43  0  0  0  0            999 V2000
   21.5258   -4.7783    0.0000 C   0  0
   22.2383   -5.1908    0.0000 C   0  0
   22.9479   -4.7823    0.0000 C   0  0
   22.9511   -3.9596    0.0000 N   0  0
   22.2386   -3.5471    0.0000 C   0  0
   21.5229   -3.9573    0.0000 C   0  0
   23.6666   -3.5489    0.0000 C   0  0
   24.3801   -3.9633    0.0000 C   0  0
   24.3759   -4.7874    0.0000 C   0  0
   25.0852   -5.2017    0.0000 C   0  0
   25.8031   -4.7945    0.0000 N   0  0
   25.8072   -3.9686    0.0000 C   0  0
   25.0934   -3.5498    0.0000 C   0  0
   20.8447   -5.2438    0.0000 N   0  0
   20.0319   -6.3027    0.0000 N   0  0
   20.8234   -6.0703    0.0000 C   0  0
   19.5663   -5.6215    0.0000 C   0  0
   20.0711   -4.9692    0.0000 C   0  0
   19.7583   -4.2080    0.0000 C   0  0
   18.9411   -4.0980    0.0000 C   0  0
   18.4376   -4.7553    0.0000 C   0  0
   18.7531   -5.5138    0.0000 C   0  0
   26.5150   -5.2116    0.0000 C   0  0
   27.2320   -4.8036    0.0000 C   0  0
   27.9421   -5.2252    0.0000 C   0  0
   28.6587   -4.8180    0.0000 C   0  0
   28.6644   -3.9921    0.0000 N   0  0
   27.9475   -3.5752    0.0000 C   0  0
   27.2338   -3.9848    0.0000 C   0  0
   21.4775   -6.5732    0.0000 O   0  0
   23.6688   -2.7239    0.0000 O   0  0
   29.3703   -5.2353    0.0000 N   0  0
   17.6238   -4.6485    0.0000 F   0  0
   19.7545   -7.0797    0.0000 C   0  0
   18.9629   -7.3136    0.0000 C   0  0
   18.9393   -8.1383    0.0000 C   0  0
   19.7163   -8.4156    0.0000 C   0  0
   20.2201   -7.7623    0.0000 C   0  0
  1  2  1  0
  1  6  1  0
  2  3  1  0
  3  4  1  0
  4  5  1  0
  5  6  1  0
  4  7  1  0
  7  8  1  0
  8  9  1  0
  8 13  1  0
  9 10  1  0
 10 11  1  0
 11 12  1  0
 12 13  1  0
  1 14  1  0
 14 18  1  0
 17 15  1  0
 15 16  1  0
 16 14  1  0
 17 18  2  0
 18 19  1  0
 19 20  2  0
 20 21  1  0
 21 22  2  0
 22 17  1  0
 11 23  1  0
 23 24  1  0
 24 25  2  0
 25 26  1  0
 26 27  2  0
 27 28  1  0
 28 29  2  0
 29 24  1  0
 16 30  2  0
  7 31  2  0
 26 32  1  0
 21 33  1  0
 15 34  1  0
 34 35  1  0
 35 36  1  0
 36 37  1  0
 37 38  1  0
 38 34  1  0
M  END