
  CDK    9/16/09,9:51

 29 32  0  0  0  0  0  0  0  0999 V2000
   -2.4276  -16.8706    0.0000 C   0  0  0  0  0  0  0  0  0  0  0  0
   -2.8211  -17.6009    0.0000 N   0  0  0  0  0  0  0  0  0  0  0  0
   -2.3877  -18.3030    0.0000 C   0  0  0  0  0  0  0  0  0  0  0  0
   -1.5591  -18.2809    0.0000 C   0  0  0  0  0  0  0  0  0  0  0  0
   -1.1656  -17.5506    0.0000 N   0  0  0  0  0  0  0  0  0  0  0  0
   -1.6008  -16.8423    0.0000 C   0  0  0  0  0  0  0  0  0  0  0  0
   -0.3409  -17.5271    0.0000 C   0  0  0  0  0  0  0  0  0  0  0  0
    0.0917  -18.2296    0.0000 C   0  0  0  0  0  0  0  0  0  0  0  0
   -0.2253  -18.9910    0.0000 C   0  0  0  0  0  0  0  0  0  0  0  0
    0.4033  -19.5254    0.0000 S   0  0  0  0  0  0  0  0  0  0  0  0
    1.1057  -19.0928    0.0000 C   0  0  0  0  0  0  0  0  0  0  0  0
    0.9113  -18.2911    0.0000 C   0  0  0  0  0  0  0  0  0  0  0  0
    1.4452  -17.6621    0.0000 C   0  0  0  0  0  0  0  0  0  0  0  0
    2.2568  -17.8100    0.0000 O   0  0  0  0  0  0  0  0  0  0  0  0
    1.1675  -16.8853    0.0000 C   0  0  0  0  0  0  0  0  0  0  0  0
    1.7006  -16.2596    0.0000 C   0  0  0  0  0  0  0  0  0  0  0  0
    1.4234  -15.4833    0.0000 C   0  0  0  0  0  0  0  0  0  0  0  0
    0.6111  -15.3348    0.0000 C   0  0  0  0  0  0  0  0  0  0  0  0
    0.0763  -15.9687    0.0000 C   0  0  0  0  0  0  0  0  0  0  0  0
    0.3564  -16.7425    0.0000 C   0  0  0  0  0  0  0  0  0  0  0  0
    0.3322  -14.5583    0.0000 Cl  0  0  0  0  0  0  0  0  0  0  0  0
    1.8687  -19.4067    0.0000 N   0  0  0  0  0  0  0  0  0  0  0  0
   -3.6457  -17.6253    0.0000 C   0  0  0  0  0  0  0  0  0  0  0  0
   -4.0744  -16.9210    0.0000 C   0  0  0  0  0  0  0  0  0  0  0  0
   -4.8983  -16.9450    0.0000 C   0  0  0  0  0  0  0  0  0  0  0  0
   -5.2903  -17.6719    0.0000 C   0  0  0  0  0  0  0  0  0  0  0  0
   -4.8525  -18.3761    0.0000 C   0  0  0  0  0  0  0  0  0  0  0  0
   -4.0301  -18.3487    0.0000 C   0  0  0  0  0  0  0  0  0  0  0  0
   -6.1150  -17.6972    0.0000 C   0  0  0  0  0  0  0  0  0  0  0  0
 13 14  2  0  0  0  0 
  5  7  1  0  0  0  0 
 13 15  1  0  0  0  0 
  1  2  1  0  0  0  0 
 15 16  2  0  0  0  0 
  7  8  1  0  0  0  0 
 16 17  1  0  0  0  0 
  8  9  2  0  0  0  0 
 17 18  2  0  0  0  0 
  1  6  1  0  0  0  0 
 18 19  1  0  0  0  0 
  2  3  1  0  0  0  0 
 19 20  2  0  0  0  0 
 20 15  1  0  0  0  0 
  3  4  1  0  0  0  0 
 18 21  1  0  0  0  0 
  4  5  1  0  0  0  0 
 11 22  1  0  0  0  0 
  9 10  1  0  0  0  0 
  2 23  1  0  0  0  0 
 10 11  1  0  0  0  0 
 23 24  2  0  0  0  0 
 11 12  2  0  0  0  0 
 24 25  1  0  0  0  0 
 12  8  1  0  0  0  0 
 25 26  2  0  0  0  0 
  5  6  1  0  0  0  0 
 26 27  1  0  0  0  0 
 12 13  1  0  0  0  0 
 27 28  2  0  0  0  0 
 28 23  1  0  0  0  0 
 26 29  1  0  0  0  0 
M  END