
  SciTegic11201309402D

 58 61  0  0  1  0            999 V2000
    2.7042   -4.9875    0.0000 C   0  0
    1.6250   -1.6000    0.0000 N   0  0
    1.6250   -2.4250    0.0000 C   0  0
    1.8917   -4.8417    0.0000 C   0  0
    1.6167   -3.2500    0.0000 C   0  0
    1.6167   -4.0667    0.0000 O   0  0
    6.0667   -7.0000    0.0000 O   0  0
    2.9667   -5.7667    0.0000 C   0  0
    3.0542   -1.6000    0.0000 C   0  0
    5.3375   -7.3875    0.0000 C   0  0
    3.7667   -1.1875    0.0000 O   0  0
    6.9542   -5.0917    0.0000 C   0  0
    2.3375   -1.1875    0.0000 C   0  0  2  0  0  0
    4.5792   -6.1250    0.0000 O   0  0
    3.7792   -5.9250    0.0000 C   0  0  2  0  0  0
    4.6375   -6.9500    0.0000 C   0  0
    6.8667   -1.3292    0.0000 C   0  0
    3.7625   -0.3625    0.0000 C   0  0  1  0  0  0
    6.9917    0.0958    0.0000 C   0  0
    7.3417   -0.6500    0.0000 C   0  0
    3.2500   -4.3625    0.0000 O   0  0
    2.4417   -2.4250    0.0000 O   0  0
    6.6167   -4.1750    0.0000 O   0  0
    1.3667   -5.4750    0.0000 O   0  0
    2.4167   -6.3875    0.0000 O   0  0
    0.7917   -3.2417    0.0000 O   0  0
    7.2167   -2.0750    0.0000 C   0  0
    3.0500   -2.4250    0.0000 O   0  0
    5.3042   -8.2125    0.0000 O   0  0
    7.7292   -4.9667    0.0000 O   0  0
    3.3417   -6.6250    0.0000 C   0  0
    0.8917    1.2625    0.0000 N   0  0
    3.8750   -7.2625    0.0000 C   0  0
    6.1750    0.1625    0.0000 C   0  0
    7.4667    0.7708    0.0000 O   0  0
    4.8625   -0.0292    0.0000 C   0  0  1  0  0  0
    3.0417    0.0458    0.0000 C   0  0
    5.7000   -0.5125    0.0000 C   0  0
    8.6417   -0.0500    0.0000 C   0  0
    9.4625   -0.1250    0.0000 C   0  0
    0.9167   -1.1875    0.0000 C   0  0
    3.0292    0.8708    0.0000 C   0  0
    2.3167    1.2750    0.0000 C   0  0
    8.1667   -0.7250    0.0000 C   0  0
    2.3375   -0.3625    0.0000 C   0  0
    1.6042    0.8500    0.0000 C   0  0
    0.8792    2.0875    0.0000 C   0  0
    8.0417   -2.1500    0.0000 C   0  0
    7.1042   -3.7167    0.0000 C   0  0
    6.6042   -2.5625    0.0000 C   0  0
    4.8625    0.9083    0.0000 C   0  0
    2.3125    2.1000    0.0000 C   0  0
    0.9167   -0.3625    0.0000 C   0  0
    7.1417   -2.8417    0.0000 C   0  0
    1.5917    2.5208    0.0000 C   0  0
    1.6250    0.0500    0.0000 C   0  0
    2.8620   -6.3235    0.0000 H   0  0
    3.2032   -0.6869    0.0000 H   0  0
  2  3  1  0
  3  5  1  0
  4  1  1  0
  5  6  1  0
  6  4  1  0
  7 10  1  0
  8  1  1  0
 13  9  1  0
 10 16  1  0
 11  9  1  0
 12  7  1  0
 13  2  1  0
 14 15  1  0
 15  8  1  0
 16 14  1  0
 17 27  2  0
 18 11  1  0
 19 34  1  0
 20 17  1  0
 21  1  2  0
 22  3  2  0
 23 12  1  0
 24  4  2  0
 25  8  2  0
 26  5  2  0
 27 50  1  0
 28  9  2  0
 29 10  2  0
 30 12  2  0
 31 15  1  0
 32 46  2  0
 33 31  1  0
 34 38  1  0
 35 19  2  0
 36 18  1  0
 18 37  1  6
 38 36  1  0
 39 44  1  0
 40 39  2  0
 41  2  1  0
 42 37  1  0
 43 42  1  0
 44 20  1  0
 45 13  1  0
 46 43  1  0
 47 55  2  0
 48 27  1  0
 49 23  1  0
 50 54  1  0
 36 51  1  6
 52 43  2  0
 53 41  1  0
 54 49  1  0
 55 52  1  0
 56 53  1  0
 15 57  1  1
 16 33  1  0
 56 45  1  0
 20 19  1  0
 47 32  1  0
 13 58  1  6
M  END