
          11280714442D 1   1.00000     0.00000     0

 36 40  0     1  0            999 V2000
   -0.7333   -1.7417    0.0000 N   0  0  3  0  0  0           0  0  0
    0.0292   -1.4417    0.0000 C   0  0  0  0  0  0           0  0  0
    0.5542   -2.0792    0.0000 N   0  0  3  0  0  0           0  0  0
   -0.7458   -2.5667    0.0000 C   0  0  0  0  0  0           0  0  0
    0.1042   -2.7667    0.0000 C   0  0  0  0  0  0           0  0  0
    1.6042    1.5708    0.0000 C   0  0  0  0  0  0           0  0  0
    0.3792    1.0458    0.0000 N   0  0  0  0  0  0           0  0  0
    1.1917    0.8708    0.0000 N   0  0  0  0  0  0           0  0  0
    0.3042    1.8583    0.0000 N   0  0  0  0  0  0           0  0  0
    1.0542    2.1833    0.0000 N   0  0  0  0  0  0           0  0  0
   -1.4208   -1.2667    0.0000 C   0  0  2  0  0  0           0  0  0
    2.4292    1.6208    0.0000 C   0  0  0  0  0  0           0  0  0
    2.8792    0.9208    0.0000 C   0  0  0  0  0  0           0  0  0
    1.6792    0.1333    0.0000 N   0  0  0  0  0  0           0  0  0
    1.3792   -2.0292    0.0000 C   0  0  0  0  0  0           0  0  0
    2.5042    0.1833    0.0000 C   0  0  0  0  0  0           0  0  0
    0.2417   -0.6417    0.0000 O   0  0  0  0  0  0           0  0  0
    1.7542   -1.2917    0.0000 C   0  0  0  0  0  0           0  0  0
   -2.1708   -1.6292    0.0000 C   0  0  2  0  0  0           0  0  0
   -1.3458   -0.4542    0.0000 C   0  0  1  0  0  0           0  0  0
    1.3042   -0.6042    0.0000 C   0  0  0  0  0  0           0  0  0
    2.9542   -0.5167    0.0000 C   0  0  0  0  0  0           0  0  0
    2.5792   -1.2542    0.0000 C   0  0  0  0  0  0           0  0  0
    0.4042   -3.5542    0.0000 C   0  0  0  0  0  0           0  0  0
    2.8042    2.3583    0.0000 C   0  0  0  0  0  0           0  0  0
    3.7042    0.9708    0.0000 C   0  0  0  0  0  0           0  0  0
   -2.7708   -0.3292    0.0000 C   0  0  0  0  0  0           0  0  0
   -2.0333    0.0208    0.0000 C   0  0  0  0  0  0           0  0  0
   -2.8458   -1.1542    0.0000 C   0  0  0  0  0  0           0  0  0
   -0.6083   -0.0917    0.0000 C   0  0  0  0  0  0           0  0  0
   -2.2333   -2.4542    0.0000 C   0  0  0  0  0  0           0  0  0
    1.2292   -3.6792    0.0000 C   0  0  0  0  0  0           0  0  0
    1.5292   -4.4417    0.0000 C   0  0  0  0  0  0           0  0  0
    3.6292    2.4083    0.0000 C   0  0  0  0  0  0           0  0  0
    4.0792    1.6958    0.0000 C   0  0  0  0  0  0           0  0  0
    2.3542   -4.5667    0.0000 C   0  0  0  0  0  0           0  0  0
  2  1  1  0     0  0
  3  2  1  0     0  0
  4  1  1  0     0  0
  5  4  2  0     0  0
  6 12  1  0     0  0
  7  8  2  0     0  0
  8  6  1  0     0  0
  9 10  1  0     0  0
 10  6  2  0     0  0
 11  1  1  6     0  0
 12 13  2  0     0  0
 13 16  1  0     0  0
 14 21  2  0     0  0
 15  3  1  0     0  0
 16 22  2  0     0  0
 17  2  2  0     0  0
 18 15  1  0     0  0
 19 11  1  0     0  0
 20 11  1  0     0  0
 21 18  1  0     0  0
 22 23  1  0     0  0
 23 18  2  0     0  0
 24  5  1  0     0  0
 25 12  1  0     0  0
 26 13  1  0     0  0
 27 28  1  0     0  0
 28 20  1  0     0  0
 29 19  1  0     0  0
 20 30  1  1     0  0
 19 31  1  1     0  0
 32 24  1  0     0  0
 33 32  1  0     0  0
 34 35  1  0     0  0
 35 26  2  0     0  0
 36 33  1  0     0  0
  3  5  1  0     0  0
 27 29  1  0     0  0
 16 14  1  0     0  0
 25 34  2  0     0  0
  7  9  1  0     0  0
M  END