
  SciTegic01161211252D

 28 30  0  0  0  0            999 V2000
   16.7753  -15.0143    0.0000 C   0  0
   13.2048  -15.4351    0.0000 C   0  0
   13.2036  -16.2622    0.0000 C   0  0
   13.9184  -16.6751    0.0000 C   0  0
   14.6347  -16.2618    0.0000 C   0  0
   14.6318  -15.4314    0.0000 C   0  0
   13.9165  -15.0223    0.0000 C   0  0
   12.4890  -16.6742    0.0000 N   0  0
   11.7749  -16.2611    0.0000 C   0  0
   11.0603  -16.6730    0.0000 N   0  0
   11.7756  -15.4363    0.0000 O   0  0
   10.3462  -16.2595    0.0000 C   0  0
   10.0724  -15.4803    0.0000 C   0  0
    9.2468  -15.4959    0.0000 C   0  0
    9.0079  -16.2867    0.0000 O   0  0
    9.6868  -16.7570    0.0000 N   0  0
    8.7485  -14.8385    0.0000 C   0  0
    9.1241  -14.1040    0.0000 C   0  0
    7.9247  -14.8804    0.0000 C   0  0
    8.2226  -14.1931    0.0000 C   0  0
   17.4894  -15.4294    0.0000 C   0  0
   18.2037  -15.0183    0.0000 C   0  0
   16.7746  -14.1930    0.0000 N   0  0
   17.4860  -13.7795    0.0000 C   0  0
   18.2032  -14.1940    0.0000 C   0  0
   16.0606  -15.4260    0.0000 N   0  0
   15.3447  -15.0162    0.0000 C   0  0
   15.3416  -14.1912    0.0000 O   0  0
  3  8  1  0
 12 13  1  0
 14 15  1  0
 15 16  1  0
 16 12  2  0
  4  5  2  0
 14 17  1  0
  8  9  1  0
 17 18  1  0
 17 19  1  0
  9 10  1  0
 17 20  1  0
  5  6  1  0
  6 27  1  0
  9 11  2  0
 27 26  1  0
  3  4  1  0
 26  1  1  0
 10 12  1  0
  1 21  2  0
 13 14  2  0
 21 22  1  0
 22 25  2  0
  6  7  2  0
 24 23  2  0
 23  1  1  0
  7  2  1  0
  2  3  2  0
 24 25  1  0
 27 28  2  0
M  END