
          11280714492D 1   1.00000     0.00000     0

 28 31  0     1  0            999 V2000
    2.4792   -2.9500    0.0000 N   0  0  3  0  0  0           0  0  0
    1.7167   -2.6375    0.0000 C   0  0  0  0  0  0           0  0  0
    1.7792   -1.8167    0.0000 C   0  0  2  0  0  0           0  0  0
    2.5792   -1.6292    0.0000 C   0  0  2  0  0  0           0  0  0
    1.0917   -1.3500    0.0000 N   0  0  0  0  0  0           0  0  0
    3.0042   -2.3292    0.0000 C   0  0  0  0  0  0           0  0  0
    0.3542   -1.7042    0.0000 C   0  0  0  0  0  0           0  0  0
    2.9042   -0.8667    0.0000 C   0  0  0  0  0  0           0  0  0
   -0.3333   -1.2417    0.0000 C   0  0  0  0  0  0           0  0  0
   -1.0708   -1.6125    0.0000 C   0  0  0  0  0  0           0  0  0
    2.6292   -3.7542    0.0000 C   0  0  0  0  0  0           0  0  0
    1.0042   -3.0667    0.0000 O   0  0  0  0  0  0           0  0  0
   -1.7583   -1.1625    0.0000 C   0  0  0  0  0  0           0  0  0
    0.2917   -2.5292    0.0000 O   0  0  0  0  0  0           0  0  0
    2.4042   -0.2042    0.0000 O   0  0  0  0  0  0           0  0  0
   -0.2958   -0.4125    0.0000 C   0  0  0  0  0  0           0  0  0
   -1.7083   -0.3417    0.0000 C   0  0  0  0  0  0           0  0  0
   -0.9833    0.0333    0.0000 C   0  0  0  0  0  0           0  0  0
    3.7167   -0.7667    0.0000 O   0  0  0  0  0  0           0  0  0
   -2.4958   -1.5375    0.0000 C   0  0  0  0  0  0           0  0  0
    2.0042   -4.2917    0.0000 C   0  0  0  0  0  0           0  0  0
    3.4042   -4.0250    0.0000 C   0  0  0  0  0  0           0  0  0
   -2.3958    0.1083    0.0000 C   0  0  0  0  0  0           0  0  0
   -3.1833   -1.0917    0.0000 C   0  0  0  0  0  0           0  0  0
    3.5667   -4.8417    0.0000 C   0  0  0  0  0  0           0  0  0
    2.1542   -5.1125    0.0000 C   0  0  0  0  0  0           0  0  0
   -3.1333   -0.2542    0.0000 C   0  0  0  0  0  0           0  0  0
    2.9417   -5.3792    0.0000 C   0  0  0  0  0  0           0  0  0
  2  1  1  0     0  0
  3  2  1  0     0  0
  4  6  1  0     0  0
  3  5  1  1     0  0
  6  1  1  0     0  0
  7  5  1  0     0  0
  4  8  1  1     0  0
  9  7  1  0     0  0
 10  9  2  0     0  0
 11  1  1  0     0  0
 12  2  2  0     0  0
 13 10  1  0     0  0
 14  7  2  0     0  0
 15  8  2  0     0  0
 16  9  1  0     0  0
 17 18  1  0     0  0
 18 16  2  0     0  0
 19  8  1  0     0  0
 20 13  1  0     0  0
 21 11  2  0     0  0
 22 11  1  0     0  0
 23 17  1  0     0  0
 24 20  2  0     0  0
 25 22  2  0     0  0
 26 21  1  0     0  0
 27 23  2  0     0  0
 28 25  1  0     0  0
  3  4  1  0     0  0
 28 26  2  0     0  0
 17 13  2  0     0  0
 24 27  1  0     0  0
M  END