
  SciTegic12131615092D

 19 21  0  0  0  0            999 V2000
   -2.6111    0.7486    0.0000 C   0  0
   -2.6111   -0.7486    0.0000 C   0  0
   -1.2964   -1.4973    0.0000 C   0  0
   -1.2964    1.4973    0.0000 C   0  0
    0.0000    0.7486    0.0000 C   0  0
    0.0000   -0.7486    0.0000 C   0  0
    1.2964   -1.4973    0.0000 C   0  0
    2.5929   -0.7486    0.0000 C   0  0
    2.5929    0.7486    0.0000 C   0  0
    1.2964    1.4973    0.0000 N   0  0
   -3.9091   -1.5019    0.0000 C   0  0
   -3.9067   -3.0027    0.0000 N   0  0
   -5.2558   -3.6751    0.0000 C   0  0
   -5.5842   -5.1387    0.0000 C   0  0
   -2.5529   -3.6653    0.0000 C   0  0
   -4.6448   -6.3080    0.0000 N   0  0
   -2.2138   -5.1265    0.0000 C   0  0
   -3.1448   -6.3026    0.0000 C   0  0
   -5.1615   -7.3911    0.0000 C   0  0
  1  2  2  0
  2  3  1  0
  3  6  2  0
  5  4  2  0
  4  1  1  0
  5  6  1  0
  6  7  1  0
  7  8  2  0
  8  9  1  0
  9 10  2  0
 10  5  1  0
  2 11  1  0
 11 12  1  0
 12 13  1  0
 13 14  1  0
 12 15  1  0
 14 16  1  0
 15 17  1  0
 16 18  1  0
 17 18  1  0
 16 19  1  0
M  END