
          02060813472D 1   1.00000     0.00000     0

 26 27  0     1  0            999 V2000
    7.1332  -11.6810    0.0000 N   0  0  0  0  0  0           0  0  0
    7.0285  -10.8626    0.0000 C   0  0  2  0  0  0           0  0  0
    7.6848  -10.3628    0.0000 C   0  0  0  0  0  0           0  0  0
    6.2674  -10.5442    0.0000 C   0  0  0  0  0  0           0  0  0
    8.4711  -10.6038    0.0000 N   0  0  0  0  0  0           0  0  0
    8.9415   -9.9249    0.0000 C   0  0  0  0  0  0           0  0  0
    8.4399   -9.2685    0.0000 C   0  0  0  0  0  0           0  0  0
    7.6612   -9.5439    0.0000 O   0  0  0  0  0  0           0  0  0
    9.7663   -9.9057    0.0000 C   0  0  0  0  0  0           0  0  0
   10.1953  -10.6104    0.0000 N   0  0  3  0  0  0           0  0  0
   10.1620   -9.1818    0.0000 O   0  0  0  0  0  0           0  0  0
    9.8801  -11.3743    0.0000 C   0  0  0  0  0  0           0  0  0
   10.5059  -11.9119    0.0000 C   0  0  0  0  0  0           0  0  0
   11.0202  -10.6802    0.0000 C   0  0  2  0  0  0           0  0  0
   11.5587  -10.0551    0.0000 C   0  0  0  0  0  0           0  0  0
   12.3693  -10.2085    0.0000 N   0  0  0  0  0  0           0  0  0
   11.2866   -9.2763    0.0000 O   0  0  0  0  0  0           0  0  0
   12.7751  -10.9268    0.0000 C   0  0  2  0  0  0           0  0  0
   13.6001  -10.9344    0.0000 C   0  0  0  0  0  0           0  0  0
   12.3560  -11.6373    0.0000 C   0  0  1  0  0  0           0  0  0
   11.2923  -11.4590    0.0000 C   0  0  0  0  0  0           0  0  0
   12.7618  -12.3556    0.0000 C   0  0  0  0  0  0           0  0  0
   14.0059  -11.6527    0.0000 O   0  0  0  0  0  0           0  0  0
   14.0192  -10.2238    0.0000 O   0  0  0  0  0  0           0  0  0
   11.5310  -11.6297    0.0000 C   0  0  0  0  0  0           0  0  0
   11.1119  -12.3403    0.0000 C   0  0  0  0  0  0           0  0  0
  3  5  2  0     0  0
 12 13  1  0     0  0
 13 21  1  0     0  0
 21 14  1  0     0  0
 14 10  1  0     0  0
  6  7  2  0     0  0
 14 15  1  6     0  0
  7  8  1  0     0  0
 15 16  1  0     0  0
  8  3  1  0     0  0
 15 17  2  0     0  0
  5  6  1  0     0  0
 18 16  1  6     0  0
  6  9  1  0     0  0
 18 19  1  0     0  0
 20 18  1  0     0  0
  9 10  1  0     0  0
  2  3  1  0     0  0
 20 22  1  1     0  0
  9 11  2  0     0  0
 19 23  1  0     0  0
 10 12  1  0     0  0
 19 24  2  0     0  0
  1  2  1  0     0  0
 20 25  1  0     0  0
  2  4  1  1     0  0
 25 26  1  0     0  0
M  END