
  SciTegic09261414462D

 29 32  0  0  0  0            999 V2000
   35.3084   -4.1269    0.0000 N   0  0
   36.1256   -4.1273    0.0000 N   0  0
   36.3800   -3.3506    0.0000 C   0  0
   35.7170   -2.8684    0.0000 C   0  0
   35.0583   -3.3506    0.0000 C   0  0
   34.2810   -3.0984    0.0000 O   0  0
   37.1575   -3.0991    0.0000 O   0  0
   34.8896   -4.8254    0.0000 C   0  0
   34.0714   -4.8119    0.0000 C   0  0
   33.6524   -5.5126    0.0000 C   0  0
   34.0505   -6.2273    0.0000 C   0  0
   34.8719   -6.2369    0.0000 C   0  0
   35.2872   -5.5355    0.0000 C   0  0
   35.7158   -2.0512    0.0000 C   0  0
   35.0074   -1.6437    0.0000 C   0  0
   34.9237   -0.8266    0.0000 C   0  0
   34.1241   -0.6579    0.0000 C   0  0
   33.7165   -1.3663    0.0000 C   0  0
   34.2643   -1.9727    0.0000 O   0  0
   32.9042   -1.4481    0.0000 C   0  0
   32.4232   -0.7861    0.0000 C   0  0
   31.6114   -0.8724    0.0000 C   0  0
   31.2794   -1.6201    0.0000 C   0  0
   31.7654   -2.2823    0.0000 C   0  0
   32.5756   -2.1927    0.0000 C   0  0
   30.4666   -1.7103    0.0000 C   0  0
   29.9843   -1.0506    0.0000 O   0  0
   30.1364   -2.4578    0.0000 O   0  0
   35.2724   -6.9492    0.0000 F   0  0
  1  2  1  0
  2  3  1  0
  3  4  1  0
  4  5  1  0
  5  1  1  0
  5  6  2  0
  3  7  2  0
  8  9  2  0
  9 10  1  0
 10 11  2  0
 11 12  1  0
 12 13  2  0
 13  8  1  0
  1  8  1  0
  4 14  2  0
 14 15  1  0
 15 16  2  0
 16 17  1  0
 17 18  2  0
 18 19  1  0
 19 15  1  0
 20 21  2  0
 21 22  1  0
 22 23  2  0
 23 24  1  0
 24 25  2  0
 25 20  1  0
 18 20  1  0
 26 27  1  0
 26 28  2  0
 23 26  1  0
 12 29  1  0
M  END