
  SciTegic01161211222D

 26 27  0  0  0  0            999 V2000
    5.7464    1.1947    0.0000 C   0  0
    5.7453    0.3675    0.0000 C   0  0
    6.4596   -0.0453    0.0000 C   0  0
    6.4579    1.6074    0.0000 C   0  0
    7.1728    1.1981    0.0000 C   0  0
    7.1760    0.3654    0.0000 C   0  0
    7.8947   -0.0459    0.0000 O   0  0
    8.6149    0.3710    0.0000 C   0  0
    8.6117    1.2037    0.0000 C   0  0  2  0  0  0
    7.8883    1.6196    0.0000 O   0  0
    9.3250    1.6183    0.0000 C   0  0
   10.0406    1.2078    0.0000 N   0  0
   10.7539    1.6224    0.0000 C   0  0
   11.4696    1.2119    0.0000 C   0  0
   12.1828    1.6265    0.0000 O   0  0
   12.8985    1.2160    0.0000 C   0  0
   12.8958    0.3921    0.0000 C   0  0
   13.6107   -0.0183    0.0000 C   0  0
   14.3250    0.3964    0.0000 C   0  0
   14.3199    1.2255    0.0000 C   0  0
   13.6045    1.6322    0.0000 C   0  0
   13.5980    2.4572    0.0000 O   0  0
   12.1812   -0.0202    0.0000 O   0  0
   12.1809   -0.8451    0.0000 C   0  0
   14.3092    2.8753    0.0000 C   0  0
    9.8182    2.0430    0.0000 Cl  0  0
 11 12  1  0
  1  2  2  0
 12 13  1  0
 13 14  1  0
  2  3  1  0
 14 15  1  0
  3  6  2  0
 15 16  1  0
 16 17  2  0
  5  4  2  0
 17 18  1  0
  5 10  1  0
 18 19  2  0
  6  7  1  0
 19 20  1  0
  7  8  1  0
 20 21  2  0
 21 16  1  0
  8  9  1  0
 21 22  1  0
  9 10  1  0
 17 23  1  0
  4  1  1  0
 23 24  1  0
  9 11  1  6
 22 25  1  0
  5  6  1  0
M  END