
  SciTegic06231514502D

 25 28  0  0  1  0            999 V2000
    7.3719  -13.2728    0.0000 C   0  0  2  0  0  0
    9.5182  -12.0251    0.0000 C   0  0  1  0  0  0
    8.0759  -12.8493    0.0000 C   0  0  2  0  0  0
    9.5182  -12.8493    0.0000 C   0  0  2  0  0  0
    8.7971  -13.2728    0.0000 C   0  0  2  0  0  0
    7.3719  -14.0970    0.0000 C   0  0  1  0  0  0
   10.2909  -11.7790    0.0000 C   0  0
    8.7971  -11.6130    0.0000 C   0  0
    8.0759  -12.0251    0.0000 C   0  0
    6.6507  -12.8493    0.0000 C   0  0
   10.2909  -13.1068    0.0000 C   0  0
    8.7971  -14.0970    0.0000 C   0  0
    8.0759  -14.4977    0.0000 C   0  0
   10.7831  -12.4372    0.0000 C   0  0
    6.6507  -14.4977    0.0000 C   0  0
   10.5656  -10.9777    0.0000 O   0  0
    5.9410  -13.2728    0.0000 C   0  0
    5.9410  -14.0970    0.0000 C   0  0  1  0  0  0
    7.3719  -12.4372    0.0000 C   0  0
    9.5182  -11.1952    0.0000 C   0  0
    5.2084  -14.5148    0.0000 O   0  0
    7.3719  -14.9212    0.0000 H   0  0
    8.7971  -12.4478    0.0000 H   0  0
    8.0759  -13.6743    0.0000 H   0  0
    9.6044  -13.6698    0.0000 H   0  0
  2  8  1  0
  3  1  1  0
  4  5  1  0
  5  3  1  0
  6  1  1  0
  7  2  1  0
  8  9  1  0
  9  3  1  0
 10  1  1  0
 11  4  1  0
 12 13  1  0
 13  6  1  0
 14 11  1  0
 15  6  1  0
 16  7  2  0
 17 10  1  0
 18 17  1  0
  1 19  1  1
  2 20  1  1
 18 21  1  6
  6 22  1  6
 15 18  1  0
  5 12  1  0
  2  4  1  0
  7 14  1  0
  5 23  1  1
  3 24  1  6
  4 25  1  6
M  END