
  SciTegic11201309402D

 44 46  0  0  1  0            999 V2000
    4.9042   -5.6167    0.0000 N   0  0
   11.6792   -7.8167    0.0000 N   0  3
    5.8042   -6.7625    0.0000 C   0  0
    5.6542   -5.9542    0.0000 C   0  0  2  0  0  0
    8.0125   -6.9042    0.0000 C   0  0
    6.5875   -7.0375    0.0000 N   0  0
    4.2042   -5.1792    0.0000 C   0  0
    7.2625   -6.5625    0.0000 C   0  0  1  0  0  0
    2.0375   -5.4875    0.0000 C   0  0
    8.6875   -6.4292    0.0000 N   0  0
    0.7000   -5.4250    0.0000 N   0  0
    2.7792   -5.1292    0.0000 N   0  0
   10.9292   -7.4667    0.0000 C   0  0
   -0.0208   -5.0167    0.0000 C   0  0
   11.7542   -8.6375    0.0000 O   0  5
    1.3750   -4.9875    0.0000 C   0  0  1  0  0  0
   12.3542   -7.3417    0.0000 O   0  0
   -2.1625   -5.4292    0.0000 C   0  0
    3.4792   -5.5667    0.0000 C   0  0
    5.1792   -7.3042    0.0000 O   0  0
    8.0875   -7.7292    0.0000 O   0  0
    7.1875   -5.7375    0.0000 C   0  0
    4.2375   -4.3542    0.0000 O   0  0
    2.0167   -6.3125    0.0000 O   0  0
   -0.0208   -4.1875    0.0000 O   0  0
   -2.1625   -6.2542    0.0000 O   0  0
   10.8542   -6.6417    0.0000 C   0  0
   10.2542   -7.9417    0.0000 C   0  0
    9.4292   -6.7792    0.0000 C   0  0
    5.0167   -4.8042    0.0000 C   0  0
   -0.7333   -5.4292    0.0000 C   0  0
   -1.4458   -5.0167    0.0000 C   0  0
   -2.8750   -5.0167    0.0000 O   0  0
   10.1042   -6.3042    0.0000 C   0  0
    9.5042   -7.6000    0.0000 C   0  0
    7.8625   -5.2625    0.0000 C   0  0
    6.2250   -5.3542    0.0000 C   0  0
    5.8375   -4.6542    0.0000 C   0  0
    1.3792   -4.1542    0.0000 C   0  0
    7.7792   -4.4417    0.0000 C   0  0
    8.6042   -5.6125    0.0000 C   0  0
    9.2792   -5.1375    0.0000 C   0  0
    8.4542   -3.9667    0.0000 C   0  0
    9.2042   -4.3167    0.0000 C   0  0
  2 13  1  0
  4  3  1  1
  4  1  1  0
  5  8  1  0
  6  3  1  0
  7  1  1  0
  8  6  1  1
  9 12  1  0
 10  5  1  0
 11 16  1  0
 12 19  1  0
 13 28  2  0
 14 11  1  0
 15  2  1  0
 16  9  1  0
 17  2  2  0
 18 32  1  0
 19  7  1  0
 20  3  2  0
 21  5  2  0
  8 22  1  0
 23  7  2  0
 24  9  2  0
 25 14  2  0
 26 18  2  0
 27 34  2  0
 28 35  1  0
 29 10  1  0
 30  1  1  0
 31 14  1  0
 32 31  1  0
 33 18  1  0
 34 29  1  0
 35 29  2  0
 36 22  1  0
  4 37  1  0
 38 30  1  0
 16 39  1  1
 40 36  1  0
 41 36  2  0
 42 41  1  0
 43 40  2  0
 44 42  2  0
 38 37  1  0
 44 43  1  0
 13 27  1  0
M  CHG  2   2   1  15  -1
M  END