
  CDK    9/16/09,9:56

 26 29  0  0  0  0  0  0  0  0999 V2000
   13.4292   -6.5542    0.0000 C   0  0  0  0  0  0  0  0  0  0  0  0
   13.4292   -7.3838    0.0000 C   0  0  0  0  0  0  0  0  0  0  0  0
   14.1437   -7.7963    0.0000 N   0  0  0  0  0  0  0  0  0  0  0  0
   14.8627   -7.3838    0.0000 C   0  0  0  0  0  0  0  0  0  0  0  0
   14.8627   -6.5542    0.0000 C   0  0  0  0  0  0  0  0  0  0  0  0
   14.1437   -6.1371    0.0000 O   0  0  0  0  0  0  0  0  0  0  0  0
   15.5776   -6.1424    0.0000 C   0  0  0  0  0  0  0  0  0  0  0  0
   16.2917   -6.5556    0.0000 O   0  0  0  0  0  0  0  0  0  0  0  0
   17.0066   -6.1439    0.0000 C   0  0  0  0  0  0  0  0  0  0  0  0
   17.7174   -6.5609    0.0000 C   0  0  0  0  0  0  0  0  0  0  0  0
   18.4318   -6.1498    0.0000 C   0  0  0  0  0  0  0  0  0  0  0  0
   18.4331   -5.3239    0.0000 C   0  0  0  0  0  0  0  0  0  0  0  0
   17.7140   -4.9109    0.0000 C   0  0  0  0  0  0  0  0  0  0  0  0
   17.0025   -5.3244    0.0000 C   0  0  0  0  0  0  0  0  0  0  0  0
   19.1474   -4.9112    0.0000 C   0  0  0  0  0  0  0  0  0  0  0  0
   19.8620   -5.3235    0.0000 N   0  0  0  0  0  0  0  0  0  0  0  0
   19.8579   -6.1518    0.0000 C   0  0  0  0  0  0  0  0  0  0  0  0
   20.5684   -6.5639    0.0000 C   0  0  0  0  0  0  0  0  0  0  0  0
   21.2852   -6.1547    0.0000 O   0  0  0  0  0  0  0  0  0  0  0  0
   21.2870   -5.3288    0.0000 C   0  0  0  0  0  0  0  0  0  0  0  0
   20.5718   -4.9121    0.0000 C   0  0  0  0  0  0  0  0  0  0  0  0
   14.1425   -8.6213    0.0000 C   0  0  0  0  0  0  0  0  0  0  0  0
   13.4796   -9.1073    0.0000 C   0  0  0  0  0  0  0  0  0  0  0  0
   13.7333   -9.8922    0.0000 C   0  0  0  0  0  0  0  0  0  0  0  0
   14.5584   -9.8933    0.0000 C   0  0  0  0  0  0  0  0  0  0  0  0
   14.8143   -9.1091    0.0000 C   0  0  0  0  0  0  0  0  0  0  0  0
 12 13  1  0  0  0  0 
 13 14  2  0  0  0  0 
 14  9  1  0  0  0  0 
  5  7  1  0  0  0  0 
 12 15  1  0  0  0  0 
  1  2  1  0  0  0  0 
 15 16  1  0  0  0  0 
 16 17  1  0  0  0  0 
  7  8  1  0  0  0  0 
  1  6  1  0  0  0  0 
  8  9  1  0  0  0  0 
  2  3  1  0  0  0  0 
  9 10  2  0  0  0  0 
 16 21  1  0  0  0  0 
 17 18  1  0  0  0  0 
 18 19  1  0  0  0  0 
 19 20  1  0  0  0  0 
 20 21  1  0  0  0  0 
  3  4  1  0  0  0  0 
  3 22  1  0  0  0  0 
 22 23  1  0  0  0  0 
 10 11  1  0  0  0  0 
  4  5  1  0  0  0  0 
 11 12  2  0  0  0  0 
  5  6  1  0  0  0  0 
 23 24  1  0  0  0  0 
 24 25  1  0  0  0  0 
 25 26  1  0  0  0  0 
 26 22  1  0  0  0  0 
M  END