
  CDK    9/16/09,9:58

 19 22  0  0  0  0  0  0  0  0999 V2000
   -5.5141    1.6497    0.0000 C   0  0  0  0  0  0  0  0  0  0  0  0
   -5.5154    0.8223    0.0000 C   0  0  0  0  0  0  0  0  0  0  0  0
   -4.8026    0.4094    0.0000 C   0  0  0  0  0  0  0  0  0  0  0  0
   -4.8046    2.0624    0.0000 C   0  0  0  0  0  0  0  0  0  0  0  0
   -4.0866    1.6537    0.0000 C   0  0  0  0  0  0  0  0  0  0  0  0
   -4.0861    0.8269    0.0000 C   0  0  0  0  0  0  0  0  0  0  0  0
   -3.2995    0.5719    0.0000 N   0  0  0  0  0  0  0  0  0  0  0  0
   -2.8139    1.2411    0.0000 C   0  0  0  0  0  0  0  0  0  0  0  0
   -3.3004    1.9096    0.0000 N   0  0  0  0  0  0  0  0  0  0  0  0
   -1.9890    1.2417    0.0000 N   0  0  0  0  0  0  0  0  0  0  0  0
   -1.5762    0.5277    0.0000 C   0  0  0  0  0  0  0  0  0  0  0  0
   -1.9885   -0.1833    0.0000 C   0  0  0  0  0  0  0  0  0  0  0  0
   -1.5790   -0.8952    0.0000 C   0  0  0  0  0  0  0  0  0  0  0  0
   -0.7539   -0.8989    0.0000 C   0  0  0  0  0  0  0  0  0  0  0  0
   -0.7508    0.5292    0.0000 C   0  0  0  0  0  0  0  0  0  0  0  0
   -0.3429   -0.1829    0.0000 C   0  0  0  0  0  0  0  0  0  0  0  0
    0.4605   -0.0151    0.0000 S   0  0  0  0  0  0  0  0  0  0  0  0
    0.5491    0.8009    0.0000 C   0  0  0  0  0  0  0  0  0  0  0  0
   -0.1995    1.1372    0.0000 C   0  0  0  0  0  0  0  0  0  0  0  0
  9  5  1  0  0  0  0 
  4  1  1  0  0  0  0 
  8 10  1  0  0  0  0 
  5  6  1  0  0  0  0 
 10 11  1  0  0  0  0 
 11 12  1  0  0  0  0 
  2  3  1  0  0  0  0 
  3  6  2  0  0  0  0 
 11 15  1  0  0  0  0 
 12 13  1  0  0  0  0 
 13 14  1  0  0  0  0 
 14 16  1  0  0  0  0 
 15 16  2  0  0  0  0 
  1  2  2  0  0  0  0 
  5  4  2  0  0  0  0 
  6  7  1  0  0  0  0 
  7  8  1  0  0  0  0 
  8  9  2  0  0  0  0 
 16 17  1  0  0  0  0 
 17 18  1  0  0  0  0 
 18 19  2  0  0  0  0 
 19 15  1  0  0  0  0 
M  END