
  Mrv0541 04051115152D          

 23 25  0  0  0  0            999 V2000
   -0.7545    1.0593    0.0000 C   0  0  0  0  0  0  0  0  0  0  0  0
    0.6744    0.2343    0.0000 C   0  0  0  0  0  0  0  0  0  0  0  0
   -0.3420   -3.5102    0.0000 C   0  0  0  0  0  0  0  0  0  0  0  0
    0.9764    3.5664    0.0000 C   0  0  0  0  0  0  0  0  0  0  0  0
   -1.1670   -3.5102    0.0000 C   0  0  0  0  0  0  0  0  0  0  0  0
   -0.7545    0.2343    0.0000 C   0  0  0  0  0  0  0  0  0  0  0  0
    1.3889    2.2968    0.0000 C   0  0  0  0  0  0  0  0  0  0  0  0
   -1.6519   -4.1777    0.0000 C   0  0  0  0  0  0  0  0  0  0  0  0
   -0.0632    2.5268    0.0000 C   0  0  0  0  0  0  0  0  0  0  0  0
   -0.0400    1.4718    0.0000 C   0  0  0  0  0  0  0  0  0  0  0  0
    0.6744    1.0593    0.0000 C   0  0  0  0  0  0  0  0  0  0  0  0
   -0.0400   -0.1782    0.0000 C   0  0  0  0  0  0  0  0  0  0  0  0
   -0.7545   -2.2407    0.0000 C   0  0  0  0  0  0  0  0  0  0  0  0
   -0.0400   -1.0032    0.0000 C   0  0  0  0  0  0  0  0  0  0  0  0
   -1.4690   -0.1782    0.0000 N   0  0  0  0  0  0  0  0  0  0  0  0
    1.8014    3.5664    0.0000 N   0  0  0  0  0  0  0  0  0  0  0  0
   -1.4220   -2.7256    0.0000 N   0  0  0  0  0  0  0  0  0  0  0  0
    2.0563    2.7817    0.0000 N   0  0  0  0  0  0  0  0  0  0  0  0
   -0.7545   -1.4157    0.0000 N   0  0  0  0  0  0  0  0  0  0  0  0
    0.7215    2.7817    0.0000 N   0  0  0  0  0  0  0  0  0  0  0  0
    0.6744   -1.4157    0.0000 O   0  0  0  0  0  0  0  0  0  0  0  0
   -0.0871   -2.7256    0.0000 S   0  0  0  0  0  0  0  0  0  0  0  0
    1.3889    1.4718    0.0000 S   0  0  0  0  0  0  0  0  0  0  0  0
  6  1  2  0  0  0  0
 10  1  1  0  0  0  0
  2 11  1  0  0  0  0
 12  2  2  0  0  0  0
  3  5  2  0  0  0  0
  3 22  1  0  0  0  0
  4 16  2  0  0  0  0
  4 20  1  0  0  0  0
  8  5  1  0  0  0  0
  5 17  1  0  0  0  0
  6 12  1  0  0  0  0
  6 15  1  0  0  0  0
  7 18  2  0  0  0  0
  7 20  1  0  0  0  0
  7 23  1  0  0  0  0
  9 20  1  0  0  0  0
 10 11  2  0  0  0  0
 11 23  1  0  0  0  0
 12 14  1  0  0  0  0
 13 17  2  0  0  0  0
 13 19  1  0  0  0  0
 13 22  1  0  0  0  0
 14 19  1  0  0  0  0
 14 21  2  0  0  0  0
 16 18  1  0  0  0  0
M  END