
  SciTegic05191616042D

 24 24  0  0  0  0            999 V2000
    6.3734   -3.0825    0.0000 S   0  0
    7.0877   -2.6702    0.0000 C   0  0
    7.8020   -3.0825    0.0000 N   0  0
    7.0877   -1.8454    0.0000 N   0  0
    8.5163   -2.6702    0.0000 C   0  0
    5.6591   -2.6702    0.0000 C   0  0
    4.9448   -3.0825    0.0000 C   0  0
    4.2305   -2.6702    0.0000 C   0  0
    3.5165   -3.0825    0.0000 N   0  0
    9.2305   -3.0825    0.0000 C   0  0
    9.9448   -2.6702    0.0000 C   0  0
   10.6615   -3.0889    0.0000 C   0  0
    2.8006   -2.6714    0.0000 C   0  0
    2.0886   -3.0803    0.0000 C   0  0
    2.0845   -3.9052    0.0000 C   0  0
    2.7985   -4.3195    0.0000 C   0  0
    3.5166   -3.9090    0.0000 C   0  0
   10.6526   -3.9178    0.0000 C   0  0
   11.3685   -4.3364    0.0000 C   0  0
   12.0905   -3.9251    0.0000 C   0  0
   12.0921   -3.0908    0.0000 C   0  0
   11.3757   -2.6759    0.0000 C   0  0
   12.8031   -4.3403    0.0000 Cl  0  0
    7.7397   -4.7779    0.0000 Cl  0  0
  1  2  1  0
  2  3  1  0
  2  4  2  0
  3  5  1  0
  1  6  1  0
  6  7  1  0
  7  8  1  0
  8  9  1  0
  5 10  1  0
 10 11  1  0
 11 12  1  0
  9 13  1  0
  9 17  1  0
 13 14  1  0
 14 15  1  0
 15 16  1  0
 16 17  1  0
 12 18  2  0
 18 19  1  0
 19 20  2  0
 20 21  1  0
 21 22  2  0
 22 12  1  0
 20 23  1  0
M  END