
          01230816042D 1   1.00000     0.00000     0

 49 54  0     1  0            999 V2000
    7.3777  -14.1041    0.0000 C   0  0  0  0  0  0           0  0  0
    7.3766  -14.9315    0.0000 C   0  0  0  0  0  0           0  0  0
    8.0914  -15.3444    0.0000 C   0  0  0  0  0  0           0  0  0
    8.0896  -13.6914    0.0000 C   0  0  0  0  0  0           0  0  0
    8.8050  -14.1005    0.0000 C   0  0  0  0  0  0           0  0  0
    8.8084  -14.9336    0.0000 C   0  0  0  0  0  0           0  0  0
    9.5276  -15.3449    0.0000 C   0  0  0  0  0  0           0  0  0
   10.2480  -14.9277    0.0000 C   0  0  0  0  0  0           0  0  0
    8.3083  -16.0958    0.0000 N   0  0  0  0  0  0           0  0  0
    9.3083  -16.1375    0.0000 C   0  0  0  0  0  0           0  0  0
    9.5207  -13.6787    0.0000 C   0  0  0  0  0  0           0  0  0
   10.2465  -14.0940    0.0000 C   0  0  2  0  0  0           0  0  0
   10.9650  -13.6755    0.0000 N   0  0  3  0  0  0           0  0  0
   10.9641  -12.8400    0.0000 C   0  0  0  0  0  0           0  0  0
   10.2384  -12.4247    0.0000 C   0  0  1  0  0  0           0  0  0
    9.5136  -12.8449    0.0000 C   0  0  0  0  0  0           0  0  0
   11.6805  -14.0863    0.0000 C   0  0  0  0  0  0           0  0  0
   10.2361  -11.5997    0.0000 C   0  0  0  0  0  0           0  0  0
   10.9494  -11.1852    0.0000 N   0  0  0  0  0  0           0  0  0
    9.5205  -11.1892    0.0000 O   0  0  0  0  0  0           0  0  0
   10.9471  -10.3602    0.0000 C   0  0  2  0  0  0           0  0  0
   11.6604   -9.9457    0.0000 C   0  0  0  0  0  0           0  0  0
   10.2315   -9.9497    0.0000 C   0  0  3  0  0  0           0  0  0
   10.2292   -9.1247    0.0000 C   0  0  0  0  0  0           0  0  0
   12.3761  -10.3562    0.0000 N   0  0  0  0  0  0           0  0  0
   11.6581   -9.1207    0.0000 O   0  0  0  0  0  0           0  0  0
   13.0894   -9.9417    0.0000 C   0  0  2  0  0  0           0  0  0
   13.6800  -10.4147    0.0000 C   0  0  0  0  0  0           0  0  0
   13.0871   -9.1167    0.0000 C   0  0  0  0  0  0           0  0  0
   13.8004   -8.7022    0.0000 C   0  0  0  0  0  0           0  0  0
   14.5135   -9.1149    0.0000 C   0  0  0  0  0  0           0  0  0
   15.2263   -8.7011    0.0000 C   0  0  0  0  0  0           0  0  0
   15.2244   -7.8752    0.0000 C   0  0  0  0  0  0           0  0  0
   14.5038   -7.4649    0.0000 C   0  0  0  0  0  0           0  0  0
   13.7939   -7.8811    0.0000 C   0  0  0  0  0  0           0  0  0
   13.3667  -11.1625    0.0000 O   0  0  0  0  0  0           0  0  0
   14.4822  -10.2220    0.0000 N   0  0  3  0  0  0           0  0  0
   15.1049  -10.7581    0.0000 C   0  0  1  0  0  0           0  0  0
   15.8083  -10.3269    0.0000 C   0  0  0  0  0  0           0  0  0
   15.6156   -9.5247    0.0000 C   0  0  0  0  0  0           0  0  0
   14.7932   -9.4602    0.0000 C   0  0  0  0  0  0           0  0  0
   15.0386  -11.5804    0.0000 C   0  0  0  0  0  0           0  0  0
   14.2933  -11.9342    0.0000 O   0  0  0  0  0  0           0  0  0
   15.7176  -12.0490    0.0000 N   0  0  0  0  0  0           0  0  0
   10.9583  -14.5042    0.0000 H   0  0  0  0  0  0           0  0  0
    9.5182  -10.3642    0.0000 C   0  0  0  0  0  0           0  0  0
   15.9387   -7.4555    0.0000 N   0  3  0  0  0  0           0  0  0
   15.9353   -6.6305    0.0000 O   0  0  0  0  0  0           0  0  0
   16.6549   -7.8651    0.0000 O   0  5  0  0  0  0           0  0  0
 21 23  1  1     0  0
  9 10  1  0     0  0
 23 24  1  0     0  0
 11 12  1  0     0  0
 22 25  1  0     0  0
  5  6  1  0     0  0
 22 26  2  0     0  0
 25 27  1  0     0  0
  2  3  1  0     0  0
 27 28  1  0     0  0
  3  6  2  0     0  0
 27 29  1  1     0  0
  1  2  2  0     0  0
 29 30  1  0     0  0
  5 11  1  0     0  0
 30 31  2  0     0  0
 11 16  2  0     0  0
 31 32  1  0     0  0
 12 13  1  0     0  0
 32 33  2  0     0  0
 13 14  1  0     0  0
 33 34  1  0     0  0
 14 15  1  0     0  0
 34 35  2  0     0  0
 35 30  1  0     0  0
 15 16  1  0     0  0
 28 36  2  0     0  0
  6  7  1  0     0  0
 28 37  1  0     0  0
 37 38  1  0     0  0
 13 17  1  0     0  0
  7  8  1  0     0  0
 15 18  1  1     0  0
  8 12  1  0     0  0
 38 39  1  0     0  0
 39 40  1  0     0  0
 40 41  1  0     0  0
 41 37  1  0     0  0
 18 19  1  0     0  0
 38 42  1  1     0  0
  5  4  2  0     0  0
 42 43  2  0     0  0
 18 20  2  0     0  0
 42 44  1  0     0  0
  3  9  1  0     0  0
 12 45  1  1     0  0
 19 21  1  0     0  0
 23 46  1  0     0  0
  4  1  1  0     0  0
 21 22  1  0     0  0
  7 10  2  0     0  0
 47 48  2  0     0  0
 47 49  1  0     0  0
 33 47  1  0     0  0
M  CHG  2  47   1  49  -1
M  END