
          11280715522D 1   1.00000     0.00000     0

 46 49  0     0  0            999 V2000
   16.0174  -19.1778    0.0000 N   0  0  0  0  0  0           0  0  0
   16.7288  -18.7602    0.0000 C   0  0  0  0  0  0           0  0  0
   17.4463  -19.1676    0.0000 N   0  0  0  0  0  0           0  0  0
   16.7229  -17.9352    0.0000 N   0  0  0  0  0  0           0  0  0
    3.8611  -13.0708    0.0000 C   0  0  0  0  0  0           0  0  0
    3.8599  -13.8982    0.0000 C   0  0  0  0  0  0           0  0  0
    4.5747  -14.3110    0.0000 C   0  0  0  0  0  0           0  0  0
    4.5729  -12.6580    0.0000 C   0  0  0  0  0  0           0  0  0
    5.2883  -13.0672    0.0000 C   0  0  0  0  0  0           0  0  0
    5.2891  -13.8940    0.0000 C   0  0  0  0  0  0           0  0  0
    6.0044  -14.3050    0.0000 N   0  0  0  0  0  0           0  0  0
    6.7194  -13.8902    0.0000 C   0  0  0  0  0  0           0  0  0
    6.7146  -13.0602    0.0000 C   0  0  0  0  0  0           0  0  0
    5.9987  -12.6530    0.0000 C   0  0  0  0  0  0           0  0  0
    4.5766  -15.1360    0.0000 O   0  0  0  0  0  0           0  0  0
    5.2921  -15.5469    0.0000 C   0  0  0  0  0  0           0  0  0
    5.2940  -16.3719    0.0000 C   0  0  0  0  0  0           0  0  0
    4.5779  -16.7817    0.0000 C   0  0  0  0  0  0           0  0  0
    4.5794  -17.6059    0.0000 C   0  0  0  0  0  0           0  0  0
    5.2954  -18.0176    0.0000 C   0  0  0  0  0  0           0  0  0
    6.0113  -17.5990    0.0000 C   0  0  0  0  0  0           0  0  0
    6.0062  -16.7761    0.0000 C   0  0  0  0  0  0           0  0  0
    3.8638  -16.3685    0.0000 Cl  0  0  0  0  0  0           0  0  0
    6.7179  -16.3588    0.0000 Cl  0  0  0  0  0  0           0  0  0
    7.4355  -14.2999    0.0000 C   0  0  0  0  0  0           0  0  0
    6.7281  -18.0073    0.0000 S   0  0  3  0  0  0           0  0  0
    7.4375  -18.4167    0.0000 N   0  0  0  0  0  0           0  0  0
    7.1072  -17.4166    0.0000 O   0  0  0  0  0  0           0  0  0
    6.3230  -18.6323    0.0000 O   0  0  0  0  0  0           0  0  0
    8.1519  -17.9727    0.0000 C   0  0  3  0  0  0           0  0  0
    8.8625  -17.5833    0.0000 C   0  0  0  0  0  0           0  0  0
    8.4746  -18.7475    0.0000 C   0  0  0  0  0  0           0  0  0
    7.9222  -17.2923    0.0000 C   0  0  0  0  0  0           0  0  0
    8.8535  -16.7584    0.0000 O   0  0  0  0  0  0           0  0  0
    9.5814  -17.9880    0.0000 N   0  0  3  0  0  0           0  0  0
    9.5860  -18.8134    0.0000 C   0  0  0  0  0  0           0  0  0
   10.3009  -19.2180    0.0000 C   0  0  0  0  0  0           0  0  0
   11.0132  -18.8012    0.0000 N   0  0  3  0  0  0           0  0  0
   11.0062  -17.9753    0.0000 C   0  0  0  0  0  0           0  0  0
   10.2867  -17.5661    0.0000 C   0  0  0  0  0  0           0  0  0
   11.7306  -19.2086    0.0000 C   0  0  0  0  0  0           0  0  0
   12.4421  -18.7909    0.0000 C   0  0  0  0  0  0           0  0  0
   13.1595  -19.1983    0.0000 C   0  0  0  0  0  0           0  0  0
   13.8710  -18.7807    0.0000 C   0  0  0  0  0  0           0  0  0
   14.5885  -19.1881    0.0000 C   0  0  0  0  0  0           0  0  0
   15.2999  -18.7704    0.0000 C   0  0  0  0  0  0           0  0  0
  1  2  2  0     0  0
 18 23  1  0     0  0
 11 12  2  0     0  0
 22 24  1  0     0  0
  6  7  1  0     0  0
 12 25  1  0     0  0
 12 13  1  0     0  0
 21 26  1  0     0  0
  7 10  2  0     0  0
 26 27  1  0     0  0
 13 14  2  0     0  0
 26 28  2  0     0  0
 14  9  1  0     0  0
 26 29  2  0     0  0
  2  4  1  0     0  0
 27 30  1  0     0  0
  7 15  1  0     0  0
 30 31  1  0     0  0
  9  8  2  0     0  0
 30 32  1  0     0  0
 15 16  1  0     0  0
 30 33  1  0     0  0
  8  5  1  0     0  0
 31 34  2  0     0  0
 16 17  1  0     0  0
 31 35  1  0     0  0
 35 36  1  0     0  0
 17 18  2  0     0  0
  2  3  1  0     0  0
 18 19  1  0     0  0
  9 10  1  0     0  0
 35 40  1  0     0  0
 36 37  1  0     0  0
 37 38  1  0     0  0
 38 39  1  0     0  0
 39 40  1  0     0  0
 19 20  2  0     0  0
 38 41  1  0     0  0
  5  6  2  0     0  0
 41 42  1  0     0  0
 20 21  1  0     0  0
 42 43  1  0     0  0
 10 11  1  0     0  0
 43 44  1  0     0  0
 21 22  2  0     0  0
 44 45  1  0     0  0
 22 17  1  0     0  0
 45 46  1  0     0  0
 46  1  1  0     0  0
M  END