
  SciTegic01091216402D

 23 24  0  0  0  0            999 V2000
   -0.1252   -7.2157    0.0000 N   0  0
   -0.1066   -8.0420    0.0000 N   0  0
    0.6819   -8.2753    0.0000 C   0  0
    1.1517   -7.5957    0.0000 C   0  0
    0.6503   -6.9415    0.0000 C   0  0
   -0.8045   -6.7456    0.0000 C   0  0
   -1.5220   -7.1529    0.0000 N   0  0
   -0.7971   -5.9230    0.0000 N   0  0
    1.9780   -7.5771    0.0000 C   0  0
    2.4055   -8.2799    0.0000 C   0  0
   -0.0796   -5.5158    0.0000 C   0  0
    0.6304   -5.9311    0.0000 C   0  0
   -2.2327   -6.7364    0.0000 S   0  0
   -1.8167   -6.0275    0.0000 O   0  0
   -2.9351   -7.1713    0.0000 C   0  0
   -2.9090   -7.9959    0.0000 C   0  0
   -3.6114   -8.4309    0.0000 C   0  0
   -4.3400   -8.0412    0.0000 C   0  0
   -4.3661   -7.2166    0.0000 C   0  0
   -3.6637   -6.7817    0.0000 C   0  0
   -2.8208   -6.1458    0.0000 O   0  0
   -5.0931   -6.8267    0.0000 Cl  0  0
   -2.1820   -8.3859    0.0000 Cl  0  0
  3  4  1  0
  4  5  1  0
  1  5  1  0
  6  7  2  0
  6  8  1  0
  1  6  1  0
  9 10  1  0
  4  9  1  0
 11 12  1  0
  8 11  1  0
 13 14  2  0
 15 16  1  0
 16 17  2  0
 17 18  1  0
 18 19  2  0
 19 20  1  0
 15 20  2  0
 13 15  1  0
  7 13  1  0
 13 21  2  0
  1  2  1  0
 19 22  1  0
  2  3  2  0
 16 23  1  0
M  END