
  SciTegic11201309402D

 24 27  0  0  1  0            999 V2000
    6.8841  -22.0612    0.0000 C   0  0
    6.8903  -20.7251    0.0000 C   0  0  2  0  0  0
    6.4049  -21.3911    0.0000 C   0  0
    7.6760  -20.9851    0.0000 C   0  0  1  0  0  0
    7.6700  -21.8102    0.0000 N   0  0
    8.4529  -22.0709    0.0000 C   0  0
    8.9428  -21.4068    0.0000 C   0  0
    8.4626  -20.7359    0.0000 C   0  0
    6.6380  -19.9396    0.0000 C   0  0
    5.8317  -19.7653    0.0000 O   0  0
    5.5794  -18.9798    0.0000 C   0  0
    4.7730  -18.8056    0.0000 C   0  0
    6.1335  -18.3686    0.0000 O   0  0
    3.4446  -18.9435    0.0000 N   0  0
    4.1577  -19.3583    0.0000 C   0  0
    3.6188  -18.1370    0.0000 C   0  0
    4.4384  -18.0543    0.0000 C   0  0
    4.7748  -17.3045    0.0000 C   0  0
    4.2928  -16.6368    0.0000 C   0  0
    3.4705  -16.7238    0.0000 C   0  0
    3.1378  -17.4739    0.0000 C   0  0
    4.6292  -15.8835    0.0000 O   0  0
    5.4498  -15.7982    0.0000 C   0  0
    7.6824  -19.9851    0.0000 H   0  0
  4  2  1  0
 10 11  1  0
  2  3  1  0
 11 12  1  0
  3  1  1  0
 11 13  2  0
 12 17  1  0
  5  6  1  0
  6  7  1  0
 16 14  1  0
 14 15  1  0
 15 12  2  0
  7  8  1  0
  4  8  1  0
 16 17  2  0
  4  5  1  0
 17 18  1  0
 18 19  2  0
  1  5  1  0
 19 20  1  0
  2  9  1  1
 20 21  2  0
 21 16  1  0
 19 22  1  0
  9 10  1  0
 22 23  1  0
  4 24  1  1
M  END