
          11280715502D 1   1.00000     0.00000     0

 45 49  0     1  0            999 V2000
   -2.0264   -6.1916    0.0000 C   0  0  0  0  0  0           0  0  0
   -2.0276   -7.0190    0.0000 C   0  0  0  0  0  0           0  0  0
   -1.3128   -7.4319    0.0000 C   0  0  0  0  0  0           0  0  0
   -0.5963   -7.0185    0.0000 C   0  0  0  0  0  0           0  0  0
   -0.5992   -6.1880    0.0000 C   0  0  0  0  0  0           0  0  0
   -1.3146   -5.7789    0.0000 C   0  0  0  0  0  0           0  0  0
    0.1137   -5.7728    0.0000 C   0  0  0  0  0  0           0  0  0
    0.8297   -6.1826    0.0000 N   0  0  3  0  0  0           0  0  0
    0.1106   -4.9478    0.0000 O   0  0  0  0  0  0           0  0  0
    0.8302   -7.0094    0.0000 C   0  0  1  0  0  0           0  0  0
    1.5422   -7.4191    0.0000 C   0  0  0  0  0  0           0  0  0
    2.2575   -7.0074    0.0000 N   0  0  3  0  0  0           0  0  0
    2.2564   -6.1814    0.0000 C   0  0  0  0  0  0           0  0  0
    1.5399   -5.7672    0.0000 C   0  0  0  0  0  0           0  0  0
    0.1162   -7.4226    0.0000 C   0  0  0  0  0  0           0  0  0
    0.1083   -8.2458    0.0000 C   0  0  0  0  0  0           0  0  0
   -0.5596   -8.7271    0.0000 C   0  0  0  0  0  0           0  0  0
   -0.3127   -9.5125    0.0000 N   0  0  0  0  0  0           0  0  0
    0.7724   -8.7398    0.0000 C   0  0  0  0  0  0           0  0  0
    0.5104   -9.5188    0.0000 C   0  0  0  0  0  0           0  0  0
    1.0536  -10.1332    0.0000 C   0  0  0  0  0  0           0  0  0
    1.8589   -9.9697    0.0000 C   0  0  0  0  0  0           0  0  0
    2.1181   -9.1864    0.0000 C   0  0  0  0  0  0           0  0  0
    1.5732   -8.5754    0.0000 C   0  0  0  0  0  0           0  0  0
   -1.3208   -8.2542    0.0000 C   0  0  3  0  0  0           0  0  0
   -0.4958   -8.2542    0.0000 F   0  0  0  0  0  0           0  0  0
   -1.3250   -9.0792    0.0000 F   0  0  0  0  0  0           0  0  0
   -2.1458   -8.2500    0.0000 F   0  0  0  0  0  0           0  0  0
   -2.7410   -5.7793    0.0000 C   0  0  3  0  0  0           0  0  0
   -3.1583   -6.4917    0.0000 F   0  0  0  0  0  0           0  0  0
   -2.3333   -5.0625    0.0000 F   0  0  0  0  0  0           0  0  0
   -3.4583   -5.3667    0.0000 F   0  0  0  0  0  0           0  0  0
    2.9720   -7.4199    0.0000 C   0  0  0  0  0  0           0  0  0
    3.6865   -7.0074    0.0000 C   0  0  0  0  0  0           0  0  0
    3.6865   -6.1824    0.0000 C   0  0  0  0  0  0           0  0  0
    4.4009   -7.4199    0.0000 N   0  0  0  0  0  0           0  0  0
    4.4009   -8.2449    0.0000 O   0  0  0  0  0  0           0  0  0
    5.1154   -8.6574    0.0000 C   0  0  0  0  0  0           0  0  0
    5.1154   -9.4824    0.0000 C   0  0  0  0  0  0           0  0  0
    5.8298   -9.8950    0.0000 N   0  0  3  0  0  0           0  0  0
    5.8271  -10.7173    0.0000 C   0  0  0  0  0  0           0  0  0
    6.5375  -11.1297    0.0000 C   0  0  0  0  0  0           0  0  0
    7.2544  -10.7208    0.0000 O   0  0  0  0  0  0           0  0  0
    7.2564   -9.8948    0.0000 C   0  0  0  0  0  0           0  0  0
    6.5415   -9.4778    0.0000 C   0  0  0  0  0  0           0  0  0
  2  3  1  0     0  0
 21 22  2  0     0  0
  5  6  2  0     0  0
 22 23  1  0     0  0
  6  1  1  0     0  0
 23 24  2  0     0  0
 24 19  1  0     0  0
  1  2  2  0     0  0
  3 25  1  0     0  0
  8 14  1  0     0  0
 25 26  1  0     0  0
 10 11  1  0     0  0
 25 27  1  0     0  0
 11 12  1  0     0  0
 25 28  1  0     0  0
 12 13  1  0     0  0
  1 29  1  0     0  0
 13 14  1  0     0  0
 29 30  1  0     0  0
  5  7  1  0     0  0
 29 31  1  0     0  0
 10 15  1  1     0  0
 29 32  1  0     0  0
  3  4  2  0     0  0
 12 33  1  0     0  0
 15 16  1  0     0  0
 33 34  1  0     0  0
 16 17  2  0     0  0
 34 35  1  0     0  0
  7  8  1  0     0  0
 34 36  2  0     0  0
 36 37  1  0     0  0
 17 18  1  0     0  0
 37 38  1  0     0  0
 18 20  1  0     0  0
 38 39  1  0     0  0
 19 16  1  0     0  0
 39 40  1  0     0  0
 40 41  1  0     0  0
  7  9  2  0     0  0
  8 10  1  0     0  0
 19 20  2  0     0  0
  4  5  1  0     0  0
 20 21  1  0     0  0
 40 45  1  0     0  0
 41 42  1  0     0  0
 42 43  1  0     0  0
 43 44  1  0     0  0
 44 45  1  0     0  0
M  END