
  SciTegic04181615532D

 34 37  0  0  0  0            999 V2000
    3.3214   -1.2765    0.0000 C   0  0
    2.5889    0.0182    0.0000 C   0  0
    3.1649    1.0710    0.0000 C   0  0
   -1.0028   -1.5132    0.0000 C   0  0
   -1.0028    1.5132    0.0000 C   0  0
   -2.3155    0.7475    0.0000 C   0  0
   -2.3155   -0.7475    0.0000 C   0  0
   -0.9971   -3.0138    0.0000 O   0  0
   -2.2935   -3.7700    0.0000 C   0  0
   -2.2901   -5.2700    0.0000 C   0  0
   -3.5873   -6.0231    0.0000 C   0  0
   -4.8881   -5.2761    0.0000 C   0  0
   -4.8917   -3.7761    0.0000 N   0  0
   -3.5944   -3.0231    0.0000 C   0  0
   -6.1876   -6.0270    0.0000 C   0  0
   -7.4881   -5.2778    0.0000 N   0  0
   -6.1869   -7.2270    0.0000 O   0  0
   -3.6217    1.4865    0.0000 C   0  0
   -4.9153    0.7255    0.0000 N   0  0
   -3.6319    2.6865    0.0000 O   0  0
   -6.2216    1.4644    0.0000 C   0  0
    0.2917    0.7475    0.0000 C   0  0
    0.2917   -0.7475    0.0000 C   0  0
    1.7138   -1.2033    0.0000 C   0  0
    1.7138    1.2033    0.0000 O   0  0
    2.7293   -2.3202    0.0000 O   0  0
   -8.5272   -5.8781    0.0000 C   0  0
   -7.4889   -4.0778    0.0000 C   0  0
   -7.5156    0.7056    0.0000 C   0  0
   -8.8197    1.4467    0.0000 N   0  0
   -8.8299    2.9467    0.0000 C   0  0
   -7.5360    3.7055    0.0000 C   0  0
   -6.2319    2.9644    0.0000 N   0  0
   -9.8732    3.5396    0.0000 C   0  0
  2  1  1  0
  3  2  1  0
  4 23  2  0
 22  5  2  0
  5  6  1  0
  6  7  2  0
  7  4  1  0
  4  8  1  0
  8  9  1  0
  9 10  2  0
 10 11  1  0
 11 12  2  0
 12 13  1  0
 13 14  2  0
 14  9  1  0
 12 15  1  0
 15 16  1  0
 15 17  2  0
  6 18  1  0
 18 19  1  0
 18 20  2  0
 21 19  1  0
 22 23  1  0
 23 24  1  0
 24  2  1  0
  2 25  1  0
 25 22  1  0
  1 26  1  0
 16 27  1  0
 16 28  1  0
 21 29  2  0
 29 30  1  0
 30 31  2  0
 31 32  1  0
 32 33  2  0
 33 21  1  0
 31 34  1  0
M  END