
  SciTegic08171211382D

154144  0  0  0  0            999 V2000
    5.6350   -1.4336    0.0000 O   0  0
    5.6350   -0.6086    0.0000 C   0  0  2  0  0  0
    4.9205   -0.1961    0.0000 C   0  0  1  0  0  0
    4.2060   -0.6086    0.0000 O   0  0
    4.9205    0.6289    0.0000 C   0  0  1  0  0  0
    4.2060    1.0414    0.0000 O   0  0
    5.6350    1.0414    0.0000 C   0  0  2  0  0  0
    5.6350    1.8664    0.0000 O   0  0
    6.3494    0.6289    0.0000 C   0  0  2  0  0  0
    6.3494   -0.1961    0.0000 O   0  0
    7.0639    1.0414    0.0000 C   0  0
    7.7784    0.6289    0.0000 O   0  0
    2.7771   -0.6086    0.0000 C   0  0  1  0  0  0
    2.7771   -1.4336    0.0000 O   0  0
    2.0626   -0.1961    0.0000 C   0  0  1  0  0  0
    1.3481   -0.6086    0.0000 O   0  0
    2.0626    0.6289    0.0000 C   0  0  2  0  0  0
    1.3481    1.0414    0.0000 O   0  0
    2.7771    1.0414    0.0000 C   0  0  2  0  0  0
    3.4915    0.6289    0.0000 O   0  0
    2.7771    1.8664    0.0000 C   0  0
    2.0626    2.2789    0.0000 O   0  0
    2.0626    3.1039    0.0000 S   0  0
    2.8876    3.1039    0.0000 O   0  0
    1.2376    3.1039    0.0000 O   0  0
    2.0626    3.9289    0.0000 O   0  5
    0.6884    0.9746    0.0000 S   0  0
    0.2212    1.3434    0.0000 O   0  0
    1.0462   -0.0856    0.0000 O   0  0
   -0.0808    0.2164    0.0000 O   0  5
    2.0626   -1.8461    0.0000 S   0  0
    1.3481   -2.2586    0.0000 O   0  0
    1.6501   -1.1316    0.0000 O   0  0
    2.4751   -2.5606    0.0000 O   0  5
   -0.0808   -0.6086    0.0000 C   0  0  1  0  0  0
   -0.0808   -1.4336    0.0000 O   0  0
   -0.7953   -0.1961    0.0000 C   0  0  1  0  0  0
   -1.5098   -0.6086    0.0000 O   0  0
   -0.7953    0.6289    0.0000 C   0  0  2  0  0  0
   -1.5098    1.0414    0.0000 O   0  0
   -0.0808    1.0414    0.0000 C   0  0  2  0  0  0
    0.6337    0.6289    0.0000 O   0  0
   -0.0808    1.8664    0.0000 C   0  0
   -0.7953    2.2789    0.0000 O   0  0
   -0.7953    3.1039    0.0000 S   0  0
    0.0297    3.1039    0.0000 O   0  0
   -1.6203    3.1039    0.0000 O   0  0
   -0.7953    3.9289    0.0000 O   0  5
   -2.1695    0.9746    0.0000 S   0  0
   -2.6367    1.3434    0.0000 O   0  0
   -1.8117   -0.0856    0.0000 O   0  0
   -2.9387    0.2164    0.0000 O   0  5
   -0.7953   -1.8461    0.0000 S   0  0
   -1.5098   -2.2586    0.0000 O   0  0
   -1.2078   -1.1316    0.0000 O   0  0
   -0.3828   -2.5606    0.0000 O   0  5
   -2.9387   -0.6086    0.0000 C   0  0  1  0  0  0
   -2.9387   -1.4336    0.0000 O   0  0
   -3.6532   -0.1961    0.0000 C   0  0  1  0  0  0
   -4.3676   -0.6086    0.0000 O   0  0
   -3.6532    0.6289    0.0000 C   0  0  2  0  0  0
   -4.3676    1.0414    0.0000 O   0  0
   -2.9387    1.0414    0.0000 C   0  0  2  0  0  0
   -2.2242    0.6289    0.0000 O   0  0
   -2.9387    1.8664    0.0000 C   0  0
   -3.6532    2.2789    0.0000 O   0  0
   -3.6532    3.1039    0.0000 S   0  0
   -2.8282    3.1039    0.0000 O   0  0
   -4.4782    3.1039    0.0000 O   0  0
   -3.6532    3.9289    0.0000 O   0  5
   -5.1369    0.2832    0.0000 S   0  0
   -5.4946    1.3434    0.0000 O   0  0
   -4.6696   -0.0856    0.0000 O   0  0
   -5.7966    0.2164    0.0000 O   0  5
   -3.6532   -1.8461    0.0000 S   0  0
   -4.3676   -2.2586    0.0000 O   0  0
   -4.0657   -1.1316    0.0000 O   0  0
   -3.2407   -2.5606    0.0000 O   0  5
   -5.7966   -0.6086    0.0000 C   0  0  1  0  0  0
   -5.7966   -1.4336    0.0000 O   0  0
   -6.5110   -0.1961    0.0000 C   0  0  1  0  0  0
   -7.2255   -0.6086    0.0000 O   0  0
   -6.5110    0.6289    0.0000 C   0  0  2  0  0  0
   -7.2255    1.0414    0.0000 O   0  0
   -5.7966    1.0414    0.0000 C   0  0  2  0  0  0
   -5.0821    0.6289    0.0000 O   0  0
   -5.7966    1.8664    0.0000 C   0  0
   -6.5110    2.2789    0.0000 O   0  0
   -6.5110    3.1039    0.0000 S   0  0
   -7.3360    3.1039    0.0000 O   0  0
   -5.6860    3.1039    0.0000 O   0  0
   -6.5110    3.9289    0.0000 O   0  5
   -7.9400    0.6289    0.0000 S   0  0
   -8.3525    1.3434    0.0000 O   0  0
   -7.5275   -0.0856    0.0000 O   0  0
   -8.7092   -0.1293    0.0000 O   0  5
   -7.9400   -0.1961    0.0000 S   0  0
   -7.5275    0.5184    0.0000 O   0  0
   -8.3525   -0.9106    0.0000 O   0  0
   -8.6545    0.2164    0.0000 O   0  5
   -6.5110   -1.8461    0.0000 S   0  0
   -6.0985   -2.5606    0.0000 O   0  0
   -7.2255   -2.2586    0.0000 O   0  0
   -6.9235   -1.1316    0.0000 O   0  5
    6.3494   -1.8461    0.0000 C   0  0
    6.3494   -2.6711    0.0000 C   0  0
    7.0639   -3.0836    0.0000 C   0  0
    7.0639   -3.9086    0.0000 N   0  0
    6.3965   -4.3935    0.0000 N   0  0
    6.6514   -5.1782    0.0000 N   0  0
    7.4764   -5.1782    0.0000 C   0  0
    7.7313   -4.3935    0.0000 C   0  0
    7.9613   -5.8456    0.0000 C   0  0
    8.7818   -5.7594    0.0000 C   0  0
    9.2667   -6.4268    0.0000 C   0  0
    8.9312   -7.1805    0.0000 C   0  0
    8.1107   -7.2667    0.0000 C   0  0
    7.6258   -6.5993    0.0000 C   0  0
   11.5060    0.0000    0.0000 Na  0  3
   12.5078    0.0000    0.0000 Na  0  3
   13.5096    0.0000    0.0000 Na  0  3
   14.5114    0.0000    0.0000 Na  0  3
    0.0000   -8.9167    0.0000 Na  0  3
    1.0018   -8.9167    0.0000 Na  0  3
    2.0036   -8.9167    0.0000 Na  0  3
    3.0054   -8.9167    0.0000 Na  0  3
    4.0071   -8.9167    0.0000 Na  0  3
    0.0000  -10.5667    0.0000 Na  0  3
    1.0018  -10.5667    0.0000 Na  0  3
    2.0036  -10.5667    0.0000 Na  0  3
    3.0054  -10.5667    0.0000 Na  0  3
    6.3494    2.2789    0.0000 S   0  0
    5.9369    2.9934    0.0000 O   0  5
    7.0639    2.6914    0.0000 O   0  0
    6.7619    1.5644    0.0000 O   0  0
    4.2060    1.8664    0.0000 S   0  0
    4.2060    2.6914    0.0000 O   0  5
    5.0310    1.8664    0.0000 O   0  0
    3.3810    1.8664    0.0000 O   0  0
    8.4928    1.0414    0.0000 S   0  0
    8.9053    0.3269    0.0000 O   0  5
    8.0803    1.7559    0.0000 O   0  0
    9.2073    1.4539    0.0000 O   0  0
    4.0071  -10.5667    0.0000 Na  0  3
    0.0000  -12.2167    0.0000 Na  0  3
    1.0018  -12.2167    0.0000 Na  0  3
    0.6337   -0.1961    0.0000 C   0  0  2  0  0  0
    0.6337   -1.0211    0.0000 H   0  0
   -2.2242   -0.1961    0.0000 C   0  0  2  0  0  0
   -2.2242   -1.0211    0.0000 H   0  0
   -5.0821   -0.1961    0.0000 C   0  0  2  0  0  0
   -5.0821   -1.0211    0.0000 H   0  0
    3.4915   -0.1961    0.0000 C   0  0  2  0  0  0
    3.4915   -1.0211    0.0000 H   0  0
  2  1  1  6
  2  3  1  0
  3  4  1  1
  3  5  1  0
  5  6  1  1
  5  7  1  0
  7  8  1  6
  7  9  1  0
  9 10  1  0
  9 11  1  1
 11 12  1  0
  2 10  1  0
153 13  1  0
 13 14  1  1
 13 15  1  0
 15 16  1  1
 15 17  1  0
 17 18  1  6
 17 19  1  0
 19 20  1  0
 19 21  1  1
 21 22  1  0
153 20  1  0
 23 24  2  0
 23 25  2  0
 23 26  1  0
 22 23  1  0
 27 28  2  0
 27 29  2  0
 27 30  1  0
 18 27  1  0
 31 32  2  0
 31 33  2  0
 31 34  1  0
 14 31  1  0
147 35  1  0
 35 36  1  1
 35 37  1  0
 37 38  1  1
 37 39  1  0
 39 40  1  6
 39 41  1  0
 41 42  1  0
 41 43  1  1
 43 44  1  0
147 42  1  0
 45 46  2  0
 45 47  2  0
 45 48  1  0
 44 45  1  0
 49 50  2  0
 49 51  2  0
 49 52  1  0
 40 49  1  0
 53 54  2  0
 53 55  2  0
 53 56  1  0
 36 53  1  0
149 57  1  0
 57 58  1  1
 57 59  1  0
 59 60  1  1
 59 61  1  0
 61 62  1  6
 61 63  1  0
 63 64  1  0
 63 65  1  1
 65 66  1  0
149 64  1  0
 67 68  2  0
 67 69  2  0
 67 70  1  0
 66 67  1  0
 71 72  2  0
 71 73  2  0
 71 74  1  0
 62 71  1  0
 75 76  2  0
 75 77  2  0
 75 78  1  0
 58 75  1  0
151 79  1  0
 79 80  1  1
 79 81  1  0
 81 82  1  1
 81 83  1  0
 83 84  1  6
 83 85  1  0
 85 86  1  0
 85 87  1  1
 87 88  1  0
151 86  1  0
 89 90  2  0
 89 91  2  0
 89 92  1  0
 88 89  1  0
 93 94  2  0
 93 95  2  0
 93 96  1  0
 84 93  1  0
 97 98  2  0
 97 99  2  0
 97100  1  0
 82 97  1  0
101102  2  0
101103  2  0
101104  1  0
 80101  1  0
151 60  1  0
149 38  1  0
147 16  1  0
153  4  1  6
105106  1  0
106107  1  0
108109  1  0
109110  2  0
110111  1  0
111112  2  0
108112  1  0
113114  1  0
114115  2  0
115116  1  0
116117  2  0
117118  1  0
113118  2  0
111113  1  0
107108  1  0
  1105  1  0
  8132  1  0
132133  1  0
132134  2  0
132135  2  0
  6136  1  0
136137  1  0
136138  2  0
136139  2  0
 12140  1  0
140141  1  0
140142  2  0
140143  2  0
147148  1  1
149150  1  1
151152  1  1
153154  1  1
M  CHG  8  26  -1  30  -1  34  -1  48  -1  52  -1  56  -1  70  -1  74  -1
M  CHG  8  78  -1  92  -1  96  -1 100  -1 104  -1 119   1 120   1 121   1
M  CHG  8 122   1 123   1 124   1 125   1 126   1 127   1 128   1 129   1
M  CHG  8 130   1 131   1 133  -1 137  -1 141  -1 144   1 145   1 146   1
M  END