
  SciTegic12121614122D

 35 39  0  0  0  0            999 V2000
   -2.3155    0.7475    0.0000 C   0  0
   -2.3155   -0.7475    0.0000 C   0  0
   -1.0028   -1.5132    0.0000 C   0  0
   -1.0028    1.5132    0.0000 C   0  0
    0.2917    0.7475    0.0000 C   0  0
    0.2917   -0.7475    0.0000 C   0  0
    1.7138   -1.2033    0.0000 C   0  0
    2.5889    0.0182    0.0000 C   0  0
    1.7138    1.2033    0.0000 N   0  0
    2.1812    2.6271    0.0000 C   0  0
    3.6500    2.9355    0.0000 C   0  0
    4.1182    4.3614    0.0000 N   0  0
    4.0872    0.0320    0.0000 C   0  0
    4.8506   -1.2602    0.0000 C   0  0
    6.3513   -1.2462    0.0000 C   0  0
    7.1161   -2.5367    0.0000 C   0  0
    8.6160   -2.5196    0.0000 C   0  0
    9.3512   -1.2122    0.0000 C   0  0
    8.5865    0.0783    0.0000 C   0  0
    7.0866    0.0613    0.0000 C   0  0
    5.5858    4.6718    0.0000 C   0  0
    6.0509    6.0979    0.0000 C   0  0
    5.0484    7.2137    0.0000 O   0  0
    3.5808    6.9034    0.0000 C   0  0
    3.1158    5.4773    0.0000 C   0  0
   -3.6168   -1.4950    0.0000 C   0  0
   -3.7580   -2.9756    0.0000 C   0  0
   -5.2259   -3.2843    0.0000 N   0  0
   -5.9730   -1.9836    0.0000 O   0  0
   -4.9669   -0.8711    0.0000 C   0  0
   -2.8632   -3.7753    0.0000 C   0  0
   -5.2069    0.3047    0.0000 C   0  0
    9.2278   -3.5520    0.0000 F   0  0
   10.8519   -1.1920    0.0000 O   0  0
   11.4386   -0.1452    0.0000 C   0  0
  1  2  2  0
  2  3  1  0
  3  6  2  0
  5  4  2  0
  4  1  1  0
  5  6  1  0
  6  7  1  0
  7  8  2  0
  8  9  1  0
  9  5  1  0
  9 10  1  0
 10 11  1  0
 11 12  1  0
  8 13  1  0
 13 14  1  0
 14 15  1  0
 15 16  2  0
 16 17  1  0
 17 18  2  0
 18 19  1  0
 19 20  2  0
 20 15  1  0
 12 21  1  0
 12 25  1  0
 21 22  1  0
 22 23  1  0
 23 24  1  0
 24 25  1  0
 26 27  1  0
 27 28  2  0
 28 29  1  0
 29 30  1  0
 30 26  2  0
  2 26  1  0
 27 31  1  0
 30 32  1  0
 17 33  1  0
 18 34  1  0
 34 35  1  0
M  END