
  SciTegic11201309402D

 68 75  0  0  1  0            999 V2000
    3.1125   -0.4667    0.0000 C   0  0
    1.8250   -0.8292    0.0000 C   0  0
    2.6000   -1.1167    0.0000 N   0  0
    3.9292   -0.5042    0.0000 C   0  0  2  0  0  0
    4.5875   -1.0167    0.0000 C   0  0
    1.8542   -0.0125    0.0000 N   0  0
    6.5417   -2.5625    0.0000 C   0  0
    0.5042   -2.5750    0.0000 C   0  0
    6.7792   -0.9167    0.0000 C   0  0
    8.8542   -1.6375    0.0000 C   0  0
    5.3542   -0.7125    0.0000 N   0  0
   -0.2875   -1.3792    0.0000 C   0  0
    2.6500    0.2125    0.0000 C   0  0
    0.6917   -3.9042    0.0000 N   0  0
    7.8042   -3.0250    0.0000 N   0  0
    0.3917   -0.9250    0.0000 N   0  0
    7.4292   -1.4292    0.0000 N   0  0
    9.6292   -1.3292    0.0000 N   0  0
    1.1417   -1.2917    0.0000 C   0  0  2  0  0  0
    1.0792   -3.1750    0.0000 C   0  0
    7.3417   -2.3375    0.0000 C   0  0
    6.0042   -1.2292    0.0000 C   0  0  2  0  0  0
    8.2042   -1.1250    0.0000 C   0  0  1  0  0  0
   10.2792   -1.8417    0.0000 C   0  0  2  0  0  0
   11.0500   -1.5292    0.0000 C   0  0
   -0.2250   -2.9292    0.0000 C   0  0
    6.5042   -3.3917    0.0000 C   0  0
    1.1917   -2.1167    0.0000 C   0  0
    5.8917   -2.0500    0.0000 C   0  0
   -0.1208   -3.7500    0.0000 C   0  0
    7.2917   -3.6792    0.0000 C   0  0
    4.0542    0.3208    0.0000 C   0  0
   -1.5083   -1.5542    0.0000 N   0  0
   -0.9750   -1.0417    0.0000 C   0  0  1  0  0  0
    4.4667   -1.8417    0.0000 O   0  0
    6.8917   -0.0917    0.0000 O   0  0
    8.7375   -2.4542    0.0000 O   0  0
   -0.2458   -2.2042    0.0000 O   0  0
   10.1542   -2.6667    0.0000 C   0  0
   11.1667   -0.7167    0.0000 O   0  0
    8.3167   -0.3042    0.0000 C   0  0
   11.8292   -1.8000    0.0000 N   0  0
    4.8250    0.6250    0.0000 C   0  0
   10.8125   -3.1792    0.0000 C   0  0
   -0.9875   -2.6167    0.0000 C   0  0
    5.8667   -3.9167    0.0000 C   0  0
   -2.1708   -1.0500    0.0000 C   0  0
    9.0917    0.0083    0.0000 C   0  0
   -0.7625   -4.2500    0.0000 C   0  0
    7.4292   -4.4917    0.0000 C   0  0
   -1.0833   -0.2792    0.0000 C   0  0
    4.9417    1.4458    0.0000 C   0  0
   11.5792   -2.8750    0.0000 C   0  0
    5.4750    0.1083    0.0000 C   0  0
   10.6917   -4.0042    0.0000 C   0  0
    9.2125    0.8250    0.0000 C   0  0
    9.7417   -0.5125    0.0000 C   0  0
   -1.9083   -0.2750    0.0000 C   0  0
   -1.6375   -3.1250    0.0000 C   0  0
    6.0042   -4.7375    0.0000 C   0  0
   -1.5250   -3.9417    0.0000 C   0  0
    6.7917   -5.0292    0.0000 C   0  0
    6.2417    0.4208    0.0000 C   0  0
   12.2292   -3.3875    0.0000 C   0  0
   11.3417   -4.5167    0.0000 C   0  0
    5.7125    1.7500    0.0000 C   0  0
    6.3667    1.2458    0.0000 C   0  0
   12.1167   -4.2125    0.0000 C   0  0
  2  3  2  0
  3  1  1  0
  4  1  1  0
  5  4  1  0
  6 13  1  0
  7 29  1  0
  8 28  1  0
  9 22  1  0
 10 23  1  0
 11  5  1  0
 12 16  1  0
 13  1  2  0
 14 20  1  0
 15 21  1  0
 19 16  1  1
 17  9  1  0
 18 10  1  0
 19  2  1  0
 20  8  2  0
 21  7  2  0
 22 11  1  1
 23 17  1  1
 24 18  1  6
 25 24  1  0
 26  8  1  0
 27  7  1  0
 19 28  1  0
 22 29  1  0
 30 26  2  0
 31 27  2  0
  4 32  1  1
 33 34  1  0
 34 12  1  1
 35  5  2  0
 36  9  2  0
 37 10  2  0
 38 12  2  0
 24 39  1  0
 40 25  2  0
 23 41  1  0
 42 25  1  0
 43 32  1  0
 44 39  1  0
 45 26  1  0
 46 27  1  0
 47 33  1  0
 48 41  1  0
 49 30  1  0
 50 31  1  0
 34 51  1  0
 52 43  1  0
 53 44  1  0
 54 43  2  0
 55 44  2  0
 56 48  1  0
 57 48  1  0
 58 51  1  0
 59 45  2  0
 60 46  2  0
 61 59  1  0
 62 60  1  0
 63 54  1  0
 64 53  2  0
 65 55  1  0
 66 52  2  0
 67 63  2  0
 68 65  2  0
  2  6  1  0
 67 66  1  0
 14 30  1  0
 15 31  1  0
 58 47  1  0
 49 61  2  0
 62 50  2  0
 68 64  1  0
M  END