
  SciTegic10311316302D

 28 31  0  0  0  0            999 V2000
   23.9860  -23.2982    0.0000 C   0  0
   23.9849  -24.1177    0.0000 C   0  0
   24.6929  -24.5267    0.0000 C   0  0
   24.6911  -22.8893    0.0000 C   0  0
   25.3998  -23.2946    0.0000 C   0  0
   25.4046  -24.1132    0.0000 C   0  0
   26.1846  -24.3616    0.0000 S   0  0
   26.6620  -23.6965    0.0000 C   0  0
   26.1768  -23.0371    0.0000 N   0  0
   27.4791  -23.6917    0.0000 N   0  0
   27.8835  -22.9816    0.0000 N   0  0
   28.7007  -22.9768    0.0000 C   0  0
   29.1051  -22.2667    0.0000 C   0  0
   29.1135  -23.6821    0.0000 C   0  0
   29.9231  -22.2645    0.0000 C   0  0
   30.3275  -21.5553    0.0000 C   0  0
   29.9147  -20.8490    0.0000 C   0  0
   29.0933  -20.8565    0.0000 C   0  0
   28.6926  -21.5663    0.0000 C   0  0
   31.1416  -21.5496    0.0000 C   0  0
   31.5534  -22.2567    0.0000 N   0  0
   32.3698  -22.2526    0.0000 C   0  0
   32.7754  -21.5422    0.0000 C   0  0
   32.3586  -20.8344    0.0000 C   0  0
   31.5436  -20.8419    0.0000 C   0  0
   32.7840  -22.9604    0.0000 C   0  0
   32.3789  -23.6701    0.0000 O   0  0
   33.6011  -22.9564    0.0000 O   0  0
  1  2  2  0
  2  3  1  0
  3  6  2  0
  5  4  2  0
  4  1  1  0
  5  6  1  0
  6  7  1  0
  7  8  1  0
  8  9  2  0
  9  5  1  0
  8 10  1  0
 10 11  1  0
 11 12  2  0
 12 13  1  0
 12 14  1  0
 13 15  2  0
 15 16  1  0
 16 17  2  0
 17 18  1  0
 18 19  2  0
 19 13  1  0
 20 21  2  0
 21 22  1  0
 22 23  2  0
 23 24  1  0
 24 25  2  0
 25 20  1  0
 16 20  1  0
 26 27  1  0
 26 28  2  0
 22 26  1  0
M  END