
  SciTegic09291413392D

 28 30  0  0  0  0            999 V2000
   14.0312  -16.3892    0.0000 C   0  0
   14.0300  -17.2087    0.0000 C   0  0
   14.7381  -17.6177    0.0000 C   0  0
   14.7363  -15.9803    0.0000 C   0  0
   15.4449  -16.3856    0.0000 C   0  0
   15.4456  -17.2046    0.0000 C   0  0
   16.1542  -17.6117    0.0000 N   0  0
   16.8624  -17.2008    0.0000 C   0  0
   16.8577  -16.3787    0.0000 C   0  0
   16.1486  -15.9754    0.0000 C   0  0
   16.1437  -15.1632    0.0000 C   0  0
   16.8509  -14.7515    0.0000 C   0  0
   16.8469  -13.9351    0.0000 C   0  0
   16.1365  -13.5294    0.0000 C   0  0
   15.4286  -13.9462    0.0000 C   0  0
   15.4361  -14.7612    0.0000 C   0  0
   17.5629  -15.9658    0.0000 C   0  0  1  0  0  0
   18.2731  -16.3701    0.0000 C   0  0
   18.2793  -17.1879    0.0000 O   0  0
   18.9796  -15.9579    0.0000 O   0  0
   17.5717  -17.6067    0.0000 C   0  0
   13.3234  -15.9808    0.0000 Br  0  0
   16.1311  -12.7122    0.0000 Cl  0  0
   17.5579  -15.1486    0.0000 O   0  0
   18.2632  -14.7357    0.0000 C   0  0
   18.2582  -13.9186    0.0000 C   0  0
   18.9733  -15.1400    0.0000 C   0  0
   18.9687  -14.3215    0.0000 C   0  0
  1  2  2  0
  2  3  1  0
  3  6  2  0
  5  4  2  0
  4  1  1  0
  5  6  1  0
  6  7  1  0
  7  8  2  0
  8  9  1  0
  9 10  2  0
 10  5  1  0
 11 12  2  0
 12 13  1  0
 13 14  2  0
 14 15  1  0
 15 16  2  0
 16 11  1  0
 10 11  1  0
  9 17  1  0
 17 18  1  0
 18 19  1  0
 18 20  2  0
  8 21  1  0
  1 22  1  0
 14 23  1  0
 17 24  1  6
 24 25  1  0
 25 26  1  0
 25 27  1  0
 25 28  1  0
M  END