
  SciTegic10311316212D

 28 31  0  0  0  0            999 V2000
    7.3285   -9.7072    0.0000 C   0  0
    7.3274  -10.5267    0.0000 C   0  0
    8.0354  -10.9357    0.0000 C   0  0
    8.7451  -10.5263    0.0000 C   0  0
    8.7423   -9.7036    0.0000 C   0  0
    8.0337   -9.2983    0.0000 C   0  0
    8.0254   -8.4802    0.0000 N   0  0
    8.6850   -7.9979    0.0000 C   0  0
    8.4302   -7.2215    0.0000 N   0  0
    7.6129   -7.2239    0.0000 N   0  0
    7.3629   -8.0019    0.0000 C   0  0
    9.4630   -8.2481    0.0000 S   0  0
   10.0686   -7.6995    0.0000 C   0  0
   10.8466   -7.9497    0.0000 C   0  0
   11.4522   -7.4010    0.0000 O   0  0
   11.0189   -8.7485    0.0000 O   0  0
    6.5860   -8.2608    0.0000 C   0  0
    8.0352  -11.7529    0.0000 Cl  0  0
    9.4535  -10.9338    0.0000 Cl  0  0
    5.9202   -7.7821    0.0000 C   0  0
    6.3391   -9.0390    0.0000 S   0  0
    5.5203   -9.0453    0.0000 C   0  0
    5.2627   -8.2672    0.0000 C   0  0
    4.4616   -8.1025    0.0000 C   0  0
    3.9173   -8.7151    0.0000 C   0  0
    4.1797   -9.4950    0.0000 C   0  0
    4.9801   -9.6559    0.0000 C   0  0
    5.9152   -6.9649    0.0000 Cl  0  0
  1  2  2  0
  2  3  1  0
  3  4  2  0
  4  5  1  0
  5  6  2  0
  6  1  1  0
  7  8  1  0
  8  9  2  0
  9 10  1  0
 10 11  2  0
 11  7  1  0
  6  7  1  0
  8 12  1  0
 12 13  1  0
 13 14  1  0
 14 15  1  0
 14 16  2  0
 11 17  1  0
  3 18  1  0
  4 19  1  0
 17 20  2  0
 20 23  1  0
 22 21  1  0
 21 17  1  0
 22 23  2  0
 23 24  1  0
 24 25  2  0
 25 26  1  0
 26 27  2  0
 27 22  1  0
 20 28  1  0
M  END