
  SciTegic12171313052D

 40 45  0  0  0  0            999 V2000
   15.3581   -5.2756    0.0000 C   0  0
   16.0706   -5.6881    0.0000 C   0  0
   16.7802   -5.2796    0.0000 C   0  0
   16.7834   -4.4569    0.0000 N   0  0
   16.0709   -4.0444    0.0000 C   0  0
   15.3552   -4.4546    0.0000 C   0  0
   17.4990   -4.0462    0.0000 C   0  0
   18.2124   -4.4606    0.0000 C   0  0
   18.2082   -5.2847    0.0000 C   0  0
   18.9175   -5.6990    0.0000 C   0  0
   19.6354   -5.2918    0.0000 N   0  0
   19.6395   -4.4659    0.0000 C   0  0
   18.9257   -4.0471    0.0000 C   0  0
   14.6770   -5.7411    0.0000 N   0  0
   13.8642   -6.8000    0.0000 N   0  0
   14.6558   -6.5676    0.0000 C   0  0
   13.3986   -6.1188    0.0000 C   0  0
   13.9034   -5.4665    0.0000 C   0  0
   13.5906   -4.7053    0.0000 C   0  0
   12.7734   -4.5953    0.0000 C   0  0
   12.2699   -5.2525    0.0000 C   0  0
   12.5854   -6.0111    0.0000 C   0  0
   20.3473   -5.7089    0.0000 C   0  0
   21.0643   -5.3009    0.0000 C   0  0
   21.7744   -5.7225    0.0000 C   0  0
   22.4910   -5.3152    0.0000 C   0  0
   22.4967   -4.4894    0.0000 N   0  0
   21.7798   -4.0725    0.0000 C   0  0
   21.0662   -4.4821    0.0000 C   0  0
   15.3098   -7.0705    0.0000 O   0  0
   17.5011   -3.2212    0.0000 O   0  0
   23.2026   -5.7326    0.0000 N   0  0
   11.4561   -5.1458    0.0000 F   0  0
   13.5868   -7.5770    0.0000 C   0  0
   12.7753   -7.7253    0.0000 C   0  0
   12.2451   -7.0975    0.0000 C   0  0
   11.4367   -7.2432    0.0000 C   0  0
   11.1553   -8.0191    0.0000 C   0  0
   11.6886   -8.6498    0.0000 C   0  0
   12.5034   -8.5046    0.0000 C   0  0
  1  2  1  0
  1  6  1  0
  2  3  1  0
  3  4  1  0
  4  5  1  0
  5  6  1  0
  4  7  1  0
  7  8  1  0
  8  9  1  0
  8 13  1  0
  9 10  1  0
 10 11  1  0
 11 12  1  0
 12 13  1  0
  1 14  1  0
 14 18  1  0
 17 15  1  0
 15 16  1  0
 16 14  1  0
 17 18  2  0
 18 19  1  0
 19 20  2  0
 20 21  1  0
 21 22  2  0
 22 17  1  0
 11 23  1  0
 23 24  1  0
 24 25  2  0
 25 26  1  0
 26 27  2  0
 27 28  1  0
 28 29  2  0
 29 24  1  0
 16 30  2  0
  7 31  2  0
 26 32  1  0
 21 33  1  0
 15 34  1  0
 34 35  1  0
 35 36  1  0
 35 40  1  0
 36 37  1  0
 37 38  1  0
 38 39  1  0
 39 40  1  0
M  END