
  SciTegic12231509382D

 17 18  0  0  0  0            999 V2000
    3.2650    0.2935    0.0000 N   0  3
    2.5506    0.7060    0.0000 N   0  5
    4.6940   -4.6565    0.0000 N   0  0
    5.1065   -5.9261    0.0000 N   0  0
    5.3614   -5.1414    0.0000 C   0  0
    3.9795   -0.1190    0.0000 N   0  0
    4.6940   -3.8315    0.0000 C   0  0
    4.2815   -5.9261    0.0000 C   0  0
    4.0265   -5.1414    0.0000 C   0  0
    3.9795   -3.4190    0.0000 C   0  0
    3.9795   -2.5940    0.0000 C   0  0
    4.6940   -2.1815    0.0000 C   0  0
    3.2650   -2.1815    0.0000 C   0  0
    3.9795   -0.9440    0.0000 C   0  0
    4.6940   -1.3565    0.0000 C   0  0
    3.2650   -1.3565    0.0000 C   0  0
    3.2650   -3.8315    0.0000 O   0  0
  2  1  2  0
  3  7  1  0
  4  5  2  0
  5  3  1  0
  6  1  2  0
  7 10  1  0
  8  9  2  0
  9  3  1  0
 10 11  1  0
 11 13  2  0
 12 15  2  0
 13 16  1  0
 14  6  1  0
 15 14  1  0
 16 14  2  0
 10 17  1  0
 11 12  1  0
  4  8  1  0
M  CHG  2   1   1   2  -1
M  END