
  CDK    9/16/09,9:55

 11 12  0  0  0  0  0  0  0  0999 V2000
   10.5576   -0.3296    0.0000 O   0  0  0  0  0  0  0  0  0  0  0  0
   10.0735   -0.9983    0.0000 C   0  0  0  0  0  0  0  0  0  0  0  0
   10.5576   -1.6628    0.0000 N   0  0  0  0  0  0  0  0  0  0  0  0
   11.3412   -1.4102    0.0000 C   0  0  0  0  0  0  0  0  0  0  0  0
   11.3412   -0.5864    0.0000 C   0  0  0  0  0  0  0  0  0  0  0  0
   12.0561   -1.8222    0.0000 C   0  0  0  0  0  0  0  0  0  0  0  0
   12.7709   -1.4102    0.0000 C   0  0  0  0  0  0  0  0  0  0  0  0
   12.7709   -0.5864    0.0000 C   0  0  0  0  0  0  0  0  0  0  0  0
   12.0561   -0.1745    0.0000 C   0  0  0  0  0  0  0  0  0  0  0  0
    9.2497   -0.9983    0.0000 N   0  0  0  0  0  0  0  0  0  0  0  0
   13.4816   -1.8222    0.0000 Cl  0  0  0  0  0  0  0  0  0  0  0  0
  1  2  1  0  0  0  0 
  2  3  2  0  0  0  0 
  3  4  1  0  0  0  0 
  4  5  1  0  0  0  0 
  1  5  1  0  0  0  0 
  6  7  1  0  0  0  0 
  7  8  2  0  0  0  0 
  8  9  1  0  0  0  0 
  5  9  2  0  0  0  0 
  4  6  2  0  0  0  0 
  2 10  1  0  0  0  0 
  7 11  1  0  0  0  0 
M  END