
          11290715122D 1   1.00000     0.00000     0

 37 38  0     0  0            999 V2000
   -1.7598   -0.3583    0.0000 C   0  0  0  0  0  0           0  0  0
   -1.7609   -1.1857    0.0000 C   0  0  0  0  0  0           0  0  0
   -1.0461   -1.5985    0.0000 C   0  0  0  0  0  0           0  0  0
   -0.3297   -1.1852    0.0000 C   0  0  0  0  0  0           0  0  0
   -0.3325   -0.3547    0.0000 C   0  0  0  0  0  0           0  0  0
   -1.0479    0.0545    0.0000 C   0  0  0  0  0  0           0  0  0
    0.3855   -1.5966    0.0000 C   0  0  1  0  0  0           0  0  0
    0.3867   -2.4216    0.0000 C   0  0  0  0  0  0           0  0  0
    1.0993   -1.1829    0.0000 N   0  0  0  0  0  0           0  0  0
    1.8144   -1.5943    0.0000 C   0  0  0  0  0  0           0  0  0
    2.5282   -1.1807    0.0000 C   0  0  0  0  0  0           0  0  0
    1.8157   -2.4193    0.0000 O   0  0  0  0  0  0           0  0  0
    3.2420   -1.5934    0.0000 C   0  0  0  0  0  0           0  0  0
    3.9554   -1.1805    0.0000 C   0  0  0  0  0  0           0  0  0
    3.9545   -0.3546    0.0000 C   0  0  0  0  0  0           0  0  0
    3.2344    0.0566    0.0000 C   0  0  0  0  0  0           0  0  0
    2.5240   -0.3587    0.0000 C   0  0  0  0  0  0           0  0  0
    4.6703   -1.5922    0.0000 O   0  0  0  0  0  0           0  0  0
    5.3843   -1.1790    0.0000 C   0  0  0  0  0  0           0  0  0
    6.0992   -1.5907    0.0000 C   0  0  0  0  0  0           0  0  0
    6.8132   -1.1774    0.0000 N   0  0  0  0  0  0           0  0  0
    6.1001   -2.4157    0.0000 O   0  0  0  0  0  0           0  0  0
    7.5282   -1.5891    0.0000 C   0  0  0  0  0  0           0  0  0
    8.2422   -1.1759    0.0000 C   0  0  0  0  0  0           0  0  0
    8.9571   -1.5876    0.0000 C   0  0  0  0  0  0           0  0  0
    9.6711   -1.1743    0.0000 C   0  0  0  0  0  0           0  0  0
   10.3860   -1.5860    0.0000 C   0  0  0  0  0  0           0  0  0
   11.1001   -1.1728    0.0000 N   0  0  0  0  0  0           0  0  0
    3.2302    0.8816    0.0000 C   0  0  0  0  0  0           0  0  0
    3.9425    1.2977    0.0000 N   0  0  3  0  0  0           0  0  0
    2.5136    1.2904    0.0000 O   0  0  0  0  0  0           0  0  0
    4.6591    0.8889    0.0000 C   0  0  0  0  0  0           0  0  0
    3.9383    2.1227    0.0000 C   0  0  0  0  0  0           0  0  0
    5.3714    1.3050    0.0000 C   0  0  0  0  0  0           0  0  0
    4.6507    2.5388    0.0000 C   0  0  0  0  0  0           0  0  0
    5.3672    2.1300    0.0000 C   0  0  0  0  0  0           0  0  0
    6.0880    0.8961    0.0000 C   0  0  0  0  0  0           0  0  0
 14 18  1  0     0  0
  7  9  1  0     0  0
 18 19  1  0     0  0
  4  5  1  0     0  0
 19 20  1  0     0  0
  9 10  1  0     0  0
 20 21  1  0     0  0
  2  3  1  0     0  0
 20 22  2  0     0  0
 10 11  1  0     0  0
 21 23  1  0     0  0
  5  6  2  0     0  0
 23 24  1  0     0  0
 10 12  2  0     0  0
 24 25  1  0     0  0
  6  1  1  0     0  0
 25 26  1  0     0  0
 11 13  2  0     0  0
 26 27  1  0     0  0
  1  2  2  0     0  0
 27 28  1  0     0  0
 13 14  1  0     0  0
 16 29  1  0     0  0
  4  7  1  0     0  0
 29 30  1  0     0  0
 14 15  2  0     0  0
 29 31  2  0     0  0
  3  4  2  0     0  0
 30 32  1  0     0  0
 15 16  1  0     0  0
 30 33  1  0     0  0
  7  8  1  6     0  0
 32 34  1  0     0  0
 16 17  2  0     0  0
 33 35  1  0     0  0
 35 36  2  0     0  0
 17 11  1  0     0  0
 34 37  2  0     0  0
M  END