
  SciTegic05071317042D

 29 32  0  0  0  0            999 V2000
   12.8755   -9.9342    0.0000 C   0  0
   12.8744  -10.7537    0.0000 C   0  0
   13.5824  -11.1627    0.0000 N   0  0
   14.2921  -10.7533    0.0000 C   0  0
   14.2893   -9.9306    0.0000 C   0  0
   13.5806   -9.5253    0.0000 C   0  0
   14.9954   -9.5193    0.0000 C   0  0
   14.9930   -8.7008    0.0000 O   0  0
   15.4135   -8.0001    0.0000 C   0  0
   13.5782   -8.7082    0.0000 C   0  0
   14.2847   -8.2974    0.0000 F   0  0
   12.8693   -8.3017    0.0000 F   0  0
   13.5703   -7.8871    0.0000 F   0  0
   15.6984   -9.9246    0.0000 C   0  0
   15.6950  -10.7368    0.0000 C   0  0
   16.3964  -11.1428    0.0000 C   0  0
   17.1001  -10.7378    0.0000 C   0  0
   15.1208   -7.2374    0.0000 N   0  0
   16.2306   -8.0139    0.0000 O   0  0
   16.3962   -9.5200    0.0000 C   0  0
   17.0951   -9.9211    0.0000 C   0  0
   17.7899   -9.5165    0.0000 C   0  0
   17.7869   -8.7109    0.0000 C   0  0
   17.0834   -8.3117    0.0000 C   0  0
   16.3915   -8.7186    0.0000 C   0  0
   15.5700   -6.5530    0.0000 C   0  0
   15.0557   -5.9168    0.0000 C   0  0
   14.2920   -6.2108    0.0000 N   0  0
   14.3370   -7.0277    0.0000 C   0  0
  1  2  2  0
  2  3  1  0
  3  4  2  0
  4  5  1  0
  5  6  2  0
  6  1  1  0
  5  7  1  0
  7  8  1  0
  8  9  1  0
  6 10  1  0
 10 11  1  0
 10 12  1  0
 10 13  1  0
  7 14  1  0
 14 15  2  0
 15 16  1  0
 16 17  2  0
 17 21  1  0
 20 14  1  0
  9 18  1  0
  9 19  2  0
 20 21  1  0
 21 22  2  0
 22 23  1  0
 23 24  2  0
 24 25  1  0
 25 20  2  0
 26 27  2  0
 18 26  1  0
 27 28  1  0
 28 29  2  0
 29 18  1  0
M  END