
          11280715132D 1   1.00000     0.00000     0

 12 12  0     0  0            999 V2000
   -4.5083   -1.5167    0.0000 N   0  0  0  0  0  0           0  0  0
   -3.4208   -2.3042    0.0000 N   0  0  0  0  0  0           0  0  0
   -4.2458   -2.3042    0.0000 C   0  0  0  0  0  0           0  0  0
   -3.1708   -1.5250    0.0000 C   0  0  0  0  0  0           0  0  0
   -3.8375   -1.0375    0.0000 C   0  0  0  0  0  0           0  0  0
    0.5417    1.8625    0.0000 N   0  0  0  0  0  0           0  0  0
   -2.3750   -1.2750    0.0000 C   0  0  0  0  0  0           0  0  0
   -0.2458    1.6208    0.0000 C   0  0  0  0  0  0           0  0  0
   -2.1958   -0.4667    0.0000 C   0  0  0  0  0  0           0  0  0
   -0.4333    0.8208    0.0000 C   0  0  0  0  0  0           0  0  0
   -1.4083   -0.2292    0.0000 C   0  0  0  0  0  0           0  0  0
   -1.2208    0.5750    0.0000 C   0  0  0  0  0  0           0  0  0
  2  3  2  0     0  0
  3  1  1  0     0  0
  4  5  2  0     0  0
  5  1  1  0     0  0
  6  8  1  0     0  0
  7  4  1  0     0  0
  8 10  1  0     0  0
  9  7  1  0     0  0
 10 12  1  0     0  0
 11  9  1  0     0  0
 12 11  1  0     0  0
  2  4  1  0     0  0
M  END