
  SciTegic05221516342D

 23 25  0  0  0  0            999 V2000
    6.5180   -8.6861    0.0000 N   0  0
    6.9984   -9.3473    0.0000 C   0  0
    6.5180  -10.0084    0.0000 N   0  0
    5.7408   -9.7558    0.0000 C   0  0
    5.0331  -10.1644    0.0000 N   0  0
    4.3254   -9.7558    0.0000 C   0  0
    4.3254   -8.9387    0.0000 N   0  0
    5.0331   -8.5301    0.0000 C   0  0
    5.7408   -8.9387    0.0000 C   0  0
    5.0331   -7.7129    0.0000 O   0  0
    7.8156   -9.3473    0.0000 S   0  0
    8.2242  -10.0550    0.0000 C   0  0
    9.0414  -10.0550    0.0000 C   0  0
    9.4499   -9.3473    0.0000 C   0  0
   10.2671   -9.3473    0.0000 C   0  0
   10.6757  -10.0550    0.0000 C   0  0
   10.2671  -10.7627    0.0000 C   0  0
    9.4499  -10.7627    0.0000 C   0  0
    3.6177  -10.1644    0.0000 N   0  0
    9.0414   -8.6395    0.0000 C   0  0
    9.4499   -7.9318    0.0000 F   0  0
    8.2242   -8.6395    0.0000 F   0  0
    8.6259   -7.9284    0.0000 F   0  0
  1  2  2  0
  2  3  1  0
  3  4  1  0
  4  5  1  0
  5  6  2  0
  6  7  1  0
  7  8  1  0
  8  9  1  0
  1  9  1  0
  4  9  2  0
  8 10  2  0
 12 13  1  0
 13 14  1  0
 14 15  2  0
 15 16  1  0
 16 17  2  0
 17 18  1  0
 13 18  2  0
 11 12  1  0
  2 11  1  0
  6 19  1  0
 14 20  1  0
 20 21  1  0
 20 22  1  0
 20 23  1  0
M  END