
          08180812492D 1   1.00000     0.00000     0

 18 19  0     0  0            999 V2000
   11.0277   -3.9083    0.0000 N   0  0  0  0  0  0           0  0  0
   11.0266   -4.7357    0.0000 C   0  0  0  0  0  0           0  0  0
   11.7414   -5.1485    0.0000 N   0  0  0  0  0  0           0  0  0
   12.4578   -4.7352    0.0000 C   0  0  0  0  0  0           0  0  0
   12.4550   -3.9047    0.0000 C   0  0  0  0  0  0           0  0  0
   11.7396   -3.4955    0.0000 C   0  0  0  0  0  0           0  0  0
   13.1679   -3.4895    0.0000 C   0  0  0  0  0  0           0  0  0
   13.8839   -3.8993    0.0000 C   0  0  0  0  0  0           0  0  0
   13.9769   -4.7183    0.0000 C   0  0  0  0  0  0           0  0  0
   14.7845   -4.8868    0.0000 C   0  0  0  0  0  0           0  0  0
   15.1944   -4.1708    0.0000 S   0  0  0  0  0  0           0  0  0
   14.6400   -3.5599    0.0000 C   0  0  0  0  0  0           0  0  0
   13.3672   -5.2741    0.0000 C   0  0  0  0  0  0           0  0  0
   15.1229   -5.6392    0.0000 C   0  0  0  0  0  0           0  0  0
   15.9437   -5.7224    0.0000 C   0  0  0  0  0  0           0  0  0
   16.2821   -6.4748    0.0000 O   0  0  0  0  0  0           0  0  0
   11.7371   -2.6705    0.0000 N   0  0  0  0  0  0           0  0  0
   10.3118   -5.1476    0.0000 C   0  0  0  0  0  0           0  0  0
  4  5  1  0     0  0
  2  3  1  0     0  0
  5  6  2  0     0  0
  9 10  2  0     0  0
 10 11  1  0     0  0
 11 12  1  0     0  0
 12  8  2  0     0  0
  6  1  1  0     0  0
  9 13  1  0     0  0
  1  2  2  0     0  0
 10 14  1  0     0  0
  5  7  1  0     0  0
 14 15  1  0     0  0
  3  4  2  0     0  0
 15 16  1  0     0  0
  7  8  1  0     0  0
  6 17  1  0     0  0
  8  9  1  0     0  0
  2 18  1  0     0  0
M  END