
          11280715502D 1   1.00000     0.00000     0

 47 51  0     1  0            999 V2000
   -1.9482   -5.9720    0.0000 C   0  0  0  0  0  0           0  0  0
   -1.5284   -6.6850    0.0000 C   0  0  0  0  0  0           0  0  0
   -0.7030   -6.6770    0.0000 C   0  0  0  0  0  0           0  0  0
   -0.2963   -5.9568    0.0000 C   0  0  0  0  0  0           0  0  0
   -0.7211   -5.2431    0.0000 C   0  0  0  0  0  0           0  0  0
   -1.5451   -5.2546    0.0000 C   0  0  0  0  0  0           0  0  0
   -0.3184   -4.5231    0.0000 C   0  0  0  0  0  0           0  0  0
    0.5065   -4.5118    0.0000 N   0  0  3  0  0  0           0  0  0
   -0.7406   -3.8143    0.0000 O   0  0  0  0  0  0           0  0  0
    0.9274   -5.2234    0.0000 C   0  0  1  0  0  0           0  0  0
    1.7488   -5.2142    0.0000 C   0  0  0  0  0  0           0  0  0
    2.1553   -4.4959    0.0000 N   0  0  3  0  0  0           0  0  0
    1.7343   -3.7853    0.0000 C   0  0  0  0  0  0           0  0  0
    0.9067   -3.7929    0.0000 C   0  0  0  0  0  0           0  0  0
    0.5227   -5.9423    0.0000 C   0  0  0  0  0  0           0  0  0
    0.9346   -6.6552    0.0000 C   0  0  0  0  0  0           0  0  0
    0.6042   -7.4092    0.0000 C   0  0  0  0  0  0           0  0  0
    1.2162   -7.9599    0.0000 N   0  0  0  0  0  0           0  0  0
    1.7576   -6.7428    0.0000 C   0  0  0  0  0  0           0  0  0
    1.9281   -7.5468    0.0000 C   0  0  0  0  0  0           0  0  0
    2.7083   -7.7996    0.0000 C   0  0  0  0  0  0           0  0  0
    3.3185   -7.2493    0.0000 C   0  0  0  0  0  0           0  0  0
    3.1434   -6.4430    0.0000 C   0  0  0  0  0  0           0  0  0
    2.3635   -6.1940    0.0000 C   0  0  0  0  0  0           0  0  0
   -0.2917   -7.3891    0.0000 C   0  0  3  0  0  0           0  0  0
    0.4186   -6.9696    0.0000 F   0  0  0  0  0  0           0  0  0
    0.1242   -8.1016    0.0000 F   0  0  0  0  0  0           0  0  0
   -1.0042   -7.8051    0.0000 F   0  0  0  0  0  0           0  0  0
   -2.7731   -5.9804    0.0000 C   0  0  3  0  0  0           0  0  0
   -2.7702   -6.8060    0.0000 F   0  0  0  0  0  0           0  0  0
   -2.7866   -5.1559    0.0000 F   0  0  0  0  0  0           0  0  0
   -3.6006   -5.9899    0.0000 F   0  0  0  0  0  0           0  0  0
    2.9803   -4.4878    0.0000 C   0  0  0  0  0  0           0  0  0
    3.3857   -3.7693    0.0000 C   0  0  0  0  0  0           0  0  0
    4.2107   -3.7611    0.0000 N   0  0  0  0  0  0           0  0  0
    2.9662   -3.0589    0.0000 C   0  0  0  0  0  0           0  0  0
    4.6302   -4.4715    0.0000 O   0  0  0  0  0  0           0  0  0
    5.4552   -4.4634    0.0000 C   0  0  0  0  0  0           0  0  0
    5.8747   -5.1737    0.0000 C   0  0  0  0  0  0           0  0  0
    6.6997   -5.1656    0.0000 N   0  0  3  0  0  0           0  0  0
    7.1127   -5.8770    0.0000 C   0  0  0  0  0  0           0  0  0
    7.9340   -5.8709    0.0000 C   0  0  0  0  0  0           0  0  0
    8.3433   -5.1542    0.0000 S   0  0  3  0  0  0           0  0  0
    7.9250   -4.4420    0.0000 C   0  0  0  0  0  0           0  0  0
    7.0974   -4.4465    0.0000 C   0  0  0  0  0  0           0  0  0
    8.7500   -4.4333    0.0000 O   0  0  0  0  0  0           0  0  0
    8.9250   -5.7333    0.0000 O   0  0  0  0  0  0           0  0  0
  5  6  2  0     0  0
 22 23  1  0     0  0
  6  1  1  0     0  0
 23 24  2  0     0  0
 24 19  1  0     0  0
  1  2  2  0     0  0
  3 25  1  0     0  0
  8 14  1  0     0  0
 25 26  1  0     0  0
 10 11  1  0     0  0
 25 27  1  0     0  0
 11 12  1  0     0  0
 25 28  1  0     0  0
 12 13  1  0     0  0
  1 29  1  0     0  0
 13 14  1  0     0  0
 29 30  1  0     0  0
  5  7  1  0     0  0
 29 31  1  0     0  0
 10 15  1  1     0  0
 29 32  1  0     0  0
  3  4  2  0     0  0
 12 33  1  0     0  0
 15 16  1  0     0  0
 33 34  1  0     0  0
 16 17  2  0     0  0
 34 35  2  0     0  0
  7  8  1  0     0  0
 34 36  1  0     0  0
 35 37  1  0     0  0
 17 18  1  0     0  0
 37 38  1  0     0  0
 18 20  1  0     0  0
 38 39  1  0     0  0
 19 16  1  0     0  0
 39 40  1  0     0  0
 40 41  1  0     0  0
  7  9  2  0     0  0
  8 10  1  0     0  0
 19 20  2  0     0  0
  4  5  1  0     0  0
 20 21  1  0     0  0
 40 45  1  0     0  0
 41 42  1  0     0  0
 42 43  1  0     0  0
 43 44  1  0     0  0
 44 45  1  0     0  0
  2  3  1  0     0  0
 43 46  2  0     0  0
 21 22  2  0     0  0
 43 47  2  0     0  0
M  END