
  Mrv0541 05211314572D          

 18 18  0  0  0  0            999 V2000
    5.5148   -2.2500    0.0000 C   0  0  0  0  0  0  0  0  0  0  0  0
    4.8003   -2.6625    0.0000 C   0  0  0  0  0  0  0  0  0  0  0  0
    4.8003   -3.4875    0.0000 C   0  0  0  0  0  0  0  0  0  0  0  0
    5.5148   -3.9000    0.0000 C   0  0  0  0  0  0  0  0  0  0  0  0
    6.2293   -3.4875    0.0000 C   0  0  0  0  0  0  0  0  0  0  0  0
    6.2293   -2.6625    0.0000 C   0  0  0  0  0  0  0  0  0  0  0  0
    5.5148   -1.4250    0.0000 C   0  0  0  0  0  0  0  0  0  0  0  0
    5.5148   -4.7250    0.0000 C   0  0  0  0  0  0  0  0  0  0  0  0
    6.9438   -3.9000    0.0000 C   0  0  0  0  0  0  0  0  0  0  0  0
    7.6582   -3.4875    0.0000 S   0  0  0  0  0  0  0  0  0  0  0  0
    4.0859   -2.2500    0.0000 C   0  0  0  0  0  0  0  0  0  0  0  0
    4.0859   -1.4250    0.0000 S   0  0  0  0  0  0  0  0  0  0  0  0
    3.3714   -1.0125    0.0000 C   0  0  0  0  0  0  0  0  0  0  0  0
    3.3714   -0.1875    0.0000 N   0  0  0  0  0  0  0  0  0  0  0  0
    2.6569   -1.4250    0.0000 N   0  0  0  0  0  0  0  0  0  0  0  0
    8.3727   -3.9000    0.0000 C   0  0  0  0  0  0  0  0  0  0  0  0
    9.0872   -3.4875    0.0000 N   0  0  0  0  0  0  0  0  0  0  0  0
    8.3727   -4.7250    0.0000 N   0  0  0  0  0  0  0  0  0  0  0  0
  5  9  1  0  0  0  0
  4  5  1  0  0  0  0
  9 10  1  0  0  0  0
  2  3  1  0  0  0  0
  2 11  1  0  0  0  0
  5  6  2  0  0  0  0
 11 12  1  0  0  0  0
  6  1  1  0  0  0  0
 12 13  1  0  0  0  0
  1  2  2  0  0  0  0
 13 14  1  0  0  0  0
  1  7  1  0  0  0  0
 13 15  2  0  0  0  0
  3  4  2  0  0  0  0
 10 16  1  0  0  0  0
  4  8  1  0  0  0  0
 16 17  1  0  0  0  0
 16 18  2  0  0  0  0
M  END