
  SciTegic01161211252D

 35 35  0  0  0  0            999 V2000
    0.6875   -7.0542    0.0000 S   0  0
    9.2667   -0.4125    0.0000 C   0  0  2  0  0  0
    9.9875   -0.8250    0.0000 C   0  0
    8.5542   -0.8250    0.0000 C   0  0
    3.5542   -5.3792    0.0000 C   0  0
    1.4042   -6.6292    0.0000 C   0  0
    9.2667    0.4125    0.0000 N   0  0
    0.2625   -6.3375    0.0000 O   0  0
    1.1125   -7.7750    0.0000 O   0  0
    2.8375   -5.8000    0.0000 C   0  0
   11.5500   -3.1292    0.0000 C   0  0
    9.4125   -1.4125    0.0000 O   0  0
   -0.0375   -7.4792    0.0000 N   0  0
   10.7250   -1.1750    0.0000 C   0  0
    8.5542   -1.6542    0.0000 O   0  0
    3.5500   -4.5542    0.0000 O   0  0
   10.7875   -3.4917    0.0000 O   0  0
    1.4042   -5.8000    0.0000 C   0  0
    2.1167   -7.0417    0.0000 C   0  0
    2.1167   -5.3875    0.0000 C   0  0
    2.8375   -6.6292    0.0000 C   0  0
    7.8375   -0.4125    0.0000 N   0  0
    4.2750   -5.7917    0.0000 N   0  0
   10.8792   -1.9750    0.0000 C   0  0
   11.6250   -2.3167    0.0000 C   0  0
   11.3000   -0.5500    0.0000 N   0  0
   12.2167   -3.6000    0.0000 O   0  0
    5.7000   -4.1292    0.0000 O   0  0
    6.4125   -2.0667    0.0000 O   0  0
    4.9875   -5.3792    0.0000 C   0  0
    7.1250   -0.8250    0.0000 C   0  0
    7.1250   -1.6542    0.0000 C   0  0
    4.9875   -4.5500    0.0000 C   0  0
    6.4125   -2.9000    0.0000 C   0  0
    5.7000   -3.3125    0.0000 C   0  0
  2  4  1  0
  2  3  1  6
  4 22  1  0
  5 10  1  0
  6  1  1  0
  7  2  1  0
  8  1  2  0
  9  1  2  0
 10 21  1  0
 11 25  1  0
 12  3  2  0
 13  1  1  0
 14  3  1  0
 15  4  2  0
 16  5  2  0
 17 11  2  0
 18  6  2  0
 19  6  1  0
 20 18  1  0
 21 19  2  0
 22 31  1  0
 23  5  1  0
 24 14  1  0
 25 24  1  0
 26 14  1  0
 27 11  1  0
 28 33  1  0
 29 34  1  0
 30 23  1  0
 31 32  1  0
 32 29  1  0
 33 30  1  0
 34 35  1  0
 35 28  1  0
 10 20  2  0
M  END