
  SciTegic02271217242D

 22 25  0  0  0  0            999 V2000
   -4.9999    2.8390    0.0000 C   0  0
   -5.0010    2.0113    0.0000 C   0  0
   -4.2858    1.5981    0.0000 C   0  0
   -4.2876    3.2520    0.0000 C   0  0
   -3.5719    2.8427    0.0000 C   0  0
   -3.5717    2.0112    0.0000 C   0  0
   -2.7812    1.7532    0.0000 N   0  0
   -2.2922    2.4273    0.0000 C   0  0
   -2.7812    3.0998    0.0000 N   0  0
   -1.4668    2.4276    0.0000 C   0  0
   -1.0577    1.7127    0.0000 C   0  0
   -0.2330    1.7126    0.0000 C   0  0
    0.1803    2.4282    0.0000 C   0  0
   -0.2371    3.1452    0.0000 C   0  0
   -1.0604    3.1417    0.0000 C   0  0
   -2.7844    0.9326    0.0000 C   0  0
   -2.0640    0.5296    0.0000 C   0  0
   -2.0546   -0.2943    0.0000 C   0  0
   -1.3350   -0.6972    0.0000 C   0  0
   -0.6248   -0.2747    0.0000 C   0  0
   -0.6387    0.5548    0.0000 C   0  0
   -1.3588    0.9540    0.0000 C   0  0
  5  6  1  0
 10 11  2  0
 11 12  1  0
  2  3  1  0
 12 13  2  0
  3  6  2  0
 13 14  1  0
  1  2  2  0
 14 15  2  0
 15 10  1  0
  5  4  2  0
  7 16  1  0
  6  7  1  0
 16 17  1  0
  7  8  1  0
 17 18  2  0
  8  9  2  0
 18 19  1  0
  9  5  1  0
 19 20  2  0
  4  1  1  0
 20 21  1  0
  8 10  1  0
 21 22  2  0
 22 17  1  0
M  END