
          11280714512D 1   1.00000     0.00000     0

 30 31  0     0  0            999 V2000
    6.5292   -1.8792    0.0000 C   0  0  0  0  0  0           0  0  0
    2.3917   -7.2917    0.0000 C   0  0  0  0  0  0           0  0  0
    7.0542   -2.1750    0.0000 C   0  0  0  0  0  0           0  0  0
    6.0167   -2.1792    0.0000 C   0  0  0  0  0  0           0  0  0
    2.9167   -7.5917    0.0000 O   0  0  0  0  0  0           0  0  0
    7.0625   -2.7750    0.0000 C   0  0  0  0  0  0           0  0  0
    2.9000   -3.9792    0.0000 O   0  0  0  0  0  0           0  0  0
    2.9000   -4.5917    0.0000 C   0  0  0  0  0  0           0  0  0
    2.3792   -6.6917    0.0000 C   0  0  0  0  0  0           0  0  0
    6.0250   -2.7792    0.0000 C   0  0  0  0  0  0           0  0  0
    3.4167   -3.0750    0.0000 C   0  0  3  0  0  0           0  0  0
    2.9000   -5.7875    0.0000 C   0  0  0  0  0  0           0  0  0
    3.4167   -3.6792    0.0000 C   0  0  0  0  0  0           0  0  0
    6.5417   -3.0792    0.0000 C   0  0  0  0  0  0           0  0  0
    6.5292   -1.2792    0.0000 O   0  0  0  0  0  0           0  0  0
    4.4667   -3.0875    0.0000 N   0  0  0  0  0  0           0  0  0
    1.8792   -7.6000    0.0000 O   0  0  0  0  0  0           0  0  0
    2.9042   -6.3875    0.0000 C   0  0  0  0  0  0           0  0  0
    2.3667   -4.8875    0.0000 C   0  0  0  0  0  0           0  0  0
    3.4167   -4.8917    0.0000 C   0  0  0  0  0  0           0  0  0
    7.5750   -1.8667    0.0000 O   0  0  0  0  0  0           0  0  0
    2.3667   -5.4917    0.0000 C   0  0  0  0  0  0           0  0  0
    3.4167   -5.4792    0.0000 C   0  0  0  0  0  0           0  0  0
    2.9000   -2.7792    0.0000 O   0  0  0  0  0  0           0  0  0
    3.9417   -2.7792    0.0000 C   0  0  0  0  0  0           0  0  0
    4.9875   -2.7792    0.0000 C   0  0  0  0  0  0           0  0  0
    5.5042   -3.0792    0.0000 C   0  0  0  0  0  0           0  0  0
    6.0042   -0.9792    0.0000 C   0  0  0  0  0  0           0  0  0
    1.8750   -8.2000    0.0000 C   0  0  0  0  0  0           0  0  0
    7.5667   -1.2667    0.0000 C   0  0  0  0  0  0           0  0  0
  2  9  1  0     0  0
  3  1  1  0     0  0
  4  1  2  0     0  0
  5  2  2  0     0  0
  6  3  2  0     0  0
  7 13  1  0     0  0
  8  7  1  0     0  0
  9 18  1  0     0  0
 10  4  1  0     0  0
 11 25  1  0     0  0
 12 23  1  0     0  0
 13 11  1  0     0  0
 14 10  2  0     0  0
 15  1  1  0     0  0
 16 26  1  0     0  0
 17  2  1  0     0  0
 18 12  1  0     0  0
 19  8  2  0     0  0
 20  8  1  0     0  0
 21  3  1  0     0  0
 22 19  1  0     0  0
 23 20  2  0     0  0
 24 11  1  0     0  0
 25 16  1  0     0  0
 26 27  1  0     0  0
 27 10  1  0     0  0
 28 15  1  0     0  0
 29 17  1  0     0  0
 30 21  1  0     0  0
 14  6  1  0     0  0
 22 12  2  0     0  0
M  END