
  SciTegic09291413392D

 34 34  0  0  0  0            999 V2000
   12.0390   -8.7317    0.0000 Br  0  5
   11.9127  -11.9798    0.0000 Br  0  5
    9.4900   -8.6577    0.0000 C   0  0
    9.4918   -7.8690    0.0000 C   0  0
   10.1803   -7.4767    0.0000 C   0  0
   10.8634   -7.8750    0.0000 C   0  0
   10.8579   -8.6658    0.0000 C   0  0
   10.1695   -9.0581    0.0000 N   0  3
    8.8142   -6.6799    0.0000 C   0  0
    8.1347   -6.2795    0.0000 C   0  0
    9.5027   -6.2875    0.0000 O   0  0
    8.8123   -7.4686    0.0000 N   0  0
    8.1365   -5.4908    0.0000 N   0  0
    7.4570   -5.0903    0.0000 O   0  0
   10.1635   -9.8753    0.0000 C   0  0
    9.4553  -10.2807    0.0000 C   0  0
    9.4535  -11.0694    0.0000 C   0  0
    8.7650  -11.4617    0.0000 C   0  0
    8.0819  -11.0633    0.0000 C   0  0
    8.0873  -10.2726    0.0000 C   0  0
    8.7758   -9.8803    0.0000 C   0  0
   10.1596  -11.4808    0.0000 C   0  0
    9.4685  -12.6878    0.0000 C   0  0
    9.4630  -13.4786    0.0000 C   0  0
   10.1482  -13.8805    0.0000 C   0  0
   10.8331  -13.4902    0.0000 C   0  0
   10.8364  -12.6959    0.0000 C   0  0
   10.1534  -12.2975    0.0000 N   0  3
    8.7712  -14.6652    0.0000 C   0  0
    8.0863  -15.0555    0.0000 C   0  0
    9.4543  -15.0636    0.0000 O   0  0
    8.7746  -13.8709    0.0000 N   0  0
    8.0809  -15.8463    0.0000 N   0  0
    7.3924  -16.2386    0.0000 O   0  0
  3  4  1  0
  4  5  2  0
  5  6  1  0
  6  7  2  0
  7  8  1  0
  3  8  2  0
  9 10  1  0
  9 11  2  0
  9 12  1  0
 13 14  1  0
 10 13  2  0
  4 12  1  0
  8 15  1  0
 16 17  1  0
 17 18  2  0
 18 19  1  0
 19 20  2  0
 20 21  1  0
 16 21  2  0
 17 22  1  0
 16 15  1  0
 23 24  1  0
 24 25  2  0
 25 26  1  0
 26 27  2  0
 27 28  1  0
 23 28  2  0
 29 30  1  0
 29 31  2  0
 29 32  1  0
 33 34  1  0
 30 33  2  0
 24 32  1  0
 28 22  1  0
M  CHG  4   1  -1   2  -1   8   1  28   1
M  END