
  CDK    9/16/09,9:51

 30 33  0  0  0  0  0  0  0  0999 V2000
   -1.1351  -24.6396    0.0000 C   0  0  0  0  0  0  0  0  0  0  0  0
   -1.5286  -25.3699    0.0000 N   0  0  0  0  0  0  0  0  0  0  0  0
   -1.0952  -26.0719    0.0000 C   0  0  0  0  0  0  0  0  0  0  0  0
   -0.2665  -26.0498    0.0000 C   0  0  0  0  0  0  0  0  0  0  0  0
    0.1269  -25.3195    0.0000 N   0  0  0  0  0  0  0  0  0  0  0  0
   -0.3082  -24.6112    0.0000 C   0  0  0  0  0  0  0  0  0  0  0  0
    0.9516  -25.2961    0.0000 C   0  0  0  0  0  0  0  0  0  0  0  0
    1.3843  -25.9985    0.0000 C   0  0  0  0  0  0  0  0  0  0  0  0
    1.0672  -26.7600    0.0000 C   0  0  0  0  0  0  0  0  0  0  0  0
    1.6958  -27.2944    0.0000 S   0  0  0  0  0  0  0  0  0  0  0  0
    2.3983  -26.8617    0.0000 C   0  0  0  0  0  0  0  0  0  0  0  0
    2.2038  -26.0600    0.0000 C   0  0  0  0  0  0  0  0  0  0  0  0
    2.7377  -25.4310    0.0000 C   0  0  0  0  0  0  0  0  0  0  0  0
    3.5493  -25.5789    0.0000 O   0  0  0  0  0  0  0  0  0  0  0  0
    2.4600  -24.6542    0.0000 C   0  0  0  0  0  0  0  0  0  0  0  0
    2.9932  -24.0285    0.0000 C   0  0  0  0  0  0  0  0  0  0  0  0
    2.7160  -23.2522    0.0000 C   0  0  0  0  0  0  0  0  0  0  0  0
    1.9036  -23.1037    0.0000 C   0  0  0  0  0  0  0  0  0  0  0  0
    1.3689  -23.7377    0.0000 C   0  0  0  0  0  0  0  0  0  0  0  0
    1.6489  -24.5114    0.0000 C   0  0  0  0  0  0  0  0  0  0  0  0
    1.6247  -22.3272    0.0000 Cl  0  0  0  0  0  0  0  0  0  0  0  0
    3.1613  -27.1757    0.0000 N   0  0  0  0  0  0  0  0  0  0  0  0
   -2.3532  -25.3942    0.0000 C   0  0  0  0  0  0  0  0  0  0  0  0
   -2.7819  -24.6899    0.0000 C   0  0  0  0  0  0  0  0  0  0  0  0
   -3.6058  -24.7139    0.0000 C   0  0  0  0  0  0  0  0  0  0  0  0
   -2.7375  -26.1177    0.0000 C   0  0  0  0  0  0  0  0  0  0  0  0
   -3.5600  -26.1451    0.0000 C   0  0  0  0  0  0  0  0  0  0  0  0
   -3.9983  -25.4452    0.0000 C   0  0  0  0  0  0  0  0  0  0  0  0
   -4.8236  -25.4755    0.0000 C   0  0  0  0  0  0  0  0  0  0  0  0
   -5.6482  -25.5030    0.0000 N   0  0  0  0  0  0  0  0  0  0  0  0
  5  7  1  0  0  0  0 
 13 15  1  0  0  0  0 
  1  2  1  0  0  0  0 
 15 16  2  0  0  0  0 
  7  8  1  0  0  0  0 
 16 17  1  0  0  0  0 
  8  9  2  0  0  0  0 
 17 18  2  0  0  0  0 
  1  6  1  0  0  0  0 
 18 19  1  0  0  0  0 
  2  3  1  0  0  0  0 
 19 20  2  0  0  0  0 
 20 15  1  0  0  0  0 
  3  4  1  0  0  0  0 
 18 21  1  0  0  0  0 
  4  5  1  0  0  0  0 
 11 22  1  0  0  0  0 
  9 10  1  0  0  0  0 
  2 23  1  0  0  0  0 
 10 11  1  0  0  0  0 
 23 24  2  0  0  0  0 
 11 12  2  0  0  0  0 
 24 25  1  0  0  0  0 
 25 28  2  0  0  0  0 
 12  8  1  0  0  0  0 
 27 26  2  0  0  0  0 
 26 23  1  0  0  0  0 
 27 28  1  0  0  0  0 
  5  6  1  0  0  0  0 
 12 13  1  0  0  0  0 
 13 14  2  0  0  0  0 
 29 30  3  0  0  0  0 
 28 29  1  0  0  0  0 
M  END