
  SciTegic09261414462D

 11 10  0  0  0  0            999 V2000
   16.6585  -22.2251    0.0000 C   0  0
   17.3729  -21.8126    0.0000 C   0  0
   15.9440  -21.8126    0.0000 N   0  3
   18.0874  -22.2251    0.0000 C   0  0
   18.8019  -21.8126    0.0000 C   0  0
   19.5163  -22.2251    0.0000 O   0  5
   18.8019  -20.9877    0.0000 O   0  0
   15.9440  -20.9877    0.0000 C   0  0
   15.2294  -22.2251    0.0000 C   0  0
   15.2251  -21.4001    0.0000 C   0  0
   16.6585  -23.0501    0.0000 C   0  0
  1  2  1  0
  1  3  1  0
  2  4  1  0
  4  5  1  0
  5  6  1  0
  5  7  2  0
  3  8  1  0
  3  9  1  0
  3 10  1  0
  1 11  1  0
M  CHG  2   3   1   6  -1
M  END