
  SciTegic06181315362D

 27 30  0  0  0  0            999 V2000
   27.7355   -1.3707    0.0000 C   0  0
   27.7344   -2.1982    0.0000 C   0  0
   28.4491   -2.6110    0.0000 C   0  0
   28.4474   -0.9580    0.0000 C   0  0
   29.1628   -1.3671    0.0000 C   0  0
   29.1635   -2.1939    0.0000 C   0  0
   29.8788   -2.6049    0.0000 C   0  0
   30.5938   -2.1902    0.0000 C   0  0
   30.5890   -1.3601    0.0000 C   0  0
   29.8732   -0.9530    0.0000 N   0  0
   29.8805   -3.4299    0.0000 N   0  0
   30.5958   -3.8409    0.0000 C   0  0
   30.5942   -4.6634    0.0000 C   0  0
   31.3086   -5.0744    0.0000 C   0  0
   32.0232   -4.6604    0.0000 C   0  0
   32.0188   -3.8312    0.0000 C   0  0
   31.3038   -3.4239    0.0000 C   0  0
   27.0209   -0.9585    0.0000 Cl  0  0
   32.7390   -5.0705    0.0000 O   0  0
   32.7310   -3.4147    0.0000 C   0  0
   33.4477   -3.8231    0.0000 N   0  0
   33.5363   -4.6405    0.0000 C   0  0
   34.3442   -4.8075    0.0000 C   0  0
   34.7528   -4.0906    0.0000 C   0  0
   34.1972   -3.4808    0.0000 C   0  0
   32.7419   -5.8954    0.0000 C   0  0
   33.4577   -6.3055    0.0000 C   0  0
  1  2  2  0
  2  3  1  0
  3  6  2  0
  5  4  2  0
  4  1  1  0
  5  6  1  0
  6  7  1  0
  7  8  2  0
  8  9  1  0
  9 10  2  0
 10  5  1  0
  7 11  1  0
 11 12  1  0
 12 13  2  0
 13 14  1  0
 14 15  2  0
 15 16  1  0
 16 17  2  0
 17 12  1  0
  1 18  1  0
 15 19  1  0
 16 20  1  0
 20 21  1  0
 21 22  1  0
 22 23  1  0
 23 24  1  0
 24 25  1  0
 25 21  1  0
 19 26  1  0
 26 27  1  0
M  END