
          11280715062D 1   1.00000     0.00000     0

 21 22  0     0  0            999 V2000
    1.4125   -3.3417    0.0000 N   0  0  0  0  0  0           0  0  0
    5.6667   -2.5250    0.0000 C   0  0  0  0  0  0           0  0  0
    0.1292   -2.9750    0.0000 N   0  0  0  0  0  0           0  0  0
    0.6292   -3.6250    0.0000 C   0  0  0  0  0  0           0  0  0
    1.3875   -2.5250    0.0000 C   0  0  0  0  0  0           0  0  0
    5.6667   -3.3500    0.0000 S   0  0  0  0  0  0           0  0  0
    0.5917   -2.2917    0.0000 C   0  0  0  0  0  0           0  0  0
    6.3875   -2.1125    0.0000 N   0  0  0  0  0  0           0  0  0
    4.9542   -2.1125    0.0000 N   0  0  0  0  0  0           0  0  0
    7.1000   -2.5250    0.0000 C   0  0  0  0  0  0           0  0  0
    8.5292   -2.5250    0.0000 C   0  0  0  0  0  0           0  0  0
    2.1000   -2.1125    0.0000 C   0  0  0  0  0  0           0  0  0
    7.8167   -2.1125    0.0000 C   0  0  0  0  0  0           0  0  0
    4.2417   -2.5250    0.0000 C   0  0  0  0  0  0           0  0  0
    8.5292   -3.3500    0.0000 C   0  0  0  0  0  0           0  0  0
    9.2417   -2.1125    0.0000 C   0  0  0  0  0  0           0  0  0
    2.8167   -2.5250    0.0000 C   0  0  0  0  0  0           0  0  0
    3.5292   -2.1125    0.0000 C   0  0  0  0  0  0           0  0  0
    9.9542   -2.5167    0.0000 C   0  0  0  0  0  0           0  0  0
    9.2417   -3.7625    0.0000 C   0  0  0  0  0  0           0  0  0
    9.9542   -3.3500    0.0000 C   0  0  0  0  0  0           0  0  0
  2  9  1  0     0  0
  3  4  1  0     0  0
  4  1  2  0     0  0
  5  1  1  0     0  0
  6  2  2  0     0  0
  7  5  2  0     0  0
  8  2  1  0     0  0
  9 14  1  0     0  0
 10  8  1  0     0  0
 11 13  1  0     0  0
 12  5  1  0     0  0
 13 10  1  0     0  0
 14 18  1  0     0  0
 15 11  2  0     0  0
 16 11  1  0     0  0
 17 12  1  0     0  0
 18 17  1  0     0  0
 19 16  2  0     0  0
 20 15  1  0     0  0
 21 19  1  0     0  0
  7  3  1  0     0  0
 20 21  2  0     0  0
M  END