
  SciTegic03161210572D

 35 35  0  0  0  0            999 V2000
    2.6458   -1.1458    0.0000 F   0  0
    3.0625   -1.8625    0.0000 C   0  0
    3.4748   -1.1433    0.0000 F   0  0
    2.7542   -2.9875    0.0000 F   0  0
    2.3458   -2.2750    0.0000 C   0  0
    1.9330   -2.9849    0.0000 F   0  0
    1.2167   -1.1458    0.0000 F   0  0
    1.6333   -1.8625    0.0000 C   0  0
    2.0457   -1.1433    0.0000 F   0  0
    1.3250   -2.9875    0.0000 F   0  0
    0.9167   -2.2750    0.0000 C   0  0
    0.5038   -2.9849    0.0000 F   0  0
   -0.2125   -1.1458    0.0000 F   0  0
    0.2042   -1.8625    0.0000 C   0  0
    0.6165   -1.1433    0.0000 F   0  0
   -0.1042   -2.9875    0.0000 F   0  0
   -0.5125   -2.2750    0.0000 C   0  0
   -0.9254   -2.9849    0.0000 F   0  0
   -1.9375   -2.2792    0.0000 N   0  0
   -1.2230   -1.8667    0.0000 C   0  0
   -1.2230   -1.0417    0.0000 O   0  0
    3.7783   -2.2792    0.0000 C   0  0
    4.4927   -1.8667    0.0000 N   0  0
    3.7783   -3.1042    0.0000 O   0  0
    5.2072   -2.2792    0.0000 O   0  0
   -2.6520   -1.8667    0.0000 C   0  0
   -2.6470   -1.0406    0.0000 C   0  0
   -3.3606   -0.6282    0.0000 C   0  0
   -4.0761   -1.0407    0.0000 C   0  0
   -4.0734   -1.8700    0.0000 C   0  0
   -3.3592   -2.2787    0.0000 C   0  0
   -4.7911   -0.6292    0.0000 N   0  0
   -5.5050   -1.0426    0.0000 C   0  0
   -6.2216   -0.6311    0.0000 C   0  0
   -5.5039   -1.8676    0.0000 O   0  0
  8  7  1  0
 20 21  2  0
 17 14  1  0
 14 11  1  0
 11  8  1  0
  8  5  1  0
  5  2  1  0
 14 13  1  0
  2 22  1  0
 15 14  1  0
 22 23  1  0
  9  8  1  0
 22 24  2  0
  5  4  1  0
 23 25  1  0
  6  5  1  0
 19 26  1  0
 17 16  1  0
 26 27  2  0
 18 17  1  0
 27 28  1  0
 28 29  2  0
 11 10  1  0
 29 30  1  0
 12 11  1  0
 30 31  2  0
 31 26  1  0
  2  1  1  0
 29 32  1  0
  3  2  1  0
 32 33  1  0
 19 20  1  0
 33 34  1  0
 20 17  1  0
 33 35  2  0
M  END