
  SciTegic11201309402D

 35 38  0  0  0  0            999 V2000
   -4.0500  -13.6917    0.0000 C   0  0
   -4.0500  -14.5167    0.0000 C   0  0
   -3.3380  -14.9250    0.0000 C   0  0  1  0  0  0
   -3.3380  -13.2750    0.0000 C   0  0
   -2.6260  -13.6917    0.0000 C   0  0  1  0  0  0
   -2.6295  -14.5167    0.0000 C   0  0  1  0  0  0
   -1.9207  -14.9299    0.0000 C   0  0  2  0  0  0
   -1.2039  -14.5227    0.0000 C   0  0
   -1.9253  -15.7549    0.0000 O   0  0
   -3.7583  -15.6375    0.0000 C   0  0
   -2.9333  -15.6375    0.0000 C   0  0  2  0  0  0
   -2.6320  -15.5167    0.0000 H   0  0
   -1.9137  -13.2799    0.0000 C   0  0  2  0  0  0
   -1.1980  -13.6986    0.0000 C   0  0  2  0  0  0
   -0.4842  -10.7914    0.0000 C   0  0
   -1.1990  -11.2104    0.0000 C   0  0
   -1.1902  -12.0432    0.0000 C   0  0
   -1.9129  -12.4530    0.0000 C   0  0
   -1.0460  -12.7828    0.0000 H   0  0
   -1.9168  -10.8038    0.0000 C   0  0
   -1.9235   -9.9788    0.0000 C   0  0  2  0  0  0
   -2.7319   -8.7551    0.0000 O   0  0
   -3.5403   -8.5951    0.0000 C   0  0
   -3.9470   -9.3106    0.0000 C   0  0
   -3.3899   -9.9146    0.0000 C   0  0
   -3.8819   -7.8377    0.0000 O   0  0
   -2.6333  -12.8667    0.0000 C   0  0
   -3.5525  -10.7234    0.0000 C   0  0
   -1.2124   -9.5605    0.0000 O   0  0
   -3.3890  -16.3253    0.0000 O   0  0
   -0.4875  -14.1083    0.0000 O   0  0
   -0.4875  -13.2792    0.0000 C   0  0
   -2.6413   -9.5721    0.0000 C   0  0  1  0  0  0
   -1.8064   -9.0217    0.0000 H   0  0
   -1.0578  -15.4353    0.0000 H   0  0
  6  7  1  0
  7  8  1  0
 13 18  1  0
 15 16  1  0
 16 17  1  0
 17 18  1  0
  8 14  1  0
 13 19  1  6
  3  6  1  0
 16 20  2  0
  7  9  1  0
 20 21  1  0
  5  4  1  0
 33 21  1  0
 33 22  1  0
  3 10  1  1
  5  6  1  0
  3 11  1  0
  9 11  1  0
 22 23  1  0
 23 24  1  0
 24 25  2  0
 25 33  1  0
 23 26  2  0
  6 12  1  6
  5 27  1  1
 13 14  1  0
 25 28  1  0
  1  2  1  0
 21 29  1  1
  1  4  1  0
 11 30  1  6
  2  3  1  0
 14 31  1  6
  5 13  1  0
 14 32  1  0
 33 34  1  1
  7 35  1  1
M  END