
  CDK    9/16/09,9:48

 29 33  0  0  0  0  0  0  0  0999 V2000
    1.1622  -20.5666    0.0000 N   0  0  0  0  0  0  0  0  0  0  0  0
    0.3727  -20.8245    0.0000 C   0  0  0  0  0  0  0  0  0  0  0  0
    0.3766  -21.6532    0.0000 C   0  0  0  0  0  0  0  0  0  0  0  0
    1.1659  -21.9062    0.0000 N   0  0  0  0  0  0  0  0  0  0  0  0
    1.6509  -21.2342    0.0000 C   0  0  0  0  0  0  0  0  0  0  0  0
   -0.2943  -20.3439    0.0000 C   0  0  0  0  0  0  0  0  0  0  0  0
   -0.2091  -19.5225    0.0000 C   0  0  0  0  0  0  0  0  0  0  0  0
   -0.8770  -19.0399    0.0000 C   0  0  0  0  0  0  0  0  0  0  0  0
   -1.6304  -19.3776    0.0000 N   0  0  0  0  0  0  0  0  0  0  0  0
   -1.7119  -20.2027    0.0000 C   0  0  0  0  0  0  0  0  0  0  0  0
   -1.0431  -20.6815    0.0000 C   0  0  0  0  0  0  0  0  0  0  0  0
   -0.2877  -22.1413    0.0000 C   0  0  0  0  0  0  0  0  0  0  0  0
   -1.0430  -21.8074    0.0000 C   0  0  0  0  0  0  0  0  0  0  0  0
   -1.7078  -22.2942    0.0000 C   0  0  0  0  0  0  0  0  0  0  0  0
   -0.1969  -22.9576    0.0000 C   0  0  0  0  0  0  0  0  0  0  0  0
   -0.8585  -23.4466    0.0000 C   0  0  0  0  0  0  0  0  0  0  0  0
   -1.6231  -23.1149    0.0000 C   0  0  0  0  0  0  0  0  0  0  0  0
   -2.1748  -23.7396    0.0000 C   0  0  0  0  0  0  0  0  0  0  0  0
   -1.7512  -24.4573    0.0000 C   0  0  0  0  0  0  0  0  0  0  0  0
   -0.9377  -24.2762    0.0000 C   0  0  0  0  0  0  0  0  0  0  0  0
   -2.9959  -23.6612    0.0000 N   0  0  0  0  0  0  0  0  0  0  0  0
   -3.4742  -24.3331    0.0000 O   0  0  0  0  0  0  0  0  0  0  0  0
    2.4756  -21.2314    0.0000 C   0  0  0  0  0  0  0  0  0  0  0  0
    2.8904  -21.9442    0.0000 N   0  0  0  0  0  0  0  0  0  0  0  0
    2.4752  -22.6566    0.0000 C   0  0  0  0  0  0  0  0  0  0  0  0
    2.8865  -23.3673    0.0000 C   0  0  0  0  0  0  0  0  0  0  0  0
    3.7115  -23.3688    0.0000 O   0  0  0  0  0  0  0  0  0  0  0  0
    4.1237  -22.6533    0.0000 C   0  0  0  0  0  0  0  0  0  0  0  0
    3.7108  -21.9363    0.0000 C   0  0  0  0  0  0  0  0  0  0  0  0
 14 17  2  0  0  0  0 
  1  2  1  0  0  0  0 
 16 15  2  0  0  0  0 
 15 12  1  0  0  0  0 
  3 12  1  0  0  0  0 
 16 17  1  0  0  0  0 
  7  8  1  0  0  0  0 
  3  4  1  0  0  0  0 
  8  9  2  0  0  0  0 
  4  5  2  0  0  0  0 
  9 10  1  0  0  0  0 
 17 18  1  0  0  0  0 
 18 19  1  0  0  0  0 
 19 20  1  0  0  0  0 
 20 16  1  0  0  0  0 
  5  1  1  0  0  0  0 
 18 21  2  0  0  0  0 
 10 11  2  0  0  0  0 
 21 22  1  0  0  0  0 
 11  6  1  0  0  0  0 
  5 23  1  0  0  0  0 
  2  6  1  0  0  0  0 
 23 24  1  0  0  0  0 
 24 25  1  0  0  0  0 
  2  3  2  0  0  0  0 
 12 13  2  0  0  0  0 
  6  7  2  0  0  0  0 
 13 14  1  0  0  0  0 
 24 29  1  0  0  0  0 
 25 26  1  0  0  0  0 
 26 27  1  0  0  0  0 
 27 28  1  0  0  0  0 
 28 29  1  0  0  0  0 
M  END