
          11280715362D 1   1.00000     0.00000     0

 31 35  0     0  0            999 V2000
    4.6375   -6.1875    0.0000 C   0  0  0  0  0  0           0  0  0
    4.6375   -6.7917    0.0000 C   0  0  0  0  0  0           0  0  0
    4.1125   -7.1000    0.0000 N   0  0  3  0  0  0           0  0  0
    3.5875   -6.1875    0.0000 C   0  0  0  0  0  0           0  0  0
    5.1625   -5.8875    0.0000 C   0  0  0  0  0  0           0  0  0
    3.5875   -6.7917    0.0000 C   0  0  0  0  0  0           0  0  0
    5.6875   -6.1917    0.0000 C   0  0  3  0  0  0           0  0  0
    5.1625   -7.1000    0.0000 C   0  0  0  0  0  0           0  0  0
    8.5792   -6.1750    0.0000 C   0  0  0  0  0  0           0  0  0
    6.7292   -6.2000    0.0000 N   0  0  3  0  0  0           0  0  0
    6.2125   -5.8917    0.0000 C   0  0  0  0  0  0           0  0  0
    9.1625   -6.0125    0.0000 C   0  0  0  0  0  0           0  0  0
    5.6875   -6.8000    0.0000 C   0  0  0  0  0  0           0  0  0
    5.1625   -5.2875    0.0000 O   0  0  0  0  0  0           0  0  0
    8.1625   -5.7500    0.0000 C   0  0  3  0  0  0           0  0  0
    8.4250   -6.7500    0.0000 O   0  0  0  0  0  0           0  0  0
    9.3125   -5.4375    0.0000 C   0  0  0  0  0  0           0  0  0
    9.5792   -6.4375    0.0000 C   0  0  0  0  0  0           0  0  0
    7.8625   -6.2750    0.0000 C   0  0  0  0  0  0           0  0  0
    7.6625   -5.9125    0.0000 C   0  0  0  0  0  0           0  0  0
    7.1917   -6.0375    0.0000 C   0  0  0  0  0  0           0  0  0
    7.0292   -5.6750    0.0000 C   0  0  0  0  0  0           0  0  0
    4.1125   -7.7000    0.0000 C   0  0  0  0  0  0           0  0  0
   10.3125   -5.7042    0.0000 C   0  0  0  0  0  0           0  0  0
    3.0667   -5.8875    0.0000 C   0  0  0  0  0  0           0  0  0
   10.1625   -6.2875    0.0000 C   0  0  0  0  0  0           0  0  0
    9.8875   -5.2792    0.0000 C   0  0  0  0  0  0           0  0  0
   10.8917   -5.5500    0.0000 F   0  0  0  0  0  0           0  0  0
    3.0667   -7.0917    0.0000 C   0  0  0  0  0  0           0  0  0
    2.5500   -6.1917    0.0000 C   0  0  0  0  0  0           0  0  0
    2.5500   -6.7917    0.0000 C   0  0  0  0  0  0           0  0  0
  2  1  2  0     0  0
  3  2  1  0     0  0
  4  1  1  0     0  0
  5  1  1  0     0  0
  6  4  2  0     0  0
  7  5  1  0     0  0
  8  2  1  0     0  0
  9 15  1  0     0  0
 10 11  1  0     0  0
  7 11  1  0     0  0
 12  9  1  0     0  0
 13  7  1  0     0  0
 14  5  2  0     0  0
 15 20  1  0     0  0
 16  9  2  0     0  0
 17 12  1  0     0  0
 18 12  2  0     0  0
 19 21  1  0     0  0
 20 22  1  0     0  0
 21 10  1  0     0  0
 22 10  1  0     0  0
 23  3  1  0     0  0
 24 26  2  0     0  0
 25  4  1  0     0  0
 26 18  1  0     0  0
 27 17  2  0     0  0
 28 24  1  0     0  0
 29  6  1  0     0  0
 30 25  2  0     0  0
 31 30  1  0     0  0
  6  3  1  0     0  0
  8 13  1  0     0  0
 29 31  2  0     0  0
 15 19  1  0     0  0
 27 24  1  0     0  0
M  END