
          11280715172D 1   1.00000     0.00000     0

 42 46  0     0  0            999 V2000
   -1.2958    2.2708    0.0000 C   0  0  0  0  0  0           0  0  0
   -2.0500    1.9333    0.0000 N   0  0  3  0  0  0           0  0  0
   -2.6083    2.5458    0.0000 N   0  0  0  0  0  0           0  0  0
   -1.3875    3.0958    0.0000 C   0  0  0  0  0  0           0  0  0
   -2.1958    3.2708    0.0000 C   0  0  0  0  0  0           0  0  0
   -0.5833    1.8583    0.0000 N   0  0  0  0  0  0           0  0  0
    0.1292    2.2750    0.0000 C   0  0  0  0  0  0           0  0  0
   -2.2208    1.1333    0.0000 C   0  0  0  0  0  0           0  0  0
   -1.7708   -0.2292    0.0000 C   0  0  0  0  0  0           0  0  0
   -1.6083    0.5833    0.0000 C   0  0  0  0  0  0           0  0  0
    1.5625    2.2833    0.0000 C   0  0  0  0  0  0           0  0  0
    0.8417    1.8625    0.0000 N   0  0  0  0  0  0           0  0  0
   -1.1583   -0.7750    0.0000 C   0  0  0  0  0  0           0  0  0
    2.2792    1.8708    0.0000 C   0  0  0  0  0  0           0  0  0
    2.9917    2.2833    0.0000 C   0  0  0  0  0  0           0  0  0
   -2.5333    4.0167    0.0000 C   0  0  3  0  0  0           0  0  0
    4.4167    5.5750    0.0000 N   0  0  3  0  0  0           0  0  0
    2.9875    3.1083    0.0000 C   0  0  0  0  0  0           0  0  0
   -2.5583   -0.4875    0.0000 C   0  0  0  0  0  0           0  0  0
    0.1292    3.1083    0.0000 O   0  0  0  0  0  0           0  0  0
   -3.0000    0.8708    0.0000 C   0  0  0  0  0  0           0  0  0
    1.5625    3.1083    0.0000 C   0  0  0  0  0  0           0  0  0
   -1.3208   -1.5792    0.0000 O   0  0  0  0  0  0           0  0  0
    2.2750    3.5208    0.0000 C   0  0  0  0  0  0           0  0  0
   -3.1708    0.0625    0.0000 C   0  0  0  0  0  0           0  0  0
    4.4167    7.2167    0.0000 O   0  0  0  0  0  0           0  0  0
   -0.3708   -0.5167    0.0000 O   0  0  0  0  0  0           0  0  0
    3.7042    3.5208    0.0000 O   0  0  0  0  0  0           0  0  0
    4.4167    4.7500    0.0000 C   0  0  0  0  0  0           0  0  0
    3.7042    4.3375    0.0000 C   0  0  0  0  0  0           0  0  0
    5.1292    5.9792    0.0000 C   0  0  0  0  0  0           0  0  0
    3.7042    5.9792    0.0000 C   0  0  0  0  0  0           0  0  0
    2.2792    1.0583    0.0000 C   0  0  0  0  0  0           0  0  0
    3.7000    1.8833    0.0000 C   0  0  0  0  0  0           0  0  0
   -2.0500    4.6792    0.0000 C   0  0  0  0  0  0           0  0  0
   -3.3583    4.0917    0.0000 C   0  0  0  0  0  0           0  0  0
   -2.9500    4.7292    0.0000 C   0  0  0  0  0  0           0  0  0
    3.7042    6.8042    0.0000 C   0  0  0  0  0  0           0  0  0
    5.1292    6.8042    0.0000 C   0  0  0  0  0  0           0  0  0
   -2.7250   -1.2917    0.0000 C   0  0  0  0  0  0           0  0  0
    2.9917    0.6458    0.0000 C   0  0  0  0  0  0           0  0  0
    3.7042    1.0625    0.0000 C   0  0  0  0  0  0           0  0  0
  2  1  1  0     0  0
  3  2  1  0     0  0
  4  1  2  0     0  0
  5  4  1  0     0  0
  6  1  1  0     0  0
  7  6  1  0     0  0
  8  2  1  0     0  0
  9 10  2  0     0  0
 10  8  1  0     0  0
 11 12  1  0     0  0
 12  7  1  0     0  0
 13  9  1  0     0  0
 14 11  2  0     0  0
 15 14  1  0     0  0
 16  5  1  0     0  0
 17 29  1  0     0  0
 18 24  1  0     0  0
 19 25  2  0     0  0
 20  7  2  0     0  0
 21  8  2  0     0  0
 22 11  1  0     0  0
 23 13  2  0     0  0
 24 22  2  0     0  0
 25 21  1  0     0  0
 26 38  1  0     0  0
 27 13  1  0     0  0
 28 18  1  0     0  0
 29 30  1  0     0  0
 30 28  1  0     0  0
 31 17  1  0     0  0
 32 17  1  0     0  0
 33 14  1  0     0  0
 34 15  1  0     0  0
 35 16  1  0     0  0
 36 16  1  0     0  0
 37 16  1  0     0  0
 38 32  1  0     0  0
 39 31  1  0     0  0
 40 19  1  0     0  0
 41 33  2  0     0  0
 42 41  1  0     0  0
  3  5  2  0     0  0
 19  9  1  0     0  0
 18 15  2  0     0  0
 34 42  2  0     0  0
 26 39  1  0     0  0
M  END