
  SciTegic06051315212D

 27 29  0  0  0  0            999 V2000
   27.4529  -23.9874    0.0000 C   0  0
   27.4518  -24.8070    0.0000 C   0  0
   28.1598  -25.2159    0.0000 C   0  0
   28.8695  -24.8065    0.0000 C   0  0
   28.8666  -23.9838    0.0000 C   0  0
   28.1580  -23.5786    0.0000 C   0  0
   28.1562  -26.0304    0.0000 N   0  0
   27.4466  -26.4376    0.0000 C   0  0
   27.4445  -27.2512    0.0000 C   0  0
   28.1503  -27.6638    0.0000 N   0  0
   28.8599  -27.2566    0.0000 C   0  0
   28.8637  -26.4368    0.0000 C   0  0
   28.1470  -28.4810    0.0000 C   0  0
   28.1518  -22.7596    0.0000 N   0  3
   27.4429  -22.3531    0.0000 O   0  0
   28.8583  -22.3489    0.0000 O   0  5
   29.5778  -25.2140    0.0000 N   0  0
   30.2849  -24.8043    0.0000 C   0  0
   30.9932  -25.2117    0.0000 C   0  0
   30.2836  -23.9871    0.0000 O   0  0
   30.9899  -26.0274    0.0000 C   0  0
   31.6974  -26.4348    0.0000 C   0  0
   32.4054  -26.0250    0.0000 C   0  0
   32.4015  -25.2036    0.0000 C   0  0
   31.6934  -24.7999    0.0000 C   0  0
   33.1071  -24.7914    0.0000 C   0  0
   33.1143  -26.4316    0.0000 F   0  0
  1  2  2  0
  2  3  1  0
  3  4  2  0
  4  5  1  0
  5  6  2  0
  6  1  1  0
  7  8  1  0
  7 12  1  0
  8  9  1  0
  9 10  1  0
 10 11  1  0
 11 12  1  0
  3  7  1  0
 10 13  1  0
 14 15  2  0
 14 16  1  0
  6 14  1  0
  4 17  1  0
 17 18  1  0
 18 19  1  0
 18 20  2  0
 19 21  2  0
 21 22  1  0
 22 23  2  0
 23 24  1  0
 24 25  2  0
 25 19  1  0
 24 26  1  0
 23 27  1  0
M  CHG  2  14   1  16  -1
M  END