
  SciTegic01181116592D

 28 31  0  0  0  0            999 V2000
   17.0187  -26.9662    0.0000 C   0  0
   17.0185  -27.7911    0.0000 O   0  0
   16.3044  -26.5536    0.0000 N   0  0
   15.5920  -26.9707    0.0000 C   0  0
   14.8798  -26.5616    0.0000 C   0  0
   14.8758  -25.7363    0.0000 N   0  0
   15.5901  -25.3219    0.0000 C   0  0
   16.3085  -25.7326    0.0000 C   0  0
   14.1598  -25.3264    0.0000 C   0  0
   13.4469  -25.7414    0.0000 C   0  0
   14.1569  -24.5014    0.0000 C   0  0
   17.7332  -26.5539    0.0000 C   0  0
   17.7344  -25.7266    0.0000 C   0  0
   18.4479  -26.9668    0.0000 C   0  0
   18.4461  -25.3140    0.0000 C   0  0
   19.1615  -25.7230    0.0000 C   0  0
   19.1663  -26.5493    0.0000 C   0  0
   19.9537  -26.8002    0.0000 N   0  0
   20.4356  -26.1288    0.0000 C   0  0
   19.9452  -25.4634    0.0000 C   0  0
   20.3652  -24.7536    0.0000 C   0  0
   21.1902  -24.7624    0.0000 N   0  0
   21.5880  -25.4821    0.0000 C   0  0
   22.4092  -25.4929    0.0000 C   0  0
   22.8332  -24.7849    0.0000 O   0  0
   22.4297  -24.0643    0.0000 C   0  0
   21.6022  -24.0518    0.0000 C   0  0
   20.2132  -27.5832    0.0000 C   0  0
 12 14  1  0
 14 17  2  0
  5  6  1  0
 16 15  2  0
 15 13  1  0
 16 17  1  0
  6  7  1  0
  7  8  1  0
  6  9  1  0
  1  3  1  0
 17 18  1  0
 18 19  1  0
 19 20  2  0
 20 16  1  0
  9 10  1  0
 20 21  1  0
  3  4  1  0
 21 22  1  0
 22 23  1  0
  9 11  1  0
  1  2  2  0
  1 12  1  0
  3  8  1  0
 13 12  2  0
 22 27  1  0
 23 24  1  0
 24 25  1  0
 25 26  1  0
 26 27  1  0
  4  5  1  0
 18 28  1  0
M  END