
  SciTegic01161211222D

 34 38  0  0  0  0            999 V2000
   -2.9211   -2.6634    0.0000 N   0  0
   -2.2080   -2.2527    0.0000 C   0  0
   -2.2080   -1.4271    0.0000 C   0  0
   -2.9211   -1.0123    0.0000 C   0  0
   -3.6300   -2.2527    0.0000 C   0  0
   -3.6300   -1.4226    0.0000 N   0  0
   -4.4197   -1.1672    0.0000 C   0  0
   -4.9095   -1.8397    0.0000 C   0  0
   -4.4198   -2.5078    0.0000 S   0  0
   -2.9191   -0.1867    0.0000 O   0  0
   -1.4931   -2.6686    0.0000 C   0  0
   -1.4913   -1.0185    0.0000 C   0  0
   -0.7770   -1.4313    0.0000 C   0  0
   -0.0602   -1.0227    0.0000 N   0  0
    0.6548   -1.4406    0.0000 C   0  0
    1.3693   -1.0355    0.0000 C   0  0
    1.3760   -0.2096    0.0000 C   0  0
    0.6618    0.2095    0.0000 C   0  0
   -0.0589   -0.2014    0.0000 C   0  0
    2.0943    0.2004    0.0000 C   0  0
    2.8028   -0.2191    0.0000 C   0  0
    2.0998    1.0260    0.0000 C   0  0
    2.8140    1.4282    0.0000 C   0  0
    2.8198    2.2530    0.0000 C   0  0
    2.1107    2.6735    0.0000 C   0  0
    1.3901    2.2590    0.0000 C   0  0
    1.3878    1.4356    0.0000 C   0  0
    2.7921   -1.0424    0.0000 C   0  0
    3.5040   -1.4578    0.0000 C   0  0
    4.2232   -1.0517    0.0000 C   0  0
    4.2261   -0.2219    0.0000 C   0  0
    3.5136    0.1940    0.0000 C   0  0
    4.9365   -1.4663    0.0000 F   0  0
    2.1151    3.4956    0.0000 F   0  0
  7  8  2  0
  8  9  1  0
 14 19  1  0
 15 16  1  0
 16 17  1  0
 17 18  1  0
 18 19  1  0
  9  5  1  0
 17 20  2  0
  3  4  1  0
 20 21  1  0
  4 10  2  0
 20 22  1  0
  5  6  1  0
 22 23  2  0
  2 11  1  0
 23 24  1  0
 24 25  2  0
  3 12  1  0
 25 26  1  0
  6  4  1  0
 26 27  2  0
 27 22  1  0
 12 13  1  0
 21 28  2  0
  5  1  2  0
 28 29  1  0
 13 14  1  0
 29 30  2  0
 14 15  1  0
 30 31  1  0
  1  2  1  0
 31 32  2  0
 32 21  1  0
  2  3  2  0
 30 33  1  0
  6  7  1  0
 25 34  1  0
M  END