
  SciTegic01161211212D

 35 37  0  0  0  0            999 V2000
   -2.3167    1.1000    0.0000 C   0  0
    3.4000    1.9375    0.0000 C   0  0
    4.1125    2.3500    0.0000 C   0  0
   -3.0333    0.6917    0.0000 N   0  0
    2.6833    2.3458    0.0000 S   0  0
   -1.6042    0.6875    0.0000 N   0  0
   -2.3167    1.9250    0.0000 O   0  0
    4.1083    3.1750    0.0000 O   0  0
   -0.8875    1.1000    0.0000 C   0  0
    1.9708    1.9292    0.0000 C   0  0
    4.8292    1.9417    0.0000 O   0  0
    0.5417    1.1000    0.0000 C   0  0
   -0.1750    0.6875    0.0000 C   0  0
   -3.7458    1.1042    0.0000 C   0  0
    1.9708    1.1000    0.0000 C   0  0
    1.2542    2.3417    0.0000 C   0  0
    1.2542    0.6875    0.0000 C   0  0
    0.5417    1.9250    0.0000 C   0  0
    3.8042    1.2250    0.0000 C   0  0
    2.9792    1.2250    0.0000 C   0  0
   -1.6042   -0.1375    0.0000 C   0  0
   -0.1750   -2.6125    0.0000 C   0  0
   -0.1750   -1.7875    0.0000 C   0  0
   -4.4625    0.6875    0.0000 C   0  0
   -3.7458    1.9250    0.0000 C   0  0
   -0.8917   -3.0208    0.0000 C   0  0
    0.5375   -3.0208    0.0000 C   0  0
   -0.8875   -0.5500    0.0000 C   0  0
   -0.8917   -1.3750    0.0000 C   0  0
   -4.4542    2.3375    0.0000 C   0  0
   -0.8958   -3.8417    0.0000 C   0  0
    0.5333   -3.8500    0.0000 C   0  0
   -5.1750    1.1042    0.0000 C   0  0
   -5.1708    1.9292    0.0000 C   0  0
   -0.1833   -4.2583    0.0000 C   0  0
  2  5  1  0
  3  2  1  0
  4  1  1  0
  5 10  1  0
  6  1  1  0
  7  1  2  0
  8  3  2  0
  9  6  1  0
 10 16  2  0
 11  3  1  0
 12 13  1  0
 13  9  1  0
 14  4  1  0
 15 17  2  0
 16 18  1  0
 17 12  1  0
 18 12  2  0
 19  2  1  0
 20  2  1  0
 21  6  1  0
 22 23  1  0
 23 29  1  0
 24 14  1  0
 25 14  1  0
 26 22  1  0
 27 22  1  0
 28 21  1  0
 29 28  1  0
 30 25  1  0
 31 26  1  0
 32 27  1  0
 33 24  1  0
 34 33  1  0
 35 32  1  0
 34 30  1  0
 10 15  1  0
 35 31  1  0
M  END