
          11280715362D 1   1.00000     0.00000     0

 41 44  0     1  0            999 V2000
    5.8417   -1.3875    0.0000 S   0  0  3  0  0  0           0  0  0
    0.7417   -4.5292    0.0000 C   0  0  1  0  0  0           0  0  0
    0.5542   -3.7250    0.0000 C   0  0  2  0  0  0           0  0  0
    1.3250   -5.1125    0.0000 N   0  0  3  0  0  0           0  0  0
    0.0292   -4.9542    0.0000 C   0  0  0  0  0  0           0  0  0
    5.4250   -0.6750    0.0000 O   0  0  0  0  0  0           0  0  0
    6.4375   -1.9625    0.0000 O   0  0  0  0  0  0           0  0  0
   -0.2625   -3.6542    0.0000 C   0  0  3  0  0  0           0  0  0
    5.5125   -4.5042    0.0000 C   0  0  0  0  0  0           0  0  0
    5.4417   -2.1042    0.0000 C   0  0  0  0  0  0           0  0  0
    6.6667   -1.3750    0.0000 N   0  0  0  0  0  0           0  0  0
    2.9875   -2.1417    0.0000 C   0  0  0  0  0  0           0  0  0
    2.1667   -2.1667    0.0000 C   0  0  0  0  0  0           0  0  0
   -0.6875   -2.9417    0.0000 O   0  0  0  0  0  0           0  0  0
   -0.5875   -4.4042    0.0000 C   0  0  0  0  0  0           0  0  0
    6.1750   -4.2417    0.0000 O   0  0  0  0  0  0           0  0  0
    3.3917   -2.8500    0.0000 C   0  0  0  0  0  0           0  0  0
    3.3875   -1.4292    0.0000 C   0  0  0  0  0  0           0  0  0
    1.7542   -1.4667    0.0000 C   0  0  0  0  0  0           0  0  0
    1.7667   -2.8917    0.0000 C   0  0  0  0  0  0           0  0  0
    2.6500   -3.6750    0.0000 C   0  0  0  0  0  0           0  0  0
    3.5125   -3.7375    0.0000 C   0  0  0  0  0  0           0  0  0
    1.3500   -3.5042    0.0000 O   0  0  0  0  0  0           0  0  0
    4.6167   -2.1167    0.0000 C   0  0  0  0  0  0           0  0  0
   -0.2833   -2.2250    0.0000 C   0  0  0  0  0  0           0  0  0
    0.5417   -2.2125    0.0000 C   0  0  0  0  0  0           0  0  0
    5.4167   -5.2167    0.0000 O   0  0  0  0  0  0           0  0  0
    4.2167   -2.8375    0.0000 C   0  0  0  0  0  0           0  0  0
    4.2000   -1.4125    0.0000 C   0  0  0  0  0  0           0  0  0
    0.9542   -2.9042    0.0000 C   0  0  0  0  0  0           0  0  0
    0.9417   -1.4917    0.0000 C   0  0  0  0  0  0           0  0  0
    1.0542   -5.8875    0.0000 C   0  0  0  0  0  0           0  0  0
    2.0917   -4.8375    0.0000 C   0  0  0  0  0  0           0  0  0
    2.0250   -4.0375    0.0000 C   0  0  0  0  0  0           0  0  0
    4.9500   -4.0667    0.0000 C   0  0  0  0  0  0           0  0  0
    4.0125   -4.3167    0.0000 C   0  0  0  0  0  0           0  0  0
    7.0917   -2.0792    0.0000 C   0  0  0  0  0  0           0  0  0
    2.7917   -5.2750    0.0000 C   0  0  0  0  0  0           0  0  0
    1.4917   -6.5792    0.0000 C   0  0  0  0  0  0           0  0  0
    2.8917   -6.0875    0.0000 C   0  0  0  0  0  0           0  0  0
    2.3167   -6.6667    0.0000 C   0  0  0  0  0  0           0  0  0
  2  3  1  0     0  0
  3  8  1  0     0  0
  2  4  1  1     0  0
  5 15  1  0     0  0
  6  1  2  0     0  0
  7  1  2  0     0  0
  8 14  1  0     0  0
  9 35  1  0     0  0
 10  1  1  0     0  0
 11  1  1  0     0  0
 12 18  1  0     0  0
 13 12  1  0     0  0
 14 25  1  0     0  0
 15  8  1  0     0  0
 16  9  2  0     0  0
 17 28  1  0     0  0
 18 29  2  0     0  0
 19 13  2  0     0  0
 20 13  1  0     0  0
 21 34  1  0     0  0
 22 21  2  0     0  0
  3 23  1  6     0  0
 24 10  1  0     0  0
 25 26  1  0     0  0
 26 30  1  0     0  0
 27  9  1  0     0  0
 28 24  2  0     0  0
 29 24  1  0     0  0
 30 20  2  0     0  0
 31 19  1  0     0  0
 32  4  1  0     0  0
 33  4  1  0     0  0
 34 23  1  0     0  0
 35 36  1  0     0  0
 36 22  1  0     0  0
 37 11  1  0     0  0
 38 33  1  0     0  0
 39 32  1  0     0  0
 40 38  1  0     0  0
 41 39  1  0     0  0
 12 17  2  0     0  0
 31 26  2  0     0  0
  5  2  1  0     0  0
 40 41  1  0     0  0
M  END