
          11280715432D 1   1.00000     0.00000     0

 27 29  0     1  0            999 V2000
   -0.7958   -1.4625    0.0000 C   0  0  0  0  0  0           0  0  0
   -0.1208   -0.9917    0.0000 N   0  0  0  0  0  0           0  0  0
   -0.7958   -2.2875    0.0000 N   0  0  0  0  0  0           0  0  0
   -1.1958   -0.1917    0.0000 C   0  0  0  0  0  0           0  0  0
   -0.3708   -0.2042    0.0000 C   0  0  0  0  0  0           0  0  0
   -1.4583   -0.9792    0.0000 S   0  0  0  0  0  0           0  0  0
   -1.5083   -2.7000    0.0000 C   0  0  0  0  0  0           0  0  0
   -1.5958    0.5333    0.0000 C   0  0  0  0  0  0           0  0  0
   -1.5208   -3.5250    0.0000 O   0  0  0  0  0  0           0  0  0
   -2.2333   -2.2792    0.0000 C   0  0  1  0  0  0           0  0  0
    0.1417    0.4458    0.0000 C   0  0  0  0  0  0           0  0  0
    0.9542    0.3375    0.0000 O   0  0  0  0  0  0           0  0  0
   -2.9458   -2.6917    0.0000 N   0  0  0  0  0  0           0  0  0
   -1.1708    1.2500    0.0000 C   0  0  0  0  0  0           0  0  0
    2.2792    0.8958    0.0000 C   0  0  0  0  0  0           0  0  0
    1.4542    0.9958    0.0000 C   0  0  0  0  0  0           0  0  0
   -2.2208   -1.4542    0.0000 C   0  0  0  0  0  0           0  0  0
   -1.5833    1.9708    0.0000 C   0  0  0  0  0  0           0  0  0
   -0.3458    1.2458    0.0000 C   0  0  0  0  0  0           0  0  0
    2.6042    0.1208    0.0000 C   0  0  0  0  0  0           0  0  0
    2.7667    1.5458    0.0000 C   0  0  0  0  0  0           0  0  0
   -1.1583    2.6833    0.0000 C   0  0  0  0  0  0           0  0  0
    0.0792    1.9583    0.0000 C   0  0  0  0  0  0           0  0  0
    3.4292    0.0250    0.0000 C   0  0  0  0  0  0           0  0  0
    3.5917    1.4458    0.0000 C   0  0  0  0  0  0           0  0  0
   -0.3333    2.6750    0.0000 C   0  0  0  0  0  0           0  0  0
    3.9167    0.6875    0.0000 C   0  0  0  0  0  0           0  0  0
  2  1  2  0     0  0
  3  1  1  0     0  0
  4  6  1  0     0  0
  5  2  1  0     0  0
  6  1  1  0     0  0
  7  3  1  0     0  0
  8  4  1  0     0  0
  9  7  2  0     0  0
 10  7  1  0     0  0
 11  5  1  0     0  0
 12 11  1  0     0  0
 13 10  1  0     0  0
 14  8  1  0     0  0
 15 16  1  0     0  0
 16 12  1  0     0  0
 10 17  1  1     0  0
 18 14  1  0     0  0
 19 14  2  0     0  0
 20 15  2  0     0  0
 21 15  1  0     0  0
 22 18  2  0     0  0
 23 19  1  0     0  0
 24 20  1  0     0  0
 25 21  2  0     0  0
 26 23  2  0     0  0
 27 25  1  0     0  0
  5  4  2  0     0  0
 26 22  1  0     0  0
 27 24  2  0     0  0
M  END