
  SciTegic04091415032D

 38 41  0  0  0  0            999 V2000
   22.1412   -9.7526    0.0000 C   0  0
   22.1400  -10.5721    0.0000 C   0  0
   22.8481  -10.9811    0.0000 C   0  0
   22.8463   -9.3437    0.0000 C   0  0
   23.5549   -9.7490    0.0000 C   0  0
   23.5557  -10.5680    0.0000 C   0  0
   24.2642  -10.9751    0.0000 N   0  0
   24.9725  -10.5643    0.0000 C   0  0
   24.9677   -9.7421    0.0000 C   0  0
   24.2586   -9.3388    0.0000 C   0  0
   21.4374   -9.3400    0.0000 C   0  0
   24.2543   -8.5216    0.0000 C   0  0
   24.9598   -8.1092    0.0000 O   0  0
   23.5444   -8.1168    0.0000 O   0  0
   25.6817  -10.9701    0.0000 C   0  0
   25.6849  -11.7873    0.0000 N   0  0
   26.3879  -10.5588    0.0000 O   0  0
   26.3942  -12.1931    0.0000 C   0  0  2  0  0  0
   26.3974  -13.0103    0.0000 C   0  0
   27.1003  -11.7818    0.0000 C   0  0
   27.8096  -12.1876    0.0000 C   0  0
   27.8097  -13.0018    0.0000 C   0  0
   28.5181  -13.4076    0.0000 C   0  0
   29.2252  -12.9962    0.0000 C   0  0
   29.2194  -12.1748    0.0000 C   0  0
   28.5104  -11.7727    0.0000 C   0  0
   21.4461   -8.5231    0.0000 C   0  0
   20.7432   -8.1106    0.0000 C   0  0
   20.0329   -8.5138    0.0000 C   0  0
   20.0301   -9.3339    0.0000 C   0  0
   20.7336   -9.7427    0.0000 C   0  0
   19.3211   -9.7402    0.0000 C   0  0
   18.6146   -9.3294    0.0000 F   0  0
   19.3185  -10.5574    0.0000 F   0  0
   18.6097  -10.1406    0.0000 F   0  0
   29.9351  -13.4011    0.0000 O   0  0
   25.6913  -13.4217    0.0000 C   0  0
   25.6945  -14.2388    0.0000 C   0  0
  1  2  2  0
  2  3  1  0
  3  6  2  0
  5  4  2  0
  4  1  1  0
  5  6  1  0
  6  7  1  0
  7  8  2  0
  8  9  1  0
  9 10  2  0
 10  5  1  0
  1 11  1  0
 10 12  1  0
 12 13  2  0
 12 14  1  0
  8 15  1  0
 15 16  1  0
 15 17  2  0
 16 18  1  0
 18 19  1  1
 18 20  1  0
 20 21  1  0
 21 22  2  0
 22 23  1  0
 23 24  2  0
 24 25  1  0
 25 26  2  0
 26 21  1  0
 11 27  2  0
 27 28  1  0
 28 29  2  0
 29 30  1  0
 30 31  2  0
 31 11  1  0
 30 32  1  0
 32 33  1  0
 32 34  1  0
 32 35  1  0
 24 36  1  0
 19 37  1  0
 37 38  1  0
M  END