
  SciTegic01161211222D

 15 15  0  0  0  0            999 V2000
    6.4222   -3.8871    0.0000 C   0  0
    5.7105   -4.2996    0.0000 C   0  0
    4.9947   -3.8871    0.0000 C   0  0
    4.9947   -3.0621    0.0000 C   0  0
    5.7105   -2.6496    0.0000 C   0  0
    6.4222   -3.0621    0.0000 C   0  0
    7.1381   -4.2996    0.0000 O   0  0
    3.5671   -2.2371    0.0000 C   0  0
    4.2830   -2.6496    0.0000 C   0  0
    3.8705   -3.3613    0.0000 C   0  0
    3.0455   -3.3613    0.0000 C   0  0
    3.0455   -2.5363    0.0000 C   0  0
    3.0455   -4.1863    0.0000 C   0  0
    2.2205   -3.3613    0.0000 C   0  0
    4.6955   -1.9337    0.0000 C   0  0
  1  2  1  0
  2  3  2  0
  3  4  1  0
  4  5  2  0
  5  6  1  0
  1  6  2  0
  1  7  1  0
  8  9  1  0
  9 10  1  0
 10 11  1  0
 11 12  1  0
 11 13  1  0
 11 14  1  0
  9 15  1  0
  4  9  1  0
M  END