
          11280714442D 1   1.00000     0.00000     0

 21 21  0     0  0            999 V2000
    2.6917   -5.5875    0.0000 N   0  3  0  0  0  0           0  0  0
    5.5500   -5.4542    0.0000 C   0  0  0  0  0  0           0  0  0
    3.4292   -5.9667    0.0000 C   0  0  0  0  0  0           0  0  0
    4.8542   -5.9000    0.0000 C   0  0  0  0  0  0           0  0  0
    4.1167   -5.5167    0.0000 C   0  0  0  0  0  0           0  0  0
    2.6542   -4.7542    0.0000 O   0  5  0  0  0  0           0  0  0
    2.0000   -6.0292    0.0000 O   0  0  0  0  0  0           0  0  0
    6.2792   -5.8375    0.0000 O   0  0  0  0  0  0           0  0  0
    9.1375   -5.7042    0.0000 N   0  0  0  0  0  0           0  0  0
    5.5125   -4.6292    0.0000 O   0  0  0  0  0  0           0  0  0
    9.8292   -5.2625    0.0000 C   0  0  3  0  0  0           0  0  0
    7.7042   -5.7667    0.0000 C   0  0  3  0  0  0           0  0  0
    6.9750   -5.3917    0.0000 C   0  0  0  0  0  0           0  0  0
    8.4042   -5.3250    0.0000 C   0  0  0  0  0  0           0  0  0
    7.7417   -6.5917    0.0000 O   0  0  0  0  0  0           0  0  0
    3.4667   -6.7875    0.0000 C   0  0  0  0  0  0           0  0  0
    4.8917   -6.7167    0.0000 C   0  0  0  0  0  0           0  0  0
    4.2042   -7.1667    0.0000 C   0  0  0  0  0  0           0  0  0
   10.5625   -5.6417    0.0000 C   0  0  0  0  0  0           0  0  0
    9.7917   -4.4375    0.0000 C   0  0  0  0  0  0           0  0  0
   10.3875   -4.6542    0.0000 C   0  0  0  0  0  0           0  0  0
  2  4  1  0     0  0
  3  1  1  0     0  0
  4  5  2  0     0  0
  5  3  1  0     0  0
  6  1  1  0     0  0
  7  1  2  0     0  0
  8  2  1  0     0  0
  9 14  1  0     0  0
 10  2  2  0     0  0
 11  9  1  0     0  0
 12 13  1  0     0  0
 13  8  1  0     0  0
 14 12  1  0     0  0
 15 12  1  0     0  0
 16  3  2  0     0  0
 17 18  2  0     0  0
 18 16  1  0     0  0
 19 11  1  0     0  0
 20 11  1  0     0  0
 21 11  1  0     0  0
 17  4  1  0     0  0
M  CHG  2   1   1   6  -1
M  END