
          11290711592D 1   1.00000     0.00000     0

 87 91  0     1  0            999 V2000
   -0.4695   -1.0437    0.0000 C   0  0  0  0  0  0           0  0  0
   -0.4285   -0.2170    0.0000 C   0  0  3  0  0  0           0  0  0
   -1.1201    0.2250    0.0000 C   0  0  0  0  0  0           0  0  0
   -1.8524   -0.1514    0.0000 C   0  0  0  0  0  0           0  0  0
   -1.8913   -0.9746    0.0000 C   0  0  0  0  0  0           0  0  0
   -1.2001   -1.4250    0.0000 C   0  0  0  0  0  0           0  0  0
   -0.3900    0.5972    0.0000 N   0  0  0  0  0  0           0  0  0
    0.3945    0.8529    0.0000 C   0  0  0  0  0  0           0  0  0
    0.3659    1.6654    0.0000 C   0  0  1  0  0  0           0  0  0
    1.1164    2.0038    0.0000 N   0  0  0  0  0  0           0  0  0
    1.7458    1.4548    0.0000 C   0  0  0  0  0  0           0  0  0
    2.4311    1.9173    0.0000 C   0  0  0  0  0  0           0  0  0
    2.2466   -1.8743    0.0000 N   0  0  0  0  0  0           0  0  0
    1.6215   -1.3289    0.0000 C   0  0  0  0  0  0           0  0  0
    0.9293   -1.8002    0.0000 C   0  0  1  0  0  0           0  0  0
    0.2187   -1.3674    0.0000 N   0  0  0  0  0  0           0  0  0
    0.2719   -0.5543    0.0000 C   0  0  0  0  0  0           0  0  0
    1.6915    0.6288    0.0000 O   0  0  0  0  0  0           0  0  0
    1.6742   -0.5028    0.0000 O   0  0  0  0  0  0           0  0  0
   -0.3355    2.0998    0.0000 C   0  0  0  0  0  0           0  0  0
   -1.0640    1.7070    0.0000 C   0  0  0  0  0  0           0  0  0
   -1.7616    2.1443    0.0000 C   0  0  0  0  0  0           0  0  0
   -2.4875    1.7557    0.0000 C   0  0  0  0  0  0           0  0  0
   -2.5129    0.9312    0.0000 C   0  0  0  0  0  0           0  0  0
   -1.8066    0.4966    0.0000 C   0  0  0  0  0  0           0  0  0
   -1.0835    0.8877    0.0000 C   0  0  0  0  0  0           0  0  0
    1.0735    0.3847    0.0000 O   0  0  0  0  0  0           0  0  0
    1.0514   -0.1557    0.0000 O   0  0  0  0  0  0           0  0  0
    0.8930   -2.6044    0.0000 C   0  0  0  0  0  0           0  0  0
    0.2443   -3.0516    0.0000 C   0  0  0  0  0  0           0  0  0
    0.2327   -3.9155    0.0000 O   0  0  0  0  0  0           0  0  0
   -0.4806   -2.6575    0.0000 N   0  0  0  0  0  0           0  0  0
   -3.2409    0.5374    0.0000 C   0  0  0  0  0  0           0  0  0
   -3.9430    0.9709    0.0000 P   0  0  3  0  0  0           0  0  0
   -4.6309    1.4150    0.0000 O   0  0  0  0  0  0           0  0  0
   -4.3834    0.2733    0.0000 O   0  0  0  0  0  0           0  0  0
   -3.5077    1.6718    0.0000 O   0  0  0  0  0  0           0  0  0
    3.0244   -1.6098    0.0000 C   0  0  0  0  0  0           0  0  0
    9.5962   -3.7351    0.0000 C   0  0  0  0  0  0           0  0  0
    9.1739   -4.4439    0.0000 C   0  0  3  0  0  0           0  0  0
    9.5793   -5.1607    0.0000 C   0  0  0  0  0  0           0  0  0
   10.3990   -5.1737    0.0000 C   0  0  0  0  0  0           0  0  0
   10.8213   -4.4649    0.0000 C   0  0  0  0  0  0           0  0  0
   10.4238   -3.7430    0.0000 C   0  0  0  0  0  0           0  0  0
    5.1916   -2.9597    0.0000 N   0  0  0  0  0  0           0  0  0
    4.4267   -3.2821    0.0000 C   0  0  0  0  0  0           0  0  0
    4.5025   -4.1069    0.0000 C   0  0  0  0  0  0           0  0  0
    5.3097   -4.2931    0.0000 N   0  0  3  0  0  0           0  0  0
    5.7360   -3.5819    0.0000 N   0  0  0  0  0  0           0  0  0
    8.7563   -5.1450    0.0000 N   0  0  0  0  0  0           0  0  0
    7.9417   -5.0068    0.0000 C   0  0  0  0  0  0           0  0  0
    7.5876   -5.7358    0.0000 C   0  0  1  0  0  0           0  0  0
    6.7660   -5.6828    0.0000 N   0  0  0  0  0  0           0  0  0
    6.4696   -4.8988    0.0000 C   0  0  0  0  0  0           0  0  0
    5.6474   -4.9860    0.0000 C   0  0  0  0  0  0           0  0  0
    7.5942   -1.7275    0.0000 N   0  0  0  0  0  0           0  0  0
    7.8851   -2.5043    0.0000 C   0  0  0  0  0  0           0  0  0
    8.7212   -2.4147    0.0000 C   0  0  1  0  0  0           0  0  0
    9.1440   -3.1301    0.0000 N   0  0  0  0  0  0           0  0  0
    8.6639   -3.7898    0.0000 C   0  0  0  0  0  0           0  0  0
    6.9032   -4.1968    0.0000 O   0  0  0  0  0  0           0  0  0
    7.4529   -3.2071    0.0000 O   0  0  0  0  0  0           0  0  0
    8.0015   -6.4484    0.0000 C   0  0  0  0  0  0           0  0  0
    8.8292   -6.4473    0.0000 C   0  0  0  0  0  0           0  0  0
    9.2384   -7.1605    0.0000 C   0  0  0  0  0  0           0  0  0
   10.0617   -7.1576    0.0000 C   0  0  0  0  0  0           0  0  0
   10.4728   -6.4412    0.0000 C   0  0  0  0  0  0           0  0  0
   10.0544   -5.7263    0.0000 C   0  0  0  0  0  0           0  0  0
    9.2325   -5.7327    0.0000 C   0  0  0  0  0  0           0  0  0
    7.5670   -4.2728    0.0000 O   0  0  0  0  0  0           0  0  0
    7.8399   -3.8041    0.0000 O   0  0  0  0  0  0           0  0  0
    9.1322   -1.7214    0.0000 C   0  0  0  0  0  0           0  0  0
    9.9128   -1.6268    0.0000 C   0  0  0  0  0  0           0  0  0
   10.3265   -0.8714    0.0000 O   0  0  0  0  0  0           0  0  0
   10.3664   -2.3147    0.0000 N   0  0  0  0  0  0           0  0  0
   11.2969   -6.4369    0.0000 C   0  0  0  0  0  0           0  0  0
   11.7212   -7.1546    0.0000 P   0  0  3  0  0  0           0  0  0
   12.1127   -7.8654    0.0000 O   0  0  0  0  0  0           0  0  0
   12.4325   -6.7439    0.0000 O   0  0  0  0  0  0           0  0  0
   11.0023   -7.5642    0.0000 O   0  0  0  0  0  0           0  0  0
    6.7812   -1.5930    0.0000 C   0  0  0  0  0  0           0  0  0
    3.7191   -2.8579    0.0000 C   0  0  0  0  0  0           0  0  0
    3.7321   -2.0340    0.0000 C   0  0  0  0  0  0           0  0  0
    6.2522   -2.2370    0.0000 C   0  0  0  0  0  0           0  0  0
    5.4300   -2.1009    0.0000 C   0  0  0  0  0  0           0  0  0
    5.1367   -1.3207    0.0000 C   0  0  0  0  0  0           0  0  0
    4.3144   -1.1846    0.0000 C   0  0  0  0  0  0           0  0  0
 41 42  1  0     0  0
 42 43  1  0     0  0
 43 44  1  0     0  0
 46 47  2  0     0  0
 21 22  2  0     0  0
  1  6  1  0     0  0
 22 23  1  0     0  0
  2  3  1  0     0  0
 23 24  2  0     0  0
 45 46  1  0     0  0
 47 48  1  0     0  0
 48 49  1  0     0  0
 49 45  2  0     0  0
  2  7  1  0     0  0
 24 25  1  0     0  0
  7  8  1  0     0  0
 25 26  2  0     0  0
 26 21  1  0     0  0
  9 10  1  0     0  0
  8 27  2  0     0  0
 10 11  1  0     0  0
 17 28  2  0     0  0
 11 12  1  0     0  0
 15 29  1  6     0  0
 40 50  1  0     0  0
 50 51  1  0     0  0
 52 53  1  0     0  0
 53 54  1  0     0  0
 54 55  1  0     0  0
 51 52  1  0     0  0
 55 48  1  0     0  0
 56 57  1  0     0  0
 58 59  1  0     0  0
 59 60  1  0     0  0
 57 58  1  0     0  0
 40 60  1  0     0  0
  8  9  1  0     0  0
 54 61  2  0     0  0
 29 30  1  0     0  0
 57 62  2  0     0  0
 13 14  1  0     0  0
 52 63  1  6     0  0
 30 31  2  0     0  0
 63 64  1  0     0  0
 15 16  1  0     0  0
 64 65  2  0     0  0
 30 32  1  0     0  0
 65 66  1  0     0  0
 16 17  1  0     0  0
 66 67  2  0     0  0
 24 33  1  0     0  0
 67 68  1  0     0  0
 14 15  1  0     0  0
 68 69  2  0     0  0
 69 64  1  0     0  0
 33 34  1  0     0  0
 51 70  2  0     0  0
  2 17  1  0     0  0
 60 71  2  0     0  0
 34 35  1  0     0  0
 58 72  1  6     0  0
  3  4  1  0     0  0
 72 73  1  0     0  0
 34 36  1  0     0  0
 73 74  2  0     0  0
 11 18  2  0     0  0
 73 75  1  0     0  0
 34 37  2  0     0  0
 67 76  1  0     0  0
  4  5  1  0     0  0
 76 77  1  0     0  0
 13 38  1  0     0  0
 77 78  1  0     0  0
 39 40  1  0     0  0
 77 79  1  0     0  0
 14 19  2  0     0  0
 77 80  2  0     0  0
  5  6  1  0     0  0
 56 81  1  0     0  0
  9 20  1  6     0  0
 46 82  1  0     0  0
 82 83  1  0     0  0
 83 38  1  0     0  0
 20 21  1  0     0  0
 81 84  1  0     0  0
  1  2  1  0     0  0
 84 85  1  0     0  0
 39 44  1  0     0  0
 85 86  1  0     0  0
 40 41  1  0     0  0
 86 87  1  0     0  0
M  END