
  SciTegic06051313522D

 29 30  0  0  0  0            999 V2000
   22.2334   -7.8279    0.0000 C   0  0
   21.4180   -7.8226    0.0000 C   0  0
   21.0075   -8.5251    0.0000 C   0  0
   21.4114   -9.2332    0.0000 C   0  0
   22.2299   -9.2345    0.0000 C   0  0
   22.6367   -8.5315    0.0000 C   0  0
   21.0136   -7.1126    0.0000 Cl  0  0
   22.6376   -9.9428    0.0000 O   0  0
   22.2281  -10.6500    0.0000 C   0  0
   23.4539   -8.5332    0.0000 N   0  0
   23.8639   -7.8263    0.0000 C   0  0
   24.6811   -7.8280    0.0000 C   0  0
   23.4568   -7.1178    0.0000 O   0  0
   25.0912   -7.1212    0.0000 S   0  0
   25.9084   -7.1229    0.0000 C   0  0
   26.3104   -7.8316    0.0000 N   0  0
   27.1269   -7.8337    0.0000 C   0  0
   27.5377   -7.1263    0.0000 C   0  0
   27.1262   -6.4154    0.0000 C   0  0
   26.3111   -6.4168    0.0000 C   0  0
   28.3588   -7.1254    0.0000 C   0  0
   28.7669   -7.8334    0.0000 O   0  0
   28.7679   -6.4180    0.0000 O   0  0
   20.1904   -8.5207    0.0000 O   0  0
   19.7855   -7.8109    0.0000 C   0  0
   18.9683   -7.8066    0.0000 C   0  0
   18.5635   -7.0967    0.0000 C   0  0
   18.5560   -8.5121    0.0000 O   0  0
   18.9758   -6.3912    0.0000 O   0  0
  1  2  2  0
  2  3  1  0
  3  4  2  0
  4  5  1  0
  5  6  2  0
  6  1  1  0
  2  7  1  0
  5  8  1  0
  8  9  1  0
  6 10  1  0
 10 11  1  0
 11 12  1  0
 11 13  2  0
 12 14  1  0
 14 15  1  0
 15 16  2  0
 16 17  1  0
 17 18  2  0
 18 19  1  0
 19 20  2  0
 20 15  1  0
 21 22  1  0
 21 23  2  0
 18 21  1  0
  3 24  1  0
 24 25  1  0
 25 26  1  0
 26 27  1  0
 26 28  1  0
 27 29  1  0
M  END