
          11280714452D 1   1.00000     0.00000     0

 31 33  0     0  0            999 V2000
   -2.8958   -0.1292    0.0000 N   0  0  0  0  0  0           0  0  0
   -2.1833   -0.5667    0.0000 C   0  0  0  0  0  0           0  0  0
   -2.3708   -1.3667    0.0000 N   0  0  0  0  0  0           0  0  0
    8.4417    0.1208    0.0000 C   0  0  0  0  0  0           0  0  0
   -3.5083   -0.6750    0.0000 C   0  0  0  0  0  0           0  0  0
    8.2750   -0.6917    0.0000 C   0  0  0  0  0  0           0  0  0
   -3.1958   -1.4375    0.0000 C   0  0  0  0  0  0           0  0  0
    7.8167    0.6625    0.0000 C   0  0  0  0  0  0           0  0  0
    7.4917   -0.9542    0.0000 C   0  0  0  0  0  0           0  0  0
   -1.4208   -0.2417    0.0000 C   0  0  0  0  0  0           0  0  0
   -0.7625   -0.7417    0.0000 O   0  0  0  0  0  0           0  0  0
    2.0375    0.8125    0.0000 O   0  0  0  0  0  0           0  0  0
    1.3167    0.4000    0.0000 C   0  0  0  0  0  0           0  0  0
   -0.1083   -0.4250    0.0000 C   0  0  0  0  0  0           0  0  0
    7.0375    0.3958    0.0000 C   0  0  0  0  0  0           0  0  0
    3.4667    0.8125    0.0000 C   0  0  3  0  0  0           0  0  0
    2.7500    0.4000    0.0000 C   0  0  0  0  0  0           0  0  0
    6.8792   -0.4042    0.0000 C   0  0  0  0  0  0           0  0  0
    9.2167    0.3833    0.0000 O   0  0  0  0  0  0           0  0  0
    4.8917    0.8125    0.0000 N   0  0  0  0  0  0           0  0  0
    1.3167   -0.4292    0.0000 C   0  0  0  0  0  0           0  0  0
    0.6042    0.8125    0.0000 C   0  0  0  0  0  0           0  0  0
    0.6042   -0.8375    0.0000 C   0  0  0  0  0  0           0  0  0
   -0.1083    0.4083    0.0000 C   0  0  0  0  0  0           0  0  0
    8.8917   -1.2375    0.0000 O   0  0  0  0  0  0           0  0  0
    3.4667    1.6375    0.0000 O   0  0  0  0  0  0           0  0  0
    4.1792    0.4000    0.0000 C   0  0  0  0  0  0           0  0  0
    5.6042    0.4000    0.0000 C   0  0  0  0  0  0           0  0  0
    6.3250    0.8083    0.0000 C   0  0  0  0  0  0           0  0  0
    9.8417   -0.1542    0.0000 C   0  0  0  0  0  0           0  0  0
    8.7292   -2.0500    0.0000 C   0  0  0  0  0  0           0  0  0
  2  1  2  0     0  0
  3  2  1  0     0  0
  4  8  1  0     0  0
  5  1  1  0     0  0
  6  9  1  0     0  0
  7  5  2  0     0  0
  8 15  2  0     0  0
  9 18  2  0     0  0
 10  2  1  0     0  0
 11 10  1  0     0  0
 12 13  1  0     0  0
 13 22  2  0     0  0
 14 11  1  0     0  0
 15 29  1  0     0  0
 16 17  1  0     0  0
 17 12  1  0     0  0
 18 15  1  0     0  0
 19  4  1  0     0  0
 20 27  1  0     0  0
 21 23  2  0     0  0
 22 24  1  0     0  0
 23 14  1  0     0  0
 24 14  2  0     0  0
 25  6  1  0     0  0
 26 16  1  0     0  0
 27 16  1  0     0  0
 28 20  1  0     0  0
 29 28  1  0     0  0
 30 19  1  0     0  0
 31 25  1  0     0  0
  7  3  1  0     0  0
 21 13  1  0     0  0
  6  4  2  0     0  0
M  END