
  SciTegic09261414462D

 42 45  0  0  0  0            999 V2000
   11.5769   -3.5040    0.0000 O   0  0
   11.9896   -4.2139    0.0000 S   0  0
   12.3980   -3.5015    0.0000 O   0  0
    9.7650   -8.3040    0.0000 O   0  0
   10.5822   -8.3040    0.0000 S   0  0
   10.1736   -7.5963    0.0000 O   0  0
   11.2918   -7.0809    0.0000 C   0  0
   12.0015   -6.6714    0.0000 C   0  0
   11.9987   -5.8488    0.0000 C   0  0
   11.2900   -5.4435    0.0000 C   0  0
   10.5838   -6.6719    0.0000 C   0  0
   10.5861   -5.8542    0.0000 C   0  0
    9.8801   -5.4451    0.0000 C   0  0
    9.1714   -5.8526    0.0000 C   0  0
    9.1731   -6.6735    0.0000 C   0  0
    9.8796   -7.0789    0.0000 C   0  0
   11.2916   -7.8981    0.0000 N   0  0
   10.5836   -9.1237    0.0000 C   0  0
   11.2865   -4.6263    0.0000 N   0  0
    9.8750   -9.5278    0.0000 C   0  0
    9.8744  -10.3442    0.0000 C   0  0
   10.5826  -10.7538    0.0000 C   0  0
   11.2927  -10.3410    0.0000 C   0  0
   11.2898   -9.5259    0.0000 C   0  0
   10.5835  -11.5710    0.0000 O   0  0
    9.8762  -11.9804    0.0000 C   0  0
   11.9985   -8.3081    0.0000 C   0  0
   12.7070   -7.9010    0.0000 C   0  0
   13.4151   -8.3091    0.0000 O   0  0
   12.7099   -7.0818    0.0000 O   0  0
   12.7001   -4.6176    0.0000 C   0  0
   12.7024   -5.4325    0.0000 C   0  0
   13.4121   -5.8361    0.0000 C   0  0
   14.1179   -5.4226    0.0000 C   0  0
   14.1096   -4.6012    0.0000 C   0  0
   13.3993   -4.2013    0.0000 C   0  0
   14.8290   -5.8253    0.0000 O   0  0
   14.8357   -6.6425    0.0000 C   0  0
   10.5766   -4.2217    0.0000 C   0  0
   10.5720   -3.4045    0.0000 C   0  0
   11.2780   -2.9890    0.0000 O   0  0
    9.8626   -2.9969    0.0000 O   0  0
  2  1  2  0
  3  2  2  0
  5  4  2  0
  6  5  2  0
 11  7  1  0
  7  8  2  0
  8  9  1  0
  9 10  2  0
 10 12  1  0
 11 12  1  0
 12 13  2  0
 13 14  1  0
 14 15  2  0
 15 16  1  0
 16 11  2  0
  7 17  1  0
 17  5  1  0
  5 18  1  0
 10 19  1  0
 19  2  1  0
 18 20  2  0
 20 21  1  0
 21 22  2  0
 22 23  1  0
 23 24  2  0
 24 18  1  0
 22 25  1  0
 25 26  1  0
 17 27  1  0
 27 28  1  0
 28 29  1  0
 28 30  2  0
  2 31  1  0
 31 32  2  0
 32 33  1  0
 33 34  2  0
 34 35  1  0
 35 36  2  0
 36 31  1  0
 34 37  1  0
 37 38  1  0
 19 39  1  0
 39 40  1  0
 40 41  1  0
 40 42  2  0
M  END