
  SciTegic10311316262D

 28 30  0  0  0  0            999 V2000
    1.3097  -13.4332    0.0000 C   0  0
    1.3085  -14.2606    0.0000 C   0  0
    2.0233  -14.6734    0.0000 C   0  0
    2.7398  -14.2601    0.0000 C   0  0
    2.7369  -13.4296    0.0000 C   0  0
    2.0215  -13.0204    0.0000 C   0  0
    3.4498  -13.0144    0.0000 N   0  0
    4.1658  -13.4242    0.0000 C   0  0
    4.8787  -13.0090    0.0000 C   0  0
    4.1689  -14.2492    0.0000 O   0  0
    5.5948  -13.4188    0.0000 S   0  0
    6.3077  -13.0036    0.0000 C   0  0
    7.0236  -13.4166    0.0000 N   0  0
    7.7344  -13.0049    0.0000 C   0  0
    7.7355  -12.1795    0.0000 C   0  0
    7.0196  -11.7675    0.0000 C   0  0
    6.3026  -12.1809    0.0000 N   0  0
    7.0193  -10.9425    0.0000 O   0  0
    8.4507  -11.7713    0.0000 C   0  0
    9.1652  -11.3588    0.0000 N   0  0
    8.4472  -13.4165    0.0000 C   0  0
    8.4458  -14.2426    0.0000 C   0  0
    9.1594  -14.6551    0.0000 C   0  0
    9.8749  -14.2425    0.0000 C   0  0
    9.8722  -13.4133    0.0000 C   0  0
    9.1580  -13.0046    0.0000 C   0  0
   10.5899  -14.6541    0.0000 Cl  0  0
    2.0190  -12.1954    0.0000 C   0  0
  1  2  2  0
  2  3  1  0
  3  4  2  0
  4  5  1  0
  5  6  2  0
  6  1  1  0
  5  7  1  0
  7  8  1  0
  8  9  1  0
  8 10  2  0
  9 11  1  0
 11 12  1  0
 12 13  2  0
 12 17  1  0
 13 14  1  0
 14 15  2  0
 15 16  1  0
 16 17  1  0
 16 18  2  0
 19 20  3  0
 15 19  1  0
 21 22  2  0
 22 23  1  0
 23 24  2  0
 24 25  1  0
 25 26  2  0
 26 21  1  0
 14 21  1  0
 24 27  1  0
  6 28  1  0
M  END