
  SciTegic11201309402D

 71 73  0  0  1  0            999 V2000
    2.3167   -2.0750    0.0000 N   0  0
    7.2250   -4.4750    0.0000 C   0  0
    3.9000   -1.6542    0.0000 C   0  0
    6.4000   -4.4292    0.0000 C   0  0  1  0  0  0
    6.3125   -3.6042    0.0000 N   0  0
    4.7042   -1.8250    0.0000 N   0  0
    1.1167   -4.1542    0.0000 N   0  0
    1.7042   -2.6292    0.0000 C   0  0
    5.9750   -2.8542    0.0000 C   0  0
    1.2042   -4.9792    0.0000 C   0  0
    7.6000   -5.2042    0.0000 N   0  0
    9.0000   -4.7542    0.0000 C   0  0
    3.0750   -1.7417    0.0000 C   0  0  1  0  0  0
    5.4250   -2.2375    0.0000 C   0  0  2  0  0  0
    2.0917   -6.3417    0.0000 N   0  0
    1.2917   -3.3417    0.0000 C   0  0  2  0  0  0
    1.5417   -5.7292    0.0000 C   0  0  2  0  0  0
    8.7917   -3.9542    0.0000 N   0  0
    8.4167   -5.3375    0.0000 C   0  0  1  0  0  0
    5.9417   -1.5917    0.0000 C   0  0
    2.8125   -6.7542    0.0000 C   0  0
    9.1542   -2.5667    0.0000 C   0  0
   12.9375   -2.8417    0.0000 C   0  0
    6.7375   -1.3792    0.0000 C   0  0
    9.7417   -1.9875    0.0000 N   0  0
    5.8125   -5.9542    0.0000 S   0  0
    9.3667   -3.3667    0.0000 C   0  0  2  0  0  0
    5.2000   -6.5042    0.0000 S   0  0
   10.1167   -0.6042    0.0000 C   0  0
   13.5250   -2.2625    0.0000 N   0  0
    7.6750   -3.7792    0.0000 O   0  0
    3.9417   -0.8250    0.0000 O   0  0
    9.8000   -4.9667    0.0000 O   0  0
    1.0625   -2.1042    0.0000 O   0  0
    6.6667   -2.4042    0.0000 O   0  0
    0.4042   -5.1917    0.0000 O   0  0
    6.2292   -5.2375    0.0000 C   0  0
    0.8417   -6.1792    0.0000 C   0  0
    0.5167   -3.0500    0.0000 C   0  0
    3.6167   -6.9292    0.0000 C   0  0
    8.3542   -2.3542    0.0000 O   0  0
    2.5042   -7.5292    0.0000 O   0  0
    7.3250   -1.9542    0.0000 O   0  0
   10.9125   -0.8167    0.0000 O   0  0
   12.1375   -2.6292    0.0000 N   0  0
    9.5292   -1.1917    0.0000 C   0  0
   13.1542   -3.6417    0.0000 N   0  0
    2.8625   -0.9417    0.0000 C   0  0
    6.9417   -0.5792    0.0000 N   0  0
    0.0167   -6.1792    0.0000 C   0  0
    9.9042    0.1958    0.0000 N   0  0
   -1.6375   -6.1792    0.0000 C   0  0
   -0.0708   -2.4625    0.0000 C   0  0
    7.2250   -5.9500    0.0000 C   0  0
    4.4417   -6.8417    0.0000 C   0  0
   -0.3958   -6.8917    0.0000 C   0  0
   -0.3958   -5.4625    0.0000 C   0  0
   -1.2208   -5.4542    0.0000 C   0  0
   -1.2208   -6.9000    0.0000 C   0  0
   -2.4625   -6.1792    0.0000 O   0  0
    8.6667   -6.1250    0.0000 C   0  0
   10.1667   -3.5875    0.0000 C   0  0
   11.5542   -3.2167    0.0000 C   0  0
    2.0625   -0.7250    0.0000 C   0  0
    3.4417   -0.3542    0.0000 C   0  0
   -0.8708   -2.6792    0.0000 C   0  0
    0.1500   -1.6542    0.0000 C   0  0
   10.7542   -3.0042    0.0000 C   0  0
   -0.4375   -1.0667    0.0000 C   0  0
   -1.4583   -2.0917    0.0000 C   0  0
   -1.2458   -1.2792    0.0000 C   0  0
  4  2  1  6
  3 13  1  0
  4  5  1  0
  5  9  1  0
  6  3  1  0
  7 16  1  0
  8  1  1  0
  9 14  1  0
 10  7  1  0
 11  2  1  0
 12 19  1  0
 13  1  1  0
 14  6  1  0
 15 17  1  0
 16  8  1  0
 17 10  1  0
 18 12  1  0
 19 11  1  0
 14 20  1  1
 21 15  1  0
 22 27  1  0
 23 45  2  0
 24 20  1  0
 25 22  1  0
 26 37  1  0
 27 18  1  6
 28 26  1  0
 29 46  1  0
 30 23  1  0
 31  2  2  0
 32  3  2  0
 33 12  2  0
 34  8  2  0
 35  9  2  0
 36 10  2  0
  4 37  1  0
 17 38  1  6
 16 39  1  1
 40 21  1  0
 41 22  2  0
 42 21  2  0
 43 24  2  0
 44 29  2  0
 45 63  1  0
 46 25  1  0
 47 23  1  0
 13 48  1  6
 49 24  1  0
 50 38  1  0
 51 29  1  0
 52 58  2  0
 53 39  1  0
 54 11  1  0
 40 55  1  0
 56 50  1  0
 57 50  2  0
 58 57  1  0
 59 56  2  0
 60 52  1  0
 19 61  1  1
 27 62  1  0
 63 68  1  0
 64 48  1  0
 65 48  1  0
 66 53  1  0
 67 53  2  0
 68 62  1  0
 69 67  1  0
 70 66  2  0
 71 69  2  0
 70 71  1  0
 59 52  1  0
 55 28  1  0
M  END