
  SciTegic05221516342D

 22 24  0  0  0  0            999 V2000
    5.0174   -9.9162    0.0000 N   0  0
    5.5015   -9.2579    0.0000 C   0  0
    5.0249   -8.5940    0.0000 N   0  0
    4.2463   -8.8421    0.0000 C   0  0
    3.5410   -8.4294    0.0000 N   0  0
    2.8309   -8.8339    0.0000 C   0  0
    2.8262   -9.6511    0.0000 N   0  0
    3.5316  -10.0638    0.0000 C   0  0
    4.2416   -9.6592    0.0000 C   0  0
    3.5269  -10.8809    0.0000 O   0  0
    6.3187   -9.2626    0.0000 S   0  0
    6.7313   -8.5572    0.0000 C   0  0
    7.5485   -8.5619    0.0000 C   0  0
    7.9611   -7.8566    0.0000 C   0  0
    8.7783   -7.8612    0.0000 C   0  0
    9.1910   -7.1559    0.0000 C   0  0
    8.7864   -6.4458    0.0000 C   0  0
    7.9693   -6.4412    0.0000 C   0  0
    7.5566   -7.1465    0.0000 C   0  0
    9.1991   -5.7405    0.0000 O   0  0
   10.0163   -5.7452    0.0000 C   0  0
    2.1256   -8.4213    0.0000 N   0  0
  1  2  2  0
  2  3  1  0
  3  4  1  0
  4  5  1  0
  5  6  2  0
  6  7  1  0
  7  8  1  0
  8  9  1  0
  1  9  1  0
  4  9  2  0
  8 10  2  0
 12 13  1  0
 13 14  1  0
 14 15  1  0
 15 16  2  0
 16 17  1  0
 17 18  2  0
 18 19  1  0
 14 19  2  0
 20 21  1  0
 17 20  1  0
 11 12  1  0
  2 11  1  0
  6 22  1  0
M  END