
          11280715052D 1   1.00000     0.00000     0

 25 26  0     0  0            999 V2000
    1.3292   -0.2792    0.0000 S   0  0  3  0  0  0           0  0  0
    3.9167    0.6500    0.0000 C   0  0  3  0  0  0           0  0  0
   -2.8958   -0.1542    0.0000 N   0  0  0  0  0  0           0  0  0
    1.8500    0.0250    0.0000 C   0  0  0  0  0  0           0  0  0
   -2.8458    0.8208    0.0000 N   0  0  0  0  0  0           0  0  0
   -3.2208    0.3458    0.0000 C   0  0  0  0  0  0           0  0  0
   -2.3125    0.0083    0.0000 C   0  0  0  0  0  0           0  0  0
    1.7125   -0.9875    0.0000 O   0  0  0  0  0  0           0  0  0
    1.0250   -1.0167    0.0000 O   0  0  0  0  0  0           0  0  0
    0.8000    0.0083    0.0000 N   0  0  0  0  0  0           0  0  0
    3.3917    0.9458    0.0000 O   0  0  0  0  0  0           0  0  0
   -2.2833    0.6083    0.0000 C   0  0  0  0  0  0           0  0  0
    2.3667   -0.2667    0.0000 C   0  0  0  0  0  0           0  0  0
    1.8417    0.6208    0.0000 C   0  0  0  0  0  0           0  0  0
    4.4000    0.3833    0.0000 F   0  0  0  0  0  0           0  0  0
    4.0292    0.0333    0.0000 F   0  0  0  0  0  0           0  0  0
    4.5042    0.8833    0.0000 F   0  0  0  0  0  0           0  0  0
    2.8792    0.6375    0.0000 C   0  0  0  0  0  0           0  0  0
    2.8792    0.0375    0.0000 C   0  0  0  0  0  0           0  0  0
    2.3542    0.9333    0.0000 C   0  0  0  0  0  0           0  0  0
   -1.7958   -0.2917    0.0000 C   0  0  0  0  0  0           0  0  0
    0.2792   -0.2917    0.0000 C   0  0  0  0  0  0           0  0  0
   -1.2833    0.0083    0.0000 C   0  0  0  0  0  0           0  0  0
   -0.2375    0.0083    0.0000 C   0  0  0  0  0  0           0  0  0
   -0.7583   -0.2917    0.0000 C   0  0  0  0  0  0           0  0  0
  2 11  1  0     0  0
  3  7  1  0     0  0
  4  1  1  0     0  0
  5 12  1  0     0  0
  6  3  2  0     0  0
  7 21  1  0     0  0
  8  1  2  0     0  0
  9  1  2  0     0  0
 10  1  1  0     0  0
 11 18  1  0     0  0
 12  7  2  0     0  0
 13  4  2  0     0  0
 14  4  1  0     0  0
 15  2  1  0     0  0
 16  2  1  0     0  0
 17  2  1  0     0  0
 18 20  1  0     0  0
 19 13  1  0     0  0
 20 14  2  0     0  0
 21 23  1  0     0  0
 22 10  1  0     0  0
 23 25  1  0     0  0
 24 22  1  0     0  0
 25 24  1  0     0  0
 19 18  2  0     0  0
  5  6  1  0     0  0
M  END