
          11280715382D 1   1.00000     0.00000     0

 34 36  0     1  0            999 V2000
    0.1375   -3.7667    0.0000 C   0  0  0  0  0  0           0  0  0
   -0.6625   -3.9042    0.0000 N   0  0  3  0  0  0           0  0  0
   -1.1625   -2.5875    0.0000 C   0  0  0  0  0  0           0  0  0
    0.5167   -3.0125    0.0000 C   0  0  1  0  0  0           0  0  0
   -1.1583   -3.4167    0.0000 C   0  0  0  0  0  0           0  0  0
    0.1542   -2.2375    0.0000 C   0  0  1  0  0  0           0  0  0
   -1.8875   -1.3417    0.0000 C   0  0  3  0  0  0           0  0  0
   -1.8833   -2.1750    0.0000 C   0  0  0  0  0  0           0  0  0
   -0.6458   -2.0875    0.0000 C   0  0  0  0  0  0           0  0  0
    1.3417   -3.0292    0.0000 O   0  0  0  0  0  0           0  0  0
    1.7417   -3.7500    0.0000 C   0  0  0  0  0  0           0  0  0
    0.6542   -1.5792    0.0000 C   0  0  0  0  0  0           0  0  0
    0.6250   -4.4292    0.0000 O   0  0  0  0  0  0           0  0  0
    1.3250   -4.4542    0.0000 O   0  0  0  0  0  0           0  0  0
   -2.5583   -0.8042    0.0000 F   0  0  0  0  0  0           0  0  0
   -1.8875   -0.5917    0.0000 F   0  0  0  0  0  0           0  0  0
   -1.2208   -0.8000    0.0000 F   0  0  0  0  0  0           0  0  0
    1.4750   -1.7000    0.0000 C   0  0  0  0  0  0           0  0  0
    0.3417   -0.8292    0.0000 C   0  0  0  0  0  0           0  0  0
   -0.9125   -4.6917    0.0000 C   0  0  0  0  0  0           0  0  0
    2.9875    0.2625    0.0000 C   0  0  0  0  0  0           0  0  0
    1.6667   -0.2792    0.0000 C   0  0  0  0  0  0           0  0  0
   -1.8833   -3.8292    0.0000 C   0  0  0  0  0  0           0  0  0
    0.8417   -0.1750    0.0000 C   0  0  0  0  0  0           0  0  0
    1.9792   -1.0417    0.0000 C   0  0  0  0  0  0           0  0  0
   -1.9708   -5.6542    0.0000 N   0  0  0  0  0  0           0  0  0
    2.1667    0.3708    0.0000 O   0  0  0  0  0  0           0  0  0
   -2.5958   -2.5875    0.0000 C   0  0  0  0  0  0           0  0  0
    3.3000   -0.5000    0.0000 O   0  0  0  0  0  0           0  0  0
   -2.5958   -3.4167    0.0000 C   0  0  0  0  0  0           0  0  0
    2.5667   -3.7625    0.0000 C   0  0  0  0  0  0           0  0  0
   -1.7208   -4.8667    0.0000 C   0  0  0  0  0  0           0  0  0
   -2.7708   -5.8292    0.0000 C   0  0  0  0  0  0           0  0  0
    4.1167   -0.6042    0.0000 C   0  0  0  0  0  0           0  0  0
  2  1  1  0     0  0
  3  5  1  0     0  0
  4  1  1  0     0  0
  5  2  1  0     0  0
  6  4  1  0     0  0
  7  8  1  0     0  0
  8  3  2  0     0  0
  9  6  1  0     0  0
  4 10  1  1     0  0
 11 10  1  0     0  0
  6 12  1  1     0  0
 13  1  2  0     0  0
 14 11  2  0     0  0
 15  7  1  0     0  0
 16  7  1  0     0  0
 17  7  1  0     0  0
 18 12  2  0     0  0
 19 12  1  0     0  0
 20  2  1  0     0  0
 21 27  1  0     0  0
 22 24  1  0     0  0
 23  5  2  0     0  0
 24 19  2  0     0  0
 25 18  1  0     0  0
 26 32  1  0     0  0
 27 22  1  0     0  0
 28 30  2  0     0  0
 29 21  1  0     0  0
 30 23  1  0     0  0
 31 11  1  0     0  0
 32 20  1  0     0  0
 33 26  1  0     0  0
 34 29  1  0     0  0
  9  3  1  0     0  0
 25 22  2  0     0  0
  8 28  1  0     0  0
M  END