
  SciTegic01161211252D

 26 29  0  0  0  0            999 V2000
   10.0199  -24.6458    0.0000 N   0  0
   10.7337  -25.0594    0.0000 C   0  0
   10.7325  -25.8844    0.0000 O   0  0
   11.4488  -24.6479    0.0000 C   0  0
   12.1610  -25.0623    0.0000 C   0  0
   12.8756  -24.6515    0.0000 N   0  0
   12.8772  -23.8257    0.0000 C   0  0
   12.1584  -23.4123    0.0000 C   0  0
   11.4467  -23.8254    0.0000 C   0  0
   13.5918  -23.4133    0.0000 O   0  0
   14.3062  -23.8258    0.0000 C   0  0
   14.3013  -24.6511    0.0000 C   0  0
   15.0149  -25.0636    0.0000 C   0  0
   15.7304  -24.6511    0.0000 C   0  0
   15.7278  -23.8218    0.0000 C   0  0
   15.0137  -23.4131    0.0000 C   0  0
    9.3369  -25.1087    0.0000 C   0  0
    8.5466  -24.8655    0.0000 C   0  0
   10.0787  -23.8233    0.0000 C   0  0
    8.2422  -24.1001    0.0000 N   0  0
    9.4724  -23.2617    0.0000 C   0  0
    8.6561  -23.3878    0.0000 C   0  0
   16.4453  -25.0628    0.0000 F   0  0
    7.4209  -24.0425    0.0000 C   0  0
    6.7389  -23.5783    0.0000 C   0  0
    6.6780  -24.4011    0.0000 C   0  0
 12 13  1  0
  6  7  2  0
 13 14  2  0
  2  4  1  0
 14 15  1  0
  7  8  1  0
 15 16  2  0
 16 11  1  0
  1 17  1  0
  8  9  2  0
 17 18  1  0
  9  4  1  0
  1 19  1  0
  4  5  2  0
 18 20  1  0
  7 10  1  0
 19 21  1  0
  2  3  2  0
 20 22  1  0
 21 22  1  0
 10 11  1  0
 14 23  1  0
 25 24  1  0
 26 25  1  0
 24 26  1  0
  5  6  1  0
 11 12  2  0
  1  2  1  0
 20 24  1  0
M  END