
  CDK    9/16/09,9:56

 28 30  0  0  0  0  0  0  0  0999 V2000
   12.9409    2.8627    0.0000 O   0  0  0  0  0  0  0  0  0  0  0  0
   12.9375    2.0415    0.0000 C   0  0  0  0  0  0  0  0  0  0  0  0
   12.2033    1.6676    0.0000 C   0  0  0  0  0  0  0  0  0  0  0  0
   11.4711    2.0436    0.0000 C   0  0  0  0  0  0  0  0  0  0  0  0
   11.3420    2.8588    0.0000 O   0  0  0  0  0  0  0  0  0  0  0  0
   10.8872    1.4608    0.0000 C   0  0  0  0  0  0  0  0  0  0  0  0
   10.0723    1.5931    0.0000 O   0  0  0  0  0  0  0  0  0  0  0  0
   11.2609    0.7266    0.0000 C   0  0  0  0  0  0  0  0  0  0  0  0
   12.0711    0.8528    0.0000 O   0  0  0  0  0  0  0  0  0  0  0  0
   10.8850   -0.0056    0.0000 N   0  0  0  0  0  0  0  0  0  0  0  0
   10.0698   -0.1346    0.0000 C   0  0  0  0  0  0  0  0  0  0  0  0
    9.9375   -0.9494    0.0000 N   0  0  0  0  0  0  0  0  0  0  0  0
   10.6748   -1.3225    0.0000 C   0  0  0  0  0  0  0  0  0  0  0  0
   10.8862   -2.1201    0.0000 C   0  0  0  0  0  0  0  0  0  0  0  0
   10.3022   -2.7028    0.0000 N   0  0  0  0  0  0  0  0  0  0  0  0
   11.6815   -2.3347    0.0000 N   0  0  0  0  0  0  0  0  0  0  0  0
   12.2655   -1.7520    0.0000 C   0  0  0  0  0  0  0  0  0  0  0  0
   12.0531   -0.9585    0.0000 N   0  0  0  0  0  0  0  0  0  0  0  0
   11.2577   -0.7438    0.0000 C   0  0  0  0  0  0  0  0  0  0  0  0
   13.6389    1.6094    0.0000 N   0  0  0  0  0  0  0  0  0  0  0  0
   17.1878    2.8584    0.0000 C   0  0  0  0  0  0  0  0  0  0  0  0
   17.9013    3.2703    0.0000 O   0  0  0  0  0  0  0  0  0  0  0  0
   16.4703    3.2703    0.0000 C   0  0  0  0  0  0  0  0  0  0  0  0
   17.1878    2.0304    0.0000 O   0  0  0  0  0  0  0  0  0  0  0  0
   15.7526    2.8584    0.0000 C   0  0  0  0  0  0  0  0  0  0  0  0
   15.0350    3.2703    0.0000 C   0  0  0  0  0  0  0  0  0  0  0  0
   14.3202    2.8651    0.0000 C   0  0  0  0  0  0  0  0  0  0  0  0
   14.3413    2.0380    0.0000 C   0  0  0  0  0  0  0  0  0  0  0  0
  3  9  1  0  0  0  0 
  8 10  1  1  0  0  0 
 10 11  1  0  0  0  0 
 11 12  2  0  0  0  0 
 12 13  1  0  0  0  0 
 13 14  1  0  0  0  0 
 14 15  1  0  0  0  0 
 14 16  2  0  0  0  0 
 16 17  1  0  0  0  0 
 17 18  2  0  0  0  0 
 18 19  1  0  0  0  0 
 13 19  2  0  0  0  0 
 10 19  1  0  0  0  0 
  2 20  1  0  0  0  0 
  1  2  2  0  0  0  0 
  3  2  1  1  0  0  0 
 21 22  1  0  0  0  0 
  3  4  1  0  0  0  0 
 21 23  1  0  0  0  0 
  4  5  1  6  0  0  0 
 21 24  2  0  0  0  0 
  4  6  1  0  0  0  0 
 23 25  1  0  0  0  0 
  6  7  1  6  0  0  0 
 25 26  1  0  0  0  0 
  6  8  1  0  0  0  0 
 26 27  1  0  0  0  0 
  8  9  1  0  0  0  0 
 27 28  1  0  0  0  0 
 28 20  1  0  0  0  0 
M  END