
  SciTegic10041313222D

 34 41  0  0  0  0            999 V2000
    0.6125   -0.9292    0.0000 C   0  0
    1.8250   -1.6667    0.0000 C   0  0
    1.0375   -0.2292    0.0000 C   0  0
    2.2500   -0.9667    0.0000 C   0  0
    1.0000   -1.6417    0.0000 C   0  0
   -0.2125   -0.9167    0.0000 C   0  0
    2.6542   -2.1167    0.0000 N   0  0
   -0.6250   -1.6167    0.0000 C   0  0
    0.2167   -2.0167    0.0000 O   0  0
    0.6417    0.4958    0.0000 C   0  0
    3.0625   -0.9542    0.0000 C   0  0
    1.0500    1.2208    0.0000 N   0  0
    1.8542   -0.2417    0.0000 C   0  0
    3.4792   -1.6417    0.0000 C   0  0
   -0.6083   -0.2042    0.0000 C   0  0
   -0.1833    0.5083    0.0000 C   0  0
    0.1917   -0.2042    0.0000 C   0  0
    2.5625    1.1333    0.0000 C   0  0
    1.0500    2.0333    0.0000 C   0  0
   -1.4375   -1.6042    0.0000 C   0  0
    3.0167    0.4458    0.0000 N   0  0
    0.2250    1.2208    0.0000 C   0  0
    1.7500    2.4708    0.0000 C   0  0
    3.4500   -0.2542    0.0000 C   0  0
    2.1586    1.7447    0.0000 S   0  0
    2.5625    2.4958    0.0000 C   0  0
    2.1250    3.2083    0.0000 C   0  0
   -1.4208   -0.1917    0.0000 C   0  0
    1.4417    0.4958    0.0000 O   0  0
   -1.8458   -0.8917    0.0000 C   0  0
    4.2750   -1.6292    0.0000 C   0  0
   -1.8583   -2.3167    0.0000 O   0  0
    4.6625   -0.9292    0.0000 C   0  0
    4.2417   -0.2417    0.0000 C   0  0
  2  5  1  0
  3  1  1  0
  4  2  2  0
  5  1  1  0
  6  1  1  0
  7  2  1  0
  8  6  1  0
  9  5  1  0
 10  3  1  0
 11  4  1  0
 12 22  1  0
 13  3  1  0
 14  7  1  0
 15  6  2  0
 16 15  1  0
 17  1  1  0
 18 21  2  0
 19 12  1  0
 20  8  2  0
 21 24  1  0
 22 17  1  0
 23 19  1  0
 24 11  1  0
 25 18  2  0
 26 23  1  0
 27 23  1  0
 28 15  1  0
 29  3  1  0
 30 28  2  0
 31 14  1  0
 32 20  1  0
 33 31  2  0
 34 24  2  0
  8  9  1  0
 13  4  1  0
 12 10  1  0
 16 10  1  0
 30 20  1  0
 14 11  2  0
 27 26  1  0
 34 33  1  0
M  END