
          11280715192D 1   1.00000     0.00000     0

 23 24  0     0  0            999 V2000
    3.0750   -0.8792    0.0000 C   0  0  0  0  0  0           0  0  0
    3.0750   -0.2792    0.0000 C   0  0  0  0  0  0           0  0  0
    3.5917   -1.1792    0.0000 C   0  0  0  0  0  0           0  0  0
    2.5542    0.0208    0.0000 C   0  0  0  0  0  0           0  0  0
    2.5542   -1.1792    0.0000 O   0  0  0  0  0  0           0  0  0
    1.5167   -1.7792    0.0000 N   0  0  3  0  0  0           0  0  0
    3.5917   -1.7792    0.0000 C   0  0  0  0  0  0           0  0  0
    2.0375   -0.2792    0.0000 O   0  0  0  0  0  0           0  0  0
    2.0375   -0.8792    0.0000 C   0  0  0  0  0  0           0  0  0
    3.5917    0.0208    0.0000 C   0  0  0  0  0  0           0  0  0
    1.5167   -1.1792    0.0000 C   0  0  0  0  0  0           0  0  0
    2.5542    0.6250    0.0000 C   0  0  0  0  0  0           0  0  0
    0.9917   -2.0792    0.0000 C   0  0  0  0  0  0           0  0  0
    2.0292   -2.0792    0.0000 C   0  0  0  0  0  0           0  0  0
    3.0750   -2.0750    0.0000 C   0  0  0  0  0  0           0  0  0
    4.1125   -2.0750    0.0000 C   0  0  0  0  0  0           0  0  0
    3.5917    0.6250    0.0000 C   0  0  0  0  0  0           0  0  0
    2.5542   -1.7792    0.0000 C   0  0  0  0  0  0           0  0  0
    0.9917   -2.6792    0.0000 C   0  0  0  0  0  0           0  0  0
    3.0750    0.9250    0.0000 C   0  0  0  0  0  0           0  0  0
    4.1167   -2.6750    0.0000 C   0  0  0  0  0  0           0  0  0
    3.0750   -2.6750    0.0000 C   0  0  0  0  0  0           0  0  0
    3.5917   -2.9750    0.0000 C   0  0  0  0  0  0           0  0  0
  2  1  1  0     0  0
  3  1  1  0     0  0
  4  2  1  0     0  0
  5  1  2  0     0  0
  6 11  1  0     0  0
  7  3  1  0     0  0
  8  4  1  0     0  0
  9  8  1  0     0  0
 10  2  2  0     0  0
 11  9  1  0     0  0
 12  4  2  0     0  0
 13  6  1  0     0  0
 14  6  1  0     0  0
 15  7  2  0     0  0
 16  7  1  0     0  0
 17 10  1  0     0  0
 18 14  1  0     0  0
 19 13  1  0     0  0
 20 17  2  0     0  0
 21 16  2  0     0  0
 22 15  1  0     0  0
 23 21  1  0     0  0
 12 20  1  0     0  0
 22 23  2  0     0  0
M  END