
          11280714452D 1   1.00000     0.00000     0

 13 14  0     0  0            999 V2000
    5.6792   -2.5917    0.0000 C   0  0  0  0  0  0           0  0  0
    5.1625   -2.9042    0.0000 C   0  0  0  0  0  0           0  0  0
    6.2125   -3.5042    0.0000 C   0  0  0  0  0  0           0  0  0
    5.6792   -3.8125    0.0000 O   0  0  0  0  0  0           0  0  0
    5.1625   -3.5042    0.0000 C   0  0  0  0  0  0           0  0  0
    6.2125   -2.9042    0.0000 C   0  0  0  0  0  0           0  0  0
    4.6417   -2.6042    0.0000 C   0  0  0  0  0  0           0  0  0
    6.7292   -3.8125    0.0000 O   0  0  0  0  0  0           0  0  0
    4.6417   -3.8042    0.0000 C   0  0  0  0  0  0           0  0  0
    4.1250   -2.9042    0.0000 C   0  0  0  0  0  0           0  0  0
    4.1250   -3.5042    0.0000 C   0  0  0  0  0  0           0  0  0
    5.6792   -1.9917    0.0000 C   0  0  0  0  0  0           0  0  0
    3.6042   -2.6042    0.0000 O   0  0  0  0  0  0           0  0  0
  2  1  1  0     0  0
  3  6  1  0     0  0
  4  3  1  0     0  0
  5  2  1  0     0  0
  6  1  2  0     0  0
  7  2  2  0     0  0
  8  3  2  0     0  0
  9  5  2  0     0  0
 10  7  1  0     0  0
 11 10  2  0     0  0
 12  1  1  0     0  0
 13 10  1  0     0  0
  4  5  1  0     0  0
 11  9  1  0     0  0
M  END