
          11280715362D 1   1.00000     0.00000     0

 40 43  0     1  0            999 V2000
    5.7292    0.0583    0.0000 S   0  0  3  0  0  0           0  0  0
    3.1167   -4.4667    0.0000 C   0  0  1  0  0  0           0  0  0
    5.3292   -0.6625    0.0000 N   0  0  0  0  0  0           0  0  0
    2.9292   -3.6625    0.0000 C   0  0  2  0  0  0           0  0  0
    3.6917   -5.0500    0.0000 N   0  0  3  0  0  0           0  0  0
    5.7625   -1.3667    0.0000 C   0  0  0  0  0  0           0  0  0
    5.3625   -2.0792    0.0000 C   0  0  0  0  0  0           0  0  0
    2.4042   -4.8917    0.0000 C   0  0  0  0  0  0           0  0  0
    6.5542    0.0750    0.0000 O   0  0  0  0  0  0           0  0  0
    4.8667    0.0458    0.0000 O   0  0  0  0  0  0           0  0  0
    2.1125   -3.5917    0.0000 C   0  0  3  0  0  0           0  0  0
    4.5417   -2.1042    0.0000 C   0  0  0  0  0  0           0  0  0
    7.8917   -4.4542    0.0000 C   0  0  0  0  0  0           0  0  0
    1.6875   -2.8792    0.0000 O   0  0  0  0  0  0           0  0  0
    1.7875   -4.3417    0.0000 C   0  0  0  0  0  0           0  0  0
    8.5500   -4.1792    0.0000 O   0  0  0  0  0  0           0  0  0
    4.1292   -1.4042    0.0000 C   0  0  0  0  0  0           0  0  0
    4.1417   -2.8292    0.0000 C   0  0  0  0  0  0           0  0  0
    5.0167   -3.6125    0.0000 C   0  0  0  0  0  0           0  0  0
    5.8917   -3.6750    0.0000 C   0  0  0  0  0  0           0  0  0
    3.7250   -3.4417    0.0000 O   0  0  0  0  0  0           0  0  0
    5.9000    0.7500    0.0000 C   0  0  0  0  0  0           0  0  0
    2.0917   -2.1625    0.0000 C   0  0  0  0  0  0           0  0  0
    2.9167   -2.1500    0.0000 C   0  0  0  0  0  0           0  0  0
    7.7917   -5.1542    0.0000 O   0  0  0  0  0  0           0  0  0
    3.3292   -2.8417    0.0000 C   0  0  0  0  0  0           0  0  0
    3.3167   -1.4292    0.0000 C   0  0  0  0  0  0           0  0  0
    3.4292   -5.8250    0.0000 C   0  0  0  0  0  0           0  0  0
    4.4667   -4.7750    0.0000 C   0  0  0  0  0  0           0  0  0
    6.5750   -1.3500    0.0000 C   0  0  0  0  0  0           0  0  0
    5.7667   -2.7875    0.0000 C   0  0  0  0  0  0           0  0  0
    4.3917   -3.9750    0.0000 C   0  0  0  0  0  0           0  0  0
    7.3292   -4.0167    0.0000 C   0  0  0  0  0  0           0  0  0
    6.3917   -4.2667    0.0000 C   0  0  0  0  0  0           0  0  0
    3.8667   -6.5167    0.0000 C   0  0  0  0  0  0           0  0  0
    5.1667   -5.2125    0.0000 C   0  0  0  0  0  0           0  0  0
    6.9917   -2.0542    0.0000 C   0  0  0  0  0  0           0  0  0
    6.5917   -2.7750    0.0000 C   0  0  0  0  0  0           0  0  0
    4.6917   -6.6042    0.0000 C   0  0  0  0  0  0           0  0  0
    5.2667   -6.0250    0.0000 C   0  0  0  0  0  0           0  0  0
  2  4  1  0     0  0
  3  1  1  0     0  0
  4 11  1  0     0  0
  2  5  1  1     0  0
  6  3  1  0     0  0
  7  6  1  0     0  0
  8 15  1  0     0  0
  9  1  2  0     0  0
 10  1  2  0     0  0
 11 14  1  0     0  0
 12  7  1  0     0  0
 13 33  1  0     0  0
 14 23  1  0     0  0
 15 11  1  0     0  0
 16 13  2  0     0  0
 17 12  2  0     0  0
 18 12  1  0     0  0
 19 32  1  0     0  0
 20 19  2  0     0  0
  4 21  1  6     0  0
 22  1  1  0     0  0
 23 24  1  0     0  0
 24 26  1  0     0  0
 25 13  1  0     0  0
 26 18  2  0     0  0
 27 17  1  0     0  0
 28  5  1  0     0  0
 29  5  1  0     0  0
 30  6  2  0     0  0
 31  7  2  0     0  0
 32 21  1  0     0  0
 33 34  1  0     0  0
 34 20  1  0     0  0
 35 28  1  0     0  0
 36 29  1  0     0  0
 37 30  1  0     0  0
 38 37  2  0     0  0
 39 35  1  0     0  0
 40 36  1  0     0  0
 31 38  1  0     0  0
 27 24  2  0     0  0
  8  2  1  0     0  0
 40 39  1  0     0  0
M  END