
  SciTegic06281210282D

 34 37  0  0  0  0            999 V2000
    0.0458    3.1458    0.0000 O   0  0
    0.0500    2.3208    0.0000 S   0  0
    0.7624    2.7369    0.0000 O   0  0
   -3.2222    1.1065    0.0000 C   0  0
   -3.2222    0.2815    0.0000 C   0  0
   -2.5078   -0.1310    0.0000 C   0  0
   -1.7933    0.2815    0.0000 C   0  0
   -1.7933    1.1065    0.0000 C   0  0
   -2.5078    1.5190    0.0000 C   0  0
   -1.0097    0.0254    0.0000 N   0  0
   -0.5238    0.6940    0.0000 N   0  0
   -1.0087    1.3614    0.0000 C   0  0
   -2.5078    2.3440    0.0000 O   0  0
   -3.2222    2.7565    0.0000 C   0  0
   -1.0084   -0.7996    0.0000 C   0  0
   -1.7223   -1.2131    0.0000 C   0  0
   -2.4373   -0.8018    0.0000 C   0  0
   -3.1512   -1.2153    0.0000 C   0  0
   -3.1499   -2.0403    0.0000 C   0  0
   -2.4349   -2.4517    0.0000 C   0  0
   -1.7210   -2.0381    0.0000 C   0  0
   -0.7537    2.1460    0.0000 N   0  0
    0.6053    1.7044    0.0000 C   0  0
    0.4338    0.8987    0.0000 C   0  0
    1.1482    0.4862    0.0000 C   0  0
    1.7614    1.0383    0.0000 C   0  0
    1.4257    1.7919    0.0000 S   0  0
    2.5684    0.8668    0.0000 Cl  0  0
   -2.4337   -3.2767    0.0000 C   0  0
   -3.1475   -3.6903    0.0000 N   0  0
   -3.8626   -3.2788    0.0000 C   0  0
   -4.5765   -3.6924    0.0000 C   0  0
   -3.8638   -2.4538    0.0000 O   0  0
   -5.2916   -3.2809    0.0000 O   0  0
  9 13  1  0
 13 14  1  0
 10 15  1  0
 15 16  1  0
 16 17  2  0
 17 18  1  0
 18 19  2  0
 19 20  1  0
 20 21  2  0
 21 16  1  0
 12 22  1  0
 22  2  1  0
  2  1  2  0
  2 23  1  0
 23 24  2  0
  3  2  2  0
  4  5  2  0
  5  6  1  0
  6  7  2  0
 24 25  1  0
 25 26  2  0
 26 27  1  0
 27 23  1  0
  7  8  1  0
 26 28  1  0
  8  9  2  0
 20 29  1  0
  9  4  1  0
 29 30  1  0
  7 10  1  0
 30 31  1  0
 10 11  1  0
 31 32  1  0
 11 12  2  0
 31 33  2  0
 12  8  1  0
 32 34  1  0
M  END