
  SciTegic11111309142D

179185  0  0  0  0            999 V2000
   -2.8635  -12.8449    0.0000 C   0  0  1  0  0  0
   -2.1637  -14.0993    0.0000 O   0  0
   -2.8565  -12.0245    0.0000 C   0  0
   -2.1503  -13.2681    0.0000 C   0  0
   -1.4335  -12.8685    0.0000 N   0  0
   -0.7203  -13.2819    0.0000 C   0  0  2  0  0  0
   -0.0002  -12.0400    0.0000 O   0  0
   -0.0002  -12.8693    0.0000 C   0  0
   -0.7203  -14.1111    0.0000 C   0  0
   -0.0002  -14.5237    0.0000 C   0  0
   -0.0002  -15.3530    0.0000 O   0  0
    1.4318  -12.8693    0.0000 C   0  0  1  0  0  0
    2.1478  -14.1111    0.0000 O   0  0
    1.4318  -12.0400    0.0000 C   0  0
    2.1478  -13.2819    0.0000 C   0  0
    3.5839  -13.2819    0.0000 C   0  0  1  0  0  0
    4.2999  -12.0400    0.0000 O   0  0
    3.5839  -14.1111    0.0000 C   0  0
    4.2999  -12.8693    0.0000 C   0  0
    5.0143  -13.2822    0.0000 N   0  0
   10.6973  -18.2928    0.0000 C   0  0  1  0  0  0
    9.9875  -17.0529    0.0000 O   0  0
    9.9875  -17.8739    0.0000 C   0  0
   10.6973  -19.1137    0.0000 C   0  0  1  0  0  0
    9.9875  -19.5285    0.0000 C   0  0
    8.5534  -17.8739    0.0000 C   0  0  1  0  0  0
    7.8353  -18.2928    0.0000 C   0  0
    7.1349  -14.5233    0.0000 C   0  0  2  0  0  0
    7.8584  -13.2878    0.0000 O   0  0
    7.8610  -14.1083    0.0000 C   0  0
    7.1454  -15.3434    0.0000 C   0  0
    9.2828  -14.1008    0.0000 C   0  0  2  0  0  0
   10.0005  -15.3308    0.0000 O   0  0
   10.0009  -14.5063    0.0000 C   0  0
    9.2799  -13.2811    0.0000 C   0  0
    8.5629  -12.8670    0.0000 C   0  0
   12.8373  -17.0553    0.0000 C   0  0
   12.8373  -17.8781    0.0000 C   0  0  1  0  0  0
   12.1571  -14.1065    0.0000 C   0  0
   11.4254  -14.5161    0.0000 C   0  0  2  0  0  0
   11.4213  -15.3466    0.0000 C   0  0
   12.1380  -15.7766    0.0000 S   0  0
   12.1334  -16.6163    0.0000 S   0  0
   14.9737  -14.1589    0.0000 C   0  0
   13.5609  -13.3199    0.0000 C   0  0
   12.8411  -12.8973    0.0000 C   0  0  2  0  0  0
   12.1205  -18.2928    0.0000 C   0  0
   12.1201  -19.1090    0.0000 O   0  0
   12.8771  -14.5052    0.0000 O   0  0
   14.9823  -13.3394    0.0000 C   0  0  2  0  0  0
   12.8530  -12.0770    0.0000 C   0  0
   13.5512  -14.1434    0.0000 O   0  0
   15.6897  -12.9377    0.0000 C   0  0
   15.7067  -12.1133    0.0000 C   0  0
   14.2549  -14.5625    0.0000 O   0  0
   13.5419  -19.1199    0.0000 C   0  0
   12.8323  -19.5268    0.0000 O   0  0
   14.2523  -19.5291    0.0000 C   0  0  2  0  0  0
   14.2477  -20.3591    0.0000 C   0  0
   13.5280  -20.7687    0.0000 C   0  0
   15.6710  -19.5378    0.0000 C   0  0
   15.6678  -20.3614    0.0000 O   0  0
   15.6752  -17.9061    0.0000 C   0  0
   15.6739  -17.0816    0.0000 C   0  0  2  0  0  0
   14.9706  -18.3143    0.0000 O   0  0
   16.3835  -15.8413    0.0000 C   0  0
   15.6662  -15.4376    0.0000 O   0  0
   17.0945  -15.4246    0.0000 C   0  0  2  0  0  0
   17.8041  -14.1927    0.0000 C   0  0
   17.7964  -13.3627    0.0000 C   0  0  2  0  0  0
   18.5131  -14.5964    0.0000 O   0  0
   18.5096  -12.9460    0.0000 C   0  0  2  0  0  0
    9.2694  -18.2928    0.0000 N   0  0
   17.8075  -15.8380    0.0000 C   0  0
   12.7800  -20.4308    0.0000 C   0  0
   12.2265  -21.0416    0.0000 N   0  0
   12.6362  -21.7572    0.0000 C   0  0
   16.3951  -18.3085    0.0000 N   0  0
   16.3922  -19.1289    0.0000 C   0  0
   14.9630  -16.6746    0.0000 C   0  0
   14.2502  -17.0885    0.0000 C   0  0
   13.5352  -16.6815    0.0000 C   0  0
   14.2524  -17.9136    0.0000 C   0  0
   17.8018  -16.6631    0.0000 C   0  0
   19.2236  -13.3548    0.0000 C   0  0
   18.5052  -12.1251    0.0000 C   0  0
   12.1452  -11.6547    0.0000 C   0  0
    6.4368  -15.7645    0.0000 C   0  0
    6.4399  -13.2930    0.0000 C   0  0
    5.7272  -12.8747    0.0000 C   0  0  2  0  0  0
    7.1550  -12.8819    0.0000 O   0  0
    5.7338  -12.0537    0.0000 C   0  0
    9.9902  -12.8658    0.0000 C   0  0
    8.5518  -17.0529    0.0000 C   0  0
    7.8350  -16.6417    0.0000 C   0  0
    6.4490  -11.6469    0.0000 C   0  0
    7.1571  -12.0630    0.0000 C   0  0
    7.8715  -11.6530    0.0000 C   0  0
    7.8788  -10.8308    0.0000 C   0  0
    7.1627  -10.4168    0.0000 C   0  0
    6.4486  -10.8263    0.0000 C   0  0
    5.7177  -15.3604    0.0000 C   0  0
    5.7114  -14.5396    0.0000 O   0  0
   12.0708  -10.8400    0.0000 C   0  0
   11.2680  -10.6560    0.0000 N   0  0
   10.8458  -11.3640    0.0000 C   0  0
   16.4191  -11.7168    0.0000 C   0  0
   16.4283  -10.8935    0.0000 C   0  0
   15.7248  -10.4736    0.0000 C   0  0
   15.0056  -10.8778    0.0000 C   0  0
   14.9976  -11.6990    0.0000 C   0  0
   19.9374  -12.9426    0.0000 C   0  0
   17.3817  -12.6454    0.0000 H   0  0
   18.5107  -17.0765    0.0000 C   0  0
    7.1282  -17.0557    0.0000 C   0  0
    7.1255  -17.8840    0.0000 O   0  0
   11.4102  -17.8821    0.0000 N   0  0
    6.4375  -14.1139    0.0000 N   0  0
    8.5628  -14.5125    0.0000 N   0  0
   13.5444  -18.2963    0.0000 N   0  0
   12.1264  -13.3130    0.0000 N   0  0
   14.2722  -12.9149    0.0000 N   0  0
   14.9703  -19.1264    0.0000 N   0  0
   16.3912  -16.6616    0.0000 N   0  0
   17.1095  -14.5949    0.0000 N   0  0
   15.6849  -14.5775    0.0000 N   0  0
   10.7181  -14.1043    0.0000 N   0  0
   13.4449  -21.5885    0.0000 N   0  0
    5.0174  -15.7815    0.0000 O   0  0
   11.3870  -11.9827    0.0000 N   0  0
   15.7360   -9.6486    0.0000 O   0  0
   11.4102  -19.5244    0.0000 O   0  0
    7.8397  -19.1137    0.0000 N   0  0
   18.5086  -17.9100    0.0000 C   0  0
   19.2306  -18.3285    0.0000 N   0  0
   19.9545  -17.9135    0.0000 C   0  0
   20.6764  -18.3321    0.0000 C   0  0
   19.9566  -17.0801    0.0000 O   0  0
   21.3961  -17.9171    0.0000 O   0  0
   22.1180  -18.3357    0.0000 C   0  0
   22.8419  -17.9207    0.0000 C   0  0
   23.5639  -18.3392    0.0000 N   0  0
   22.8440  -17.0873    0.0000 O   0  0
   24.2837  -17.9243    0.0000 C   0  0
   25.0044  -18.3459    0.0000 C   0  0
   25.7278  -17.9316    0.0000 C   0  0
   25.7303  -17.0973    0.0000 C   0  0
   25.0034  -16.6789    0.0000 C   0  0
   24.2829  -17.0956    0.0000 C   0  0
   26.4537  -16.6814    0.0000 C   0  0
   27.1721  -17.0990    0.0000 C   0  0
   27.8954  -16.6831    0.0000 C   0  0
   28.6179  -17.1007    0.0000 N   0  0
   27.8964  -15.8496    0.0000 O   0  0
   28.8291  -17.9042    0.0000 C   0  0
   29.6348  -17.6875    0.0000 C   0  0
   29.4221  -16.8819    0.0000 C   0  0
   29.8387  -16.1631    0.0000 O   0  0
   -4.2980  -12.8373    0.0000 C   0  0
   -5.0157  -13.2445    0.0000 C   0  0
   -4.2918  -12.0122    0.0000 O   0  0
    5.6342  -13.8940    0.0000 C   0  0
   16.6027  -19.9241    0.0000 C   0  0
   17.2153  -19.1281    0.0000 C   0  0
    6.4111  -16.6475    0.0000 C   0  0
    5.6990  -17.0645    0.0000 N   0  0
    5.7041  -17.8896    0.0000 C   0  0
    4.9920  -18.3066    0.0000 C   0  0
    6.4213  -18.2978    0.0000 O   0  0
   -3.5866  -13.2552    0.0000 N   0  0
    0.7158  -14.1111    0.0000 O   0  0
    0.7158  -13.2819    0.0000 N   0  0
    2.8638  -12.8693    0.0000 N   0  0
    7.1273  -19.5301    0.0000 C   0  0
    7.1317  -20.3552    0.0000 C   0  0
    6.7094  -18.8114    0.0000 C   0  0
    6.4094  -19.9366    0.0000 C   0  0
    6.4194  -20.7716    0.0000 O   0  0
    7.8483  -20.7639    0.0000 N   0  0
 53 54  1  0
 44 55  2  0
120 56  1  0
 56 57  2  0
 56 58  1  0
 58 59  1  1
 58123  1  0
 59 60  1  0
123 61  1  0
 79 61  1  0
 61 62  2  0
 78 63  1  0
 63 64  1  0
 63 65  2  0
 64124  1  0
124 66  1  0
 66 67  2  0
 66 68  1  0
 68125  1  0
125 69  1  0
 69 70  1  0
 69 71  2  0
 70 72  1  0
 70126  1  0
 47117  1  0
 68 74  1  1
 60 75  2  0
 75 76  1  0
 76 77  2  0
 77128  1  0
128 60  1  0
 78 79  1  0
 64 80  1  6
 80 81  1  0
 81 82  1  0
 81 83  1  0
 74 84  1  0
 72 85  1  0
 72 86  1  1
 51 87  1  0
 31 88  1  0
118 89  1  0
 89 90  1  0
 89 91  2  0
 90 92  1  1
 90 20  1  0
 35 93  1  0
 26 94  1  6
 94 95  1  0
 92 96  1  0
 96 97  2  0
 97 98  1  0
 98 99  2  0
 99100  1  0
100101  2  0
101 96  1  0
 88102  1  0
102129  1  0
102103  2  0
 87104  2  0
104105  1  0
105106  2  0
106130  1  0
130 87  1  0
 54107  2  0
107108  1  0
108109  2  0
109110  1  0
110111  2  0
111 54  1  0
109131  1  0
 85112  1  0
 70113  1  6
 84114  1  0
 24132  1  6
 95115  1  0
 27116  2  0
 27133  1  0
  4  5  1  0
  8172  1  0
 15173  1  0
  6  8  1  0
  8  7  2  0
  6  9  1  6
  9 10  1  0
 10 11  2  0
 10171  1  0
172 12  1  0
 12 15  1  0
 15 13  2  0
 12 14  1  1
173 16  1  0
 16 19  1  0
 19 17  2  0
 16 18  1  6
170  1  1  0
114134  1  0
 19 20  1  0
134135  1  0
  1  4  1  0
135136  1  0
  4  2  2  0
136137  1  0
  1  3  1  1
136138  2  0
137139  1  0
 23 73  1  0
139140  1  0
 21 23  1  6
140141  1  0
 23 22  2  0
141142  1  0
 21 24  1  0
141143  2  0
 24 25  1  0
142144  1  0
 73 26  1  0
144145  2  0
 26 27  1  0
145146  1  0
 21117  1  0
146147  2  0
 28 30  1  0
147148  1  0
 30 29  2  0
148149  2  0
149144  1  0
 28 31  1  6
147150  1  0
 32 34  1  0
150151  1  0
 34 33  2  0
151152  1  0
 32 35  1  0
152153  1  0
 35 36  1  0
152154  2  0
153155  1  0
 30119  1  0
 32119  1  1
118 28  1  0
155156  1  0
156157  1  0
157153  1  0
 37 38  1  0
157158  2  0
  6  5  1  0
 38120  1  0
170159  1  0
 39 40  1  0
159160  1  0
 40 41  1  0
159161  2  0
 41 42  1  0
118162  1  0
 43 42  1  0
 79163  1  0
 44126  1  0
 79164  1  0
122 45  1  0
115165  1  0
 44 50  1  0
165166  1  0
 46121  1  0
166167  1  0
 45 46  1  0
167168  1  0
121 39  1  0
167169  2  0
 43 37  1  0
 38 47  1  6
 47 48  2  0
 40127  1  6
127 34  1  0
133174  1  0
 39 49  2  0
174175  1  0
122 50  1  0
174176  1  0
 46 51  1  1
174177  1  0
 45 52  2  0
175178  2  0
 50 53  1  1
175179  1  0
M  END