
  SciTegic04151115542D

 25 27  0  0  0  0            999 V2000
   11.9861  -18.7833    0.0000 C   0  0
   11.9849  -19.6107    0.0000 C   0  0
   12.6997  -20.0235    0.0000 C   0  0
   13.4162  -19.6102    0.0000 C   0  0
   13.4133  -18.7797    0.0000 C   0  0
   12.6979  -18.3705    0.0000 C   0  0
   12.6995  -20.8485    0.0000 F   0  0
   11.2701  -20.0226    0.0000 Cl  0  0
   14.1262  -18.3645    0.0000 N   0  0
   14.8422  -18.7743    0.0000 C   0  0
   15.5552  -18.3591    0.0000 C   0  0
   14.8454  -19.5993    0.0000 O   0  0
   16.2712  -18.7689    0.0000 N   0  0
   15.5520  -17.5341    0.0000 O   0  0
   16.9841  -18.3537    0.0000 C   0  0
   17.7001  -18.7635    0.0000 C   0  0
   19.1284  -19.5864    0.0000 C   0  0
   19.1273  -18.7604    0.0000 C   0  0
   18.4108  -18.3462    0.0000 N   0  0
   18.4130  -19.9981    0.0000 C   0  0
   17.7053  -19.5865    0.0000 C   0  0
   16.9971  -19.9936    0.0000 C   0  0
   16.9954  -20.8121    0.0000 C   0  0
   17.7079  -21.2218    0.0000 C   0  0
   18.4132  -20.8124    0.0000 C   0  0
  6  1  1  0
 11 13  1  0
  1  2  2  0
 11 14  2  0
  3  7  1  0
 13 15  1  0
  3  4  2  0
 15 16  1  0
 16 21  1  0
  2  8  1  0
  5  9  1  0
 16 19  1  0
 20 17  1  0
 17 18  1  0
 18 19  1  0
  4  5  1  0
  9 10  1  0
 20 21  2  0
  2  3  1  0
 21 22  1  0
 10 11  1  0
 22 23  2  0
  5  6  2  0
 23 24  1  0
 10 12  2  0
 24 25  2  0
 25 20  1  0
M  END