
          11280715492D 1   1.00000     0.00000     0

 64 68  0     1  0            999 V2000
   -0.6488   -1.5417    0.0000 C   0  0  2  0  0  0           0  0  0
   -1.3677   -1.1548    0.0000 C   0  0  2  0  0  0           0  0  0
   -2.0684   -1.5876    0.0000 C   0  0  1  0  0  0           0  0  0
   -2.0435   -2.4105    0.0000 C   0  0  1  0  0  0           0  0  0
   -1.3228   -2.8110    0.0000 C   0  0  2  0  0  0           0  0  0
   -0.6202   -2.3692    0.0000 O   0  0  0  0  0  0           0  0  0
    0.0550   -1.1017    0.0000 C   0  0  0  0  0  0           0  0  0
   -1.3974   -0.3231    0.0000 O   0  0  0  0  0  0           0  0  0
   -2.8112   -1.1947    0.0000 O   0  0  0  0  0  0           0  0  0
   -2.7593   -2.8439    0.0000 O   0  0  0  0  0  0           0  0  0
   -1.2977   -3.6386    0.0000 O   0  0  0  0  0  0           0  0  0
   -0.5742   -4.0364    0.0000 C   0  0  2  0  0  0           0  0  0
   -0.5476   -4.8584    0.0000 C   0  0  1  0  0  0           0  0  0
    0.1793   -5.2459    0.0000 C   0  0  2  0  0  0           0  0  0
    0.8794   -4.8107    0.0000 O   0  0  0  0  0  0           0  0  0
    0.8563   -3.9818    0.0000 C   0  0  1  0  0  0           0  0  0
    0.1292   -3.5934    0.0000 C   0  0  1  0  0  0           0  0  0
    0.2061   -6.0778    0.0000 O   0  0  0  0  0  0           0  0  0
   -1.2499   -5.2933    0.0000 O   0  0  0  0  0  0           0  0  0
    1.5604   -3.5494    0.0000 C   0  0  0  0  0  0           0  0  0
    0.1026   -2.7663    0.0000 O   0  0  0  0  0  0           0  0  0
    2.3583   -6.4169    0.0000 C   0  0  2  0  0  0           0  0  0
    1.6342   -6.0261    0.0000 C   0  0  2  0  0  0           0  0  0
    0.9341   -6.4634    0.0000 C   0  0  1  0  0  0           0  0  0
    0.9602   -7.2956    0.0000 C   0  0  1  0  0  0           0  0  0
    1.6836   -7.6819    0.0000 C   0  0  2  0  0  0           0  0  0
    2.3873   -7.2490    0.0000 O   0  0  0  0  0  0           0  0  0
    3.0615   -5.9724    0.0000 C   0  0  0  0  0  0           0  0  0
    1.6051   -5.1989    0.0000 O   0  0  0  0  0  0           0  0  0
    0.2546   -7.7367    0.0000 O   0  0  0  0  0  0           0  0  0
    1.7139   -8.5133    0.0000 O   0  0  0  0  0  0           0  0  0
    2.4363   -8.9020    0.0000 C   0  0  2  0  0  0           0  0  0
    2.4628   -9.7238    0.0000 C   0  0  1  0  0  0           0  0  0
    3.1903  -10.1161    0.0000 C   0  0  2  0  0  0           0  0  0
    3.8910   -9.6853    0.0000 O   0  0  0  0  0  0           0  0  0
    3.8633   -8.8571    0.0000 C   0  0  1  0  0  0           0  0  0
    3.1407   -8.4681    0.0000 C   0  0  1  0  0  0           0  0  0
    3.2165  -10.9433    0.0000 O   0  0  0  0  0  0           0  0  0
    1.7604  -10.1588    0.0000 O   0  0  0  0  0  0           0  0  0
    4.5714   -8.4195    0.0000 C   0  0  0  0  0  0           0  0  0
    3.1136   -7.6363    0.0000 O   0  0  0  0  0  0           0  0  0
    3.9418  -11.3345    0.0000 C   0  0  2  0  0  0           0  0  0
    3.9702  -12.1569    0.0000 C   0  0  2  0  0  0           0  0  0
    4.6956  -12.5477    0.0000 O   0  0  0  0  0  0           0  0  0
    5.3976  -12.1152    0.0000 C   0  0  1  0  0  0           0  0  0
    5.3690  -11.2874    0.0000 C   0  0  2  0  0  0           0  0  0
    4.6439  -10.9004    0.0000 C   0  0  2  0  0  0           0  0  0
    4.6186  -10.0685    0.0000 O   0  0  0  0  0  0           0  0  0
    6.0744  -10.8532    0.0000 O   0  0  0  0  0  0           0  0  0
    3.2647  -12.5947    0.0000 O   0  0  0  0  0  0           0  0  0
    6.1228  -12.5187    0.0000 C   0  0  0  0  0  0           0  0  0
    6.1417  -13.3512    0.0000 O   0  0  0  0  0  0           0  0  0
    2.5386  -12.2037    0.0000 C   0  0  0  0  0  0           0  0  0
    1.8370  -12.6363    0.0000 C   0  0  0  0  0  0           0  0  0
    3.0340   -5.1423    0.0000 O   0  0  0  0  0  0           0  0  0
    4.5457   -7.5955    0.0000 O   0  0  0  0  0  0           0  0  0
    1.5347   -2.7233    0.0000 O   0  0  0  0  0  0           0  0  0
    0.0333   -0.2778    0.0000 O   0  0  0  0  0  0           0  0  0
    1.1110  -12.2446    0.0000 C   0  0  0  0  0  0           0  0  0
    0.4087  -12.6776    0.0000 C   0  0  0  0  0  0           0  0  0
   -0.3173  -12.2860    0.0000 C   0  0  0  0  0  0           0  0  0
   -1.0194  -12.7191    0.0000 C   0  0  0  0  0  0           0  0  0
   -1.7456  -12.3274    0.0000 C   0  0  0  0  0  0           0  0  0
   -2.4477  -12.7605    0.0000 C   0  0  0  0  0  0           0  0  0
 32 31  1  1     0  0
 32 33  1  0     0  0
 13 14  1  0     0  0
 14 15  1  0     0  0
 15 16  1  0     0  0
 16 17  1  0     0  0
  1  6  1  0     0  0
 32 37  1  0     0  0
 33 34  1  0     0  0
 34 35  1  0     0  0
 35 36  1  0     0  0
 36 37  1  0     0  0
 14 18  1  6     0  0
 34 38  1  6     0  0
  3  9  1  1     0  0
 33 39  1  1     0  0
 13 19  1  1     0  0
 36 40  1  1     0  0
  2  3  1  0     0  0
 37 41  1  6     0  0
 28 55  1  0     0  0
 16 20  1  1     0  0
 42 38  1  1     0  0
 42 43  1  0     0  0
  4 10  1  1     0  0
 17 21  1  6     0  0
 22 23  1  0     0  0
  3  4  1  0     0  0
  5 11  1  6     0  0
 42 47  1  0     0  0
 43 44  1  0     0  0
 44 45  1  0     0  0
 45 46  1  0     0  0
 46 47  1  0     0  0
 40 56  1  0     0  0
  4  5  1  0     0  0
 47 48  1  1     0  0
 12 11  1  1     0  0
 46 49  1  6     0  0
 12 13  1  0     0  0
 43 50  1  6     0  0
  5  6  1  0     0  0
 45 51  1  1     0  0
 22 27  1  0     0  0
 20 57  1  0     0  0
 51 52  1  0     0  0
 23 24  1  0     0  0
 50 53  1  0     0  0
 24 25  1  0     0  0
 53 54  1  0     0  0
 25 26  1  0     0  0
 26 27  1  0     0  0
  7 58  1  0     0  0
 22 28  1  1     0  0
  1  7  1  1     0  0
 23 29  1  6     0  0
 24 18  1  1     0  0
 54 59  1  0     0  0
  1  2  1  0     0  0
 59 60  1  0     0  0
 25 30  1  1     0  0
 60 61  1  0     0  0
  2  8  1  6     0  0
 61 62  1  0     0  0
 26 31  1  6     0  0
 62 63  1  0     0  0
 12 17  1  0     0  0
 63 64  1  0     0  0
M  END