
  SciTegic12191611172D

 34 37  0  0  0  0            999 V2000
  -12.7507    0.9732    0.0000 C   0  0
  -11.7063    1.5641    0.0000 C   0  0
  -11.6962    2.7640    0.0000 C   0  0
   -5.1925    3.7616    0.0000 C   0  0
   -6.4965    3.0203    0.0000 C   0  0
   -6.5065    1.5203    0.0000 C   0  0  1  0  0  0
   -5.2125    0.7617    0.0000 C   0  0  2  0  0  0
   -3.9086    1.5029    0.0000 N   0  0
   -3.8985    3.0029    0.0000 C   0  0
   -2.8553    3.5960    0.0000 O   0  0
   -2.6111    0.7486    0.0000 C   0  0
   -1.2964    1.4973    0.0000 C   0  0
   -1.2964   -1.4973    0.0000 C   0  0
   -2.6111   -0.7486    0.0000 C   0  0
    0.0000   -0.7486    0.0000 C   0  0
    0.0000    0.7486    0.0000 C   0  0
    1.2964    1.4973    0.0000 N   0  0
    2.5929    0.7486    0.0000 C   0  0
    2.5929   -0.7486    0.0000 C   0  0
    1.2964   -1.4973    0.0000 C   0  0
    1.2964    2.6973    0.0000 C   0  0
    1.2964   -2.6973    0.0000 C   0  0
    3.6321    1.3486    0.0000 O   0  0
   -5.2226   -0.7390    0.0000 C   0  0
   -3.9298   -1.4999    0.0000 C   0  0
   -3.9422   -2.9998    0.0000 C   0  0
   -5.2474   -3.7391    0.0000 C   0  0
   -6.5402   -2.9783    0.0000 C   0  0
   -6.5278   -1.4784    0.0000 C   0  0
   -7.8128    0.7813    0.0000 N   0  0
   -9.1064    1.5422    0.0000 C   0  0
  -10.4127    0.8032    0.0000 O   0  0
   -9.0963    2.7422    0.0000 O   0  0
  -12.7404    2.1730    0.0000 C   0  0
  2  1  1  0
  3  2  1  0
  4  5  1  0
  4  9  1  0
  5  6  1  0
  6  7  1  0
  7  8  1  0
  8  9  1  0
  9 10  2  0
  8 11  1  0
 11 12  2  0
 12 16  1  0
 15 13  1  0
 13 14  2  0
 14 11  1  0
 15 16  2  0
 15 20  1  0
 16 17  1  0
 17 18  1  0
 18 19  1  0
 19 20  2  0
 17 21  1  0
 20 22  1  0
 18 23  2  0
  7 24  1  6
 24 25  2  0
 25 26  1  0
 26 27  2  0
 27 28  1  0
 28 29  2  0
 29 24  1  0
  6 30  1  1
 30 31  1  0
 31 32  1  0
 31 33  2  0
 32  2  1  0
  2 34  1  0
M  END