
  SciTegic06271217572D

 41 46  0  0  0  0            999 V2000
    4.7333   -5.3958    0.0000 C   0  0
    4.7333   -6.2208    0.0000 C   0  0
    5.4454   -6.6292    0.0000 C   0  0
    6.1574   -6.2208    0.0000 C   0  0  1  0  0  0
    6.1574   -5.3958    0.0000 C   0  0  2  0  0  0
    5.4454   -4.9792    0.0000 C   0  0
    6.8712   -6.6344    0.0000 N   0  0
    6.8730   -4.9854    0.0000 O   0  0
    6.8755   -4.1604    0.0000 C   0  0
    7.5911   -3.7500    0.0000 C   0  0
    8.3042   -4.1671    0.0000 C   0  0
    9.0194   -3.7574    0.0000 C   0  0
    9.0222   -2.9315    0.0000 C   0  0
    8.3039   -2.5171    0.0000 C   0  0
    7.5917   -2.9292    0.0000 C   0  0
    7.5863   -6.2229    0.0000 C   0  0
    8.3002   -6.6364    0.0000 C   0  0
    7.5875   -5.3979    0.0000 O   0  0
    8.3886   -7.4564    0.0000 C   0  0
    9.1953   -7.6291    0.0000 O   0  0
    9.6086   -6.9153    0.0000 C   0  0
    9.0577   -6.3014    0.0000 N   0  0
   10.4316   -6.9194    0.0000 C   0  0
   10.8399   -7.6375    0.0000 C   0  0
   11.6641   -7.6419    0.0000 C   0  0
   12.0810   -6.9290    0.0000 C   0  0
   11.6676   -6.2101    0.0000 C   0  0
   10.8447   -6.2092    0.0000 C   0  0
   12.9060   -6.9320    0.0000 C   0  0
   13.3159   -7.6479    0.0000 N   0  0
   13.3211   -6.2190    0.0000 O   0  0
   12.8966   -8.3569    0.0000 C   0  0
   13.3030   -9.0707    0.0000 C   0  0
   14.1283   -9.0779    0.0000 C   0  0
   14.5456   -8.3651    0.0000 C   0  0
   14.1375   -7.6451    0.0000 C   0  0
   14.5355   -9.7954    0.0000 N   0  0
   14.1991  -10.5461    0.0000 C   0  0
   14.8081  -11.1027    0.0000 C   0  0
   15.5257  -10.6954    0.0000 C   0  0
   15.3600   -9.8873    0.0000 C   0  0
  9 10  1  0
  3  4  1  0
 19 20  1  0
 20 21  1  0
 21 22  2  0
 22 17  1  0
 10 11  2  0
  4  5  1  0
 23 24  2  0
 11 12  1  0
 24 25  1  0
  5  6  1  0
 25 26  2  0
 12 13  2  0
 26 27  1  0
 27 28  2  0
 28 23  1  0
 21 23  1  0
 13 14  1  0
 26 29  1  0
  4  7  1  1
 29 30  1  0
 14 15  2  0
 29 31  2  0
 30 32  1  0
 15 10  1  0
  1  2  1  0
  7 16  1  0
  5  8  1  6
 16 17  1  0
 30 36  1  0
 32 33  1  0
 33 34  1  0
 34 35  1  0
 35 36  1  0
  1  6  1  0
 34 37  1  0
 37 38  1  0
 16 18  2  0
 17 19  2  0
  8  9  1  0
  2  3  1  0
 38 39  1  0
 39 40  1  0
 40 41  1  0
 41 37  1  0
M  END