
  SciTegic01161211252D

 27 30  0  0  0  0            999 V2000
    5.7245   -5.3979    0.0000 C   0  0
    5.7227   -6.2266    0.0000 C   0  0
    6.4392   -6.6395    0.0000 C   0  0
    7.1538   -6.2258    0.0000 C   0  0
    7.1536   -5.3925    0.0000 C   0  0
    6.4365   -4.9850    0.0000 N   0  0
    7.8706   -6.6366    0.0000 O   0  0
    8.5813   -6.2223    0.0000 C   0  0
    9.2931   -6.6339    0.0000 C   0  0
   10.0072   -6.2206    0.0000 C   0  0
   10.0059   -5.3943    0.0000 C   0  0
    9.2856   -4.9838    0.0000 C   0  0
    8.5761   -5.4005    0.0000 C   0  0
    5.0064   -6.6381    0.0000 C   0  0
    4.2952   -6.2247    0.0000 N   0  0
    5.0055   -7.4631    0.0000 O   0  0
    3.6175   -6.6893    0.0000 C   0  0
    2.8281   -6.4426    0.0000 C   0  0
    4.3608   -5.4035    0.0000 C   0  0
    2.5244   -5.6791    0.0000 C   0  0
    3.7501   -4.8409    0.0000 C   0  0
    2.9347   -4.9651    0.0000 N   0  0
    2.3552   -4.3814    0.0000 C   0  0
    2.3622   -3.5565    0.0000 C   0  0
    1.5372   -3.5495    0.0000 C   0  0
    1.5302   -4.3745    0.0000 C   0  0
   10.7200   -4.9829    0.0000 F   0  0
 13  8  1  0
  1  2  2  0
  2 14  1  0
  4  7  1  0
 14 15  1  0
  3  4  2  0
 14 16  2  0
  7  8  1  0
 15 17  1  0
 17 18  1  0
  8  9  2  0
 15 19  1  0
  4  5  1  0
 18 20  1  0
  9 10  1  0
 19 21  1  0
  2  3  1  0
 20 22  1  0
 21 22  1  0
 23 24  1  0
 10 11  2  0
  5  6  2  0
 11 12  1  0
  6  1  1  0
 24 25  1  0
 25 26  1  0
 26 23  1  0
 22 23  1  0
 12 13  2  0
 11 27  1  0
M  END