
          11280715122D 1   1.00000     0.00000     0

 31 34  0     0  0            999 V2000
    6.8792   -9.2042    0.0000 C   0  0  0  0  0  0           0  0  0
    7.5917   -9.6167    0.0000 C   0  0  0  0  0  0           0  0  0
    2.8917  -10.3375    0.0000 N   0  0  3  0  0  0           0  0  0
    6.8750   -8.3792    0.0000 N   0  0  3  0  0  0           0  0  0
    7.5917  -10.4417    0.0000 C   0  0  0  0  0  0           0  0  0
    2.1792   -9.9250    0.0000 C   0  0  0  0  0  0           0  0  0
    4.3167  -11.1542    0.0000 N   0  0  3  0  0  0           0  0  0
    8.3042  -10.8542    0.0000 N   0  0  0  0  0  0           0  0  0
    6.1667   -9.6167    0.0000 O   0  0  0  0  0  0           0  0  0
    3.6125   -9.9250    0.0000 C   0  0  0  0  0  0           0  0  0
    2.8917  -11.1625    0.0000 C   0  0  0  0  0  0           0  0  0
    2.1792   -9.0917    0.0000 C   0  0  0  0  0  0           0  0  0
    7.1792  -11.1542    0.0000 N   0  0  0  0  0  0           0  0  0
    4.3167  -10.3375    0.0000 C   0  0  0  0  0  0           0  0  0
    3.6042  -11.5667    0.0000 C   0  0  0  0  0  0           0  0  0
    8.3042   -9.2042    0.0000 C   0  0  0  0  0  0           0  0  0
    2.8917   -8.6792    0.0000 O   0  0  0  0  0  0           0  0  0
    5.0375  -11.5667    0.0000 C   0  0  0  0  0  0           0  0  0
    7.5417   -7.8917    0.0000 C   0  0  0  0  0  0           0  0  0
    6.2042   -7.8917    0.0000 C   0  0  0  0  0  0           0  0  0
    5.7500  -11.1542    0.0000 C   0  0  0  0  0  0           0  0  0
    1.4625  -10.3375    0.0000 C   0  0  0  0  0  0           0  0  0
    9.0250  -10.4417    0.0000 C   0  0  0  0  0  0           0  0  0
    6.4667  -11.5667    0.0000 C   0  0  0  0  0  0           0  0  0
    1.4625   -8.6792    0.0000 C   0  0  0  0  0  0           0  0  0
    3.6042   -9.0875    0.0000 C   0  0  0  0  0  0           0  0  0
    9.0167   -9.6125    0.0000 C   0  0  0  0  0  0           0  0  0
    6.4625   -7.1042    0.0000 C   0  0  0  0  0  0           0  0  0
    7.2875   -7.1042    0.0000 C   0  0  0  0  0  0           0  0  0
    0.7500   -9.9250    0.0000 C   0  0  0  0  0  0           0  0  0
    0.7500   -9.1000    0.0000 C   0  0  0  0  0  0           0  0  0
  2  1  1  0     0  0
  3 11  1  0     0  0
  4  1  1  0     0  0
  5  2  2  0     0  0
  6  3  1  0     0  0
  7 18  1  0     0  0
  8  5  1  0     0  0
  9  1  2  0     0  0
 10 14  1  0     0  0
 11 15  1  0     0  0
 12  6  1  0     0  0
 13  5  1  0     0  0
 14  7  1  0     0  0
 15  7  1  0     0  0
 16  2  1  0     0  0
 17 12  1  0     0  0
 18 21  1  0     0  0
 19  4  1  0     0  0
 20  4  1  0     0  0
 21 24  1  0     0  0
 22  6  2  0     0  0
 23 27  1  0     0  0
 24 13  1  0     0  0
 25 12  2  0     0  0
 26 17  1  0     0  0
 27 16  2  0     0  0
 28 20  1  0     0  0
 29 19  1  0     0  0
 30 22  1  0     0  0
 31 30  2  0     0  0
 28 29  1  0     0  0
 23  8  2  0     0  0
  3 10  1  0     0  0
 31 25  1  0     0  0
M  END