
          11280715202D 1   1.00000     0.00000     0

 25 27  0     0  0            999 V2000
    2.6750   -3.2042    0.0000 C   0  0  0  0  0  0           0  0  0
    3.3917   -3.6167    0.0000 C   0  0  0  0  0  0           0  0  0
    2.6667   -2.3792    0.0000 C   0  0  0  0  0  0           0  0  0
    7.6750   -4.4417    0.0000 O   0  0  0  0  0  0           0  0  0
    7.6750   -6.0917    0.0000 O   0  0  0  0  0  0           0  0  0
    8.3917   -4.8542    0.0000 C   0  0  0  0  0  0           0  0  0
    3.3917   -4.4417    0.0000 C   0  0  0  0  0  0           0  0  0
    1.9625   -3.6250    0.0000 C   0  0  0  0  0  0           0  0  0
    8.3917   -5.6792    0.0000 C   0  0  0  0  0  0           0  0  0
    6.9667   -4.8542    0.0000 C   0  0  3  0  0  0           0  0  0
    3.3875   -1.9667    0.0000 O   0  0  0  0  0  0           0  0  0
    2.6750   -4.8625    0.0000 C   0  0  0  0  0  0           0  0  0
    1.9625   -4.4417    0.0000 C   0  0  0  0  0  0           0  0  0
    6.9625   -5.6792    0.0000 C   0  0  0  0  0  0           0  0  0
    5.5375   -4.8542    0.0000 N   0  0  0  0  0  0           0  0  0
    1.9542   -1.9750    0.0000 N   0  0  0  0  0  0           0  0  0
    4.1042   -4.8625    0.0000 C   0  0  3  0  0  0           0  0  0
    1.2500   -3.2125    0.0000 O   0  0  0  0  0  0           0  0  0
    4.1042   -5.6875    0.0000 O   0  0  0  0  0  0           0  0  0
    6.2500   -4.4417    0.0000 C   0  0  0  0  0  0           0  0  0
    4.8167   -4.4417    0.0000 C   0  0  0  0  0  0           0  0  0
    9.1000   -4.4417    0.0000 C   0  0  0  0  0  0           0  0  0
    9.1000   -6.0875    0.0000 C   0  0  0  0  0  0           0  0  0
    9.8042   -4.8542    0.0000 C   0  0  0  0  0  0           0  0  0
    9.8125   -5.6792    0.0000 C   0  0  0  0  0  0           0  0  0
  2  1  2  0     0  0
  3  1  1  0     0  0
  4 10  1  0     0  0
  5 14  1  0     0  0
  6  4  1  0     0  0
  7  2  1  0     0  0
  8  1  1  0     0  0
  9  5  1  0     0  0
 10 20  1  0     0  0
 11  3  2  0     0  0
 12 13  1  0     0  0
 13  8  2  0     0  0
 14 10  1  0     0  0
 15 21  1  0     0  0
 16  3  1  0     0  0
 17  7  1  0     0  0
 18  8  1  0     0  0
 19 17  1  0     0  0
 20 15  1  0     0  0
 21 17  1  0     0  0
 22  6  1  0     0  0
 23  9  1  0     0  0
 24 22  2  0     0  0
 25 23  2  0     0  0
  7 12  2  0     0  0
  9  6  2  0     0  0
 25 24  1  0     0  0
M  END