
          11280714542D 1   1.00000     0.00000     0

 33 34  0     0  0            999 V2000
    0.8875   -5.2667    0.0000 C   0  0  0  0  0  0           0  0  0
    1.4042   -5.5625    0.0000 N   0  0  0  0  0  0           0  0  0
    4.5792   -4.3792    0.0000 N   0  0  3  0  0  0           0  0  0
    0.3667   -5.5667    0.0000 C   0  0  0  0  0  0           0  0  0
    1.9250   -5.2625    0.0000 C   0  0  0  0  0  0           0  0  0
    4.3417   -5.0875    0.0000 C   0  0  3  0  0  0           0  0  0
    4.0250   -4.6917    0.0000 C   0  0  3  0  0  0           0  0  0
   -0.1500   -5.2667    0.0000 C   0  0  0  0  0  0           0  0  0
    2.9667   -5.2542    0.0000 C   0  0  3  0  0  0           0  0  0
    3.2000   -4.5542    0.0000 C   0  0  0  0  0  0           0  0  0
    3.4792   -4.9500    0.0000 C   0  0  0  0  0  0           0  0  0
    2.4417   -5.5542    0.0000 N   0  0  0  0  0  0           0  0  0
    6.9792   -5.2167    0.0000 C   0  0  0  0  0  0           0  0  0
    5.7792   -5.2167    0.0000 C   0  0  0  0  0  0           0  0  0
    6.0792   -4.7042    0.0000 C   0  0  0  0  0  0           0  0  0
    6.6792   -4.7042    0.0000 C   0  0  0  0  0  0           0  0  0
   -0.1583   -4.6667    0.0000 O   0  0  0  0  0  0           0  0  0
    0.8792   -4.6667    0.0000 O   0  0  0  0  0  0           0  0  0
    1.9250   -4.6625    0.0000 O   0  0  0  0  0  0           0  0  0
    4.3417   -5.6875    0.0000 C   0  0  0  0  0  0           0  0  0
    3.8167   -5.3875    0.0000 C   0  0  0  0  0  0           0  0  0
    7.5792   -5.2167    0.0000 O   0  0  0  0  0  0           0  0  0
    5.1792   -5.2167    0.0000 O   0  0  0  0  0  0           0  0  0
    6.0792   -5.7417    0.0000 O   0  0  0  0  0  0           0  0  0
    6.6792   -5.7417    0.0000 O   0  0  0  0  0  0           0  0  0
    4.8750   -3.8625    0.0000 C   0  0  0  0  0  0           0  0  0
    0.3667   -6.1750    0.0000 C   0  0  0  0  0  0           0  0  0
   -0.6750   -4.3750    0.0000 C   0  0  3  0  0  0           0  0  0
   -0.6708   -5.5667    0.0000 C   0  0  0  0  0  0           0  0  0
   -1.1958   -4.6750    0.0000 C   0  0  0  0  0  0           0  0  0
   -0.6750   -3.7750    0.0000 C   0  0  0  0  0  0           0  0  0
   -0.1500   -6.4750    0.0000 C   0  0  0  0  0  0           0  0  0
   -0.6708   -6.1750    0.0000 C   0  0  0  0  0  0           0  0  0
  2  1  1  0     0  0
  3  6  1  0     0  0
  4  1  1  0     0  0
  5  2  1  0     0  0
  6 11  1  0     0  0
  7 10  1  0     0  0
  8  4  2  0     0  0
  9 12  1  0     0  0
 10  9  1  0     0  0
 11  9  1  0     0  0
 12  5  1  0     0  0
 14 15  1  0     0  0
 15 16  2  0     0  0
 16 13  1  0     0  0
 17  8  1  0     0  0
 18  1  2  0     0  0
 19  5  2  0     0  0
 20  6  1  0     0  0
 21  7  1  0     0  0
 22 13  2  0     0  0
 23 14  2  0     0  0
 24 14  1  0     0  0
 25 13  1  0     0  0
 26  3  1  0     0  0
 27  4  1  0     0  0
 28 17  1  0     0  0
 29  8  1  0     0  0
 30 28  1  0     0  0
 31 28  1  0     0  0
 32 27  2  0     0  0
 33 29  2  0     0  0
 32 33  1  0     0  0
  7  3  1  0     0  0
 21 20  1  0     0  0
M  END