
  SciTegic12201611072D

240248  0  0  0  0            999 V2000
   29.1977   -5.5644    0.0000 N   0  0
   30.6674   -5.8685    0.0000 C   0  0
   31.0441   -7.0078    0.0000 N   0  0
   31.4661   -4.9728    0.0000 N   0  0
   23.8839   -6.0574    0.0000 N   0  0
   24.2606   -7.1967    0.0000 C   0  0  2  0  0  0
   23.6384   -9.4562    0.0000 O   0  0
   23.2617   -8.3169    0.0000 C   0  0
   25.7303   -7.5007    0.0000 C   0  0
   26.7292   -6.3806    0.0000 C   0  0
   28.1989   -6.6846    0.0000 C   0  0
   21.7920   -8.0129    0.0000 N   0  0
   20.7932   -9.1330    0.0000 C   0  0  2  0  0  0
   18.9468   -7.6897    0.0000 O   0  0
   19.3235   -8.8290    0.0000 C   0  0
   21.2614  -10.5590    0.0000 C   0  0
   20.2613  -11.6780    0.0000 C   0  0
   20.7294  -13.1040    0.0000 C   0  0
   19.9298  -13.9987    0.0000 O   0  0
   21.9041  -13.3495    0.0000 N   0  0
   18.3246   -9.9492    0.0000 N   0  0
   16.8549   -9.6451    0.0000 C   0  0  2  0  0  0
   16.2327  -11.9047    0.0000 O   0  0
   15.8560  -10.7653    0.0000 C   0  0
   16.3808   -8.2211    0.0000 C   0  0
   14.9108   -7.9187    0.0000 C   0  0
   14.4368   -6.4948    0.0000 C   0  0
   13.2614   -6.2530    0.0000 O   0  0
   15.2336   -5.5975    0.0000 N   0  0
   14.3863  -10.4613    0.0000 N   0  0
   13.3875  -11.5814    0.0000 C   0  0  2  0  0  0
   11.5411  -10.1381    0.0000 O   0  0
   11.9178  -11.2774    0.0000 C   0  0
   13.8557  -13.0074    0.0000 C   0  0
   12.8556  -14.1264    0.0000 C   0  0
   13.3237  -15.5524    0.0000 C   0  0
   12.5241  -16.4471    0.0000 O   0  0
   14.4984  -15.7979    0.0000 O   0  0
   10.9189  -12.3976    0.0000 N   0  0
    9.4492  -12.0936    0.0000 C   0  0  2  0  0  0
    8.8270  -14.3531    0.0000 O   0  0
    8.4503  -13.2137    0.0000 C   0  0
    8.9752  -10.6696    0.0000 C   0  0
    7.5051  -10.3672    0.0000 C   0  0
    7.0311   -8.9432    0.0000 C   0  0
    5.8557   -8.7014    0.0000 O   0  0
    7.8279   -8.0459    0.0000 O   0  0
    6.9806  -12.9097    0.0000 N   0  0
    5.9818  -14.0299    0.0000 C   0  0  2  0  0  0
    4.1354  -12.5865    0.0000 O   0  0
    4.5121  -13.7259    0.0000 C   0  0
    6.4500  -15.4558    0.0000 C   0  0
    5.4499  -16.5749    0.0000 C   0  0
    5.8242  -17.7150    0.0000 C   0  0
    4.2753  -16.3294    0.0000 C   0  0
    3.5132  -14.8460    0.0000 N   0  0
    2.0435  -14.5420    0.0000 C   0  0  2  0  0  0
    0.3938  -12.8773    0.0000 O   0  0
    1.5695  -13.1180    0.0000 C   0  0
    1.0480  -15.6652    0.0000 C   0  0
    0.5287  -18.2132    0.0000 C   0  0
    1.5221  -17.0891    0.0000 C   0  0
    2.9922  -17.3875    0.0000 C   0  0
    3.4688  -18.8098    0.0000 C   0  0
    2.4755  -19.9337    0.0000 C   0  0
    1.0054  -19.6354    0.0000 C   0  0
    2.8568  -21.0715    0.0000 O   0  0
    2.5649  -11.9948    0.0000 N   0  0
    2.0909  -10.5708    0.0000 C   0  0  2  0  0  0
    4.2620   -9.6884    0.0000 O   0  0
    3.0864   -9.4477    0.0000 C   0  0
    0.6212  -10.2668    0.0000 C   0  0
    0.1487   -8.8423    0.0000 C   0  0
   -1.3210   -8.5383    0.0000 C   0  0
   -1.7935   -7.1138    0.0000 C   0  0
   -2.9686   -6.8707    0.0000 N   0  0
    2.6123   -8.0237    0.0000 N   0  0
    3.6078   -6.9005    0.0000 C   0  0  2  0  0  0
    1.9582   -5.2359    0.0000 O   0  0
    3.1338   -5.4765    0.0000 C   0  0
    5.0788   -7.1985    0.0000 C   0  0
    6.0730   -6.0742    0.0000 C   0  0
    7.5440   -6.3722    0.0000 C   0  0
    8.5382   -5.2480    0.0000 C   0  0
    9.7143   -5.4862    0.0000 N   0  0
    4.1293   -4.3534    0.0000 N   0  0
    3.6552   -2.9294    0.0000 C   0  0  2  0  0  0
    5.8263   -2.0469    0.0000 O   0  0
    4.6507   -1.8062    0.0000 C   0  0
    2.1855   -2.6254    0.0000 C   0  0
    2.5889    0.0182    0.0000 C   0  0
    1.7138   -1.2033    0.0000 C   0  0
    1.7138    1.2033    0.0000 N   0  0
    0.2917   -0.7475    0.0000 C   0  0
    0.2917    0.7475    0.0000 C   0  0
   -1.0028    1.5132    0.0000 C   0  0
   -2.3155    0.7475    0.0000 C   0  0
   -2.3155   -0.7475    0.0000 C   0  0
   -1.0028   -1.5132    0.0000 C   0  0
    4.1767   -0.3822    0.0000 N   0  0
    5.1721    0.7409    0.0000 C   0  0  2  0  0  0
    3.5225    2.4056    0.0000 O   0  0
    4.6981    2.1649    0.0000 C   0  0
    6.6431    0.4430    0.0000 C   0  0
    7.6373    1.5672    0.0000 C   0  0
    8.8135    1.3290    0.0000 C   0  0
    7.2560    2.7050    0.0000 C   0  0
    5.6936    3.2881    0.0000 N   0  0
    5.2195    4.7121    0.0000 C   0  0  2  0  0  0
    7.3906    5.5946    0.0000 O   0  0
    6.2150    5.8352    0.0000 C   0  0
    3.7498    5.0161    0.0000 C   0  0
    3.2774    6.4406    0.0000 C   0  0
    1.8077    6.7446    0.0000 C   0  0
    1.4299    7.8836    0.0000 O   0  0
    1.0099    5.8483    0.0000 N   0  0
    5.7410    7.2592    0.0000 N   0  0
    6.7365    8.3824    0.0000 C   0  0  2  0  0  0
    5.0868   10.0471    0.0000 O   0  0
    6.2624    9.8064    0.0000 C   0  0
    8.2074    8.0844    0.0000 C   0  0
    9.2017    9.2087    0.0000 C   0  0
   10.6726    8.9107    0.0000 C   0  0
   11.4676    9.8096    0.0000 O   0  0
   11.0540    7.7729    0.0000 O   0  0
    7.2579   10.9295    0.0000 N   0  0
    6.7839   12.3535    0.0000 C   0  0  2  0  0  0
    8.9550   13.2360    0.0000 O   0  0
    7.7794   13.4767    0.0000 C   0  0
    5.3141   12.6576    0.0000 C   0  0
    3.3732   14.3881    0.0000 C   0  0
    4.8417   14.0821    0.0000 C   0  0
    5.8408   15.2010    0.0000 C   0  0
    5.3715   16.6257    0.0000 C   0  0
    3.9031   16.9316    0.0000 C   0  0
    2.9039   15.8128    0.0000 C   0  0
    7.3053   14.9007    0.0000 N   0  0
    8.3008   16.0239    0.0000 C   0  0  2  0  0  0
    6.6511   17.6885    0.0000 O   0  0
    7.8268   17.4479    0.0000 C   0  0
    9.7717   15.7259    0.0000 C   0  0
   10.4264   18.3004    0.0000 C   0  0
   10.7660   16.8501    0.0000 C   0  0
   11.6965   19.0469    0.0000 N   0  0
   12.2387   16.6944    0.0000 C   0  0
   12.8255   18.0695    0.0000 C   0  0
   14.3167   18.2657    0.0000 C   0  0
   15.2235   17.0462    0.0000 C   0  0
   14.6367   15.6711    0.0000 C   0  0
   13.1288   15.4820    0.0000 C   0  0
    8.8222   18.5710    0.0000 N   0  0
    8.3482   19.9950    0.0000 C   0  0  2  0  0  0
   10.5193   20.8775    0.0000 O   0  0
    9.3437   21.1182    0.0000 C   0  0
    6.8785   20.2990    0.0000 C   0  0
    6.4060   21.7235    0.0000 C   0  0
    4.9363   22.0276    0.0000 C   0  0
    4.4638   23.4521    0.0000 C   0  0
    3.2887   23.6952    0.0000 N   0  0
    8.8696   22.5422    0.0000 N   0  0
    9.8651   23.6653    0.0000 C   0  0  2  0  0  0
    8.2155   25.3300    0.0000 O   0  0
    9.3911   25.0893    0.0000 C   0  0
   11.3361   23.3673    0.0000 C   0  0
   11.9907   25.9418    0.0000 C   0  0
   12.3303   24.4916    0.0000 C   0  0
   13.2608   26.6883    0.0000 N   0  0
   13.8031   24.3359    0.0000 C   0  0
   14.3898   25.7109    0.0000 C   0  0
   15.8810   25.9071    0.0000 C   0  0
   16.7878   24.6876    0.0000 C   0  0
   16.2010   23.3126    0.0000 C   0  0
   14.6931   23.1235    0.0000 C   0  0
   10.3866   26.2125    0.0000 N   0  0
    9.9125   27.6365    0.0000 C   0  0  2  0  0  0
    7.6450   27.0441    0.0000 O   0  0
    8.4428   27.9405    0.0000 C   0  0
   10.9080   28.7596    0.0000 C   0  0
   11.4273   31.3076    0.0000 C   0  0
   10.4340   30.1836    0.0000 C   0  0
    8.9639   30.4820    0.0000 C   0  0
    8.4872   31.9043    0.0000 C   0  0
    9.4806   33.0282    0.0000 C   0  0
   10.9506   32.7299    0.0000 C   0  0
    7.9703   29.3650    0.0000 N   0  0
    6.5006   29.6690    0.0000 C   0  0  2  0  0  0
    4.8509   31.3337    0.0000 O   0  0
    6.0265   31.0930    0.0000 C   0  0
    5.5050   28.5459    0.0000 C   0  0
    5.9790   27.1219    0.0000 C   0  0
    4.9835   25.9988    0.0000 C   0  0
    5.3625   24.8602    0.0000 O   0  0
    3.8079   26.2395    0.0000 N   0  0
    7.0220   32.2162    0.0000 N   0  0
    6.5480   33.6402    0.0000 C   0  0  2  0  0  0
    8.7191   34.5226    0.0000 O   0  0
    7.5435   34.7633    0.0000 C   0  0
    5.0783   33.9442    0.0000 C   0  0  1  0  0  0
    4.2805   33.0479    0.0000 C   0  0
    4.6059   35.3688    0.0000 C   0  0
    3.4308   35.6119    0.0000 C   0  0
    7.0695   36.1873    0.0000 N   0  0
    8.0650   37.3105    0.0000 C   0  0  1  0  0  0
    6.4154   38.9752    0.0000 O   0  0
    9.2407   37.0698    0.0000 C   0  0
    7.5910   38.7345    0.0000 C   0  0
    8.5865   39.8576    0.0000 N   0  0
    8.1125   41.2816    0.0000 C   0  0  2  0  0  0
   10.2837   42.1640    0.0000 O   0  0
    9.1080   42.4047    0.0000 C   0  0
    6.6428   41.5857    0.0000 C   0  0
    6.1704   43.0102    0.0000 C   0  0
    4.9953   43.2533    0.0000 C   0  0
    6.9682   43.9066    0.0000 C   0  0
    8.6340   43.8287    0.0000 N   0  0
    9.6296   44.9519    0.0000 C   0  0  2  0  0  0
    7.9799   46.6166    0.0000 O   0  0
    9.1555   46.3759    0.0000 C   0  0
   11.1005   44.6539    0.0000 C   0  0
   12.0948   45.7781    0.0000 C   0  0
   13.5657   45.4801    0.0000 C   0  0
   14.3607   46.3790    0.0000 O   0  0
   13.9470   44.3423    0.0000 N   0  0
   10.1511   47.4990    0.0000 N   0  0
    9.6771   48.9230    0.0000 C   0  0  2  0  0  0
   11.8482   49.8055    0.0000 O   0  0
   10.6726   50.0462    0.0000 C   0  0
    8.2073   49.2271    0.0000 C   0  0
    7.7349   50.6516    0.0000 C   0  0
    6.5598   50.8947    0.0000 C   0  0
    8.5327   51.5480    0.0000 C   0  0
   10.1986   51.4702    0.0000 N   0  0
   11.1941   52.5933    0.0000 C   0  0  2  0  0  0
   13.4600   53.1942    0.0000 O   0  0
   12.6650   52.2953    0.0000 C   0  0
   10.7201   54.0173    0.0000 C   0  0
   11.7156   55.1404    0.0000 C   0  0
   11.3366   56.2790    0.0000 O   0  0
   12.8912   54.8997    0.0000 O   0  0
   13.0464   51.1575    0.0000 O   0  0
  8 12  1  0
 15 21  1  0
 24 30  1  0
 33 39  1  0
 42 48  1  0
 51 56  1  0
 59 68  1  0
 71 77  1  0
 80 86  1  0
 89100  1  0
103108  1  0
111117  1  0
120126  1  0
129137  1  0
140151  1  0
154160  1  0
163174  1  0
177185  1  0
188194  1  0
197202  1  0
206207  1  0
210215  1  0
218224  1  0
227232  1  0
235240  1  0
  1  2  1  0
  2  3  1  0
  2  4  2  0
  6  5  1  1
  6  8  1  0
  8  7  2  0
  6  9  1  0
  9 10  1  0
 10 11  1  0
 11  1  1  0
 13 12  1  1
 13 15  1  0
 15 14  2  0
 13 16  1  0
 16 17  1  0
 17 18  1  0
 18 19  2  0
 18 20  1  0
 22 21  1  6
 22 24  1  0
 24 23  2  0
 22 25  1  0
 25 26  1  0
 26 27  1  0
 27 28  2  0
 27 29  1  0
 31 30  1  1
 31 33  1  0
 33 32  2  0
 31 34  1  0
 34 35  1  0
 35 36  1  0
 36 37  2  0
 36 38  1  0
 39 40  1  0
 40 42  1  0
 42 41  2  0
 40 43  1  6
 43 44  1  0
 44 45  1  0
 45 46  2  0
 45 47  1  0
 48 49  1  0
 49 51  1  0
 51 50  2  0
 49 52  1  1
 52 53  1  0
 53 54  1  0
 53 55  1  0
 56 57  1  0
 57 59  1  0
 59 58  2  0
 57 60  1  1
 60 62  1  0
 61 62  2  0
 62 63  1  0
 63 64  2  0
 64 65  1  0
 65 66  2  0
 66 61  1  0
 65 67  1  0
 69 68  1  1
 69 71  1  0
 71 70  2  0
 69 72  1  0
 72 73  1  0
 73 74  1  0
 74 75  1  0
 75 76  1  0
 77 78  1  0
 78 80  1  0
 80 79  2  0
 78 81  1  6
 81 82  1  0
 82 83  1  0
 83 84  1  0
 84 85  1  0
 87 86  1  1
 87 89  1  0
 89 88  2  0
 87 90  1  0
 90 92  1  0
 91 92  2  0
 92 94  1  0
 93 91  1  0
 95 93  1  0
 94 95  2  0
 95 96  1  0
 96 97  2  0
 97 98  1  0
 98 99  2  0
 99 94  1  0
100101  1  0
101103  1  0
103102  2  0
101104  1  6
104105  1  0
105106  1  0
105107  1  0
108109  1  0
109111  1  0
111110  2  0
109112  1  1
112113  1  0
113114  1  0
114115  2  0
114116  1  0
117118  1  0
118120  1  0
120119  2  0
118121  1  6
121122  1  0
122123  1  0
123124  2  0
123125  1  0
126127  1  0
127129  1  0
129128  2  0
127130  1  1
130132  1  0
131132  2  0
132133  1  0
133134  2  0
134135  1  0
135136  2  0
136131  1  0
137138  1  0
138140  1  0
140139  2  0
138141  1  6
141143  1  0
142143  2  0
143145  1  0
144142  1  0
146144  1  0
145146  2  0
146147  1  0
147148  2  0
148149  1  0
149150  2  0
150145  1  0
151152  1  0
152154  1  0
154153  2  0
152155  1  1
155156  1  0
156157  1  0
157158  1  0
158159  1  0
160161  1  0
161163  1  0
163162  2  0
161164  1  6
164166  1  0
165166  2  0
166168  1  0
167165  1  0
169167  1  0
168169  2  0
169170  1  0
170171  2  0
171172  1  0
172173  2  0
173168  1  0
174175  1  0
175177  1  0
177176  2  0
175178  1  6
178180  1  0
179180  2  0
180181  1  0
181182  2  0
182183  1  0
183184  2  0
184179  1  0
185186  1  0
186188  1  0
188187  2  0
186189  1  1
189190  1  0
190191  1  0
191192  2  0
191193  1  0
195194  1  1
195197  1  0
197196  2  0
195198  1  0
198199  1  1
198200  1  0
200201  1  0
202203  1  0
203206  1  0
206204  2  0
203205  1  6
207208  1  0
208210  1  0
210209  2  0
208211  1  1
211212  1  0
212213  1  0
212214  1  0
215216  1  0
216218  1  0
218217  2  0
216219  1  6
219220  1  0
220221  1  0
221222  2  0
221223  1  0
224225  1  0
225227  1  0
227226  2  0
225228  1  1
228229  1  0
229230  1  0
229231  1  0
232233  1  0
233235  1  0
235234  2  0
233236  1  1
236237  1  0
237238  2  0
237239  1  0
M  END