
  SciTegic02271514512D

 24 26  0  0  0  0            999 V2000
    1.7706   -2.2947    0.0000 C   0  0
    1.7706   -3.1119    0.0000 C   0  0
    2.4759   -3.5164    0.0000 C   0  0
    3.1811   -3.1119    0.0000 C   0  0
    3.1811   -2.2947    0.0000 C   0  0
    2.4759   -1.8820    0.0000 C   0  0
    1.0644   -3.5220    0.0000 C   0  0
    0.3558   -3.1128    0.0000 C   0  0
   -0.3508   -3.5217    0.0000 C   0  0
   -0.3516   -4.3398    0.0000 C   0  0
    0.3632   -4.7472    0.0000 C   0  0
    1.0669   -4.3359    0.0000 C   0  0
    2.4759   -1.0648    0.0000 O   0  0
    3.8900   -1.8882    0.0000 S   0  0
    4.5966   -2.2989    0.0000 C   0  0
    3.8883   -3.5216    0.0000 O   0  0
    4.5926   -3.1171    0.0000 C   0  0
    5.2983   -3.5277    0.0000 C   0  0
    6.0081   -3.1211    0.0000 C   0  0
    6.0079   -2.2997    0.0000 C   0  0
    5.3017   -1.8928    0.0000 C   0  0
    5.3009   -1.0719    0.0000 N   0  3
    4.5932   -0.6633    0.0000 O   0  0
    6.0086   -0.6634    0.0000 O   0  5
  1  2  1  0
  1  6  1  0
  2  3  1  0
  3  4  1  0
  4  5  1  0
  5  6  2  0
  7  8  2  0
  8  9  1  0
  9 10  2  0
 10 11  1  0
 11 12  2  0
 12  7  1  0
  2  7  1  0
  6 13  1  0
  5 14  1  0
 14 15  1  0
  4 16  2  0
 15 17  2  0
 17 18  1  0
 18 19  2  0
 19 20  1  0
 20 21  2  0
 21 15  1  0
 22 23  2  0
 22 24  1  0
 21 22  1  0
M  CHG  2  22   1  24  -1
M  END