
          11280715342D 1   1.00000     0.00000     0

 25 25  0     0  0            999 V2000
   -1.0958   -1.8250    0.0000 S   0  0  3  0  0  0           0  0  0
    5.0500   -3.9542    0.0000 C   0  0  3  0  0  0           0  0  0
    2.1917   -1.8042    0.0000 C   0  0  0  0  0  0           0  0  0
    5.8667   -4.0042    0.0000 C   0  0  0  0  0  0           0  0  0
    4.6792   -3.2167    0.0000 N   0  0  0  0  0  0           0  0  0
   -0.2750   -1.8167    0.0000 C   0  0  0  0  0  0           0  0  0
    3.8542   -3.2250    0.0000 C   0  0  0  0  0  0           0  0  0
    2.6125   -2.5167    0.0000 N   0  0  0  0  0  0           0  0  0
   -1.1000   -2.6417    0.0000 O   0  0  0  0  0  0           0  0  0
   -1.0958   -1.0000    0.0000 O   0  0  0  0  0  0           0  0  0
    4.5917   -4.6417    0.0000 C   0  0  3  0  0  0           0  0  0
    1.3667   -1.8125    0.0000 C   0  0  0  0  0  0           0  0  0
   -1.9250   -1.8167    0.0000 N   0  0  0  0  0  0           0  0  0
    2.6042   -1.0917    0.0000 O   0  0  0  0  0  0           0  0  0
    6.3292   -3.3167    0.0000 O   0  0  0  0  0  0           0  0  0
    3.4417   -3.9417    0.0000 O   0  0  0  0  0  0           0  0  0
    0.1292   -1.1042    0.0000 C   0  0  0  0  0  0           0  0  0
    0.1417   -2.5292    0.0000 C   0  0  0  0  0  0           0  0  0
    0.9625   -2.5292    0.0000 C   0  0  0  0  0  0           0  0  0
    0.9500   -1.1000    0.0000 C   0  0  0  0  0  0           0  0  0
    3.4375   -2.5125    0.0000 C   0  0  0  0  0  0           0  0  0
    6.2417   -4.7417    0.0000 O   0  0  0  0  0  0           0  0  0
    3.7667   -4.5917    0.0000 C   0  0  0  0  0  0           0  0  0
    5.3750   -4.9042    0.0000 C   0  0  0  0  0  0           0  0  0
    4.9625   -5.3792    0.0000 C   0  0  0  0  0  0           0  0  0
  2  5  1  0     0  0
  3 12  1  0     0  0
  4  2  1  0     0  0
  5  7  1  0     0  0
  6  1  1  0     0  0
  7 21  1  0     0  0
  8  3  1  0     0  0
  9  1  2  0     0  0
 10  1  2  0     0  0
 11  2  1  0     0  0
 12 19  2  0     0  0
 13  1  1  0     0  0
 14  3  2  0     0  0
 15  4  2  0     0  0
 16  7  2  0     0  0
 17  6  1  0     0  0
 18  6  2  0     0  0
 19 18  1  0     0  0
 20 17  2  0     0  0
 21  8  1  0     0  0
 22  4  1  0     0  0
 23 11  1  0     0  0
 24 11  1  0     0  0
 25 11  1  0     0  0
 12 20  1  0     0  0
M  END