
          03140815512D 1   1.00000     0.00000     0

 28 30  0     0  0            999 V2000
    0.8444   -6.8166    0.0000 C   0  0  0  0  0  0           0  0  0
    0.8432   -7.6440    0.0000 C   0  0  0  0  0  0           0  0  0
    1.5581   -8.0569    0.0000 C   0  0  0  0  0  0           0  0  0
    2.2745   -7.6435    0.0000 C   0  0  0  0  0  0           0  0  0
    2.2716   -6.8130    0.0000 C   0  0  0  0  0  0           0  0  0
    1.5563   -6.4039    0.0000 C   0  0  0  0  0  0           0  0  0
    2.9846   -6.3978    0.0000 O   0  0  0  0  0  0           0  0  0
    2.9814   -5.5728    0.0000 C   0  0  0  0  0  0           0  0  0
    3.6961   -5.1624    0.0000 C   0  0  0  0  0  0           0  0  0
    3.6934   -4.3382    0.0000 C   0  0  0  0  0  0           0  0  0
    2.9768   -3.9276    0.0000 C   0  0  0  0  0  0           0  0  0
    2.2615   -4.3472    0.0000 C   0  0  0  0  0  0           0  0  0
    2.2678   -5.1701    0.0000 C   0  0  0  0  0  0           0  0  0
    2.9896   -8.0549    0.0000 C   0  0  0  0  0  0           0  0  0
    2.9909   -8.8799    0.0000 N   0  0  0  0  0  0           0  0  0
    3.7060   -9.2913    0.0000 C   0  0  0  0  0  0           0  0  0
    0.1284   -8.0559    0.0000 C   0  0  0  0  0  0           0  0  0
   -0.5917   -8.4625    0.0000 C   0  0  0  0  0  0           0  0  0
   -1.3083   -8.8708    0.0000 C   0  0  0  0  0  0           0  0  0
   -2.0204   -8.4543    0.0000 C   0  0  0  0  0  0           0  0  0
   -2.7373   -8.8627    0.0000 N   0  0  3  0  0  0           0  0  0
   -3.4512   -8.4477    0.0000 C   0  0  0  0  0  0           0  0  0
   -4.1658   -8.8526    0.0000 C   0  0  0  0  0  0           0  0  0
   -4.1748   -9.6779    0.0000 O   0  0  0  0  0  0           0  0  0
   -3.4629  -10.0967    0.0000 C   0  0  0  0  0  0           0  0  0
   -2.7420   -9.6902    0.0000 C   0  0  0  0  0  0           0  0  0
    4.4108   -5.5746    0.0000 Cl  0  0  0  0  0  0           0  0  0
    2.9726   -3.1026    0.0000 F   0  0  0  0  0  0           0  0  0
  1  2  2  0     0  0
  4 14  1  0     0  0
  5  7  1  0     0  0
 14 15  1  0     0  0
  3  4  2  0     0  0
 15 16  1  0     0  0
  7  8  1  0     0  0
  2 17  1  0     0  0
 17 18  3  0     0  0
  8  9  2  0     0  0
 18 19  1  0     0  0
  4  5  1  0     0  0
 19 20  1  0     0  0
  9 10  1  0     0  0
 20 21  1  0     0  0
 21 22  1  0     0  0
  2  3  1  0     0  0
 10 11  2  0     0  0
  5  6  2  0     0  0
 11 12  1  0     0  0
  6  1  1  0     0  0
 21 26  1  0     0  0
 22 23  1  0     0  0
 23 24  1  0     0  0
 24 25  1  0     0  0
 25 26  1  0     0  0
 12 13  2  0     0  0
  9 27  1  0     0  0
 13  8  1  0     0  0
 11 28  1  0     0  0
M  END