
          11280714582D 1   1.00000     0.00000     0

 38 39  0     1  0            999 V2000
    1.6042   -1.5042    0.0000 P   0  0  3  0  0  0           0  0  0
    4.7167   -3.3042    0.0000 C   0  0  0  0  0  0           0  0  0
    5.2417   -3.0042    0.0000 N   0  0  0  0  0  0           0  0  0
    6.2792   -3.0042    0.0000 C   0  0  0  0  0  0           0  0  0
    4.2000   -3.0042    0.0000 C   0  0  1  0  0  0           0  0  0
    3.6792   -3.3042    0.0000 N   0  0  0  0  0  0           0  0  0
    5.7542   -3.3042    0.0000 C   0  0  2  0  0  0           0  0  0
    6.8000   -3.3042    0.0000 N   0  0  0  0  0  0           0  0  0
    3.6792   -3.9042    0.0000 C   0  0  0  0  0  0           0  0  0
    2.1250   -1.2042    0.0000 O   0  0  0  0  0  0           0  0  0
    5.2417   -4.8042    0.0000 C   0  0  0  0  0  0           0  0  0
    0.8417   -1.4917    0.0000 O   0  0  0  0  0  0           0  0  0
    4.7167   -3.9042    0.0000 O   0  0  0  0  0  0           0  0  0
    4.2000   -2.4042    0.0000 C   0  0  0  0  0  0           0  0  0
    6.2792   -2.4042    0.0000 O   0  0  0  0  0  0           0  0  0
    3.1625   -4.2042    0.0000 O   0  0  0  0  0  0           0  0  0
    4.7167   -5.1042    0.0000 O   0  0  0  0  0  0           0  0  0
    5.7542   -3.9042    0.0000 C   0  0  0  0  0  0           0  0  0
    1.6042   -2.1042    0.0000 O   0  0  0  0  0  0           0  0  0
    1.6167   -0.7042    0.0000 O   0  0  0  0  0  0           0  0  0
    5.2417   -4.2042    0.0000 C   0  0  0  0  0  0           0  0  0
    2.6417   -1.5000    0.0000 C   0  0  0  0  0  0           0  0  0
    3.6792   -2.1042    0.0000 C   0  0  0  0  0  0           0  0  0
    7.3167   -3.0042    0.0000 C   0  0  0  0  0  0           0  0  0
    7.8375   -3.3042    0.0000 C   0  0  0  0  0  0           0  0  0
    8.8750   -3.9042    0.0000 C   0  0  0  0  0  0           0  0  0
    5.7542   -5.1042    0.0000 O   0  0  0  0  0  0           0  0  0
    3.1667   -2.4000    0.0000 C   0  0  0  0  0  0           0  0  0
    3.6792   -1.5000    0.0000 C   0  0  0  0  0  0           0  0  0
    3.1625   -1.2000    0.0000 C   0  0  0  0  0  0           0  0  0
    2.6417   -2.1042    0.0000 C   0  0  0  0  0  0           0  0  0
    7.8375   -3.9042    0.0000 C   0  0  0  0  0  0           0  0  0
    8.3542   -3.0042    0.0000 C   0  0  0  0  0  0           0  0  0
    8.8750   -3.3000    0.0000 C   0  0  0  0  0  0           0  0  0
    8.3542   -4.2042    0.0000 C   0  0  0  0  0  0           0  0  0
    9.3917   -4.2042    0.0000 O   0  0  0  0  0  0           0  0  0
    4.2000   -4.2042    0.0000 C   0  0  0  0  0  0           0  0  0
    9.3917   -4.8042    0.0000 C   0  0  0  0  0  0           0  0  0
  2  5  1  0     0  0
  3  2  1  0     0  0
  4  7  1  0     0  0
  5 14  1  1     0  0
  6  5  1  0     0  0
  7  3  1  0     0  0
  8  4  1  0     0  0
  9  6  1  0     0  0
 10  1  1  0     0  0
 11 21  1  0     0  0
 12  1  2  0     0  0
 13  2  2  0     0  0
 14 23  1  0     0  0
 15  4  2  0     0  0
 16  9  2  0     0  0
 17 11  2  0     0  0
  7 18  1  6     0  0
 19  1  1  0     0  0
 20  1  1  0     0  0
 21 18  1  0     0  0
 22 10  1  0     0  0
 23 28  1  0     0  0
 24  8  1  0     0  0
 25 24  1  0     0  0
 26 34  1  0     0  0
 27 11  1  0     0  0
 28 31  2  0     0  0
 29 30  1  0     0  0
 30 22  2  0     0  0
 31 22  1  0     0  0
 32 25  2  0     0  0
 33 25  1  0     0  0
 34 33  2  0     0  0
 35 32  1  0     0  0
 36 26  1  0     0  0
 37  9  1  0     0  0
 38 36  1  0     0  0
 23 29  2  0     0  0
 35 26  2  0     0  0
M  END