
  SciTegic01161211222D

 14 15  0  0  0  0            999 V2000
   -5.2723    1.5209    0.0000 C   0  0
   -5.2734    0.6935    0.0000 C   0  0
   -4.5586    0.2806    0.0000 C   0  0
   -4.5604    1.9336    0.0000 C   0  0
   -3.8450    1.5245    0.0000 C   0  0
   -3.8443    0.6977    0.0000 C   0  0
   -3.1290    0.2867    0.0000 C   0  0
   -2.4139    0.7015    0.0000 C   0  0
   -2.4187    1.5314    0.0000 C   0  0
   -3.1346    1.9387    0.0000 C   0  0
   -4.5567   -0.5444    0.0000 O   0  0
   -3.1390    2.7636    0.0000 O   0  0
   -3.1272   -0.5383    0.0000 O   0  0
   -1.7068    1.9483    0.0000 C   0  0
  6  7  1  0
  1  2  2  0
  7  8  1  0
  5  4  2  0
  8  9  2  0
  4  1  1  0
  9 10  1  0
 10  5  1  0
  3 11  1  0
  2  3  1  0
 10 12  2  0
  5  6  1  0
  7 13  2  0
  3  6  2  0
  9 14  1  0
M  END