
  CDK    9/16/09,9:48

 40 42  0  0  0  0  0  0  0  0999 V2000
   14.1522  -13.1784    0.0000 C   0  0  0  0  0  0  0  0  0  0  0  0
   14.1413  -11.5370    0.0000 C   0  0  0  0  0  0  0  0  0  0  0  0
   13.4311  -11.9573    0.0000 C   0  0  0  0  0  0  0  0  0  0  0  0
   13.4403  -12.7761    0.0000 C   0  0  0  0  0  0  0  0  0  0  0  0
   14.8558  -11.9430    0.0000 C   0  0  0  0  0  0  0  0  0  0  0  0
   14.8650  -12.7656    0.0000 C   0  0  0  0  0  0  0  0  0  0  0  0
   15.5781  -13.1667    0.0000 C   0  0  0  0  0  0  0  0  0  0  0  0
   16.2866  -12.7498    0.0000 C   0  0  0  0  0  0  0  0  0  0  0  0
   16.2773  -11.9271    0.0000 C   0  0  0  0  0  0  0  0  0  0  0  0
   15.5597  -11.5214    0.0000 N   0  0  0  0  0  0  0  0  0  0  0  0
   15.5493  -10.6964    0.0000 C   0  0  0  0  0  0  0  0  0  0  0  0
   16.2586  -10.2750    0.0000 O   0  0  0  0  0  0  0  0  0  0  0  0
   16.9877  -11.5073    0.0000 C   0  0  0  0  0  0  0  0  0  0  0  0
   17.7063  -11.9125    0.0000 C   0  0  0  0  0  0  0  0  0  0  0  0
   17.0051  -13.1553    0.0000 O   0  0  0  0  0  0  0  0  0  0  0  0
   17.7148  -12.7376    0.0000 O   0  0  0  0  0  0  0  0  0  0  0  0
   18.4167  -11.4928    0.0000 O   0  0  0  0  0  0  0  0  0  0  0  0
   15.5861  -13.9918    0.0000 N   0  0  0  0  0  0  0  0  0  0  0  0
   14.8757  -14.4113    0.0000 C   0  0  0  0  0  0  0  0  0  0  0  0
   14.1572  -14.0057    0.0000 O   0  0  0  0  0  0  0  0  0  0  0  0
   12.7301  -13.1960    0.0000 O   0  0  0  0  0  0  0  0  0  0  0  0
   12.0114  -12.7907    0.0000 C   0  0  0  0  0  0  0  0  0  0  0  0
   11.3010  -13.2106    0.0000 O   0  0  0  0  0  0  0  0  0  0  0  0
   10.5824  -12.8054    0.0000 C   0  0  0  0  0  0  0  0  0  0  0  0
    9.8721  -13.2252    0.0000 C   0  0  0  0  0  0  0  0  0  0  0  0
    9.1533  -12.8201    0.0000 O   0  0  0  0  0  0  0  0  0  0  0  0
    8.4431  -13.2400    0.0000 C   0  0  0  0  0  0  0  0  0  0  0  0
   14.8297  -10.2929    0.0000 O   0  0  0  0  0  0  0  0  0  0  0  0
   14.1204  -10.7144    0.0000 C   0  0  0  0  0  0  0  0  0  0  0  0
   13.4007  -10.3109    0.0000 C   0  0  0  0  0  0  0  0  0  0  0  0
   13.3903   -9.4859    0.0000 Si  0  0  0  0  0  0  0  0  0  0  0  0
   13.3845   -8.6586    0.0000 C   0  0  0  0  0  0  0  0  0  0  0  0
   12.5653   -9.4940    0.0000 C   0  0  0  0  0  0  0  0  0  0  0  0
   14.2154   -9.4800    0.0000 C   0  0  0  0  0  0  0  0  0  0  0  0
   14.8830  -15.2347    0.0000 C   0  0  0  0  0  0  0  0  0  0  0  0
   14.1709  -15.6537    0.0000 C   0  0  0  0  0  0  0  0  0  0  0  0
   14.1786  -16.4779    0.0000 C   0  0  0  0  0  0  0  0  0  0  0  0
   14.8977  -16.8842    0.0000 C   0  0  0  0  0  0  0  0  0  0  0  0
   15.6104  -16.4603    0.0000 C   0  0  0  0  0  0  0  0  0  0  0  0
   15.5992  -15.6374    0.0000 C   0  0  0  0  0  0  0  0  0  0  0  0
  7  8  1  0  0  0  0 
 19 20  2  0  0  0  0 
  8  9  1  0  0  0  0 
  4 21  1  0  0  0  0 
  9 10  1  0  0  0  0 
 21 22  1  0  0  0  0 
  5  6  1  0  0  0  0 
 22 23  1  0  0  0  0 
 10 11  1  0  0  0  0 
 23 24  1  0  0  0  0 
  5  2  2  0  0  0  0 
 24 25  1  0  0  0  0 
 11 12  2  0  0  0  0 
 25 26  1  0  0  0  0 
  1  6  2  0  0  0  0 
 26 27  1  0  0  0  0 
  9 13  1  1  0  0  0 
 11 28  1  0  0  0  0 
  2  3  1  0  0  0  0 
 28 29  1  0  0  0  0 
 13 14  1  0  0  0  0 
 29 30  1  0  0  0  0 
 30 31  1  0  0  0  0 
  8 15  1  6  0  0  0 
 31 32  1  0  0  0  0 
  3  4  2  0  0  0  0 
 31 33  1  0  0  0  0 
 14 16  2  0  0  0  0 
 31 34  1  0  0  0  0 
  4  1  1  0  0  0  0 
 14 17  1  0  0  0  0 
 35 36  2  0  0  0  0 
  5 10  1  0  0  0  0 
 36 37  1  0  0  0  0 
  7 18  1  1  0  0  0 
 37 38  2  0  0  0  0 
  6  7  1  0  0  0  0 
 38 39  1  0  0  0  0 
 18 19  1  0  0  0  0 
 39 40  2  0  0  0  0 
 40 35  1  0  0  0  0 
 19 35  1  0  0  0  0 
M  END