
  SciTegic01161211252D

 39 44  0  0  0  0            999 V2000
   15.0175  -16.3627    0.0000 N   0  0
   16.4439  -16.3698    0.0000 C   0  0
   15.7325  -15.9525    0.0000 C   0  0
   13.6435  -14.6695    0.0000 C   0  0
   14.3443  -15.1055    0.0000 C   0  0
   14.3206  -15.9323    0.0000 C   0  0
   17.1788  -16.0140    0.0000 C   0  0
   17.8796  -16.4459    0.0000 N   0  0
   17.1983  -15.1872    0.0000 O   0  0
   17.8516  -17.2691    0.0000 C   0  0
   18.5483  -17.7047    0.0000 C   0  0
   19.2748  -17.3133    0.0000 N   0  0
   19.3045  -16.4855    0.0000 C   0  0
   18.5995  -16.0492    0.0000 C   0  0
   19.9710  -17.7511    0.0000 C   0  0
   15.0686  -14.7104    0.0000 C   0  0
   12.9193  -15.0646    0.0000 C   0  0
   12.2179  -14.6264    0.0000 C   0  0
   12.1758  -16.2803    0.0000 C   0  0
   12.9009  -15.8877    0.0000 C   0  0
   15.0132  -17.1900    0.0000 C   0  0
   16.4397  -17.1972    0.0000 C   0  0
   15.7215  -17.6083    0.0000 C   0  0
   15.7170  -18.4299    0.0000 C   0  0
   16.4290  -18.8464    0.0000 C   0  0
   17.1473  -18.4394    0.0000 C   0  0
   17.1534  -17.6116    0.0000 C   0  0
   11.4729  -15.8546    0.0000 C   0  0
   11.4933  -15.0227    0.0000 C   0  0
   10.7084  -14.7460    0.0000 O   0  0
   10.2028  -15.4072    0.0000 C   0  0
   10.6753  -16.0922    0.0000 O   0  0
   19.9362  -18.5710    0.0000 C   0  0
   20.6314  -19.0086    0.0000 C   0  0
   21.3597  -18.6246    0.0000 C   0  0
   21.3882  -17.7985    0.0000 C   0  0
   20.6921  -17.3645    0.0000 N   0  0
   22.0593  -19.0609    0.0000 C   0  0
   22.7585  -19.4993    0.0000 N   0  0
 20 17  1  0
  6  1  1  0
  8 14  1  0
 23 21  1  0
 10 11  1  0
 11 12  1  0
 22 23  1  0
 12 13  1  0
 13 14  1  0
 22  2  1  0
  2  7  1  0
  2  3  1  0
 22 27  1  0
 23 24  1  0
 24 25  1  0
 25 26  1  0
 26 27  1  0
  7  8  1  0
  1 21  1  0
  7  9  2  0
 28 29  2  0
 12 15  1  0
  8 10  1  0
  5 16  1  0
  4 17  1  0
 29 30  1  0
 30 31  1  0
 31 32  1  0
 32 28  1  0
  4  5  1  0
 15 33  2  0
 17 18  2  0
 33 34  1  0
 18 29  1  0
 34 35  2  0
  1  3  1  0
 35 36  1  0
 28 19  1  0
 36 37  2  0
 37 15  1  0
  5  6  1  0
 19 20  2  0
 38 39  3  0
 35 38  1  0
M  END