
          11280715362D 1   1.00000     0.00000     0

 41 44  0     1  0            999 V2000
    3.6875   -5.8917    0.0000 N   0  0  3  0  0  0           0  0  0
    4.7000   -5.3167    0.0000 C   0  0  0  0  0  0           0  0  0
    4.2000   -5.0167    0.0000 C   0  0  0  0  0  0           0  0  0
    4.7000   -5.9042    0.0000 C   0  0  0  0  0  0           0  0  0
    3.6917   -5.3042    0.0000 C   0  0  0  0  0  0           0  0  0
    4.7042   -4.1417    0.0000 C   0  0  2  0  0  0           0  0  0
    4.2000   -4.4292    0.0000 C   0  0  0  0  0  0           0  0  0
    5.2125   -4.4417    0.0000 C   0  0  2  0  0  0           0  0  0
    5.7250   -4.1542    0.0000 N   0  0  3  0  0  0           0  0  0
    5.2125   -5.0292    0.0000 C   0  0  0  0  0  0           0  0  0
    6.2542   -2.6917    0.0000 C   0  0  0  0  0  0           0  0  0
    5.7375   -3.5667    0.0000 C   0  0  0  0  0  0           0  0  0
    4.7125   -3.5542    0.0000 C   0  0  0  0  0  0           0  0  0
    7.4375   -5.4042    0.0000 C   0  0  0  0  0  0           0  0  0
    8.6500   -5.4167    0.0000 C   0  0  0  0  0  0           0  0  0
    7.7417   -4.8917    0.0000 C   0  0  0  0  0  0           0  0  0
    8.3417   -4.8917    0.0000 C   0  0  0  0  0  0           0  0  0
    5.2250   -3.2667    0.0000 C   0  0  1  0  0  0           0  0  0
    5.7500   -2.3792    0.0000 O   0  0  0  0  0  0           0  0  0
    3.2500   -6.3042    0.0000 C   0  0  3  0  0  0           0  0  0
    6.2500   -3.2792    0.0000 O   0  0  0  0  0  0           0  0  0
    7.7417   -5.9292    0.0000 O   0  0  0  0  0  0           0  0  0
    9.2500   -5.4167    0.0000 O   0  0  0  0  0  0           0  0  0
    6.7667   -2.4042    0.0000 C   0  0  3  0  0  0           0  0  0
    5.2292   -2.6667    0.0000 C   0  0  0  0  0  0           0  0  0
    3.1875   -5.0167    0.0000 C   0  0  0  0  0  0           0  0  0
    3.6875   -4.1417    0.0000 C   0  0  0  0  0  0           0  0  0
    6.2375   -4.4542    0.0000 C   0  0  0  0  0  0           0  0  0
    8.3417   -5.9292    0.0000 O   0  0  0  0  0  0           0  0  0
    6.8375   -5.4042    0.0000 O   0  0  0  0  0  0           0  0  0
    3.1875   -4.4292    0.0000 C   0  0  0  0  0  0           0  0  0
    6.7125   -1.8667    0.0000 C   0  0  0  0  0  0           0  0  0
    7.2500   -2.7792    0.0000 C   0  0  0  0  0  0           0  0  0
    2.6750   -6.1417    0.0000 C   0  0  0  0  0  0           0  0  0
    3.4000   -6.8917    0.0000 C   0  0  0  0  0  0           0  0  0
    7.7625   -2.7042    0.0000 C   0  0  0  0  0  0           0  0  0
    7.1625   -1.4667    0.0000 C   0  0  0  0  0  0           0  0  0
    7.7875   -1.6167    0.0000 C   0  0  0  0  0  0           0  0  0
    8.0500   -2.1792    0.0000 C   0  0  0  0  0  0           0  0  0
    3.9500   -3.5917    0.0000 H   0  0  0  0  0  0           0  0  0
    5.7250   -4.7292    0.0000 H   0  0  0  0  0  0           0  0  0
  2  4  2  0     0  0
  3  5  1  0     0  0
  4  1  1  0     0  0
  5  1  1  0     0  0
  6  7  1  0     0  0
  7  3  2  0     0  0
  8 10  1  0     0  0
  9  8  1  0     0  0
 10  2  1  0     0  0
 11 19  1  0     0  0
 12  9  1  0     0  0
 13  6  1  0     0  0
 15 17  1  0     0  0
 16 14  1  0     0  0
 17 16  2  0     0  0
 18 13  1  0     0  0
 19 25  1  0     0  0
 20  1  1  0     0  0
 21 11  2  0     0  0
 22 14  2  0     0  0
 23 15  2  0     0  0
 24 11  1  0     0  0
 18 25  1  1     0  0
 26  5  2  0     0  0
 27  7  1  0     0  0
 28  9  1  0     0  0
 29 15  1  0     0  0
 30 14  1  0     0  0
 31 26  1  0     0  0
 32 24  1  0     0  0
 33 24  1  0     0  0
 34 20  1  0     0  0
 35 20  1  0     0  0
 36 33  1  0     0  0
 37 32  1  0     0  0
 38 37  1  0     0  0
 39 36  1  0     0  0
  6 40  1  6     0  0
  8 41  1  1     0  0
  3  2  1  0     0  0
 31 27  2  0     0  0
  8  6  1  0     0  0
 12 18  1  0     0  0
 38 39  1  0     0  0
M  END