
  Mrv0541 04051115152D          

 17 18  0  0  0  0            999 V2000
   -1.8895   -0.3884    0.0000 C   0  0  0  0  0  0  0  0  0  0  0  0
   -1.8895    0.4366    0.0000 C   0  0  0  0  0  0  0  0  0  0  0  0
   -0.4606   -0.3884    0.0000 C   0  0  0  0  0  0  0  0  0  0  0  0
   -0.4606    0.4366    0.0000 C   0  0  0  0  0  0  0  0  0  0  0  0
    0.2539   -0.8009    0.0000 C   0  0  0  0  0  0  0  0  0  0  0  0
    0.2539    0.8491    0.0000 C   0  0  0  0  0  0  0  0  0  0  0  0
    0.9684    0.4366    0.0000 C   0  0  0  0  0  0  0  0  0  0  0  0
   -2.6040   -0.8009    0.0000 O   0  0  0  0  0  0  0  0  0  0  0  0
   -2.6040    0.8491    0.0000 O   0  0  0  0  0  0  0  0  0  0  0  0
   -1.1750    0.8491    0.0000 N   0  0  0  0  0  0  0  0  0  0  0  0
   -1.1750   -0.8009    0.0000 N   0  0  0  0  0  0  0  0  0  0  0  0
    0.9684   -0.3884    0.0000 C   0  0  0  0  0  0  0  0  0  0  0  0
    1.6828   -0.8009    0.0000 N   0  3  0  0  0  0  0  0  0  0  0  0
    2.3973   -0.3884    0.0000 O   0  0  0  0  0  0  0  0  0  0  0  0
    1.6828   -1.6259    0.0000 O   0  5  0  0  0  0  0  0  0  0  0  0
    1.6828    0.8491    0.0000 C   0  0  0  0  0  0  0  0  0  0  0  0
    2.3973    1.2616    0.0000 N   0  0  0  0  0  0  0  0  0  0  0  0
  1  2  1  0  0  0  0
  1  8  2  0  0  0  0
  1 11  1  0  0  0  0
  2  9  2  0  0  0  0
  2 10  1  0  0  0  0
  3  4  1  0  0  0  0
  3  5  1  0  0  0  0
  3 11  2  0  0  0  0
  4  6  1  0  0  0  0
  4 10  2  0  0  0  0
  5 12  2  0  0  0  0
  6  7  2  0  0  0  0
 12  7  1  0  0  0  0
 16  7  1  0  0  0  0
 12 13  1  0  0  0  0
 13 14  2  0  0  0  0
 13 15  1  0  0  0  0
 16 17  3  0  0  0  0
M  CHG  2  13   1  15  -1
M  END