
  CDK    9/16/09,9:56

 20 19  0  0  0  0  0  0  0  0999 V2000
    2.7417   -4.3583    0.0000 C   0  0  0  0  0  0  0  0  0  0  0  0
    3.4562   -3.9458    0.0000 C   0  0  0  0  0  0  0  0  0  0  0  0
    2.0272   -3.9484    0.0000 O   0  0  0  0  0  0  0  0  0  0  0  0
    2.7417   -5.1859    0.0000 O   0  0  0  0  0  0  0  0  0  0  0  0
    4.1706   -4.3583    0.0000 C   0  0  0  0  0  0  0  0  0  0  0  0
    3.4562   -3.1208    0.0000 N   0  0  0  0  0  0  0  0  0  0  0  0
    4.8851   -3.9458    0.0000 C   0  0  0  0  0  0  0  0  0  0  0  0
    5.5996   -4.3583    0.0000 P   0  0  0  0  0  0  0  0  0  0  0  0
    6.3084   -4.7667    0.0000 C   0  0  0  0  0  0  0  0  0  0  0  0
    5.1874   -5.0730    0.0000 O   0  0  0  0  0  0  0  0  0  0  0  0
    6.0178   -3.6472    0.0000 O   0  0  0  0  0  0  0  0  0  0  0  0
    7.0225   -4.3535    0.0000 C   0  0  0  0  0  0  0  0  0  0  0  0
    7.7373   -4.7653    0.0000 C   0  0  0  0  0  0  0  0  0  0  0  0
    7.0217   -3.5285    0.0000 C   0  0  0  0  0  0  0  0  0  0  0  0
    7.7358   -3.1153    0.0000 C   0  0  0  0  0  0  0  0  0  0  0  0
    7.7413   -5.5911    0.0000 O   0  0  0  0  0  0  0  0  0  0  0  0
    8.4546   -4.3529    0.0000 O   0  0  0  0  0  0  0  0  0  0  0  0
    7.7350   -2.2903    0.0000 C   0  0  0  0  0  0  0  0  0  0  0  0
    8.4497   -1.8749    0.0000 O   0  0  0  0  0  0  0  0  0  0  0  0
    7.0207   -1.8763    0.0000 O   0  0  0  0  0  0  0  0  0  0  0  0
  8 11  2  0  0  0  0 
  2  6  1  1  0  0  0 
  9 12  1  0  0  0  0 
  1  3  1  0  0  0  0 
 12 13  1  0  0  0  0 
  5  7  1  0  0  0  0 
 12 14  1  0  0  0  0 
  1  4  2  0  0  0  0 
 14 15  1  0  0  0  0 
  7  8  1  0  0  0  0 
  8  9  1  0  0  0  0 
  2  5  1  0  0  0  0 
 13 16  1  0  0  0  0 
 13 17  2  0  0  0  0 
 15 18  1  0  0  0  0 
  8 10  1  0  0  0  0 
  1  2  1  0  0  0  0 
 18 19  1  0  0  0  0 
 18 20  2  0  0  0  0 
M  END