
          11290713132D 1   1.00000     0.00000     0

 72 76  0     1  0            999 V2000
   -2.1317    0.4764    0.0000 C   0  0  0  0  0  0           0  0  0
   -2.8490    0.9112    0.0000 C   0  0  2  0  0  0           0  0  0
   -3.6008   -0.3248    0.0000 C   0  0  0  0  0  0           0  0  0
   -4.3419   -0.7245    0.0000 C   0  0  2  0  0  0           0  0  0
   -2.2694   -2.8292    0.0000 C   0  0  0  0  0  0           0  0  0
   -2.9919   -3.2295    0.0000 S   0  0  0  0  0  0           0  0  0
   -3.6743   -2.8274    0.0000 S   0  0  0  0  0  0           0  0  0
   -0.8197   -2.0239    0.0000 C   0  0  0  0  0  0           0  0  0
   -1.5599   -3.2575    0.0000 C   0  0  1  0  0  0           0  0  0
   -4.3943   -3.2254    0.0000 C   0  0  0  0  0  0           0  0  0
   -5.1058   -2.7973    0.0000 C   0  0  0  0  0  0           0  0  0
   -5.0920   -1.9491    0.0000 C   0  0  0  0  0  0           0  0  0
   -0.7625   -0.3726    0.0000 C   0  0  0  0  0  0           0  0  0
   -0.0983   -1.6304    0.0000 C   0  0  2  0  0  0           0  0  0
   -0.7511    0.4545    0.0000 C   0  0  2  0  0  0           0  0  0
   -1.5770   -4.0810    0.0000 C   0  0  0  0  0  0           0  0  0
   -1.5206   -1.5933    0.0000 O   0  0  0  0  0  0           0  0  0
   -1.4889   -0.7660    0.0000 O   0  0  0  0  0  0           0  0  0
   -2.1341   -0.3471    0.0000 O   0  0  0  0  0  0           0  0  0
   -2.9001   -0.7556    0.0000 O   0  0  0  0  0  0           0  0  0
   -5.7963   -1.5209    0.0000 O   0  0  0  0  0  0           0  0  0
   -2.2961   -4.4830    0.0000 O   0  0  0  0  0  0           0  0  0
   -0.8666   -4.5028    0.0000 N   0  0  3  0  0  0           0  0  0
   -5.0454   -0.2950    0.0000 C   0  0  0  0  0  0           0  0  0
   -5.0187    0.5284    0.0000 C   0  0  0  0  0  0           0  0  0
   -4.2967    0.9171    0.0000 C   0  0  0  0  0  0           0  0  0
   -4.2735    1.7395    0.0000 C   0  0  0  0  0  0           0  0  0
   -4.9737    2.1701    0.0000 C   0  0  0  0  0  0           0  0  0
   -5.7032    1.7735    0.0000 C   0  0  0  0  0  0           0  0  0
   -5.7210    0.9530    0.0000 C   0  0  0  0  0  0           0  0  0
   -2.8265    1.7347    0.0000 C   0  0  0  0  0  0           0  0  0
   -2.1045    2.1292    0.0000 C   0  0  0  0  0  0           0  0  0
   -1.3992    1.6930    0.0000 C   0  0  0  0  0  0           0  0  0
   -0.6781    2.0863    0.0000 C   0  0  0  0  0  0           0  0  0
   -0.6549    2.9113    0.0000 C   0  0  0  0  0  0           0  0  0
   -1.3616    3.3446    0.0000 C   0  0  0  0  0  0           0  0  0
   -2.0825    2.9478    0.0000 C   0  0  0  0  0  0           0  0  0
   -0.0282    0.8546    0.0000 C   0  0  0  0  0  0           0  0  0
    0.6046   -2.0609    0.0000 C   0  0  0  0  0  0           0  0  0
    1.3313   -1.6679    0.0000 C   0  0  0  0  0  0           0  0  0
    2.0343   -2.0983    0.0000 O   0  0  0  0  0  0           0  0  0
   -0.7940   -5.3269    0.0000 C   0  0  1  0  0  0           0  0  0
    0.0125   -5.5081    0.0000 C   0  0  0  0  0  0           0  0  0
    0.4342   -4.8018    0.0000 C   0  0  0  0  0  0           0  0  0
   -0.1073   -4.1794    0.0000 C   0  0  0  0  0  0           0  0  0
   -1.4121   -5.8689    0.0000 C   0  0  0  0  0  0           0  0  0
   -2.1937   -5.5992    0.0000 O   0  0  0  0  0  0           0  0  0
   -0.4712   -6.9444    0.0000 C   0  0  2  0  0  0           0  0  0
   -0.3118   -7.7558    0.0000 C   0  0  0  0  0  0           0  0  0
    0.1511   -6.4028    0.0000 C   0  0  0  0  0  0           0  0  0
   -0.9311   -8.2993    0.0000 N   0  0  0  0  0  0           0  0  0
    0.4731   -8.0231    0.0000 O   0  0  0  0  0  0           0  0  0
    0.9288   -6.6680    0.0000 C   0  0  0  0  0  0           0  0  0
    1.5511   -6.1263    0.0000 N   0  0  0  0  0  0           0  0  0
    0.1819    1.6569    0.0000 C   0  0  3  0  0  0           0  0  0
    0.9833    1.8744    0.0000 C   0  0  0  0  0  0           0  0  0
    1.1945    2.6728    0.0000 C   0  0  0  0  0  0           0  0  0
    0.6074    3.2593    0.0000 C   0  0  0  0  0  0           0  0  0
   -0.1940    3.0418    0.0000 C   0  0  0  0  0  0           0  0  0
   -0.4084    2.2378    0.0000 C   0  0  0  0  0  0           0  0  0
   -1.7117   -8.0347    0.0000 C   0  0  0  0  0  0           0  0  0
   -2.3312   -8.5784    0.0000 C   0  0  0  0  0  0           0  0  0
   -3.1143   -8.3151    0.0000 N   0  0  0  0  0  0           0  0  0
   -2.1726   -9.3881    0.0000 O   0  0  0  0  0  0           0  0  0
   -3.5639    0.4994    0.0000 N   0  0  0  0  0  0           0  0  0
   -4.3705   -1.5490    0.0000 N   0  0  0  0  0  0           0  0  0
   -0.8434   -2.8485    0.0000 N   0  0  0  0  0  0           0  0  0
   -0.0607   -0.8063    0.0000 N   0  0  0  0  0  0           0  0  0
   -1.4342    0.9171    0.0000 N   0  0  0  0  0  0           0  0  0
   -4.9630    2.9976    0.0000 O   0  0  0  0  0  0           0  0  0
    1.3554   -0.8464    0.0000 N   0  0  0  0  0  0           0  0  0
   -1.2520   -6.6782    0.0000 N   0  0  0  0  0  0           0  0  0
 13 15  1  0     0  0
  9 16  1  6     0  0
  8 17  2  0     0  0
 13 18  2  0     0  0
  1 19  2  0     0  0
  3 20  2  0     0  0
 12 21  2  0     0  0
 16 22  2  0     0  0
 16 23  1  0     0  0
  4 24  1  1     0  0
 24 25  1  0     0  0
 25 26  2  0     0  0
 26 27  1  0     0  0
 27 28  2  0     0  0
 28 29  1  0     0  0
 29 30  2  0     0  0
 30 25  1  0     0  0
  2 31  1  1     0  0
 31 32  1  0     0  0
 32 33  2  0     0  0
 33 34  1  0     0  0
 34 35  2  0     0  0
 35 36  1  0     0  0
 36 37  2  0     0  0
 37 32  1  0     0  0
 15 38  1  1     0  0
 14 39  1  1     0  0
 39 40  1  0     0  0
 40 41  2  0     0  0
 23 42  1  0     0  0
 42 43  1  0     0  0
 43 44  1  0     0  0
 44 45  1  0     0  0
 45 23  1  0     0  0
 42 46  1  1     0  0
 46 47  2  0     0  0
 48 49  1  0     0  0
 48 50  1  1     0  0
 49 51  1  0     0  0
 49 52  2  0     0  0
 50 53  1  0     0  0
 53 54  1  0     0  0
 38 55  1  0     0  0
 55 56  1  0     0  0
  1  2  1  0     0  0
  4  3  1  0     0  0
 55 60  1  0     0  0
 56 57  1  0     0  0
 57 58  1  0     0  0
 58 59  1  0     0  0
 59 60  1  0     0  0
  5  6  1  0     0  0
 51 61  1  0     0  0
  6  7  1  0     0  0
 61 62  1  0     0  0
  5  9  1  0     0  0
 62 63  1  0     0  0
 62 64  2  0     0  0
 10 11  1  0     0  0
  7 10  1  0     0  0
 12 11  1  0     0  0
  8 14  1  0     0  0
 13 68  1  0     0  0
 68 14  1  0     0  0
 66  4  1  0     0  0
 66 12  1  0     0  0
 15 69  1  0     0  0
 69  1  1  0     0  0
  2 65  1  0     0  0
 65  3  1  0     0  0
 28 70  1  0     0  0
  8 67  1  0     0  0
 67  9  1  0     0  0
 40 71  1  0     0  0
 46 72  1  0     0  0
 72 48  1  0     0  0
M  END