
          11280714452D 1   1.00000     0.00000     0

 29 32  0     0  0            999 V2000
   10.0917    1.2708    0.0000 N   0  0  0  0  0  0           0  0  0
    9.6875    0.0000    0.0000 C   0  0  0  0  0  0           0  0  0
    9.2667    1.2625    0.0000 N   0  0  0  0  0  0           0  0  0
   10.3500    0.4833    0.0000 N   0  0  0  0  0  0           0  0  0
    8.9792   -2.0667    0.0000 C   0  0  0  0  0  0           0  0  0
    9.0167    0.4833    0.0000 N   0  0  0  0  0  0           0  0  0
    8.9792   -1.2417    0.0000 C   0  0  0  0  0  0           0  0  0
    9.6917   -0.8250    0.0000 C   0  0  0  0  0  0           0  0  0
    1.8042   -1.1667    0.0000 N   0  0  0  0  0  0           0  0  0
    2.5542   -0.8292    0.0000 C   0  0  0  0  0  0           0  0  0
    8.2625   -2.4792    0.0000 C   0  0  0  0  0  0           0  0  0
    7.5500   -2.0667    0.0000 C   0  0  0  0  0  0           0  0  0
    2.4667   -0.0125    0.0000 S   0  0  0  0  0  0           0  0  0
    9.6917   -2.4792    0.0000 C   0  0  0  0  0  0           0  0  0
    6.8292   -2.4792    0.0000 C   0  0  0  0  0  0           0  0  0
    1.2500   -0.5542    0.0000 C   0  0  0  0  0  0           0  0  0
    1.6625    0.1583    0.0000 C   0  0  0  0  0  0           0  0  0
   10.4042   -1.2375    0.0000 C   0  0  0  0  0  0           0  0  0
    8.2625   -3.3042    0.0000 O   0  0  0  0  0  0           0  0  0
   10.4042   -2.0667    0.0000 C   0  0  0  0  0  0           0  0  0
    3.2667   -1.2417    0.0000 C   0  0  0  0  0  0           0  0  0
    6.1167   -2.0667    0.0000 C   0  0  0  0  0  0           0  0  0
    3.9792   -0.8292    0.0000 O   0  0  0  0  0  0           0  0  0
    4.7000   -1.2417    0.0000 C   0  0  0  0  0  0           0  0  0
    9.6917   -3.3042    0.0000 O   0  0  0  0  0  0           0  0  0
    5.4125   -2.4750    0.0000 C   0  0  0  0  0  0           0  0  0
    6.1250   -1.2375    0.0000 C   0  0  0  0  0  0           0  0  0
    5.4125   -0.8250    0.0000 C   0  0  0  0  0  0           0  0  0
    4.7000   -2.0667    0.0000 C   0  0  0  0  0  0           0  0  0
  2  4  1  0     0  0
  3  1  1  0     0  0
  4  1  2  0     0  0
  5  7  2  0     0  0
  6  3  1  0     0  0
  7  8  1  0     0  0
  8  2  1  0     0  0
  9 10  2  0     0  0
 10 21  1  0     0  0
 11  5  1  0     0  0
 12 11  1  0     0  0
 13 10  1  0     0  0
 14 20  2  0     0  0
 15 12  2  0     0  0
 16  9  1  0     0  0
 17 13  1  0     0  0
 18  8  2  0     0  0
 19 11  2  0     0  0
 20 18  1  0     0  0
 21 23  1  0     0  0
 22 15  1  0     0  0
 23 24  1  0     0  0
 24 28  1  0     0  0
 25 14  1  0     0  0
 26 22  2  0     0  0
 27 22  1  0     0  0
 28 27  2  0     0  0
 29 26  1  0     0  0
  2  6  2  0     0  0
 14  5  1  0     0  0
 24 29  2  0     0  0
 16 17  2  0     0  0
M  END