
  SciTegic02011310452D

 42 46  0  0  0  0            999 V2000
    2.0100   -8.7085    0.0000 C   0  0
    2.4227   -9.4183    0.0000 C   0  0
    2.8311   -8.7060    0.0000 C   0  0
    5.9624   -9.8351    0.0000 C   0  0
    5.9613  -10.6547    0.0000 C   0  0
    6.6693  -11.0636    0.0000 C   0  0
    6.6675   -9.4263    0.0000 C   0  0
    7.3762   -9.8315    0.0000 C   0  0
    7.3810  -10.6547    0.0000 C   0  0
    8.1654  -10.9045    0.0000 N   0  0
    8.6454  -10.2357    0.0000 C   0  0
    8.1575   -9.5727    0.0000 N   0  0
    9.4625  -10.2309    0.0000 N   0  0
    9.8670   -9.5208    0.0000 C   0  0
   10.6841   -9.5159    0.0000 C   0  0
    9.4542   -8.8155    0.0000 O   0  0
   11.0948  -10.2206    0.0000 C   0  0
   11.9112  -10.2161    0.0000 C   0  0
   12.3164   -9.5055    0.0000 C   0  0
   11.8993   -8.7979    0.0000 C   0  0
   11.0842   -8.8058    0.0000 C   0  0
    5.2533  -11.0627    0.0000 C   0  0
    8.4224  -11.6802    0.0000 C   0  0  2  0  0  0
    7.8748  -12.2879    0.0000 C   0  0
    8.1289  -13.0608    0.0000 C   0  0
    8.9287  -13.2303    0.0000 C   0  0  1  0  0  0
    9.4741  -12.6204    0.0000 C   0  0
    9.2196  -11.8411    0.0000 C   0  0
    9.1828  -14.0069    0.0000 C   0  0
    8.6373  -14.6153    0.0000 O   0  0
    9.9825  -14.1752    0.0000 N   0  0
   10.5281  -13.5668    0.0000 C   0  0
   11.3277  -13.7351    0.0000 C   0  0
   10.2740  -12.7901    0.0000 C   0  0
   13.1336   -9.4996    0.0000 F   0  0
    4.5459  -10.6536    0.0000 N   0  0
    4.5459   -9.8367    0.0000 C   0  0
    3.8426   -9.4277    0.0000 C   0  0
    3.1322   -9.8322    0.0000 C   0  0
    3.1296  -10.6503    0.0000 C   0  0
    3.8374  -11.0639    0.0000 C   0  0
    1.7168   -9.8257    0.0000 O   0  0
  2  1  1  0
  3  2  1  0
  4  5  2  0
  5  6  1  0
  6  9  2  0
  8  7  2  0
  7  4  1  0
  8  9  1  0
  9 10  1  0
 10 11  1  0
 11 12  1  0
 12  8  1  0
 11 13  2  0
 13 14  1  0
 14 15  1  0
 14 16  2  0
 15 17  2  0
 17 18  1  0
 18 19  2  0
 19 20  1  0
 20 21  2  0
 21 15  1  0
  5 22  1  0
 23 10  1  1
 23 24  1  0
 23 28  1  0
 24 25  1  0
 25 26  1  0
 26 27  1  0
 27 28  1  0
 26 29  1  1
 29 30  2  0
 29 31  1  0
 31 32  1  0
 32 33  1  0
 32 34  1  0
 19 35  1  0
 22 36  1  0
 36 37  1  0
 36 41  1  0
 37 38  1  0
 38 39  1  0
 39 40  1  0
 40 41  1  0
 39  2  1  0
  2 42  1  0
M  END