
  SciTegic07101214422D

 24 26  0  0  0  0            999 V2000
    7.0819  -19.6375    0.0000 C   0  0
    7.0807  -20.4648    0.0000 C   0  0
    7.7956  -20.8777    0.0000 N   0  0
    8.5120  -20.4644    0.0000 C   0  0
    8.5091  -19.6338    0.0000 N   0  0
    7.7938  -19.2247    0.0000 N   0  0
    9.2271  -20.8757    0.0000 N   0  0
    6.3673  -19.2251    0.0000 C   0  0
    6.3659  -20.8768    0.0000 C   0  0
    6.3706  -18.3992    0.0000 C   0  0
    5.6568  -17.9869    0.0000 C   0  0
    4.9415  -18.3997    0.0000 N   0  0
    4.9443  -19.2289    0.0000 C   0  0
    5.6587  -19.6374    0.0000 C   0  0
    5.6534  -20.4623    0.0000 C   0  0
    4.9391  -20.8735    0.0000 C   0  0
    4.9380  -21.6994    0.0000 C   0  0
    5.6572  -22.1123    0.0000 C   0  0
    6.3686  -21.6987    0.0000 C   0  0
    5.6571  -17.1619    0.0000 C   0  0
    4.2314  -19.6441    0.0000 C   0  0
    3.5154  -19.2343    0.0000 F   0  0
    4.2345  -20.4691    0.0000 F   0  0
    3.5125  -20.0500    0.0000 F   0  0
 11 12  2  0
  6  1  1  0
 12 13  1  0
  1  2  2  0
 13 14  2  0
 14  8  1  0
  4  7  1  0
  9 15  2  0
  3  4  2  0
 15 16  1  0
  1  8  1  0
 16 17  2  0
 17 18  1  0
  2  9  1  0
 18 19  2  0
 19  9  1  0
  4  5  1  0
 11 20  1  0
  8 10  2  0
 13 21  1  0
  2  3  1  0
 21 22  1  0
 10 11  1  0
 21 23  1  0
  5  6  2  0
 21 24  1  0
M  END