
  SciTegic12231509382D

 17 18  0  0  0  0            999 V2000
   -1.3833    2.7846    0.0000 O   0  0
   -0.6689    2.3721    0.0000 C   0  0
   -0.6689    1.5471    0.0000 C   0  0  1  0  0  0
   -0.0014    1.0621    0.0000 O   0  0
   -1.3363    1.0621    0.0000 C   0  0  1  0  0  0
   -2.1209    1.3171    0.0000 O   0  0
   -1.0814    0.2775    0.0000 C   0  0
   -0.2564    0.2775    0.0000 C   0  0  2  0  0  0
    0.2285   -0.3899    0.0000 N   0  0
   -0.1070   -1.1436    0.0000 C   0  0
   -0.9275   -1.2298    0.0000 O   0  0
    0.3779   -1.8110    0.0000 N   0  0
    1.1984   -1.7248    0.0000 C   0  0
    1.6833   -2.3922    0.0000 O   0  0
    1.5340   -0.9711    0.0000 C   0  0
    2.3544   -0.8849    0.0000 C   0  0
    1.0490   -0.3037    0.0000 C   0  0
  2  1  1  0
  3  2  1  1
  3  4  1  0
  5  3  1  0
  8  4  1  0
  5  6  1  6
  7  5  1  0
  8  7  1  0
  8  9  1  1
 10  9  1  0
 17  9  1  0
 10 11  2  0
 10 12  1  0
 13 12  1  0
 13 14  2  0
 13 15  1  0
 15 16  1  0
 15 17  2  0
M  END