
  Mrv0541 04051115152D          

 27 29  0  0  0  0            999 V2000
   -3.8660    1.6563    0.0000 N   0  0  0  0  0  0  0  0  0  0  0  0
   -3.8660    0.8313    0.0000 C   0  0  2  0  0  0  0  0  0  0  0  0
   -4.5804    0.4188    0.0000 C   0  0  0  0  0  0  0  0  0  0  0  0
   -5.2949    0.8313    0.0000 O   0  0  0  0  0  0  0  0  0  0  0  0
   -4.5804   -0.4062    0.0000 O   0  0  0  0  0  0  0  0  0  0  0  0
   -3.1515    0.4188    0.0000 C   0  0  0  0  0  0  0  0  0  0  0  0
   -2.4370    0.8313    0.0000 C   0  0  0  0  0  0  0  0  0  0  0  0
   -1.7226    0.4188    0.0000 C   0  0  2  0  0  0  0  0  0  0  0  0
   -1.7226   -0.4062    0.0000 N   0  0  0  0  0  0  0  0  0  0  0  0
   -1.0081    0.8313    0.0000 C   0  0  0  0  0  0  0  0  0  0  0  0
   -0.2936    0.4188    0.0000 C   0  0  1  0  0  0  0  0  0  0  0  0
    0.4601    0.7543    0.0000 O   0  0  0  0  0  0  0  0  0  0  0  0
   -0.2074   -0.4017    0.0000 C   0  0  1  0  0  0  0  0  0  0  0  0
   -0.8205   -0.9537    0.0000 O   0  0  0  0  0  0  0  0  0  0  0  0
    0.5996   -0.5732    0.0000 C   0  0  1  0  0  0  0  0  0  0  0  0
    0.9352   -1.3269    0.0000 O   0  0  0  0  0  0  0  0  0  0  0  0
    1.0121    0.1412    0.0000 C   0  0  2  0  0  0  0  0  0  0  0  0
    1.8326    0.2275    0.0000 N   0  0  0  0  0  0  0  0  0  0  0  0
    2.2451    0.9419    0.0000 C   0  0  0  0  0  0  0  0  0  0  0  0
    3.0520    0.7704    0.0000 N   0  0  0  0  0  0  0  0  0  0  0  0
    3.1383   -0.0501    0.0000 C   0  0  0  0  0  0  0  0  0  0  0  0
    3.8057   -0.5350    0.0000 C   0  0  0  0  0  0  0  0  0  0  0  0
    4.5594   -0.1994    0.0000 N   0  0  0  0  0  0  0  0  0  0  0  0
    3.7195   -1.3555    0.0000 N   0  0  0  0  0  0  0  0  0  0  0  0
    2.9658   -1.6910    0.0000 C   0  0  0  0  0  0  0  0  0  0  0  0
    2.2984   -1.2061    0.0000 N   0  0  0  0  0  0  0  0  0  0  0  0
    2.3846   -0.3856    0.0000 C   0  0  0  0  0  0  0  0  0  0  0  0
  2  1  1  1  0  0  0
  3  2  1  0  0  0  0
  2  6  1  0  0  0  0
  3  4  2  0  0  0  0
  3  5  1  0  0  0  0
  6  7  1  0  0  0  0
  8  7  1  0  0  0  0
  8  9  1  1  0  0  0
 10  8  1  0  0  0  0
 11 10  1  1  0  0  0
 11 12  1  0  0  0  0
 13 11  1  0  0  0  0
 17 12  1  0  0  0  0
 13 14  1  6  0  0  0
 15 13  1  0  0  0  0
 15 16  1  6  0  0  0
 17 15  1  0  0  0  0
 17 18  1  1  0  0  0
 19 18  1  0  0  0  0
 27 18  1  0  0  0  0
 19 20  2  0  0  0  0
 21 20  1  0  0  0  0
 21 22  1  0  0  0  0
 27 21  2  0  0  0  0
 22 23  1  0  0  0  0
 22 24  2  0  0  0  0
 25 24  1  0  0  0  0
 25 26  2  0  0  0  0
 27 26  1  0  0  0  0
M  END