
  SciTegic05061116452D

 28 30  0  0  0  0            999 V2000
    3.0452  -17.7328    0.0000 N   0  0
    3.7569  -17.3242    0.0000 C   0  0
    3.7569  -16.4992    0.0000 N   0  0
    3.0452  -16.0828    0.0000 C   0  0
    2.3335  -17.3242    0.0000 C   0  0
    2.3335  -16.4946    0.0000 C   0  0
    1.5445  -16.2381    0.0000 N   0  0
    1.0568  -16.9094    0.0000 C   0  0
    1.5440  -17.5810    0.0000 N   0  0
    1.1165  -18.2867    0.0000 C   0  0
    0.2917  -18.2693    0.0000 C   0  0
   -0.1357  -18.9750    0.0000 O   0  0
   -0.1057  -17.5464    0.0000 O   0  0
    3.0471  -15.2577    0.0000 N   0  0
    4.4709  -17.7376    0.0000 N   0  0
    5.1859  -17.3260    0.0000 C   0  0
    5.8999  -17.7394    0.0000 C   0  0
    6.6149  -17.3277    0.0000 C   0  0
    7.3289  -17.7410    0.0000 C   0  0
    8.0439  -17.3294    0.0000 C   0  0
    3.7597  -14.8453    0.0000 C   0  0
    4.4813  -15.2452    0.0000 C   0  0
    4.4940  -16.0736    0.0000 C   0  0
    5.2148  -16.4735    0.0000 C   0  0
    5.9187  -16.0462    0.0000 C   0  0
    5.9058  -15.2194    0.0000 C   0  0
    5.1846  -14.8232    0.0000 C   0  0
    2.3329  -14.8447    0.0000 C   0  0
 11 13  2  0
  5  1  1  0
  4 14  1  0
  1  2  2  0
  2 15  1  0
  2  3  1  0
 15 16  1  0
  6  7  1  0
 16 17  1  0
  7  8  2  0
 17 18  1  0
  8  9  1  0
 18 19  1  0
  9  5  1  0
 19 20  1  0
  3  4  2  0
 14 21  1  0
  9 10  1  0
 21 22  1  0
  5  6  2  0
 22 23  2  0
 10 11  1  0
 23 24  1  0
 24 25  2  0
 11 12  1  0
 25 26  1  0
  6  4  1  0
 26 27  2  0
 27 22  1  0
 14 28  1  0
M  END