
  SciTegic12231509382D

 43 47  0  0  0  0            999 V2000
   21.5877  -27.6011    0.0000 C   0  0
   21.5991  -28.4269    0.0000 C   0  0
   22.2972  -27.1784    0.0000 O   0  0
   20.8867  -28.8460    0.0000 C   0  0
   20.8977  -29.6710    0.0000 N   0  0
   21.6192  -30.0749    0.0000 C   0  0
   22.3309  -29.6477    0.0000 C   0  0
   22.3164  -28.8240    0.0000 C   0  0
   23.0242  -28.3984    0.0000 C   0  0
   23.7466  -28.7985    0.0000 F   0  0
   23.0095  -27.5726    0.0000 F   0  0
   23.7289  -27.9688    0.0000 F   0  0
   15.1830  -25.9544    0.0000 C   0  0
   16.0071  -25.9556    0.0000 N   0  0
   16.4183  -25.2436    0.0000 C   0  0
   16.0066  -24.5300    0.0000 C   0  0
   15.1794  -24.5328    0.0000 C   0  0
   14.7718  -25.2454    0.0000 C   0  0
   17.2477  -25.2420    0.0000 N   0  0
   17.6592  -25.9591    0.0000 C   0  0
   18.4815  -25.9613    0.0000 C   0  0
   18.8985  -25.2479    0.0000 N   0  0
   18.4869  -24.5308    0.0000 C   0  0
   17.6584  -24.5269    0.0000 C   0  0
   19.7244  -25.2513    0.0000 C   0  0
   20.1401  -24.5378    0.0000 O   0  0
   20.1331  -25.9679    0.0000 C   0  0
   19.4218  -26.3927    0.0000 C   0  0
   19.4341  -27.2150    0.0000 C   0  0
   20.1547  -27.6192    0.0000 C   0  0
   20.8645  -27.1952    0.0000 N   0  0
   20.8538  -26.3666    0.0000 C   0  0
   20.7493  -25.4150    0.0000 O   0  0
   21.5721  -25.3965    0.0000 C   0  0
   21.9983  -26.1016    0.0000 C   0  0
   22.8176  -26.0852    0.0000 C   0  0
   23.2168  -25.3651    0.0000 C   0  0
   22.7907  -24.6599    0.0000 C   0  0
   21.9651  -24.6748    0.0000 C   0  0
   24.0426  -25.3496    0.0000 C   0  0
   24.4688  -26.0571    0.0000 F   0  0
   24.4421  -24.6268    0.0000 F   0  0
   24.8684  -25.3482    0.0000 F   0  0
  1  2  1  0
  1  3  2  0
  2  4  2  0
  4  5  1  0
  5  6  2  0
  6  7  1  0
  7  8  2  0
  8  2  1  0
  8  9  1  0
  9 10  1  0
  9 11  1  0
  9 12  1  0
 13 14  2  0
 14 15  1  0
 15 16  2  0
 16 17  1  0
 17 18  2  0
 18 13  1  0
 19 20  1  0
 19 24  1  0
 20 21  1  0
 21 22  1  0
 22 23  1  0
 23 24  1  0
 15 19  1  0
 22 25  1  0
 25 26  2  0
 25 27  1  0
 27 28  1  0
 27 32  1  0
 28 29  1  0
 29 30  1  0
 30 31  1  0
 31 32  1  0
 31  1  1  0
 27 33  1  0
 33 34  1  0
 34 35  2  0
 34 39  1  0
 35 36  1  0
 36 37  2  0
 37 38  1  0
 38 39  2  0
 37 40  1  0
 40 41  1  0
 40 42  1  0
 40 43  1  0
M  END