
  SciTegic11201309402D

 72 75  0  0  1  0            999 V2000
    5.2667   -8.0417    0.0000 N   0  0
    4.7292   -8.2167    0.0000 C   0  0
    2.0667   -4.1292    0.0000 N   0  0
    4.1667   -8.2667    0.0000 C   0  0  1  0  0  0
    6.1792   -7.3792    0.0000 C   0  0
    3.6292   -7.4167    0.0000 N   0  0
    2.9000   -3.3667    0.0000 C   0  0
    3.4167   -3.1417    0.0000 N   0  0
    4.0417   -4.7792    0.0000 N   0  0
    6.5042   -6.9167    0.0000 N   0  0
    1.7917   -4.6292    0.0000 C   0  0
    4.1042   -6.5167    0.0000 C   0  0
    3.5042   -3.9167    0.0000 C   0  0
    5.7625   -7.7667    0.0000 C   0  0  1  0  0  0
    2.4417   -3.7042    0.0000 C   0  0  2  0  0  0
    3.5667   -5.6667    0.0000 C   0  0  1  0  0  0
    1.5917   -5.7417    0.0000 N   0  0
    1.6292   -5.1792    0.0000 C   0  0  2  0  0  0
    3.0000   -5.6917    0.0000 C   0  0
    3.9750   -3.0292    0.0000 C   0  0  1  0  0  0
    7.2917   -6.4167    0.0000 C   0  0
    1.6750   -6.3042    0.0000 C   0  0
    6.7292   -6.3917    0.0000 C   0  0  1  0  0  0
    5.6042   -3.4167    0.0000 C   0  0
    2.7000   -5.2042    0.0000 C   0  0
    7.8250   -6.9042    0.0000 N   0  0
    3.0667   -8.0042    0.0000 S   0  0
    6.0500   -3.7667    0.0000 N   0  0
    2.5917   -7.7042    0.0000 S   0  0
    8.6417   -7.8417    0.0000 C   0  0
    4.8417   -8.7667    0.0000 O   0  0
    6.6042   -7.7542    0.0000 O   0  0
    2.6167   -2.8792    0.0000 O   0  0
    1.2667   -4.4167    0.0000 O   0  0
    4.4917   -6.4542    0.0000 O   0  0
    3.0667   -3.9292    0.0000 O   0  0
    3.6042   -8.1917    0.0000 C   0  0
    1.0750   -5.0667    0.0000 C   0  0
    1.8750   -6.8292    0.0000 C   0  0
    7.4292   -5.9917    0.0000 O   0  0
    1.1250   -6.4417    0.0000 O   0  0
    5.9042   -2.9417    0.0000 O   0  0
    2.1292   -5.2292    0.0000 O   0  0
    9.0417   -8.1167    0.0000 O   0  0
    4.5417   -3.0417    0.0000 C   0  0
    8.7000   -7.1917    0.0000 C   0  0
    5.3917   -8.6042    0.0000 C   0  0
    2.0625   -3.2917    0.0000 C   0  0  1  0  0  0
    5.0917   -3.1792    0.0000 C   0  0
    2.9667   -4.7042    0.0000 N   0  0
    0.8875   -4.5417    0.0000 C   0  0
    7.9625   -8.2667    0.0000 N   0  0
    0.5042   -3.4667    0.0000 C   0  0
    2.1792   -7.3042    0.0000 C   0  0
    0.3250   -4.4417    0.0000 C   0  0
    1.2500   -4.1042    0.0000 C   0  0
    0.1375   -3.9042    0.0000 C   0  0
    1.0625   -3.5667    0.0000 C   0  0
    6.1875   -8.1417    0.0000 C   0  0
    0.3125   -2.9417    0.0000 O   0  0
    5.9542   -8.6542    0.0000 C   0  0
    6.4125   -4.2167    0.0000 C   0  0
    6.8292   -5.8292    0.0000 C   0  0
    2.2292   -2.7542    0.0000 C   0  0
    1.5042   -3.4167    0.0000 C   0  0
    1.8500   -2.3292    0.0000 C   0  0
    6.6667   -4.7167    0.0000 C   0  0
    6.8125   -5.2667    0.0000 C   0  0
    4.0633   -4.0253    0.0000 H   0  0
    1.4418   -3.7144    0.0000 H   0  0
    6.7624   -7.7536    0.0000 H   0  0
    4.1886   -7.2669    0.0000 H   0  0
  2  1  1  0
  3 11  1  0
  4  2  1  0
  5 14  1  0
  6  4  1  0
  7  8  1  0
  8 20  1  0
  9 16  1  0
 10  5  1  0
 11 18  1  0
 12  6  1  0
 13  9  1  0
 14  1  1  0
 15  7  1  0
 16 12  1  0
 17 22  1  0
 18 17  1  0
 16 19  1  1
 20 13  1  0
 23 21  1  6
 22 39  1  0
 23 10  1  0
 24 28  1  0
 25 19  1  0
 26 21  1  0
 27 37  1  0
 28 62  1  0
 29 27  1  0
 30 46  1  0
 31  2  2  0
 32  5  2  0
 33  7  2  0
 34 11  2  0
 35 12  2  0
 36 13  2  0
  4 37  1  0
 18 38  1  6
 39 54  1  0
 40 21  2  0
 41 22  2  0
 42 24  2  0
 43 25  2  0
 44 30  2  0
 20 45  1  0
 46 26  1  0
 47  1  1  0
 15 48  1  0
 49 45  1  0
 50 25  1  0
 51 38  1  0
 52 30  1  0
 53 58  2  0
 54 29  1  0
 55 51  1  0
 56 51  2  0
 57 55  2  0
 58 56  1  0
 14 59  1  0
 60 53  1  0
 61 47  1  0
 62 67  1  0
 23 63  1  0
 64 48  1  0
 48 65  1  6
 66 64  1  0
 67 68  1  0
 68 63  1  0
 59 61  1  0
 24 49  1  0
 15  3  1  0
 53 57  1  0
 20 69  1  1
 15 70  1  6
 14 71  1  6
  4 72  1  1
M  END