
  SciTegic09261414532D

 39 43  0  0  0  0            999 V2000
    7.0881  -13.1543    0.0000 C   0  0
    7.0889  -13.9811    0.0000 C   0  0
    7.8041  -14.3920    0.0000 N   0  0
    8.5192  -13.9773    0.0000 C   0  0
    8.5143  -13.1474    0.0000 C   0  0
    7.7985  -12.7401    0.0000 C   0  0
    9.2352  -14.3871    0.0000 C   0  0
    9.2263  -12.7305    0.0000 C   0  0  1  0  0  0
    9.9432  -13.1387    0.0000 C   0  0
   10.6551  -12.7218    0.0000 O   0  0
    9.9483  -13.9636    0.0000 O   0  0
    9.2213  -11.9055    0.0000 O   0  0
    9.9332  -11.4887    0.0000 C   0  0
    9.9282  -10.6637    0.0000 C   0  0
   10.6502  -11.8969    0.0000 C   0  0
   10.6456  -11.0705    0.0000 C   0  0
    7.7941  -11.9151    0.0000 C   0  0
    8.5075  -11.5047    0.0000 C   0  0
    8.5034  -10.6804    0.0000 C   0  0
    7.0792  -11.5145    0.0000 C   0  0
    7.0717  -10.6916    0.0000 C   0  0
    7.7917  -10.2718    0.0000 C   0  0
    7.7882   -9.4430    0.0000 O   0  0
    7.0663   -9.0277    0.0000 C   0  0
    6.3463   -9.4474    0.0000 C   0  0
    6.3482  -10.2825    0.0000 C   0  0
    6.3751  -14.3946    0.0000 C   0  0
    6.3726  -12.7436    0.0000 C   0  0
    5.6635  -13.9818    0.0000 C   0  0
    4.9502  -14.3947    0.0000 C   0  0
    4.9510  -15.2206    0.0000 C   0  0
    5.6711  -15.6318    0.0000 C   0  0
    6.3815  -15.2166    0.0000 C   0  0
    5.6753  -16.4647    0.0000 C   0  0
    5.0040  -16.9576    0.0000 C   0  0
    5.2654  -17.7484    0.0000 C   0  0
    6.0982  -17.7441    0.0000 N   0  0
    6.3515  -16.9507    0.0000 N   0  0
    7.1348  -16.6918    0.0000 C   0  0
  1  2  2  0
  2  3  1  0
  3  4  2  0
  4  5  1  0
  5  6  2  0
  6  1  1  0
  4  7  1  0
  5  8  1  0
  8  9  1  0
  9 10  1  0
  9 11  2  0
  8 12  1  6
 12 13  1  0
 13 14  1  0
 13 15  1  0
 13 16  1  0
  6 17  1  0
 17 18  2  0
 18 19  1  0
 19 22  2  0
 21 20  2  0
 20 17  1  0
 21 22  1  0
 21 26  1  0
 22 23  1  0
 23 24  1  0
 24 25  1  0
 25 26  1  0
  2 27  1  0
  1 28  1  0
 27 29  2  0
 29 30  1  0
 30 31  2  0
 31 32  1  0
 32 33  2  0
 33 27  1  0
 32 34  1  0
 34 35  2  0
 34 38  1  0
 35 36  1  0
 36 37  2  0
 37 38  1  0
 38 39  1  0
M  END