
  Mrv0541 05211314572D          

 26 29  0  0  0  0            999 V2000
    6.5866   -1.8060    0.0000 C   0  0  0  0  0  0  0  0  0  0  0  0
    6.5866   -2.6310    0.0000 C   0  0  0  0  0  0  0  0  0  0  0  0
    5.8721   -3.0435    0.0000 C   0  0  0  0  0  0  0  0  0  0  0  0
    5.1576   -2.6310    0.0000 C   0  0  0  0  0  0  0  0  0  0  0  0
    5.1576   -1.8060    0.0000 C   0  0  0  0  0  0  0  0  0  0  0  0
    5.8721   -1.3935    0.0000 C   0  0  0  0  0  0  0  0  0  0  0  0
    4.4432   -1.3935    0.0000 Cl  0  0  0  0  0  0  0  0  0  0  0  0
    4.4432   -3.0435    0.0000 N   0  0  0  0  0  0  0  0  0  0  0  0
    4.4432   -3.8685    0.0000 C   0  0  0  0  0  0  0  0  0  0  0  0
    3.7287   -4.2810    0.0000 C   0  0  0  0  0  0  0  0  0  0  0  0
    3.0142   -3.8685    0.0000 N   0  0  0  0  0  0  0  0  0  0  0  0
    3.0142   -3.0435    0.0000 N   0  0  0  0  0  0  0  0  0  0  0  0
    3.7287   -2.6310    0.0000 C   0  0  0  0  0  0  0  0  0  0  0  0
    5.1576   -4.2810    0.0000 O   0  0  0  0  0  0  0  0  0  0  0  0
    2.2997   -2.6310    0.0000 C   0  0  0  0  0  0  0  0  0  0  0  0
    1.5853   -3.0435    0.0000 C   0  0  0  0  0  0  0  0  0  0  0  0
    0.8708   -2.6310    0.0000 C   0  0  0  0  0  0  0  0  0  0  0  0
    0.8708   -1.8060    0.0000 C   0  0  0  0  0  0  0  0  0  0  0  0
    1.5853   -1.3935    0.0000 C   0  0  0  0  0  0  0  0  0  0  0  0
    2.2997   -1.8060    0.0000 C   0  0  0  0  0  0  0  0  0  0  0  0
    3.7287   -5.1060    0.0000 N   0  0  0  0  0  0  0  0  0  0  0  0
    4.3961   -5.5909    0.0000 C   0  0  0  0  0  0  0  0  0  0  0  0
    4.1412   -6.3756    0.0000 C   0  0  0  0  0  0  0  0  0  0  0  0
    3.3162   -6.3756    0.0000 C   0  0  0  0  0  0  0  0  0  0  0  0
    3.0612   -5.5909    0.0000 C   0  0  0  0  0  0  0  0  0  0  0  0
    0.1563   -1.3935    0.0000 Cl  0  0  0  0  0  0  0  0  0  0  0  0
 12 13  1  0  0  0  0
  4  8  1  0  0  0  0
  1  2  2  0  0  0  0
  9 14  2  0  0  0  0
  5  7  1  0  0  0  0
  8  9  1  0  0  0  0
 15 16  2  0  0  0  0
  3  4  2  0  0  0  0
 16 17  1  0  0  0  0
 17 18  2  0  0  0  0
  4  5  1  0  0  0  0
 18 19  1  0  0  0  0
  2  3  1  0  0  0  0
 19 20  2  0  0  0  0
 20 15  1  0  0  0  0
 12 15  1  0  0  0  0
  5  6  2  0  0  0  0
 10 21  1  0  0  0  0
 21 22  1  0  0  0  0
  6  1  1  0  0  0  0
  8 13  1  0  0  0  0
  9 10  1  0  0  0  0
 10 11  2  0  0  0  0
 22 23  1  0  0  0  0
 23 24  1  0  0  0  0
 24 25  1  0  0  0  0
 25 21  1  0  0  0  0
 11 12  1  0  0  0  0
 18 26  1  0  0  0  0
M  END