
          11280715012D 1   1.00000     0.00000     0

 33 35  0     1  0            999 V2000
    8.6292  -19.0792    0.0000 S   0  0  3  0  0  0           0  0  0
    8.5042  -18.2667    0.0000 N   0  0  0  0  0  0           0  0  0
    9.1417  -17.7542    0.0000 C   0  0  2  0  0  0           0  0  0
    9.9125  -18.0542    0.0000 C   0  0  0  0  0  0           0  0  0
    8.2542  -15.7667    0.0000 C   0  0  0  0  0  0           0  0  0
    8.3292  -16.5917    0.0000 N   0  0  0  0  0  0           0  0  0
    9.3917  -19.3792    0.0000 O   0  0  0  0  0  0           0  0  0
    7.9792  -19.6000    0.0000 O   0  0  0  0  0  0           0  0  0
    8.7417  -19.9000    0.0000 C   0  0  0  0  0  0           0  0  0
    7.5042  -15.4167    0.0000 C   0  0  0  0  0  0           0  0  0
    9.0750  -16.9375    0.0000 C   0  0  0  0  0  0           0  0  0
    1.7792  -15.9125    0.0000 N   0  0  0  0  0  0           0  0  0
   10.5625  -17.5417    0.0000 O   0  0  0  0  0  0           0  0  0
    8.7667  -15.4125    0.0000 O   0  0  0  0  0  0           0  0  0
    7.4292  -14.6000    0.0000 C   0  0  0  0  0  0           0  0  0
    6.8292  -15.8917    0.0000 C   0  0  0  0  0  0           0  0  0
   10.0375  -18.8792    0.0000 O   0  0  0  0  0  0           0  0  0
    6.0042  -14.7167    0.0000 C   0  0  0  0  0  0           0  0  0
    6.6792  -14.2417    0.0000 C   0  0  0  0  0  0           0  0  0
    6.0792  -15.5500    0.0000 C   0  0  0  0  0  0           0  0  0
    5.2542  -14.3667    0.0000 O   0  0  0  0  0  0           0  0  0
    4.5667  -14.8375    0.0000 C   0  0  0  0  0  0           0  0  0
    2.5292  -16.2625    0.0000 C   0  0  0  0  0  0           0  0  0
    1.7042  -15.0875    0.0000 C   0  0  0  0  0  0           0  0  0
    3.1417  -14.9667    0.0000 C   0  0  3  0  0  0           0  0  0
    8.1000  -20.3917    0.0000 C   0  0  0  0  0  0           0  0  0
    9.5000  -20.1917    0.0000 C   0  0  0  0  0  0           0  0  0
    3.8167  -14.4917    0.0000 C   0  0  0  0  0  0           0  0  0
    3.2042  -15.7875    0.0000 C   0  0  0  0  0  0           0  0  0
    2.3917  -14.6125    0.0000 C   0  0  0  0  0  0           0  0  0
    8.2125  -21.2125    0.0000 C   0  0  0  0  0  0           0  0  0
    9.6250  -21.0042    0.0000 C   0  0  0  0  0  0           0  0  0
    8.9750  -21.5167    0.0000 C   0  0  0  0  0  0           0  0  0
  2  1  1  0     0  0
  3  2  1  1     0  0
  4  3  1  0     0  0
  5  6  1  0     0  0
  6 11  1  0     0  0
  7  1  2  0     0  0
  8  1  2  0     0  0
  9  1  1  0     0  0
 10  5  1  0     0  0
 11  3  1  0     0  0
 12 24  1  0     0  0
 13  4  2  0     0  0
 14  5  2  0     0  0
 15 10  1  0     0  0
 16 10  2  0     0  0
 17  4  1  0     0  0
 18 20  2  0     0  0
 19 15  2  0     0  0
 20 16  1  0     0  0
 21 18  1  0     0  0
 22 21  1  0     0  0
 23 29  1  0     0  0
 24 30  1  0     0  0
 25 28  1  0     0  0
 26  9  2  0     0  0
 27  9  1  0     0  0
 28 22  1  0     0  0
 29 25  1  0     0  0
 30 25  1  0     0  0
 31 26  1  0     0  0
 32 27  2  0     0  0
 33 32  1  0     0  0
 33 31  2  0     0  0
 18 19  1  0     0  0
 12 23  1  0     0  0
M  END