
          11280714572D 1   1.00000     0.00000     0

 53 58  0     0  0            999 V2000
    8.3167    1.8208    0.0000 C   0  0  0  0  0  0           0  0  0
    6.6792    0.3833    0.0000 C   0  0  0  0  0  0           0  0  0
    7.0917    1.1000    0.0000 C   0  0  3  0  0  0           0  0  0
    7.9125    2.5333    0.0000 O   0  0  0  0  0  0           0  0  0
    7.9125    1.1083    0.0000 C   0  0  3  0  0  0           0  0  0
    7.0917    2.5250    0.0000 C   0  0  0  0  0  0           0  0  0
    6.6750    1.8083    0.0000 C   0  0  0  0  0  0           0  0  0
    7.0917   -0.3250    0.0000 C   0  0  0  0  0  0           0  0  0
    9.1417    1.8250    0.0000 C   0  0  0  0  0  0           0  0  0
    1.1542    0.4375    0.0000 N   0  0  0  0  0  0           0  0  0
    1.8667    0.8500    0.0000 C   0  0  0  0  0  0           0  0  0
    8.3292    0.4000    0.0000 C   0  0  0  0  0  0           0  0  0
    5.8542    0.3833    0.0000 C   0  0  0  0  0  0           0  0  0
    1.1542   -0.3875    0.0000 C   0  0  0  0  0  0           0  0  0
    7.8125   -0.7292    0.0000 C   0  0  0  0  0  0           0  0  0
    2.5792    1.2625    0.0000 N   0  0  0  0  0  0           0  0  0
    5.4417   -0.3292    0.0000 C   0  0  0  0  0  0           0  0  0
    4.7417   -0.7667    0.0000 C   0  0  0  0  0  0           0  0  0
    6.6792    3.2375    0.0000 C   0  0  0  0  0  0           0  0  0
    9.5500    1.1125    0.0000 C   0  0  0  0  0  0           0  0  0
    9.1375    0.3958    0.0000 C   0  0  0  0  0  0           0  0  0
    6.6917   -1.0375    0.0000 C   0  0  0  0  0  0           0  0  0
   -5.9875   -0.3917    0.0000 N   0  0  3  0  0  0           0  0  0
    5.8542    1.8083    0.0000 C   0  0  0  0  0  0           0  0  0
    5.8625   -1.0417    0.0000 C   0  0  0  0  0  0           0  0  0
    8.5167   -0.3125    0.0000 O   0  0  0  0  0  0           0  0  0
    4.7667   -1.5917    0.0000 O   0  0  0  0  0  0           0  0  0
   -5.2708   -0.8042    0.0000 C   0  0  0  0  0  0           0  0  0
   10.3792    1.1250    0.0000 O   0  0  0  0  0  0           0  0  0
    0.4417   -0.8000    0.0000 N   0  0  0  0  0  0           0  0  0
    1.8750   -0.8000    0.0000 N   0  0  0  0  0  0           0  0  0
   -4.5583   -0.3917    0.0000 C   0  0  0  0  0  0           0  0  0
    4.0167   -0.3750    0.0000 N   0  0  0  0  0  0           0  0  0
    5.8625    3.2333    0.0000 C   0  0  0  0  0  0           0  0  0
    5.4417    2.5208    0.0000 C   0  0  0  0  0  0           0  0  0
    7.8167   -1.5542    0.0000 O   0  0  0  0  0  0           0  0  0
   -3.8458   -0.8042    0.0000 C   0  0  0  0  0  0           0  0  0
   -3.1250   -0.3917    0.0000 C   0  0  0  0  0  0           0  0  0
    5.4417    3.9458    0.0000 O   0  0  0  0  0  0           0  0  0
   -0.9833   -0.8042    0.0000 C   0  0  0  0  0  0           0  0  0
   -2.4125   -0.8042    0.0000 O   0  0  0  0  0  0           0  0  0
   -5.9875    0.4375    0.0000 C   0  0  0  0  0  0           0  0  0
   -6.7042   -0.8042    0.0000 C   0  0  0  0  0  0           0  0  0
   -3.8458    0.8458    0.0000 C   0  0  0  0  0  0           0  0  0
   -0.2708   -0.3875    0.0000 C   0  0  0  0  0  0           0  0  0
   -4.5583    0.4333    0.0000 C   0  0  0  0  0  0           0  0  0
   -1.7000   -0.3917    0.0000 C   0  0  0  0  0  0           0  0  0
    2.5917   -0.3792    0.0000 C   0  0  0  0  0  0           0  0  0
    3.3042   -0.7917    0.0000 C   0  0  0  0  0  0           0  0  0
   -3.1333    0.4375    0.0000 C   0  0  0  0  0  0           0  0  0
   -7.4167   -0.3792    0.0000 C   0  0  0  0  0  0           0  0  0
   -6.6917    0.8500    0.0000 C   0  0  0  0  0  0           0  0  0
   -7.4042    0.4458    0.0000 C   0  0  0  0  0  0           0  0  0
  2  3  1  0     0  0
  3  5  1  0     0  0
  4  1  1  0     0  0
  5  1  1  0     0  0
  6  4  1  0     0  0
  7  3  1  0     0  0
  8  2  1  0     0  0
  9  1  2  0     0  0
 10 14  1  0     0  0
 11 10  1  0     0  0
 12  5  1  0     0  0
 13  2  2  0     0  0
 14 31  2  0     0  0
 15  8  1  0     0  0
 16 11  3  0     0  0
 17 13  1  0     0  0
 18 17  1  0     0  0
 19  6  1  0     0  0
 20  9  1  0     0  0
 21 20  1  0     0  0
 22  8  2  0     0  0
 23 28  1  0     0  0
 24  7  1  0     0  0
 25 17  2  0     0  0
 26 15  2  0     0  0
 27 18  2  0     0  0
 28 32  1  0     0  0
 29 20  2  0     0  0
 30 14  1  0     0  0
 31 48  1  0     0  0
 32 37  1  0     0  0
 33 18  1  0     0  0
 34 19  2  0     0  0
 35 24  2  0     0  0
 36 15  1  0     0  0
 37 38  2  0     0  0
 38 41  1  0     0  0
 39 34  1  0     0  0
 40 45  1  0     0  0
 41 47  1  0     0  0
 42 23  1  0     0  0
 43 23  1  0     0  0
 44 50  2  0     0  0
 45 30  1  0     0  0
 46 44  1  0     0  0
 47 40  1  0     0  0
 48 49  1  0     0  0
 49 33  1  0     0  0
 50 38  1  0     0  0
 51 43  1  0     0  0
 52 42  1  0     0  0
 53 51  1  0     0  0
 21 12  2  0     0  0
  6  7  2  0     0  0
 35 34  1  0     0  0
 25 22  1  0     0  0
 32 46  2  0     0  0
 53 52  1  0     0  0
M  END