
  SciTegic05071316162D

 16 17  0  0  0  0            999 V2000
   11.5053   -2.3525    0.0000 C   0  0
   11.5042   -3.1720    0.0000 C   0  0
   12.2122   -3.5810    0.0000 C   0  0
   12.9219   -3.1715    0.0000 C   0  0
   12.9190   -2.3489    0.0000 C   0  0
   12.2104   -1.9436    0.0000 C   0  0
   10.7975   -1.9441    0.0000 C   0  0  2  0  0  0
   10.0899   -2.3528    0.0000 C   0  0
    9.3821   -1.9444    0.0000 C   0  0
    8.6745   -2.3532    0.0000 N   0  0
    7.9285   -2.0170    0.0000 N   0  0
    7.3818   -2.6245    0.0000 C   0  0
    7.7906   -3.3321    0.0000 N   0  0
    8.5898   -3.1619    0.0000 C   0  0
   10.7973   -1.1269    0.0000 C   0  0
   11.5049   -0.7181    0.0000 C   0  0
  1  2  2  0
  2  3  1  0
  3  4  2  0
  4  5  1  0
  5  6  2  0
  6  1  1  0
  1  7  1  0
  7  8  1  0
  8  9  1  0
  9 10  1  0
 10 11  1  0
 11 12  2  0
 12 13  1  0
 13 14  2  0
 14 10  1  0
  7 15  1  6
 15 16  1  0
M  END