
  SciTegic05061409512D

 32 36  0  0  0  0            999 V2000
   18.1694   -3.2008    0.0000 S   0  0
   17.7580   -3.9160    0.0000 O   0  0
   18.5831   -3.9147    0.0000 O   0  0
   16.0242   -1.9625    0.0000 C   0  0
   16.0230   -2.7899    0.0000 C   0  0
   16.7378   -3.2028    0.0000 C   0  0
   17.4543   -2.7895    0.0000 C   0  0
   17.4514   -1.9589    0.0000 C   0  0
   16.7360   -1.5497    0.0000 C   0  0
   18.8833   -2.7872    0.0000 N   0  0
   19.5968   -3.2042    0.0000 C   0  0
   20.3085   -2.7941    0.0000 C   0  0
   20.3115   -1.9688    0.0000 N   0  0
   19.5965   -1.5552    0.0000 C   0  0
   18.8785   -1.9670    0.0000 C   0  0
   21.0269   -1.5578    0.0000 C   0  0
   21.8236   -1.7745    0.0000 C   0  0
   22.0388   -0.9780    0.0000 O   0  0
   21.2423   -0.7627    0.0000 C   0  0
   15.3096   -1.5502    0.0000 C   0  0
   14.5952   -1.9629    0.0000 N   0  0
   13.8806   -1.5505    0.0000 C   0  0
   13.1662   -1.9630    0.0000 C   0  0
   13.8804   -0.7255    0.0000 O   0  0
   12.3930   -1.6855    0.0000 C   0  0
   13.1497   -2.7852    0.0000 O   0  0
   12.3588   -3.0201    0.0000 C   0  0
   11.8936   -2.3427    0.0000 C   0  0
   11.0761   -2.4077    0.0000 C   0  0
   10.7230   -3.1495    0.0000 C   0  0
   11.1934   -3.8274    0.0000 N   0  0
   12.0091   -3.7589    0.0000 C   0  0
  2  1  2  0
  1  3  2  0
  4  5  2  0
  5  6  1  0
  6  7  2  0
  7  8  1  0
  8  9  2  0
  9  4  1  0
  7  1  1  0
  1 10  1  0
 10 11  1  0
 10 15  1  0
 11 12  1  0
 12 13  1  0
 13 14  1  0
 14 15  1  0
 13 16  1  0
 16 17  1  0
 17 18  1  0
 18 19  1  0
 19 16  1  0
  4 20  1  0
 20 21  1  0
 21 22  1  0
 22 23  1  0
 22 24  2  0
 23 25  2  0
 25 28  1  0
 27 26  1  0
 26 23  1  0
 27 28  2  0
 28 29  1  0
 29 30  2  0
 30 31  1  0
 31 32  2  0
 32 27  1  0
M  END