
          11280715222D 1   1.00000     0.00000     0

 30 32  0     1  0            999 V2000
    5.2667   -3.3250    0.0000 S   0  0  3  0  0  0           0  0  0
    4.7917   -2.6542    0.0000 N   0  0  3  0  0  0           0  0  0
    3.7042   -1.8750    0.0000 C   0  0  1  0  0  0           0  0  0
    3.9667   -2.6542    0.0000 C   0  0  0  0  0  0           0  0  0
    5.0417   -1.8750    0.0000 C   0  0  0  0  0  0           0  0  0
    2.9917   -1.4625    0.0000 C   0  0  0  0  0  0           0  0  0
    4.9292   -4.0667    0.0000 C   0  0  0  0  0  0           0  0  0
    4.3792   -1.3875    0.0000 C   0  0  1  0  0  0           0  0  0
    5.6792   -2.6042    0.0000 O   0  0  0  0  0  0           0  0  0
    5.9792   -3.7292    0.0000 O   0  0  0  0  0  0           0  0  0
    7.2292   -1.3750    0.0000 C   0  0  0  0  0  0           0  0  0
    2.9917   -0.6292    0.0000 C   0  0  0  0  0  0           0  0  0
    7.2167   -0.5500    0.0000 O   0  0  0  0  0  0           0  0  0
    4.1167   -4.1542    0.0000 C   0  0  0  0  0  0           0  0  0
    5.4167   -4.7375    0.0000 C   0  0  0  0  0  0           0  0  0
    5.0917   -0.1500    0.0000 C   0  0  0  0  0  0           0  0  0
    5.8042   -0.5542    0.0000 C   0  0  0  0  0  0           0  0  0
    4.2667   -5.5750    0.0000 C   0  0  0  0  0  0           0  0  0
    7.9417   -1.7750    0.0000 O   0  0  0  0  0  0           0  0  0
    3.7792   -4.9125    0.0000 C   0  0  0  0  0  0           0  0  0
    5.0917   -5.4875    0.0000 C   0  0  0  0  0  0           0  0  0
    3.9292   -6.3292    0.0000 Cl  0  0  0  0  0  0           0  0  0
    4.3667   -0.5625    0.0000 C   0  0  0  0  0  0           0  0  0
    3.7042   -0.2125    0.0000 O   0  0  0  0  0  0           0  0  0
    2.2792   -1.8750    0.0000 C   0  0  0  0  0  0           0  0  0
    6.5167   -1.7875    0.0000 C   0  0  0  0  0  0           0  0  0
    5.8042   -1.3750    0.0000 C   0  0  0  0  0  0           0  0  0
    2.2792   -0.2167    0.0000 C   0  0  0  0  0  0           0  0  0
    1.5667   -1.4625    0.0000 C   0  0  0  0  0  0           0  0  0
    1.5667   -0.6292    0.0000 C   0  0  0  0  0  0           0  0  0
  2  1  1  0     0  0
  3  4  1  0     0  0
  4  2  1  0     0  0
  5  2  1  0     0  0
  3  6  1  1     0  0
  7  1  1  0     0  0
  8  5  1  0     0  0
  9  1  2  0     0  0
 10  1  2  0     0  0
 11 26  1  0     0  0
 12  6  1  0     0  0
 13 11  2  0     0  0
 14  7  2  0     0  0
 15  7  1  0     0  0
 16 23  1  0     0  0
 17 16  2  0     0  0
 18 21  1  0     0  0
 19 11  1  0     0  0
 20 14  1  0     0  0
 21 15  2  0     0  0
 22 18  1  0     0  0
  8 23  1  6     0  0
 24 12  1  0     0  0
 25  6  2  0     0  0
 26 27  1  0     0  0
 27 17  1  0     0  0
 28 12  2  0     0  0
 29 25  1  0     0  0
 30 29  2  0     0  0
 20 18  2  0     0  0
  8  3  1  0     0  0
 28 30  1  0     0  0
M  END