
  SciTegic02011310432D

 35 38  0  0  0  0            999 V2000
    2.0823    0.8247    0.0000 C   0  0
    2.4988    0.1084    0.0000 C   0  0  1  0  0  0
    2.9109    0.8272    0.0000 C   0  0
   -5.3533   -0.3039    0.0000 C   0  0
   -5.3544   -1.1309    0.0000 C   0  0
   -4.6399   -1.5436    0.0000 C   0  0
   -3.9239   -1.1304    0.0000 C   0  0
   -3.9268   -0.3003    0.0000 C   0  0
   -4.6417    0.1087    0.0000 C   0  0
   -3.2141    0.1147    0.0000 O   0  0
   -2.4984   -0.2949    0.0000 C   0  0
   -2.4934   -1.1213    0.0000 C   0  0
   -1.7817   -1.5308    0.0000 C   0  0
   -1.0667   -1.1193    0.0000 N   0  0
   -1.0678   -0.2937    0.0000 C   0  0
   -1.7840    0.1203    0.0000 C   0  0
   -0.3525   -1.5316    0.0000 C   0  0
    0.3615   -1.1193    0.0000 C   0  0
    1.0705   -1.5354    0.0000 C   0  0
    1.7826   -1.1266    0.0000 C   0  0
    1.7869   -0.3016    0.0000 N   0  0
    1.0728    0.1130    0.0000 C   0  0
    0.3546   -0.2976    0.0000 C   0  0
    3.2152   -0.3071    0.0000 C   0  0
    3.9309    0.1026    0.0000 C   0  0
    4.6418   -0.3141    0.0000 C   0  0
    5.3571    0.0949    0.0000 C   0  0
    5.3607    0.9204    0.0000 C   0  0
    4.6430    1.3353    0.0000 C   0  0
    3.9308    0.9240    0.0000 C   0  0
   -6.0758   -1.5426    0.0000 Cl  0  0
   -4.6442    0.9333    0.0000 C   0  0
    6.0758    1.3309    0.0000 F   0  0
    2.4919    1.5436    0.0000 O   0  0
    1.2511    0.8222    0.0000 O   0  0
  2  1  1  6
  3  2  1  0
  4  5  2  0
  5  6  1  0
  6  7  2  0
  7  8  1  0
  8  9  2  0
  9  4  1  0
  8 10  1  0
 10 11  1  0
 11 12  1  0
 11 16  1  0
 12 13  1  0
 13 14  1  0
 14 15  1  0
 15 16  1  0
 14 17  1  0
 17 18  1  0
 18 19  1  0
 18 23  1  0
 19 20  1  0
 20 21  1  0
 21 22  1  0
 22 23  1  0
 21  2  1  0
  2 24  1  0
 24 25  1  0
 25 26  2  0
 26 27  1  0
 27 28  2  0
 28 29  1  0
 29 30  2  0
 30 25  1  0
  5 31  1  0
  9 32  1  0
 28 33  1  0
  1 34  1  0
  1 35  2  0
M  END