
  SciTegic10311316212D

 31 35  0  0  0  0            999 V2000
   18.7692   -6.1206    0.0000 C   0  0
   18.7681   -6.9402    0.0000 C   0  0
   19.4761   -7.3491    0.0000 C   0  0
   19.4743   -5.7118    0.0000 C   0  0
   20.1829   -6.1170    0.0000 C   0  0
   20.1832   -6.9357    0.0000 C   0  0
   20.9619   -7.1884    0.0000 S   0  0
   21.4429   -6.5259    0.0000 C   0  0
   20.9614   -5.8639    0.0000 C   0  0
   18.0646   -7.3473    0.0000 N   0  0
   17.3183   -7.0144    0.0000 C   0  0
   16.7710   -7.6213    0.0000 N   0  0
   17.1791   -8.3293    0.0000 N   0  0
   17.9785   -8.1600    0.0000 C   0  0
   18.5841   -8.7040    0.0000 C   0  0
   18.4121   -9.5040    0.0000 C   0  0
   19.0182  -10.0510    0.0000 C   0  0
   19.7966   -9.7992    0.0000 C   0  0
   19.9654   -8.9953    0.0000 C   0  0
   19.3579   -8.4518    0.0000 C   0  0
   17.1490   -6.2149    0.0000 S   0  0
   22.2580   -6.5235    0.0000 C   0  0
   22.6669   -7.2311    0.0000 O   0  0
   22.6664   -5.8157    0.0000 O   0  0
   20.7418   -8.7406    0.0000 O   0  0
   21.3507   -9.2857    0.0000 C   0  0
   21.1803  -10.0824    0.0000 C   0  0
   21.7883  -10.6273    0.0000 C   0  0
   22.5658  -10.3727    0.0000 C   0  0
   22.7317   -9.5682    0.0000 C   0  0
   22.1224   -9.0269    0.0000 C   0  0
  1  2  2  0
  2  3  1  0
  3  6  2  0
  5  4  2  0
  4  1  1  0
  5  6  1  0
  6  7  1  0
  7  8  1  0
  8  9  2  0
  9  5  1  0
 10 11  1  0
 11 12  2  0
 12 13  1  0
 13 14  2  0
 14 10  1  0
  2 10  1  0
 15 16  2  0
 16 17  1  0
 17 18  2  0
 18 19  1  0
 19 20  2  0
 20 15  1  0
 14 15  1  0
 11 21  1  0
 22 23  1  0
 22 24  2  0
  8 22  1  0
 19 25  1  0
 25 26  1  0
 26 27  2  0
 27 28  1  0
 28 29  2  0
 29 30  1  0
 30 31  2  0
 31 26  1  0
M  END