
          11280715382D 1   1.00000     0.00000     0

 35 37  0     1  0            999 V2000
    2.8375   -7.8417    0.0000 N   0  0  3  0  0  0           0  0  0
    3.6375   -7.7042    0.0000 C   0  0  0  0  0  0           0  0  0
    2.3375   -6.5250    0.0000 C   0  0  0  0  0  0           0  0  0
    4.0167   -6.9500    0.0000 C   0  0  1  0  0  0           0  0  0
    2.3417   -7.3542    0.0000 C   0  0  0  0  0  0           0  0  0
    3.6542   -6.1750    0.0000 C   0  0  1  0  0  0           0  0  0
    1.6125   -5.2792    0.0000 C   0  0  3  0  0  0           0  0  0
    1.6167   -6.1125    0.0000 C   0  0  0  0  0  0           0  0  0
    2.8542   -6.0250    0.0000 C   0  0  0  0  0  0           0  0  0
    2.5875   -8.6292    0.0000 C   0  0  0  0  0  0           0  0  0
    4.8417   -6.9667    0.0000 O   0  0  0  0  0  0           0  0  0
    1.8417  -10.9875    0.0000 C   0  0  0  0  0  0           0  0  0
    1.6292  -11.7792    0.0000 C   0  0  0  0  0  0           0  0  0
    5.2417   -7.6875    0.0000 C   0  0  0  0  0  0           0  0  0
    4.1542   -5.5167    0.0000 C   0  0  0  0  0  0           0  0  0
    4.1250   -8.3667    0.0000 O   0  0  0  0  0  0           0  0  0
    4.8250   -8.3917    0.0000 O   0  0  0  0  0  0           0  0  0
    2.2792   -4.7375    0.0000 F   0  0  0  0  0  0           0  0  0
    0.9417   -4.7417    0.0000 F   0  0  0  0  0  0           0  0  0
    1.6125   -4.5292    0.0000 F   0  0  0  0  0  0           0  0  0
    3.8417   -4.7667    0.0000 C   0  0  0  0  0  0           0  0  0
    4.9750   -5.6375    0.0000 C   0  0  0  0  0  0           0  0  0
    1.7792   -8.8042    0.0000 C   0  0  0  0  0  0           0  0  0
    1.5292   -9.5917    0.0000 N   0  0  3  0  0  0           0  0  0
    5.1667   -4.2167    0.0000 C   0  0  0  0  0  0           0  0  0
    1.6167   -7.7667    0.0000 C   0  0  0  0  0  0           0  0  0
    5.4792   -4.9792    0.0000 C   0  0  0  0  0  0           0  0  0
    4.3417   -4.1125    0.0000 C   0  0  0  0  0  0           0  0  0
    2.0917  -10.2000    0.0000 C   0  0  0  0  0  0           0  0  0
    0.9042   -6.5250    0.0000 C   0  0  0  0  0  0           0  0  0
    5.6667   -3.5667    0.0000 O   0  0  0  0  0  0           0  0  0
    0.9042   -7.3542    0.0000 C   0  0  0  0  0  0           0  0  0
    6.0667   -7.7000    0.0000 C   0  0  0  0  0  0           0  0  0
    0.7292   -9.7667    0.0000 C   0  0  0  0  0  0           0  0  0
    6.4875   -3.6750    0.0000 C   0  0  0  0  0  0           0  0  0
  2  1  1  0     0  0
  3  5  1  0     0  0
  4  2  1  0     0  0
  5  1  1  0     0  0
  6  4  1  0     0  0
  7  8  1  0     0  0
  8  3  2  0     0  0
  9  3  1  0     0  0
 10  1  1  0     0  0
  4 11  1  1     0  0
 12 29  1  0     0  0
 13 12  3  0     0  0
 14 11  1  0     0  0
  6 15  1  1     0  0
 16  2  2  0     0  0
 17 14  2  0     0  0
 18  7  1  0     0  0
 19  7  1  0     0  0
 20  7  1  0     0  0
 21 15  1  0     0  0
 22 15  2  0     0  0
 23 10  1  0     0  0
 24 23  1  0     0  0
 25 27  2  0     0  0
 26  5  2  0     0  0
 27 22  1  0     0  0
 28 21  2  0     0  0
 29 24  1  0     0  0
 30 32  2  0     0  0
 31 25  1  0     0  0
 32 26  1  0     0  0
 33 14  1  0     0  0
 34 24  1  0     0  0
 35 31  1  0     0  0
  6  9  1  0     0  0
  8 30  1  0     0  0
 25 28  1  0     0  0
M  END