
          11280715012D 1   1.00000     0.00000     0

 28 31  0     0  0            999 V2000
   -2.3375   -5.0167    0.0000 N   0  0  3  0  0  0           0  0  0
   -1.5500   -4.7625    0.0000 C   0  0  0  0  0  0           0  0  0
   -1.5500   -6.0917    0.0000 N   0  0  0  0  0  0           0  0  0
   -1.0708   -5.4250    0.0000 N   0  0  3  0  0  0           0  0  0
   -2.3333   -5.8417    0.0000 C   0  0  0  0  0  0           0  0  0
    3.5167   -8.1542    0.0000 C   0  0  0  0  0  0           0  0  0
    1.4167   -6.8417    0.0000 N   0  0  3  0  0  0           0  0  0
   -1.2958   -3.9750    0.0000 O   0  0  0  0  0  0           0  0  0
    3.4917   -8.9792    0.0000 C   0  0  0  0  0  0           0  0  0
    2.8167   -7.7167    0.0000 C   0  0  3  0  0  0           0  0  0
    4.2417   -7.7667    0.0000 O   0  0  0  0  0  0           0  0  0
   -3.0458   -4.6167    0.0000 C   0  0  0  0  0  0           0  0  0
    4.1875   -9.4125    0.0000 C   0  0  0  0  0  0           0  0  0
    2.7625   -9.3667    0.0000 C   0  0  0  0  0  0           0  0  0
    2.0875   -8.1125    0.0000 C   0  0  0  0  0  0           0  0  0
    2.8417   -6.9000    0.0000 C   0  0  0  0  0  0           0  0  0
   -0.2458   -5.4167    0.0000 C   0  0  0  0  0  0           0  0  0
    2.1417   -6.4542    0.0000 C   0  0  0  0  0  0           0  0  0
    1.3875   -7.6667    0.0000 C   0  0  0  0  0  0           0  0  0
    0.1750   -6.1292    0.0000 C   0  0  0  0  0  0           0  0  0
    3.4292  -10.6250    0.0000 C   0  0  0  0  0  0           0  0  0
   -3.0375   -6.2542    0.0000 C   0  0  0  0  0  0           0  0  0
    4.1667  -10.2292    0.0000 C   0  0  0  0  0  0           0  0  0
    2.7292  -10.1875    0.0000 C   0  0  0  0  0  0           0  0  0
    1.0000   -6.1292    0.0000 C   0  0  0  0  0  0           0  0  0
    3.4042  -11.4500    0.0000 F   0  0  0  0  0  0           0  0  0
   -3.7583   -5.0292    0.0000 C   0  0  0  0  0  0           0  0  0
   -3.7500   -5.8500    0.0000 C   0  0  0  0  0  0           0  0  0
  2  1  1  0     0  0
  3  5  2  0     0  0
  4  2  1  0     0  0
  5  1  1  0     0  0
  6 10  1  0     0  0
  7 25  1  0     0  0
  8  2  2  0     0  0
  9  6  1  0     0  0
 10 15  1  0     0  0
 11  6  2  0     0  0
 12  1  1  0     0  0
 13  9  1  0     0  0
 14  9  2  0     0  0
 15 19  1  0     0  0
 16 18  1  0     0  0
 17  4  1  0     0  0
 18  7  1  0     0  0
 19  7  1  0     0  0
 20 17  1  0     0  0
 21 24  2  0     0  0
 22  5  1  0     0  0
 23 13  2  0     0  0
 24 14  1  0     0  0
 25 20  1  0     0  0
 26 21  1  0     0  0
 27 12  1  0     0  0
 28 27  1  0     0  0
  3  4  1  0     0  0
 28 22  1  0     0  0
 16 10  1  0     0  0
 23 21  1  0     0  0
M  END