
          11280715362D 1   1.00000     0.00000     0

 60 65  0     1  0            999 V2000
   -1.8458   -1.0250    0.0000 C   0  0  3  0  0  0           0  0  0
   -1.0208   -0.8875    0.0000 C   0  0  3  0  0  0           0  0  0
   -1.8333   -1.9542    0.0000 C   0  0  3  0  0  0           0  0  0
    4.4917    2.3958    0.0000 N   0  0  0  0  0  0           0  0  0
   -1.2833   -1.4125    0.0000 O   0  0  0  0  0  0           0  0  0
    3.7292    2.7083    0.0000 C   0  0  0  0  0  0           0  0  0
    3.2167    4.0292    0.0000 C   0  0  0  0  0  0           0  0  0
    5.3042    0.9958    0.0000 C   0  0  0  0  0  0           0  0  0
   -2.2708   -2.5167    0.0000 C   0  0  3  0  0  0           0  0  0
    2.1917    2.2250    0.0000 N   0  0  0  0  0  0           0  0  0
   -0.3083   -0.4792    0.0000 N   0  0  0  0  0  0           0  0  0
   -1.4583   -2.3792    0.0000 C   0  0  3  0  0  0           0  0  0
    5.1792    0.1750    0.0000 N   0  0  0  0  0  0           0  0  0
    2.9042    2.6458    0.0000 C   0  0  1  0  0  0           0  0  0
    5.0542    1.7875    0.0000 C   0  0  1  0  0  0           0  0  0
    2.4042   -0.6750    0.0000 C   0  0  0  0  0  0           0  0  0
    1.7167    1.5375    0.0000 C   0  0  0  0  0  0           0  0  0
    3.7792    5.2417    0.0000 N   0  0  0  0  0  0           0  0  0
    3.1792   -0.9750    0.0000 N   0  0  0  0  0  0           0  0  0
    3.0667    4.8417    0.0000 C   0  0  0  0  0  0           0  0  0
   -2.4708   -0.4917    0.0000 N   0  0  0  0  0  0           0  0  0
    0.4042   -0.0667    0.0000 C   0  0  0  0  0  0           0  0  0
    1.8417   -0.0750    0.0000 C   0  0  2  0  0  0           0  0  0
    2.6542    3.4250    0.0000 C   0  0  0  0  0  0           0  0  0
    4.0417    3.9333    0.0000 C   0  0  0  0  0  0           0  0  0
   -3.2458   -0.7750    0.0000 C   0  0  0  0  0  0           0  0  0
    4.3917    4.6792    0.0000 C   0  0  0  0  0  0           0  0  0
    1.5917    0.7208    0.0000 C   0  0  0  0  0  0           0  0  0
    1.1167   -0.4875    0.0000 C   0  0  0  0  0  0           0  0  0
    4.7167   -0.5042    0.0000 C   0  0  1  0  0  0           0  0  0
    3.8042    3.4333    0.0000 O   0  0  0  0  0  0           0  0  0
    6.1292    1.0625    0.0000 O   0  0  0  0  0  0           0  0  0
    5.7792    2.2083    0.0000 C   0  0  0  0  0  0           0  0  0
    1.9417   -1.3625    0.0000 O   0  0  0  0  0  0           0  0  0
    0.9542    1.8375    0.0000 O   0  0  0  0  0  0           0  0  0
    0.4167    0.7583    0.0000 O   0  0  0  0  0  0           0  0  0
   -3.8708   -0.2375    0.0000 O   0  0  0  0  0  0           0  0  0
    4.0042   -0.9167    0.0000 C   0  0  0  0  0  0           0  0  0
   -2.5458   -1.5417    0.0000 O   0  0  0  0  0  0           0  0  0
   -2.9833   -2.9375    0.0000 O   0  0  0  0  0  0           0  0  0
    5.2792   -1.1125    0.0000 C   0  0  0  0  0  0           0  0  0
    6.4917    1.7875    0.0000 C   0  0  0  0  0  0           0  0  0
   -0.8333   -2.9167    0.0000 C   0  0  0  0  0  0           0  0  0
    5.0292   -1.9000    0.0000 C   0  0  0  0  0  0           0  0  0
   -0.9833   -3.7250    0.0000 O   0  0  0  0  0  0           0  0  0
    4.5167    3.2583    0.0000 C   0  0  0  0  0  0           0  0  0
   -3.5333   -1.4125    0.0000 C   0  0  0  0  0  0           0  0  0
    5.2167    4.7542    0.0000 C   0  0  0  0  0  0           0  0  0
    7.2042    2.2083    0.0000 C   0  0  0  0  0  0           0  0  0
    6.4917    0.9625    0.0000 C   0  0  0  0  0  0           0  0  0
    5.5917   -2.5042    0.0000 C   0  0  0  0  0  0           0  0  0
    4.2292   -2.0875    0.0000 C   0  0  0  0  0  0           0  0  0
    5.3417    3.3333    0.0000 C   0  0  0  0  0  0           0  0  0
    5.6917    4.0792    0.0000 C   0  0  0  0  0  0           0  0  0
    3.9792   -2.8750    0.0000 C   0  0  0  0  0  0           0  0  0
    7.9292    1.7875    0.0000 C   0  0  0  0  0  0           0  0  0
    7.2042    0.5458    0.0000 C   0  0  0  0  0  0           0  0  0
    5.3542   -3.3000    0.0000 C   0  0  0  0  0  0           0  0  0
    7.9292    0.9625    0.0000 C   0  0  0  0  0  0           0  0  0
    4.5417   -3.4792    0.0000 C   0  0  0  0  0  0           0  0  0
  2  1  1  0     0  0
  3  1  1  0     0  0
  4  6  1  0     0  0
  5  2  1  0     0  0
  6 14  1  0     0  0
  7 24  1  0     0  0
  8 13  1  0     0  0
  9  3  1  0     0  0
 10 17  1  0     0  0
 11  2  1  0     0  0
 12  9  1  0     0  0
 13 30  1  0     0  0
 14 10  1  0     0  0
 15  4  1  0     0  0
 16 23  1  0     0  0
 17 28  1  0     0  0
 18 20  1  0     0  0
 19 16  1  0     0  0
 20  7  2  0     0  0
 21  1  1  0     0  0
 22 11  1  0     0  0
 23 29  1  1     0  0
 14 24  1  1     0  0
 25  7  1  0     0  0
 26 21  1  0     0  0
 27 25  2  0     0  0
 28 23  1  0     0  0
 29 22  1  0     0  0
 30 38  1  0     0  0
 31  6  2  0     0  0
 32  8  2  0     0  0
 15 33  1  6     0  0
 34 16  2  0     0  0
 35 17  2  0     0  0
 36 22  2  0     0  0
 37 26  2  0     0  0
 38 19  1  0     0  0
 39  3  1  0     0  0
 40  9  1  0     0  0
 30 41  1  6     0  0
 42 33  1  0     0  0
 43 12  1  0     0  0
 44 41  1  0     0  0
 45 43  1  0     0  0
 46 25  1  0     0  0
 47 26  1  0     0  0
 48 27  1  0     0  0
 49 42  1  0     0  0
 50 42  2  0     0  0
 51 44  2  0     0  0
 52 44  1  0     0  0
 53 46  2  0     0  0
 54 53  1  0     0  0
 55 52  2  0     0  0
 56 49  2  0     0  0
 57 50  1  0     0  0
 58 51  1  0     0  0
 59 57  2  0     0  0
 60 55  1  0     0  0
 12  5  1  0     0  0
 15  8  1  0     0  0
 18 27  1  0     0  0
 60 58  2  0     0  0
 54 48  2  0     0  0
 59 56  1  0     0  0
M  END