
  SciTegic01061111512D

 17 18  0  0  0  0            999 V2000
   -3.7725    2.0687    0.0000 C   0  0  2  0  0  0
   -3.7725    1.2437    0.0000 C   0  0  1  0  0  0
   -3.0640    0.8374    0.0000 C   0  0  1  0  0  0
   -2.3515    1.2437    0.0000 C   0  0  2  0  0  0
   -2.3515    2.0687    0.0000 C   0  0  1  0  0  0
   -3.0640    2.4873    0.0000 O   0  0
   -1.6353    2.4811    0.0000 S   0  0
   -0.9215    2.0645    0.0000 C   0  0
   -1.6371    0.8323    0.0000 O   0  0
   -3.0640    0.0124    0.0000 N   0  0
   -3.7248   -0.4718    0.0000 N   0  0
   -3.4711   -1.2566    0.0000 N   0  0
   -2.6461   -1.2566    0.0000 C   0  0
   -2.3926   -0.4718    0.0000 C   0  0
   -4.4869    0.8323    0.0000 O   0  0
   -4.4886    2.4811    0.0000 C   0  0
   -4.4910    3.3061    0.0000 O   0  0
  1  6  1  0
  4  9  1  6
  2  3  1  0
  3 10  1  1
 10 11  1  0
  3  4  1  0
  4  5  1  0
  5  6  1  0
 11 12  2  0
 12 13  1  0
 13 14  2  0
 14 10  1  0
  5  7  1  1
  2 15  1  1
  1  2  1  0
  1 16  1  1
  7  8  1  0
 16 17  1  0
M  END