
  CDK    9/16/09,10:4

 27 29  0  0  0  0  0  0  0  0999 V2000
    2.7833  -18.0500    0.0000 N   0  0  0  0  0  0  0  0  0  0  0  0
   -1.5000  -16.4042    0.0000 C   0  0  0  0  0  0  0  0  0  0  0  0
   -0.7855  -15.9917    0.0000 N   0  0  0  0  0  0  0  0  0  0  0  0
   -2.2145  -15.9917    0.0000 N   0  0  0  0  0  0  0  0  0  0  0  0
   -1.5000  -17.2292    0.0000 S   0  0  0  0  0  0  0  0  0  0  0  0
   -2.9289  -16.4042    0.0000 C   0  0  0  0  0  0  0  0  0  0  0  0
   -3.6428  -15.9885    0.0000 C   0  0  0  0  0  0  0  0  0  0  0  0
   -4.3568  -16.4003    0.0000 C   0  0  0  0  0  0  0  0  0  0  0  0
   -4.3573  -17.2262    0.0000 C   0  0  0  0  0  0  0  0  0  0  0  0
   -3.6378  -17.6386    0.0000 C   0  0  0  0  0  0  0  0  0  0  0  0
   -2.9267  -17.2244    0.0000 C   0  0  0  0  0  0  0  0  0  0  0  0
   -0.0711  -16.4042    0.0000 C   0  0  0  0  0  0  0  0  0  0  0  0
   -0.0736  -17.2302    0.0000 C   0  0  0  0  0  0  0  0  0  0  0  0
    0.6400  -17.6427    0.0000 C   0  0  0  0  0  0  0  0  0  0  0  0
    0.6386  -15.9922    0.0000 C   0  0  0  0  0  0  0  0  0  0  0  0
    1.3528  -16.4008    0.0000 C   0  0  0  0  0  0  0  0  0  0  0  0
    1.3565  -17.2286    0.0000 C   0  0  0  0  0  0  0  0  0  0  0  0
    2.0719  -17.6394    0.0000 S   0  0  0  0  0  0  0  0  0  0  0  0
    2.4835  -16.9244    0.0000 O   0  0  0  0  0  0  0  0  0  0  0  0
    1.6635  -18.3562    0.0000 O   0  0  0  0  0  0  0  0  0  0  0  0
    2.7834  -18.8750    0.0000 C   0  0  0  0  0  0  0  0  0  0  0  0
    2.1189  -19.3636    0.0000 N   0  0  0  0  0  0  0  0  0  0  0  0
    2.3739  -20.1482    0.0000 O   0  0  0  0  0  0  0  0  0  0  0  0
    3.1990  -20.1481    0.0000 C   0  0  0  0  0  0  0  0  0  0  0  0
    3.4537  -19.3634    0.0000 C   0  0  0  0  0  0  0  0  0  0  0  0
    3.6841  -20.8154    0.0000 C   0  0  0  0  0  0  0  0  0  0  0  0
   -3.6349  -18.4635    0.0000 Br  0  0  0  0  0  0  0  0  0  0  0  0
 13 14  1  0  0  0  0 
 14 17  2  0  0  0  0 
  7  8  1  0  0  0  0 
 16 15  2  0  0  0  0 
 15 12  1  0  0  0  0 
 16 17  1  0  0  0  0 
  2  5  2  0  0  0  0 
  8  9  2  0  0  0  0 
 17 18  1  0  0  0  0 
 18  1  1  0  0  0  0 
  9 10  1  0  0  0  0 
 18 19  2  0  0  0  0 
  4  6  1  0  0  0  0 
 18 20  2  0  0  0  0 
 10 11  2  0  0  0  0 
  1 21  1  0  0  0  0 
 21 22  2  0  0  0  0 
 11  6  1  0  0  0  0 
  2  4  1  0  0  0  0 
  3 12  1  0  0  0  0 
  6  7  2  0  0  0  0 
 22 23  1  0  0  0  0 
 23 24  1  0  0  0  0 
 24 25  2  0  0  0  0 
 25 21  1  0  0  0  0 
 12 13  2  0  0  0  0 
 24 26  1  0  0  0  0 
  2  3  1  0  0  0  0 
 10 27  1  0  0  0  0 
M  END