
  SciTegic09261414532D

 43 49  0  0  0  0            999 V2000
   32.7205   -4.1962    0.0000 N   0  0
   31.9348   -4.4035    0.0000 C   0  0
   31.8902   -5.2196    0.0000 N   0  0
   33.1677   -4.8789    0.0000 C   0  0
   32.6525   -5.5087    0.0000 C   0  0
   32.9407   -6.2677    0.0000 C   0  0
   33.7436   -6.3980    0.0000 C   0  0
   34.2577   -5.7633    0.0000 C   0  0
   33.9668   -5.0068    0.0000 C   0  0
   25.4553   -1.6220    0.0000 C   0  0
   25.4542   -2.4415    0.0000 C   0  0
   26.1622   -2.8505    0.0000 C   0  0
   26.1604   -1.2131    0.0000 C   0  0
   26.8691   -1.6184    0.0000 C   0  0
   26.8693   -2.4415    0.0000 C   0  0
   27.6523   -2.6957    0.0000 N   0  0
   28.1360   -2.0296    0.0000 C   0  0
   27.6519   -1.3638    0.0000 N   0  0
   27.9050   -3.4728    0.0000 C   0  0
   28.9500   -2.0279    0.0000 N   0  0
   29.3582   -2.7371    0.0000 C   0  0
   30.1746   -2.7371    0.0000 C   0  0
   30.5838   -2.0287    0.0000 C   0  0
   30.1706   -1.3188    0.0000 C   0  0
   29.3555   -1.3223    0.0000 C   0  0
   31.4010   -2.0274    0.0000 C   0  0
   31.8108   -2.7344    0.0000 O   0  0
   32.6280   -2.7330    0.0000 C   0  0
   27.3584   -4.0803    0.0000 C   0  0
   33.0377   -3.4400    0.0000 C   0  0  2  0  0  0
   31.8084   -1.3190    0.0000 O   0  0
   33.8521   -3.3894    0.0000 C   0  0
   34.3040   -4.0714    0.0000 C   0  0
   35.1161   -4.0213    0.0000 C   0  0
   35.4825   -3.2905    0.0000 N   0  0
   35.0306   -2.6085    0.0000 C   0  0
   34.2123   -2.6573    0.0000 C   0  0
   26.5488   -3.9983    0.0000 C   0  0
   26.2166   -4.7449    0.0000 S   0  0
   26.8241   -5.2916    0.0000 C   0  0
   27.5316   -4.8827    0.0000 C   0  0
   31.3013   -3.8873    0.0000 C   0  0
   30.5375   -4.1778    0.0000 C   0  0
  1  2  1  0
  2  3  2  0
  3  5  1  0
  4  1  1  0
  4  5  2  0
  5  6  1  0
  6  7  2  0
  7  8  1  0
  8  9  2  0
  9  4  1  0
 10 11  2  0
 11 12  1  0
 12 15  2  0
 14 13  2  0
 13 10  1  0
 14 15  1  0
 15 16  1  0
 16 17  1  0
 17 18  2  0
 18 14  1  0
 16 19  1  0
 20 21  1  0
 21 22  1  0
 22 23  1  0
 23 24  1  0
 24 25  1  0
 25 20  1  0
 17 20  1  0
 23 26  1  0
 26 27  1  0
 27 28  1  0
 19 29  1  0
 28 30  1  0
 30  1  1  6
 26 31  2  0
 32 33  1  0
 32 37  1  0
 33 34  1  0
 34 35  1  0
 35 36  1  0
 36 37  1  0
 30 32  1  0
 29 38  2  0
 38 39  1  0
 39 40  1  0
 40 41  2  0
 41 29  1  0
  2 42  1  0
 42 43  1  0
M  END