
  CDK    12/20/10,15:21

 37 41  0  0  0  0  0  0  0  0999 V2000
   18.4111  -16.9166    0.0000 C   0  0  0  0  0  0  0  0  0  0  0  0
   18.4099  -17.7440    0.0000 C   0  0  0  0  0  0  0  0  0  0  0  0
   19.1247  -18.1569    0.0000 C   0  0  0  0  0  0  0  0  0  0  0  0
   19.8412  -17.7435    0.0000 C   0  0  0  0  0  0  0  0  0  0  0  0
   19.8383  -16.9130    0.0000 N   0  0  0  0  0  0  0  0  0  0  0  0
   19.1229  -16.5039    0.0000 C   0  0  0  0  0  0  0  0  0  0  0  0
   17.6951  -18.1559    0.0000 C   0  0  0  0  0  0  0  0  0  0  0  0
   16.9810  -17.7429    0.0000 N   0  0  0  0  0  0  0  0  0  0  0  0
   16.9856  -16.9137    0.0000 C   0  0  0  0  0  0  0  0  0  0  0  0
   16.2756  -16.5007    0.0000 C   0  0  0  0  0  0  0  0  0  0  0  0
   15.5583  -16.9091    0.0000 C   0  0  0  0  0  0  0  0  0  0  0  0
   15.5557  -17.7351    0.0000 C   0  0  0  0  0  0  0  0  0  0  0  0
   16.2703  -18.1526    0.0000 C   0  0  0  0  0  0  0  0  0  0  0  0
   14.8458  -16.4933    0.0000 C   0  0  0  0  0  0  0  0  0  0  0  0
   14.8495  -15.6684    0.0000 O   0  0  0  0  0  0  0  0  0  0  0  0
   14.1294  -16.9026    0.0000 N   0  0  0  0  0  0  0  0  0  0  0  0
   13.4133  -16.4874    0.0000 C   0  0  0  0  0  0  0  0  0  0  0  0
   12.6991  -16.8932    0.0000 C   0  0  0  0  0  0  0  0  0  0  0  0
   12.6911  -17.7185    0.0000 C   0  0  0  0  0  0  0  0  0  0  0  0
   13.4035  -18.1364    0.0000 C   0  0  0  0  0  0  0  0  0  0  0  0
   14.1239  -17.7291    0.0000 C   0  0  0  0  0  0  0  0  0  0  0  0
   11.9732  -18.1250    0.0000 N   0  0  0  0  0  0  0  0  0  0  0  0
   11.2206  -17.7824    0.0000 C   0  0  0  0  0  0  0  0  0  0  0  0
   10.6634  -18.3908    0.0000 N   0  0  0  0  0  0  0  0  0  0  0  0
   11.8783  -18.9439    0.0000 C   0  0  0  0  0  0  0  0  0  0  0  0
   11.0727  -19.1107    0.0000 C   0  0  0  0  0  0  0  0  0  0  0  0
   10.8159  -19.8903    0.0000 C   0  0  0  0  0  0  0  0  0  0  0  0
   11.3636  -20.5038    0.0000 C   0  0  0  0  0  0  0  0  0  0  0  0
   12.1715  -20.3324    0.0000 C   0  0  0  0  0  0  0  0  0  0  0  0
   12.4246  -19.5530    0.0000 C   0  0  0  0  0  0  0  0  0  0  0  0
   11.0558  -16.9740    0.0000 O   0  0  0  0  0  0  0  0  0  0  0  0
    9.8436  -18.2985    0.0000 C   0  0  0  0  0  0  0  0  0  0  0  0
    9.5137  -17.5423    0.0000 C   0  0  0  0  0  0  0  0  0  0  0  0
    8.6939  -17.4499    0.0000 C   0  0  0  0  0  0  0  0  0  0  0  0
    8.3640  -16.6937    0.0000 O   0  0  0  0  0  0  0  0  0  0  0  0
    7.5442  -16.6014    0.0000 C   0  0  0  0  0  0  0  0  0  0  0  0
    7.2143  -15.8452    0.0000 C   0  0  0  0  0  0  0  0  0  0  0  0
  4  5  1  0  0  0  0 
  2  3  1  0  0  0  0 
 16 21  1  0  0  0  0 
 17 18  1  0  0  0  0 
 18 19  1  0  0  0  0 
 19 20  1  0  0  0  0 
 20 21  1  0  0  0  0 
  5  6  2  0  0  0  0 
 19 22  1  0  0  0  0 
 22 23  1  0  0  0  0 
  6  1  1  0  0  0  0 
  8 13  1  0  0  0  0 
 23 24  1  0  0  0  0 
 24 26  1  0  0  0  0 
 25 22  1  0  0  0  0 
  9 10  1  0  0  0  0 
 10 11  1  0  0  0  0 
 25 26  2  0  0  0  0 
 11 12  1  0  0  0  0 
 26 27  1  0  0  0  0 
 12 13  1  0  0  0  0 
 27 28  2  0  0  0  0 
  1  2  2  0  0  0  0 
 28 29  1  0  0  0  0 
 11 14  1  0  0  0  0 
 29 30  2  0  0  0  0 
 30 25  1  0  0  0  0 
  2  7  1  0  0  0  0 
 23 31  2  0  0  0  0 
 14 15  2  0  0  0  0 
 24 32  1  0  0  0  0 
  3  4  2  0  0  0  0 
 32 33  1  0  0  0  0 
 14 16  1  0  0  0  0 
 33 34  1  0  0  0  0 
 16 17  1  0  0  0  0 
 34 35  1  0  0  0  0 
  7  8  1  0  0  0  0 
 35 36  1  0  0  0  0 
  8  9  1  0  0  0  0 
 36 37  1  0  0  0  0 
M  END