
          11280715522D 1   1.00000     0.00000     0

 45 49  0     0  0            999 V2000
    5.3027  -21.0791    0.0000 C   0  0  0  0  0  0           0  0  0
    5.3016  -21.9065    0.0000 C   0  0  0  0  0  0           0  0  0
    6.0164  -22.3194    0.0000 C   0  0  0  0  0  0           0  0  0
    6.0146  -20.6664    0.0000 C   0  0  0  0  0  0           0  0  0
    6.7300  -21.0755    0.0000 C   0  0  0  0  0  0           0  0  0
    6.7307  -21.9023    0.0000 C   0  0  0  0  0  0           0  0  0
    7.4460  -22.3133    0.0000 N   0  0  0  0  0  0           0  0  0
    8.1611  -21.8985    0.0000 C   0  0  0  0  0  0           0  0  0
    8.1563  -21.0686    0.0000 C   0  0  0  0  0  0           0  0  0
    7.4404  -20.6613    0.0000 C   0  0  0  0  0  0           0  0  0
    6.0183  -23.1444    0.0000 O   0  0  0  0  0  0           0  0  0
    6.7337  -23.5552    0.0000 C   0  0  0  0  0  0           0  0  0
    6.7356  -24.3802    0.0000 C   0  0  0  0  0  0           0  0  0
    6.0195  -24.7900    0.0000 C   0  0  0  0  0  0           0  0  0
    6.0211  -25.6142    0.0000 C   0  0  0  0  0  0           0  0  0
    6.7371  -26.0259    0.0000 C   0  0  0  0  0  0           0  0  0
    7.4529  -25.6073    0.0000 C   0  0  0  0  0  0           0  0  0
    7.4479  -24.7844    0.0000 C   0  0  0  0  0  0           0  0  0
    5.3055  -24.3768    0.0000 Cl  0  0  0  0  0  0           0  0  0
    8.1595  -24.3671    0.0000 Cl  0  0  0  0  0  0           0  0  0
    8.8771  -22.3083    0.0000 C   0  0  0  0  0  0           0  0  0
    8.1698  -26.0156    0.0000 S   0  0  3  0  0  0           0  0  0
    8.8792  -26.4250    0.0000 N   0  0  0  0  0  0           0  0  0
    8.5177  -25.3936    0.0000 O   0  0  0  0  0  0           0  0  0
    7.7334  -26.7656    0.0000 O   0  0  0  0  0  0           0  0  0
    9.6561  -25.9811    0.0000 C   0  0  3  0  0  0           0  0  0
   10.3042  -25.5917    0.0000 C   0  0  0  0  0  0           0  0  0
    9.9162  -26.5995    0.0000 C   0  0  0  0  0  0           0  0  0
    9.4889  -25.3319    0.0000 C   0  0  0  0  0  0           0  0  0
   10.2951  -24.7667    0.0000 O   0  0  0  0  0  0           0  0  0
   11.0231  -25.9963    0.0000 N   0  0  3  0  0  0           0  0  0
   11.0277  -26.8217    0.0000 C   0  0  0  0  0  0           0  0  0
   11.7425  -27.2263    0.0000 C   0  0  0  0  0  0           0  0  0
   12.4549  -26.8095    0.0000 N   0  0  3  0  0  0           0  0  0
   12.4478  -25.9836    0.0000 C   0  0  0  0  0  0           0  0  0
   11.7284  -25.5745    0.0000 C   0  0  0  0  0  0           0  0  0
   13.1723  -27.2169    0.0000 C   0  0  0  0  0  0           0  0  0
   13.1782  -28.0419    0.0000 O   0  0  0  0  0  0           0  0  0
   13.8838  -26.7993    0.0000 C   0  0  0  0  0  0           0  0  0
   14.6012  -27.2066    0.0000 N   0  0  3  0  0  0           0  0  0
   14.6038  -28.0299    0.0000 C   0  0  0  0  0  0           0  0  0
   15.3171  -28.4372    0.0000 C   0  0  0  0  0  0           0  0  0
   16.0311  -28.0231    0.0000 N   0  0  0  0  0  0           0  0  0
   16.0271  -27.1971    0.0000 C   0  0  0  0  0  0           0  0  0
   15.3092  -26.7853    0.0000 C   0  0  0  0  0  0           0  0  0
 10  5  1  0     0  0
 17 22  1  0     0  0
 22 23  1  0     0  0
  3 11  1  0     0  0
 22 24  2  0     0  0
  2  3  1  0     0  0
 22 25  2  0     0  0
 11 12  1  0     0  0
 23 26  1  0     0  0
  5  6  1  0     0  0
 26 27  1  0     0  0
 12 13  1  0     0  0
 26 28  1  0     0  0
  3  6  2  0     0  0
 26 29  1  0     0  0
 13 14  2  0     0  0
 27 30  2  0     0  0
  6  7  1  0     0  0
 27 31  1  0     0  0
 31 32  1  0     0  0
 14 15  1  0     0  0
  1  2  2  0     0  0
 15 16  2  0     0  0
  7  8  2  0     0  0
 16 17  1  0     0  0
 31 36  1  0     0  0
 32 33  1  0     0  0
 33 34  1  0     0  0
 34 35  1  0     0  0
 35 36  1  0     0  0
  5  4  2  0     0  0
 34 37  1  0     0  0
 17 18  2  0     0  0
 37 38  2  0     0  0
 18 13  1  0     0  0
 37 39  1  0     0  0
  8  9  1  0     0  0
 39 40  1  0     0  0
 40 41  1  0     0  0
 14 19  1  0     0  0
  4  1  1  0     0  0
 18 20  1  0     0  0
  9 10  2  0     0  0
  8 21  1  0     0  0
 40 45  1  0     0  0
 41 42  1  0     0  0
 42 43  1  0     0  0
 43 44  1  0     0  0
 44 45  1  0     0  0
M  END