
  SciTegic12171512562D

101106  0  0  0  0            999 V2000
   15.2810    9.0322    0.0000 O   0  0
   14.7409    9.6558    0.0000 S   0  0
   14.1172    9.1157    0.0000 O   0  0
    8.7999   16.5159    0.0000 O   0  0
    9.3400   15.8922    0.0000 S   0  0
    9.9636   16.4323    0.0000 O   0  0
    2.3188   15.2686    0.0000 C   0  0  1  0  0  0
    7.4497   14.8009    0.0000 C   0  0  1  0  0  0
    2.8589   16.8277    0.0000 O   0  0
    8.7999   12.1504    0.0000 C   0  0
    0.1585   17.7632    0.0000 C   0  0
   -6.1411   13.2204    0.0000 S   0  0
   -1.4618   15.2686    0.0000 O   0  0
   -4.9724   13.8654    0.0000 C   0  0
    1.7787   15.8922    0.0000 C   0  0
   -0.9217   16.8277    0.0000 C   0  0
   15.2810   11.2149    0.0000 C   0  0  2  0  0  0
    0.9686   15.7363    0.0000 N   0  0
   13.6607   15.2686    0.0000 S   0  0
    3.1289   15.4245    0.0000 C   0  0  2  0  0  0
    9.8801   15.2686    0.0000 O   0  0
    4.2091   16.3600    0.0000 C   0  0  1  0  0  0
    4.4792   17.1395    0.0000 O   0  0
    3.3990   16.2041    0.0000 C   0  0  1  0  0  0
    7.9897   11.9945    0.0000 O   0  0
    9.8801   13.0859    0.0000 C   0  0  1  0  0  0
    6.9096   15.4245    0.0000 C   0  0  1  0  0  0
   -3.0821   14.9568    0.0000 C   0  0
   -6.2970   14.0305    0.0000 C   0  0
    7.7197   13.3977    0.0000 O   0  0
    5.5899   11.9527    0.0000 O   0  0
   13.9307   11.6827    0.0000 C   0  0  1  0  0  0
    6.0994   10.9031    0.0000 O   0  0
   14.7409   14.0213    0.0000 O   0  0
   -0.6517   17.6073    0.0000 C   0  0
   16.3611   12.1504    0.0000 O   0  0
   -3.8922   14.8009    0.0000 C   0  0
   -2.8120   15.7363    0.0000 C   0  0
    4.7492   15.7363    0.0000 C   0  0
   12.5805   12.1504    0.0000 C   0  0  2  0  0  0
   -1.7319   16.6718    0.0000 N   0  0
    5.8294   16.6718    0.0000 O   0  0
   11.2303   12.6181    0.0000 C   0  0  1  0  0  0
    0.4285   16.3600    0.0000 C   0  0
   10.9602   14.0213    0.0000 O   0  0
   -5.3224   13.1183    0.0000 S   0  0
    6.6395   12.4622    0.0000 O   0  0
    8.5298   13.5536    0.0000 O   0  0
   15.5510   11.9945    0.0000 C   0  0  2  0  0  0
    7.1796   16.2041    0.0000 N   0  0
   12.8811   15.5386    0.0000 O   0  0
   12.3105   13.5536    0.0000 C   0  0  2  0  0  0
   -4.1623   14.0213    0.0000 C   0  0
    9.6100   14.4890    0.0000 C   0  0  1  0  0  0
    2.0488   14.4890    0.0000 O   0  0
    3.6690   14.8009    0.0000 O   0  0
    7.1490   11.4126    0.0000 O   0  0
    8.2598   14.9568    0.0000 O   0  0
   15.2810   13.3977    0.0000 C   0  0
   14.2008   10.2795    0.0000 O   0  0
   10.9602   11.8386    0.0000 H   0  0
   13.1206   11.5267    0.0000 O   0  0
   13.3906   14.4890    0.0000 O   0  0
   12.0404   10.5913    0.0000 C   0  0
    6.3695   11.6827    0.0000 S   0  0
   16.0911   13.5536    0.0000 O   0  0
    8.7999   14.3331    0.0000 C   0  0  2  0  0  0
   11.5003   11.2149    0.0000 N   0  0
    9.0699   12.9299    0.0000 C   0  0  2  0  0  0
   15.8210   10.5913    0.0000 O   0  0
    0.6985   17.1395    0.0000 C   0  0
   13.6607   13.0859    0.0000 O   0  0
   -5.5747   14.4292    0.0000 C   0  0
    9.3400   11.5267    0.0000 O   0  0
    6.0994   13.0859    0.0000 C   0  0
   -2.0019   15.8922    0.0000 C   0  0
   15.0109   12.6181    0.0000 C   0  0  1  0  0  0
    5.5593   15.8922    0.0000 O   0  0
    6.0994   15.2686    0.0000 C   0  0  2  0  0  0
   13.3906   12.3063    0.0000 H   0  0
   14.4708   11.0590    0.0000 C   0  0  2  0  0  0
    6.6395   16.8277    0.0000 C   0  0
   -0.3816   16.2041    0.0000 C   0  0
   10.4201   12.4622    0.0000 O   0  0
   12.8506   10.7472    0.0000 O   0  0
    7.9897   14.1772    0.0000 H   0  0
   13.9307   16.0481    0.0000 O   0  0
    6.9096   17.6073    0.0000 C   0  0
   12.5805   14.3331    0.0000 C   0  0
    7.1796   14.0213    0.0000 C   0  0  1  0  0  0
   14.2008   12.4622    0.0000 O   0  0
    6.3695   13.8654    0.0000 C   0  0  2  0  0  0
   14.4402   14.9986    0.0000 O   0  0
   11.7704    9.8117    0.0000 C   0  0
   11.7704   11.9945    0.0000 C   0  0  2  0  0  0
   10.1501   13.8654    0.0000 C   0  0  2  0  0  0
   12.8506   12.9299    0.0000 C   0  0  2  0  0  0
    5.8294   14.4890    0.0000 O   0  0
   11.5003   13.3977    0.0000 O   0  0
    8.7163   15.3521    0.0000 O   0  0
   15.3645   10.1959    0.0000 O   0  0
  2  1  2  0
  3  2  2  0
  5  4  2  0
  6  5  2  0
 83 16  2  0
 77 59  1  6
 46 12  1  0
 76 38  1  0
 39 78  1  0
 32 80  1  1
 48 67  1  0
 47 65  1  0
 44 83  1  0
 96 45  1  1
 81 17  1  0
 20 56  1  6
 37 53  1  0
 67 86  1  6
 77 91  1  0
 90 30  1  1
 65 31  2  0
 12 29  1  0
 68 64  1  0
 82 42  2  0
 15  7  1  0
 20 24  1  0
 22 23  1  6
 53 14  1  0
 43 84  1  0
 71 44  2  0
 24 22  1  0
 49 36  1  1
 26 84  1  6
 81 60  1  1
 10 74  2  0
 40 62  1  6
 97 72  1  6
 79 78  1  1
 67 58  1  1
 14 46  1  0
  7 55  1  1
 59 66  2  0
 89 63  1  0
 28 37  1  0
 96 26  1  0
 97 52  1  0
 18 15  1  0
 44 18  1  0
 65 57  2  0
  8 90  1  0
 91 32  1  0
 52 99  1  0
 43 95  1  0
 69 10  1  1
 64 94  1  0
 52 89  1  6
 87 19  2  0
 79 27  1  0
 99 43  1  0
 10 25  1  0
 33 65  1  0
 75 47  1  0
 63 19  1  0
 22 39  1  0
 54 96  1  0
 92 75  1  1
 95 40  1  0
 32 81  1  0
 54 21  1  6
  8 58  1  1
 43 61  1  1
 73 14  1  0
  7 20  1  0
 64 85  2  0
 69 48  1  0
 59 34  1  0
 38 28  1  0
 24  9  1  6
 19 93  1  0
 49 77  1  0
 26 69  1  0
 29 73  1  0
 11 71  1  0
 27  8  1  0
 90 92  1  0
 19 51  2  0
 40 97  1  0
 35 11  2  0
 41 76  1  0
 16 35  1  0
 82 88  1  0
 95 68  1  1
 50 82  1  0
 32 62  1  6
 17 49  1  0
 92 98  1  0
 98 79  1  0
 76 13  2  0
 67 54  1  0
 16 41  1  0
 17 70  1  6
 27 50  1  6
 21  5  1  0
  5100  1  0
 60  2  1  0
  2101  1  0
M  END