
          11280715362D 1   1.00000     0.00000     0

 38 41  0     1  0            999 V2000
    1.5875   -3.6417    0.0000 C   0  0  1  0  0  0           0  0  0
    1.4042   -2.8375    0.0000 C   0  0  2  0  0  0           0  0  0
    4.2292   -0.5417    0.0000 C   0  0  0  0  0  0           0  0  0
    2.1667   -4.2250    0.0000 N   0  0  3  0  0  0           0  0  0
    3.8292   -1.2542    0.0000 C   0  0  0  0  0  0           0  0  0
    3.8042    0.1625    0.0000 C   0  0  0  0  0  0           0  0  0
    0.8792   -4.0667    0.0000 C   0  0  0  0  0  0           0  0  0
    0.5792   -2.7667    0.0000 C   0  0  3  0  0  0           0  0  0
    3.0167   -1.2792    0.0000 C   0  0  0  0  0  0           0  0  0
    6.3625   -3.6292    0.0000 C   0  0  0  0  0  0           0  0  0
    0.1542   -2.0542    0.0000 O   0  0  0  0  0  0           0  0  0
    2.9792    0.1458    0.0000 O   0  0  0  0  0  0           0  0  0
    0.2542   -3.5167    0.0000 C   0  0  0  0  0  0           0  0  0
    7.0167   -3.3542    0.0000 O   0  0  0  0  0  0           0  0  0
    2.6042   -0.5792    0.0000 C   0  0  0  0  0  0           0  0  0
    2.6167   -2.0042    0.0000 C   0  0  0  0  0  0           0  0  0
    3.4917   -2.7875    0.0000 C   0  0  0  0  0  0           0  0  0
    4.3625   -2.8500    0.0000 C   0  0  0  0  0  0           0  0  0
    4.2042    0.8833    0.0000 N   0  0  0  0  0  0           0  0  0
    2.1917   -2.6167    0.0000 O   0  0  0  0  0  0           0  0  0
    0.5625   -1.3375    0.0000 C   0  0  0  0  0  0           0  0  0
    1.3875   -1.3250    0.0000 C   0  0  0  0  0  0           0  0  0
    6.2625   -4.3292    0.0000 O   0  0  0  0  0  0           0  0  0
    1.8000   -2.0167    0.0000 C   0  0  0  0  0  0           0  0  0
    1.7875   -0.6042    0.0000 C   0  0  0  0  0  0           0  0  0
    1.9000   -5.0000    0.0000 C   0  0  0  0  0  0           0  0  0
    2.9417   -3.9500    0.0000 C   0  0  0  0  0  0           0  0  0
    5.0417   -0.5250    0.0000 C   0  0  0  0  0  0           0  0  0
    4.2417   -1.9625    0.0000 C   0  0  0  0  0  0           0  0  0
    2.8667   -3.1500    0.0000 C   0  0  0  0  0  0           0  0  0
    5.8000   -3.1917    0.0000 C   0  0  0  0  0  0           0  0  0
    4.8625   -3.4417    0.0000 C   0  0  0  0  0  0           0  0  0
    2.3417   -5.6917    0.0000 C   0  0  0  0  0  0           0  0  0
    3.6417   -4.3792    0.0000 C   0  0  0  0  0  0           0  0  0
    5.0625   -1.9500    0.0000 C   0  0  0  0  0  0           0  0  0
    5.4625   -1.2292    0.0000 C   0  0  0  0  0  0           0  0  0
    3.1625   -5.7792    0.0000 C   0  0  0  0  0  0           0  0  0
    3.7417   -5.2000    0.0000 C   0  0  0  0  0  0           0  0  0
  2  1  1  0     0  0
  3  5  1  0     0  0
  1  4  1  1     0  0
  5  9  1  0     0  0
  6  3  1  0     0  0
  7  1  1  0     0  0
  8  2  1  0     0  0
  9 15  2  0     0  0
 10 31  1  0     0  0
 11  8  1  0     0  0
 12  6  2  0     0  0
 13  7  1  0     0  0
 14 10  2  0     0  0
 15 25  1  0     0  0
 16 24  2  0     0  0
 17 30  1  0     0  0
 18 17  2  0     0  0
 19  6  1  0     0  0
  2 20  1  6     0  0
 21 11  1  0     0  0
 22 21  1  0     0  0
 23 10  1  0     0  0
 24 22  1  0     0  0
 25 22  2  0     0  0
 26  4  1  0     0  0
 27  4  1  0     0  0
 28  3  2  0     0  0
 29  5  2  0     0  0
 30 20  1  0     0  0
 31 32  1  0     0  0
 32 18  1  0     0  0
 33 26  1  0     0  0
 34 27  1  0     0  0
 35 29  1  0     0  0
 36 35  2  0     0  0
 37 33  1  0     0  0
 38 34  1  0     0  0
  8 13  1  0     0  0
 38 37  1  0     0  0
 16  9  1  0     0  0
 36 28  1  0     0  0
M  END