
  SciTegic01311317052D

 30 33  0  0  0  0            999 V2000
    5.8292   -0.1542    0.0000 C   0  0
    5.8167   -0.9792    0.0000 C   0  0  2  0  0  0
    3.6792   -1.3667    0.0000 C   0  0
    3.6792   -2.1917    0.0000 C   0  0
    4.3917   -0.9625    0.0000 C   0  0  2  0  0  0
    5.1042   -1.3792    0.0000 C   0  0  1  0  0  0
    7.2625   -0.1792    0.0000 C   0  0
    6.5375    1.9208    0.0000 N   0  3
    2.9667   -2.6042    0.0000 C   0  0
    5.1250    0.2708    0.0000 C   0  0
    5.8250    0.6708    0.0000 C   0  0
    6.5292    2.7458    0.0000 N   0  5
    6.5250   -1.4042    0.0000 C   0  0
    4.4000   -0.1375    0.0000 C   0  0
    2.9667   -0.9542    0.0000 C   0  0
    7.2500   -1.0042    0.0000 C   0  0
    5.1042   -2.2042    0.0000 C   0  0
    6.5375    1.0958    0.0000 C   0  0
    4.3917   -2.6125    0.0000 C   0  0
    2.2542   -2.1917    0.0000 C   0  0
    5.1125    1.0833    0.0000 O   0  0
    1.5417   -2.6042    0.0000 O   0  0
    7.9750    0.2458    0.0000 C   0  0  2  0  0  0
    2.2542   -1.3667    0.0000 C   0  0
    3.6750   -0.5417    0.0000 C   0  0
    8.6875   -0.1667    0.0000 O   0  0
    7.9667    1.0708    0.0000 C   0  0
    5.1042   -0.5542    0.0000 H   0  0
    5.8167   -1.8042    0.0000 H   0  0
    4.3917   -1.7875    0.0000 H   0  0
  2  1  1  0
  3  5  1  0
  4  3  1  0
  5 14  1  0
  6  2  1  0
  7  1  1  0
  8 18  2  0
  9  4  2  0
 10  1  1  0
 11  1  1  0
 12  8  2  0
 13  2  1  0
 14 10  1  0
 15  3  1  0
 16  7  1  0
 17  6  1  0
 18 11  1  0
 19 17  1  0
 20 24  1  0
 21 11  2  0
 22 20  2  0
 23  7  1  0
 24 15  1  0
 25  3  1  0
 23 26  1  1
 27 23  1  0
 13 16  1  0
  5  6  1  0
  4 19  1  0
  9 20  1  0
  6 28  1  1
  2 29  1  6
  5 30  1  6
M  CHG  2   8   1  12  -1
M  END