
  SciTegic10311316262D

 33 37  0  0  0  0            999 V2000
   40.3527  -13.3699    0.0000 C   0  0
   40.3510  -14.1962    0.0000 C   0  0
   41.0661  -14.6091    0.0000 C   0  0
   41.0676  -12.9551    0.0000 C   0  0
   41.7773  -13.3686    0.0000 C   0  0
   41.7785  -14.1941    0.0000 C   0  0
   42.4944  -14.6041    0.0000 C   0  0
   43.2099  -14.1884    0.0000 C   0  0
   43.2069  -13.3582    0.0000 N   0  0
   42.4901  -12.9517    0.0000 C   0  0  2  0  0  0
   43.9178  -12.9414    0.0000 C   0  0
   44.6362  -13.3493    0.0000 C   0  0  2  0  0  0
   42.4828  -12.1255    0.0000 C   0  0
   41.8385  -11.6160    0.0000 N   0  0
   41.8687  -10.7947    0.0000 C   0  0
   41.0457  -11.8470    0.0000 C   0  0
   40.5836  -11.1613    0.0000 C   0  0
   41.0941  -10.5151    0.0000 C   0  0
   40.7866   -9.7564    0.0000 C   0  0
   39.9732   -9.6379    0.0000 C   0  0
   39.4645  -10.2915    0.0000 C   0  0
   39.7719  -11.0505    0.0000 C   0  0
   44.6367  -14.1754    0.0000 C   0  0
   45.3539  -14.5811    0.0000 C   0  0
   46.0662  -14.1663    0.0000 C   0  0
   46.0588  -13.3373    0.0000 C   0  0
   45.3408  -12.9310    0.0000 C   0  0  2  0  0  0
   42.5545  -10.3337    0.0000 O   0  0
   40.7620  -12.6248    0.0000 O   0  0
   43.9144  -12.1146    0.0000 O   0  0
   45.3317  -12.1042    0.0000 C   0  0
   46.0439  -11.6888    0.0000 O   0  0
   44.6147  -11.7034    0.0000 O   0  0
  1  2  2  0
  2  3  1  0
  3  6  2  0
  5  4  2  0
  4  1  1  0
  5  6  1  0
  6  7  1  0
  7  8  1  0
  8  9  1  0
  9 10  1  0
 10  5  1  0
  9 11  1  0
 12 11  1  1
 10 13  1  1
 13 14  1  0
 14 15  1  0
 15 18  1  0
 17 16  1  0
 16 14  1  0
 17 18  2  0
 18 19  1  0
 19 20  2  0
 20 21  1  0
 21 22  2  0
 22 17  1  0
 12 23  1  0
 23 24  1  0
 24 25  1  0
 25 26  1  0
 26 27  1  0
 27 12  1  0
 15 28  2  0
 16 29  2  0
 11 30  2  0
 27 31  1  1
 31 32  1  0
 31 33  2  0
M  END