
          11280715072D 1   1.00000     0.00000     0

 56 61  0     1  0            999 V2000
    7.2292   -4.3125    0.0000 C   0  0  2  0  0  0           0  0  0
    6.9875   -3.5167    0.0000 C   0  0  2  0  0  0           0  0  0
    9.5042   -5.0917    0.0000 C   0  0  0  0  0  0           0  0  0
    4.7042   -3.5625    0.0000 C   0  0  0  0  0  0           0  0  0
    1.8417   -1.9167    0.0000 C   0  0  0  0  0  0           0  0  0
   12.3667   -3.4417    0.0000 C   0  0  0  0  0  0           0  0  0
    3.9875   -3.1500    0.0000 N   0  0  3  0  0  0           0  0  0
   10.2167   -4.6792    0.0000 N   0  0  3  0  0  0           0  0  0
    6.5500   -4.7792    0.0000 O   0  0  0  0  0  0           0  0  0
    7.6625   -3.0417    0.0000 O   0  0  0  0  0  0           0  0  0
    6.1667   -3.5042    0.0000 C   0  0  2  0  0  0           0  0  0
    8.0542   -4.3167    0.0000 C   0  0  2  0  0  0           0  0  0
   11.6500   -3.8542    0.0000 N   0  0  3  0  0  0           0  0  0
    2.5625   -2.3292    0.0000 N   0  0  3  0  0  0           0  0  0
    8.7917   -4.6792    0.0000 O   0  0  0  0  0  0           0  0  0
    5.4167   -3.1500    0.0000 O   0  0  0  0  0  0           0  0  0
   17.3625   -4.7000    0.0000 C   0  0  0  0  0  0           0  0  0
   -3.1583   -3.1667    0.0000 C   0  0  0  0  0  0           0  0  0
    1.1292   -2.3292    0.0000 N   0  0  0  0  0  0           0  0  0
   13.0792   -3.8625    0.0000 N   0  0  0  0  0  0           0  0  0
    5.8917   -4.2792    0.0000 C   0  0  0  0  0  0           0  0  0
    8.3167   -3.5417    0.0000 C   0  0  0  0  0  0           0  0  0
   -2.4458   -3.5792    0.0000 N   0  0  0  0  0  0           0  0  0
   16.6500   -5.1125    0.0000 N   0  0  0  0  0  0           0  0  0
   17.3625   -3.8750    0.0000 N   0  0  0  0  0  0           0  0  0
   -3.1583   -2.3417    0.0000 N   0  0  0  0  0  0           0  0  0
    4.7042   -4.3792    0.0000 O   0  0  0  0  0  0           0  0  0
    9.5042   -5.9167    0.0000 O   0  0  0  0  0  0           0  0  0
    3.2750   -3.5625    0.0000 C   0  0  0  0  0  0           0  0  0
   10.9375   -5.0917    0.0000 C   0  0  0  0  0  0           0  0  0
    3.9875   -2.3250    0.0000 C   0  0  0  0  0  0           0  0  0
   10.2167   -3.8542    0.0000 C   0  0  0  0  0  0           0  0  0
   10.9375   -3.4375    0.0000 C   0  0  0  0  0  0           0  0  0
    2.5625   -3.1542    0.0000 C   0  0  0  0  0  0           0  0  0
    3.2667   -1.9125    0.0000 C   0  0  0  0  0  0           0  0  0
   11.6500   -4.6792    0.0000 C   0  0  0  0  0  0           0  0  0
   12.3667   -2.6167    0.0000 O   0  0  0  0  0  0           0  0  0
    1.8417   -1.0917    0.0000 O   0  0  0  0  0  0           0  0  0
   18.0792   -5.1042    0.0000 N   0  0  0  0  0  0           0  0  0
   -3.8708   -3.5792    0.0000 N   0  0  0  0  0  0           0  0  0
   -1.7250   -3.1667    0.0000 C   0  0  0  0  0  0           0  0  0
   15.9375   -4.7000    0.0000 C   0  0  0  0  0  0           0  0  0
    0.4167   -1.9250    0.0000 C   0  0  0  0  0  0           0  0  0
   13.7917   -3.4542    0.0000 C   0  0  0  0  0  0           0  0  0
   14.5042   -3.8667    0.0000 C   0  0  0  0  0  0           0  0  0
   -0.2958   -2.3417    0.0000 C   0  0  0  0  0  0           0  0  0
   -1.7250   -2.3417    0.0000 C   0  0  0  0  0  0           0  0  0
   15.2167   -5.1125    0.0000 C   0  0  0  0  0  0           0  0  0
   -1.0125   -3.5792    0.0000 C   0  0  0  0  0  0           0  0  0
   15.9292   -3.8667    0.0000 C   0  0  0  0  0  0           0  0  0
   14.5042   -4.7000    0.0000 C   0  0  0  0  0  0           0  0  0
   -0.2958   -3.1667    0.0000 C   0  0  0  0  0  0           0  0  0
   15.2167   -3.4542    0.0000 C   0  0  0  0  0  0           0  0  0
   -1.0125   -1.9292    0.0000 C   0  0  0  0  0  0           0  0  0
    6.7417   -2.7375    0.0000 H   0  0  0  0  0  0           0  0  0
    7.4667   -5.1000    0.0000 H   0  0  0  0  0  0           0  0  0
  2  1  1  0     0  0
  3 15  1  0     0  0
  4 16  1  0     0  0
  5 14  1  0     0  0
  6 13  1  0     0  0
  7  4  1  0     0  0
  8  3  1  0     0  0
  9  1  1  0     0  0
 10  2  1  0     0  0
 11  2  1  0     0  0
 12  1  1  0     0  0
 13 33  1  0     0  0
 14 35  1  0     0  0
 12 15  1  1     0  0
 11 16  1  1     0  0
 17 24  1  0     0  0
 18 23  1  0     0  0
 19  5  1  0     0  0
 20  6  1  0     0  0
 21  9  1  0     0  0
 22 12  1  0     0  0
 23 41  1  0     0  0
 24 42  1  0     0  0
 25 17  2  0     0  0
 26 18  2  0     0  0
 27  4  2  0     0  0
 28  3  2  0     0  0
 29  7  1  0     0  0
 30  8  1  0     0  0
 31  7  1  0     0  0
 32  8  1  0     0  0
 33 32  1  0     0  0
 34 29  1  0     0  0
 35 31  1  0     0  0
 36 30  1  0     0  0
 37  6  2  0     0  0
 38  5  2  0     0  0
 39 17  1  0     0  0
 40 18  1  0     0  0
 41 47  2  0     0  0
 42 50  2  0     0  0
 43 19  1  0     0  0
 44 20  1  0     0  0
 45 44  1  0     0  0
 46 43  1  0     0  0
 47 54  1  0     0  0
 48 51  2  0     0  0
 49 52  2  0     0  0
 50 53  1  0     0  0
 51 45  1  0     0  0
 52 46  1  0     0  0
 53 45  2  0     0  0
 54 46  2  0     0  0
  2 55  1  6     0  0
  1 56  1  6     0  0
 22 10  1  0     0  0
 11 21  1  0     0  0
 13 36  1  0     0  0
 14 34  1  0     0  0
 42 48  1  0     0  0
 41 49  1  0     0  0
M  END