
          11280715572D 1   1.00000     0.00000     0

 76 81  0     1  0            999 V2000
   10.8792   -5.3250    0.0000 N   0  0  3  0  0  0           0  0  0
   10.3667   -5.0250    0.0000 C   0  0  0  0  0  0           0  0  0
    4.1167   -5.0625    0.0000 C   0  0  0  0  0  0           0  0  0
    5.6875   -5.3500    0.0000 C   0  0  0  0  0  0           0  0  0
    7.2417   -5.0375    0.0000 C   0  0  0  0  0  0           0  0  0
    8.8042   -5.3250    0.0000 C   0  0  0  0  0  0           0  0  0
   11.4417   -5.5417    0.0000 C   0  0  3  0  0  0           0  0  0
    4.6417   -5.3542    0.0000 N   0  0  0  0  0  0           0  0  0
    3.6042   -5.3667    0.0000 C   0  0  1  0  0  0           0  0  0
    7.7667   -5.3292    0.0000 N   0  0  0  0  0  0           0  0  0
    6.2042   -5.0417    0.0000 N   0  0  0  0  0  0           0  0  0
    9.3250   -5.0167    0.0000 N   0  0  0  0  0  0           0  0  0
    6.7292   -5.3417    0.0000 C   0  0  2  0  0  0           0  0  0
    5.1542   -5.0542    0.0000 C   0  0  1  0  0  0           0  0  0
    8.2875   -5.0292    0.0000 C   0  0  1  0  0  0           0  0  0
   11.6000   -6.1250    0.0000 C   0  0  0  0  0  0           0  0  0
    9.8500   -5.3250    0.0000 C   0  0  1  0  0  0           0  0  0
   10.8542   -7.7375    0.0000 C   0  0  0  0  0  0           0  0  0
    3.0792   -5.0667    0.0000 N   0  0  0  0  0  0           0  0  0
    2.5542   -5.3750    0.0000 C   0  0  0  0  0  0           0  0  0
   10.3292   -8.0292    0.0000 N   0  0  0  0  0  0           0  0  0
   10.3750   -4.4250    0.0000 O   0  0  0  0  0  0           0  0  0
    1.5042   -3.5875    0.0000 C   0  0  0  0  0  0           0  0  0
    6.7292   -5.9417    0.0000 C   0  0  0  0  0  0           0  0  0
    4.1167   -4.4625    0.0000 O   0  0  0  0  0  0           0  0  0
    7.2417   -4.4375    0.0000 O   0  0  0  0  0  0           0  0  0
    8.8167   -5.9250    0.0000 O   0  0  0  0  0  0           0  0  0
    5.6917   -5.9500    0.0000 O   0  0  0  0  0  0           0  0  0
    7.7750   -7.1250    0.0000 C   0  0  0  0  0  0           0  0  0
    5.1542   -4.4417    0.0000 C   0  0  0  0  0  0           0  0  0
    7.2542   -6.2375    0.0000 C   0  0  0  0  0  0           0  0  0
    7.2542   -6.8292    0.0000 C   0  0  0  0  0  0           0  0  0
    1.5125   -4.1792    0.0000 C   0  0  0  0  0  0           0  0  0
   11.1667   -6.5417    0.0000 O   0  0  0  0  0  0           0  0  0
    8.2792   -4.4292    0.0000 C   0  0  0  0  0  0           0  0  0
    2.5667   -5.9792    0.0000 O   0  0  0  0  0  0           0  0  0
   10.8667   -7.1375    0.0000 N   0  0  0  0  0  0           0  0  0
    2.0292   -4.4792    0.0000 C   0  0  0  0  0  0           0  0  0
    8.2917   -6.8250    0.0000 C   0  0  0  0  0  0           0  0  0
   12.1792   -6.2792    0.0000 N   0  0  0  0  0  0           0  0  0
   11.3750   -8.0417    0.0000 N   0  0  0  0  0  0           0  0  0
    8.2792   -6.2250    0.0000 C   0  0  0  0  0  0           0  0  0
   10.9167   -4.7250    0.0000 C   0  0  0  0  0  0           0  0  0
    0.9875   -3.2917    0.0000 C   0  0  0  0  0  0           0  0  0
    2.0375   -5.0792    0.0000 C   0  0  0  0  0  0           0  0  0
    5.6750   -4.1417    0.0000 C   0  0  0  0  0  0           0  0  0
    7.7625   -5.9292    0.0000 C   0  0  0  0  0  0           0  0  0
    6.7125   -3.5375    0.0000 C   0  0  0  0  0  0           0  0  0
    3.6042   -5.9667    0.0000 C   0  0  0  0  0  0           0  0  0
    6.2000   -4.4417    0.0000 C   0  0  0  0  0  0           0  0  0
    5.6667   -3.5417    0.0000 C   0  0  0  0  0  0           0  0  0
    6.7167   -4.1292    0.0000 C   0  0  0  0  0  0           0  0  0
    6.1917   -3.2417    0.0000 C   0  0  0  0  0  0           0  0  0
   11.8250   -5.0792    0.0000 C   0  0  0  0  0  0           0  0  0
    7.2292   -3.2292    0.0000 O   0  0  0  0  0  0           0  0  0
    4.1292   -6.2625    0.0000 O   0  0  0  0  0  0           0  0  0
   11.5000   -4.5750    0.0000 C   0  0  0  0  0  0           0  0  0
    9.8417   -5.9250    0.0000 C   0  0  0  0  0  0           0  0  0
    0.4792   -4.1917    0.0000 C   0  0  0  0  0  0           0  0  0
    8.7917   -4.1250    0.0000 C   0  0  3  0  0  0           0  0  0
    1.0000   -4.4875    0.0000 C   0  0  0  0  0  0           0  0  0
    2.0167   -3.2792    0.0000 C   0  0  0  0  0  0           0  0  0
    7.7792   -7.7167    0.0000 C   0  0  0  0  0  0           0  0  0
    0.4750   -3.5917    0.0000 C   0  0  0  0  0  0           0  0  0
   12.3292   -6.8625    0.0000 C   0  0  0  0  0  0           0  0  0
   10.3500   -6.8292    0.0000 C   0  0  0  0  0  0           0  0  0
    8.8042   -7.1167    0.0000 C   0  0  0  0  0  0           0  0  0
    0.9792   -2.7042    0.0000 C   0  0  0  0  0  0           0  0  0
   10.3542   -6.2292    0.0000 C   0  0  0  0  0  0           0  0  0
    8.7917   -3.5250    0.0000 C   0  0  0  0  0  0           0  0  0
    9.3167   -4.4167    0.0000 C   0  0  0  0  0  0           0  0  0
   12.9042   -7.0167    0.0000 C   0  0  0  0  0  0           0  0  0
    2.0042   -2.6917    0.0000 C   0  0  0  0  0  0           0  0  0
    8.3000   -8.0167    0.0000 C   0  0  0  0  0  0           0  0  0
    8.8167   -7.7042    0.0000 C   0  0  0  0  0  0           0  0  0
    1.4917   -2.4000    0.0000 C   0  0  0  0  0  0           0  0  0
  2  1  1  0     0  0
  3  8  1  0     0  0
  4 11  1  0     0  0
  5 10  1  0     0  0
  6 12  1  0     0  0
  7  1  1  0     0  0
  8 14  1  0     0  0
  9  3  1  0     0  0
 10 15  1  0     0  0
 11 13  1  0     0  0
 12 17  1  0     0  0
 13  5  1  0     0  0
 14  4  1  0     0  0
 15  6  1  0     0  0
 16  7  1  0     0  0
 17  2  1  0     0  0
 18 37  2  0     0  0
 19  9  1  0     0  0
 20 19  1  0     0  0
 21 18  1  0     0  0
 22  2  2  0     0  0
 23 33  2  0     0  0
 13 24  1  1     0  0
 25  3  2  0     0  0
 26  5  2  0     0  0
 27  6  2  0     0  0
 28  4  2  0     0  0
 29 32  1  0     0  0
 14 30  1  1     0  0
 31 24  1  0     0  0
 32 31  2  0     0  0
 33 38  1  0     0  0
 34 16  2  0     0  0
 15 35  1  1     0  0
 36 20  2  0     0  0
 37 66  1  0     0  0
 38 45  1  0     0  0
 39 42  1  0     0  0
 40 16  1  0     0  0
 41 18  1  0     0  0
 42 47  2  0     0  0
 43  1  1  0     0  0
 44 23  1  0     0  0
 45 20  1  0     0  0
 46 30  1  0     0  0
 47 31  1  0     0  0
 48 53  1  0     0  0
  9 49  1  6     0  0
 50 46  2  0     0  0
 51 46  1  0     0  0
 52 50  1  0     0  0
 53 51  2  0     0  0
 54  7  1  0     0  0
 55 48  1  0     0  0
 56 49  1  0     0  0
 57 43  1  0     0  0
 17 58  1  6     0  0
 59 61  2  0     0  0
 60 35  1  0     0  0
 61 33  1  0     0  0
 62 23  1  0     0  0
 63 29  2  0     0  0
 64 59  1  0     0  0
 65 40  1  0     0  0
 66 69  1  0     0  0
 67 39  2  0     0  0
 68 44  1  0     0  0
 69 58  1  0     0  0
 70 60  1  0     0  0
 71 60  1  0     0  0
 72 65  1  0     0  0
 73 62  2  0     0  0
 74 63  1  0     0  0
 75 67  1  0     0  0
 76 73  1  0     0  0
 57 54  1  0     0  0
 39 29  1  0     0  0
 74 75  2  0     0  0
 48 52  2  0     0  0
 44 64  2  0     0  0
 76 68  2  0     0  0
M  END