
  CDK    9/16/09,9:46

 25 28  0  0  0  0  0  0  0  0999 V2000
    2.3886    0.6245    0.0000 C   0  0  0  0  0  0  0  0  0  0  0  0
    2.3886   -0.2005    0.0000 C   0  0  0  0  0  0  0  0  0  0  0  0
    3.0992   -0.6108    0.0000 C   0  0  0  0  0  0  0  0  0  0  0  0
    3.0992    1.0393    0.0000 C   0  0  0  0  0  0  0  0  0  0  0  0
    3.8143    0.6245    0.0000 C   0  0  0  0  0  0  0  0  0  0  0  0
    3.8154   -0.2005    0.0000 C   0  0  0  0  0  0  0  0  0  0  0  0
    4.5265   -0.6099    0.0000 C   0  0  0  0  0  0  0  0  0  0  0  0
    5.2411   -0.1988    0.0000 C   0  0  0  0  0  0  0  0  0  0  0  0
    4.5244    1.0402    0.0000 C   0  0  0  0  0  0  0  0  0  0  0  0
    5.2405    0.6233    0.0000 C   0  0  0  0  0  0  0  0  0  0  0  0
    5.2448    2.2775    0.0000 C   0  0  0  0  0  0  0  0  0  0  0  0
    4.5236    1.8665    0.0000 C   0  0  0  0  0  0  0  0  0  0  0  0
    5.9609    1.8606    0.0000 C   0  0  0  0  0  0  0  0  0  0  0  0
    5.9531    1.0349    0.0000 C   0  0  0  0  0  0  0  0  0  0  0  0
    6.7359    0.7724    0.0000 C   0  0  0  0  0  0  0  0  0  0  0  0
    7.2275    1.4357    0.0000 C   0  0  0  0  0  0  0  0  0  0  0  0
    6.7486    2.1082    0.0000 C   0  0  0  0  0  0  0  0  0  0  0  0
    1.6780   -0.6108    0.0000 O   0  0  0  0  0  0  0  0  0  0  0  0
    3.8063    1.4450    0.0000 C   0  0  0  0  0  0  0  0  0  0  0  0
    4.5174    0.2234    0.0000 H   0  0  0  0  0  0  0  0  0  0  0  0
    5.2330    1.4450    0.0000 H   0  0  0  0  0  0  0  0  0  0  0  0
    5.9441    0.2188    0.0000 H   0  0  0  0  0  0  0  0  0  0  0  0
    5.9533    2.6849    0.0000 C   0  0  0  0  0  0  0  0  0  0  0  0
    7.0095    2.8861    0.0000 O   0  0  0  0  0  0  0  0  0  0  0  0
    7.5351    2.3248    0.0000 C   0  0  0  0  0  0  0  0  0  0  0  0
 10 14  1  0  0  0  0 
 13 11  1  0  0  0  0 
 11 12  1  0  0  0  0 
 13 14  1  0  0  0  0 
  1  2  1  0  0  0  0 
  1  4  1  0  0  0  0 
  2  3  1  0  0  0  0 
  5  9  1  0  0  0  0 
  6  7  1  0  0  0  0 
 14 15  1  0  0  0  0 
 15 16  1  0  0  0  0 
 16 17  1  0  0  0  0 
 17 13  1  0  0  0  0 
  7  8  1  0  0  0  0 
  2 18  2  0  0  0  0 
  8 10  1  0  0  0  0 
  5 19  1  1  0  0  0 
  9 10  1  0  0  0  0 
  9 20  1  6  0  0  0 
  3  6  2  0  0  0  0 
 10 21  1  1  0  0  0 
  5  4  1  0  0  0  0 
 14 22  1  6  0  0  0 
  5  6  1  0  0  0  0 
 13 23  1  1  0  0  0 
 17 24  1  1  0  0  0 
  9 12  1  0  0  0  0 
 17 25  1  0  0  0  0 
M  END