
  SciTegic11201309402D

 33 33  0  0  0  0            999 V2000
   -1.2330   -0.2124    0.0000 S   0  0
    2.0537   -0.1917    0.0000 C   0  0
    8.8769   -4.2281    0.0000 C   0  0  1  0  0  0
    9.6975   -4.1531    0.0000 C   0  0
    8.3979   -3.5533    0.0000 N   0  0
   -0.4124   -0.2041    0.0000 C   0  0
    7.5731   -3.5616    0.0000 C   0  0
    2.4744   -0.9040    0.0000 N   0  0
   -1.2372   -1.0289    0.0000 O   0  0
   -1.2330    0.6123    0.0000 O   0  0
    3.7158   -1.6121    0.0000 C   0  0
    5.8485   -2.1869    0.0000 C   0  0
    1.2289   -0.1999    0.0000 C   0  0
   -2.0620   -0.2041    0.0000 N   0  0
    6.3276   -2.8535    0.0000 N   0  0
    4.5405   -1.6038    0.0000 N   0  0
    2.4661    0.5207    0.0000 O   0  0
   10.0391   -3.4033    0.0000 O   0  0
    7.1649   -4.2781    0.0000 O   0  0
    3.3034   -2.3286    0.0000 O   0  0
    6.1776   -1.4288    0.0000 O   0  0
   -0.0083    0.5082    0.0000 C   0  0
    0.0042   -0.9165    0.0000 C   0  0
    0.8248   -0.9165    0.0000 C   0  0
    0.8123    0.5124    0.0000 C   0  0
    3.2992   -0.8998    0.0000 C   0  0
    7.1524   -2.8493    0.0000 C   0  0
    5.0279   -2.2744    0.0000 C   0  0
    8.5270   -4.9779    0.0000 C   0  0  2  0  0  0
   10.1724   -4.8280    0.0000 O   0  0
    7.7022   -5.0529    0.0000 C   0  0
    9.0019   -5.6528    0.0000 C   0  0
    7.3648   -5.8027    0.0000 C   0  0
  2 13  1  0
  3  5  1  6
  4  3  1  0
  5  7  1  0
  6  1  1  0
  7 27  1  0
  8  2  1  0
  9  1  2  0
 10  1  2  0
 11 26  1  0
 12 28  1  0
 13 24  2  0
 14  1  1  0
 15 12  1  0
 16 11  1  0
 17  2  2  0
 18  4  2  0
 19  7  2  0
 20 11  2  0
 21 12  2  0
 22  6  1  0
 23  6  2  0
 24 23  1  0
 25 22  2  0
 26  8  1  0
 27 15  1  0
 28 16  1  0
  3 29  1  0
 30  4  1  0
 31 29  1  0
 29 32  1  1
 33 31  1  0
 13 25  1  0
M  END