
  Mrv0541 05211314572D          

 33 36  0  0  0  0            999 V2000
   -0.6818   -2.9792    0.0000 C   0  0  0  0  0  0  0  0  0  0  0  0
    0.0327   -3.3917    0.0000 C   0  0  0  0  0  0  0  0  0  0  0  0
    0.7472   -2.9792    0.0000 C   0  0  0  0  0  0  0  0  0  0  0  0
    1.4616   -3.3917    0.0000 N   0  0  0  0  0  0  0  0  0  0  0  0
    0.7472   -2.1542    0.0000 O   0  0  0  0  0  0  0  0  0  0  0  0
    1.4616   -4.2167    0.0000 C   0  0  0  0  0  0  0  0  0  0  0  0
    2.1761   -4.6292    0.0000 C   0  0  0  0  0  0  0  0  0  0  0  0
    2.8906   -4.2167    0.0000 N   0  0  0  0  0  0  0  0  0  0  0  0
    2.8906   -3.3917    0.0000 C   0  0  0  0  0  0  0  0  0  0  0  0
    2.1761   -2.9792    0.0000 C   0  0  0  0  0  0  0  0  0  0  0  0
    3.6051   -4.6292    0.0000 C   0  0  0  0  0  0  0  0  0  0  0  0
    4.3195   -4.2167    0.0000 C   0  0  0  0  0  0  0  0  0  0  0  0
    5.0340   -4.6292    0.0000 C   0  0  0  0  0  0  0  0  0  0  0  0
    5.0340   -5.4542    0.0000 C   0  0  0  0  0  0  0  0  0  0  0  0
    4.3195   -5.8667    0.0000 C   0  0  0  0  0  0  0  0  0  0  0  0
    3.6051   -5.4542    0.0000 C   0  0  0  0  0  0  0  0  0  0  0  0
    5.7485   -5.8667    0.0000 N   0  3  0  0  0  0  0  0  0  0  0  0
    5.7485   -6.6917    0.0000 O   0  0  0  0  0  0  0  0  0  0  0  0
    6.4629   -5.4542    0.0000 O   0  5  0  0  0  0  0  0  0  0  0  0
   -1.3962   -3.3917    0.0000 N   0  0  0  0  0  0  0  0  0  0  0  0
   -1.3962   -4.2167    0.0000 C   0  0  0  0  0  0  0  0  0  0  0  0
   -2.1107   -2.9792    0.0000 C   0  0  0  0  0  0  0  0  0  0  0  0
   -2.8252   -3.3917    0.0000 C   0  0  0  0  0  0  0  0  0  0  0  0
   -3.5397   -2.9792    0.0000 C   0  0  0  0  0  0  0  0  0  0  0  0
   -4.2541   -3.3917    0.0000 C   0  0  0  0  0  0  0  0  0  0  0  0
   -4.9686   -2.9792    0.0000 C   0  0  0  0  0  0  0  0  0  0  0  0
   -3.5397   -2.1542    0.0000 C   0  0  0  0  0  0  0  0  0  0  0  0
   -4.2541   -1.7417    0.0000 C   0  0  0  0  0  0  0  0  0  0  0  0
   -4.9686   -2.1542    0.0000 C   0  0  0  0  0  0  0  0  0  0  0  0
   -5.6831   -1.7417    0.0000 C   0  0  0  0  0  0  0  0  0  0  0  0
   -5.6831   -0.9167    0.0000 C   0  0  0  0  0  0  0  0  0  0  0  0
   -4.9686   -0.5042    0.0000 C   0  0  0  0  0  0  0  0  0  0  0  0
   -4.2541   -0.9167    0.0000 C   0  0  0  0  0  0  0  0  0  0  0  0
 16 11  1  0  0  0  0
  4 10  1  0  0  0  0
  6  7  1  0  0  0  0
  7  8  1  0  0  0  0
 17 18  2  0  0  0  0
 17 19  1  0  0  0  0
 14 17  1  0  0  0  0
  8  9  1  0  0  0  0
  1 20  1  0  0  0  0
  9 10  1  0  0  0  0
 20 21  1  0  0  0  0
  4  6  1  0  0  0  0
 20 22  1  0  0  0  0
  8 11  1  0  0  0  0
 22 23  1  0  0  0  0
  2  3  1  0  0  0  0
 23 24  1  0  0  0  0
 11 12  2  0  0  0  0
 24 25  2  0  0  0  0
  1  2  1  0  0  0  0
 25 26  1  0  0  0  0
 26 29  2  0  0  0  0
 27 24  1  0  0  0  0
 12 13  1  0  0  0  0
 27 28  2  0  0  0  0
  3  4  1  0  0  0  0
 13 14  2  0  0  0  0
 28 29  1  0  0  0  0
 29 30  1  0  0  0  0
 14 15  1  0  0  0  0
 30 31  2  0  0  0  0
  3  5  2  0  0  0  0
 31 32  1  0  0  0  0
 15 16  2  0  0  0  0
 32 33  2  0  0  0  0
 33 28  1  0  0  0  0
M  CHG  2  17   1  19  -1
M  END