
          11280715082D 1   1.00000     0.00000     0

 23 25  0     0  0            999 V2000
   -3.3958   -2.5667    0.0000 C   0  0  0  0  0  0           0  0  0
   -1.2458   -2.9875    0.0000 C   0  0  0  0  0  0           0  0  0
   -0.5208   -3.4042    0.0000 C   0  0  0  0  0  0           0  0  0
    2.3417   -5.0875    0.0000 C   0  0  0  0  0  0           0  0  0
   -4.1083   -2.9792    0.0000 C   0  0  3  0  0  0           0  0  0
   -3.3958   -1.7417    0.0000 C   0  0  0  0  0  0           0  0  0
   -4.1083   -1.3292    0.0000 N   0  0  0  0  0  0           0  0  0
    1.6292   -4.6667    0.0000 C   0  0  0  0  0  0           0  0  0
   -2.6833   -2.9792    0.0000 C   0  0  0  0  0  0           0  0  0
   -1.9708   -2.5667    0.0000 C   0  0  0  0  0  0           0  0  0
    3.0625   -4.6792    0.0000 O   0  0  0  0  0  0           0  0  0
    0.2000   -3.8292    0.0000 C   0  0  0  0  0  0           0  0  0
   -2.6833   -1.3292    0.0000 C   0  0  0  0  0  0           0  0  0
    0.9042   -5.0792    0.0000 C   0  0  0  0  0  0           0  0  0
    1.6292   -3.8292    0.0000 C   0  0  0  0  0  0           0  0  0
    2.3375   -5.9125    0.0000 O   0  0  0  0  0  0           0  0  0
   -4.8208   -1.7417    0.0000 C   0  0  0  0  0  0           0  0  0
   -1.9708   -1.7417    0.0000 C   0  0  0  0  0  0           0  0  0
    0.9167   -3.4167    0.0000 C   0  0  0  0  0  0           0  0  0
    0.1875   -4.6542    0.0000 C   0  0  0  0  0  0           0  0  0
   -4.8208   -2.5667    0.0000 C   0  0  0  0  0  0           0  0  0
   -3.5208   -3.5625    0.0000 C   0  0  0  0  0  0           0  0  0
   -4.9083   -3.1917    0.0000 C   0  0  0  0  0  0           0  0  0
  2 10  1  0     0  0
  3  2  3  0     0  0
  4  8  1  0     0  0
  5  1  1  0     0  0
  6  1  2  0     0  0
  7  6  1  0     0  0
  8 14  2  0     0  0
  9  1  1  0     0  0
 10  9  2  0     0  0
 11  4  2  0     0  0
 12  3  1  0     0  0
 13  6  1  0     0  0
 14 20  1  0     0  0
 15 19  2  0     0  0
 16  4  1  0     0  0
 17  7  1  0     0  0
 18 10  1  0     0  0
 19 12  1  0     0  0
 20 12  2  0     0  0
 21  5  1  0     0  0
 22  5  1  0     0  0
 23  5  1  0     0  0
 21 17  1  0     0  0
 18 13  2  0     0  0
 15  8  1  0     0  0
M  END