
  Mrv0541 05211314572D          

 28 29  0  0  0  0            999 V2000
    0.8250    0.7145    0.0000 C   0  0  0  0  0  0  0  0  0  0  0  0
    0.4125    0.0000    0.0000 C   0  0  0  0  0  0  0  0  0  0  0  0
   -0.4125    0.0000    0.0000 C   0  0  0  0  0  0  0  0  0  0  0  0
   -0.8250   -0.7145    0.0000 C   0  0  0  0  0  0  0  0  0  0  0  0
    1.6500    0.7145    0.0000 O   0  0  0  0  0  0  0  0  0  0  0  0
    0.4125    1.4289    0.0000 O   0  0  0  0  0  0  0  0  0  0  0  0
   -0.4125   -1.4289    0.0000 O   0  0  0  0  0  0  0  0  0  0  0  0
   -1.6500   -0.7145    0.0000 O   0  0  0  0  0  0  0  0  0  0  0  0
   11.9021    0.4147    0.0000 N   0  0  0  0  0  0  0  0  0  0  0  0
   12.5390   -0.1096    0.0000 O   0  0  0  0  0  0  0  0  0  0  0  0
   12.2373   -0.8775    0.0000 C   0  0  0  0  0  0  0  0  0  0  0  0
   11.4138   -0.8277    0.0000 C   0  0  0  0  0  0  0  0  0  0  0  0
   11.2066   -0.0291    0.0000 C   0  0  0  0  0  0  0  0  0  0  0  0
    7.4900    0.6639    0.0000 C   0  0  0  0  0  0  0  0  0  0  0  0
    8.2579    0.3621    0.0000 C   0  0  0  0  0  0  0  0  0  0  0  0
    9.0257    0.0604    0.0000 C   0  0  0  0  0  0  0  0  0  0  0  0
    9.7935   -0.2414    0.0000 C   0  0  0  0  0  0  0  0  0  0  0  0
   10.4388    0.2726    0.0000 O   0  0  0  0  0  0  0  0  0  0  0  0
    6.8448    0.1499    0.0000 O   0  0  0  0  0  0  0  0  0  0  0  0
    6.0769    0.4516    0.0000 N   0  0  0  0  0  0  0  0  0  0  0  0
    5.5843   -0.8254    0.0000 C   0  0  0  0  0  0  0  0  0  0  0  0
    4.8358   -0.4785    0.0000 N   0  0  0  0  0  0  0  0  0  0  0  0
    5.4317   -0.0624    0.0000 C   0  0  0  0  0  0  0  0  0  0  0  0
    3.9965   -0.8374    0.0000 C   0  0  0  0  0  0  0  0  0  0  0  0
    4.9755    0.5601    0.0000 C   0  0  0  0  0  0  0  0  0  0  0  0
    4.6931    0.2699    0.0000 C   0  0  0  0  0  0  0  0  0  0  0  0
    3.8893   -0.0820    0.0000 C   0  0  0  0  0  0  0  0  0  0  0  0
    4.7308    1.1660    0.0000 C   0  0  0  0  0  0  0  0  0  0  0  0
  1  6  1  0  0  0  0
 14 15  1  0  0  0  0
  4  7  2  0  0  0  0
 15 16  3  0  0  0  0
  4  8  1  0  0  0  0
 16 17  1  0  0  0  0
 17 18  1  0  0  0  0
 18 13  1  0  0  0  0
  9 10  1  0  0  0  0
 14 19  1  0  0  0  0
 19 20  1  0  0  0  0
  1  2  1  0  0  0  0
  2  3  2  0  0  0  0
  3  4  1  0  0  0  0
 10 11  1  0  0  0  0
 11 12  2  0  0  0  0
 12 13  1  0  0  0  0
 13  9  2  0  0  0  0
  1  5  2  0  0  0  0
 21 22  1  0  0  0  0
 21 23  1  0  0  0  0
 22 24  1  0  0  0  0
 22 25  1  0  0  0  0
 23 26  1  0  0  0  0
 24 27  1  0  0  0  0
 25 28  1  0  0  0  0
 26 27  1  0  0  0  0
 26 28  1  0  0  0  0
 23 20  2  0  0  0  0
M  END