
          03140815512D 1   1.00000     0.00000     0

 21 22  0     0  0            999 V2000
    0.3292  -20.1417    0.0000 N   0  0  3  0  0  0           0  0  0
    0.3292  -20.9667    0.0000 C   0  0  0  0  0  0           0  0  0
    1.0412  -21.3750    0.0000 C   0  0  0  0  0  0           0  0  0
    1.7532  -20.9667    0.0000 O   0  0  0  0  0  0           0  0  0
    1.7532  -20.1417    0.0000 C   0  0  0  0  0  0           0  0  0
    1.0412  -19.7250    0.0000 C   0  0  0  0  0  0           0  0  0
   -0.3865  -19.7313    0.0000 C   0  0  0  0  0  0           0  0  0
   -0.3889  -18.9063    0.0000 O   0  0  0  0  0  0           0  0  0
   -1.0998  -20.1459    0.0000 C   0  0  0  0  0  0           0  0  0
   -1.8154  -19.7354    0.0000 O   0  0  0  0  0  0           0  0  0
   -2.5287  -20.1500    0.0000 C   0  0  0  0  0  0           0  0  0
   -3.2437  -19.7363    0.0000 C   0  0  0  0  0  0           0  0  0
   -3.9564  -20.1502    0.0000 C   0  0  0  0  0  0           0  0  0
   -3.9545  -20.9761    0.0000 C   0  0  0  0  0  0           0  0  0
   -3.2338  -21.3863    0.0000 C   0  0  0  0  0  0           0  0  0
   -2.5239  -20.9701    0.0000 C   0  0  0  0  0  0           0  0  0
   -4.6719  -19.7395    0.0000 C   0  0  3  0  0  0           0  0  0
   -4.6739  -18.9145    0.0000 C   0  0  0  0  0  0           0  0  0
   -5.3813  -20.1537    0.0000 C   0  0  0  0  0  0           0  0  0
   -4.6672  -21.3916    0.0000 Cl  0  0  0  0  0  0           0  0  0
   -3.2284  -22.2113    0.0000 C   0  0  0  0  0  0           0  0  0
  3  4  1  0     0  0
 10 11  1  0     0  0
  4  5  1  0     0  0
 11 12  2  0     0  0
  5  6  1  0     0  0
 12 13  1  0     0  0
 13 14  2  0     0  0
  1  7  1  0     0  0
 14 15  1  0     0  0
  1  2  1  0     0  0
 15 16  2  0     0  0
 16 11  1  0     0  0
  7  8  2  0     0  0
 13 17  1  0     0  0
  1  6  1  0     0  0
 17 18  1  0     0  0
  7  9  1  0     0  0
 17 19  1  0     0  0
  2  3  1  0     0  0
 14 20  1  0     0  0
  9 10  1  0     0  0
 15 21  1  0     0  0
M  END