
  SciTegic06281210282D

 36 39  0  0  0  0            999 V2000
   14.8125    3.2250    0.0000 O   0  0
   14.8167    2.4000    0.0000 S   0  0
   15.5291    2.8161    0.0000 O   0  0
   11.5445    1.1856    0.0000 C   0  0
   11.5445    0.3606    0.0000 C   0  0
   12.2589   -0.0519    0.0000 C   0  0
   12.9734    0.3606    0.0000 C   0  0
   12.9734    1.1856    0.0000 C   0  0
   12.2589    1.5981    0.0000 C   0  0
   13.7570    0.1046    0.0000 N   0  0
   14.2429    0.7731    0.0000 N   0  0
   13.7580    1.4405    0.0000 C   0  0
   12.2589    2.4231    0.0000 O   0  0
   11.5445    2.8356    0.0000 C   0  0
   13.7583   -0.7204    0.0000 C   0  0
   13.0444   -1.1340    0.0000 C   0  0
   12.3293   -0.7226    0.0000 C   0  0
   11.6154   -1.1362    0.0000 C   0  0
   11.6167   -1.9612    0.0000 C   0  0
   12.3318   -2.3725    0.0000 C   0  0
   13.0457   -1.9590    0.0000 C   0  0
   14.0130    2.2252    0.0000 N   0  0
   15.3719    1.7836    0.0000 C   0  0
   15.2004    0.9779    0.0000 C   0  0
   15.9149    0.5654    0.0000 C   0  0
   16.5280    1.1174    0.0000 C   0  0
   16.1924    1.8710    0.0000 S   0  0
   17.3350    0.9460    0.0000 Cl  0  0
   12.3330   -3.1975    0.0000 C   0  0
   11.6191   -3.6111    0.0000 N   0  0
   10.9040   -3.1996    0.0000 C   0  0
   10.1902   -3.6132    0.0000 C   0  0
   10.9028   -2.3746    0.0000 O   0  0
    9.4751   -3.2018    0.0000 O   0  0
   10.1914   -4.4382    0.0000 C   0  0
    9.4708   -4.0208    0.0000 C   0  0
 10 15  1  0
 15 16  1  0
 16 17  2  0
 17 18  1  0
 18 19  2  0
 19 20  1  0
 20 21  2  0
 21 16  1  0
 12 22  1  0
 22  2  1  0
  2  1  2  0
  2 23  1  0
 23 24  2  0
  3  2  2  0
  4  5  2  0
  5  6  1  0
  6  7  2  0
 24 25  1  0
 25 26  2  0
 26 27  1  0
 27 23  1  0
  7  8  1  0
 26 28  1  0
  8  9  2  0
 20 29  1  0
  9  4  1  0
 29 30  1  0
  7 10  1  0
 30 31  1  0
 10 11  1  0
 31 32  1  0
 11 12  2  0
 31 33  2  0
 12  8  1  0
 32 34  1  0
  9 13  1  0
 32 35  1  0
 13 14  1  0
 32 36  1  0
M  END