
          02060813482D 1   1.00000     0.00000     0

 22 24  0     0  0            999 V2000
    0.2444  -12.2750    0.0000 C   0  0  0  0  0  0           0  0  0
    0.2432  -13.1023    0.0000 C   0  0  0  0  0  0           0  0  0
    0.9581  -13.5152    0.0000 C   0  0  0  0  0  0           0  0  0
    1.6745  -13.1019    0.0000 C   0  0  0  0  0  0           0  0  0
    1.6716  -12.2713    0.0000 C   0  0  0  0  0  0           0  0  0
    0.9563  -11.8622    0.0000 C   0  0  0  0  0  0           0  0  0
    2.3846  -11.8561    0.0000 O   0  0  0  0  0  0           0  0  0
    2.3896  -13.5132    0.0000 I   0  0  0  0  0  0           0  0  0
   -0.4716  -13.5143    0.0000 C   0  0  0  0  0  0           0  0  0
   -1.1855  -13.1007    0.0000 C   0  0  0  0  0  0           0  0  0
   -0.4722  -14.3393    0.0000 O   0  0  0  0  0  0           0  0  0
   -2.5218  -13.1402    0.0000 O   0  0  0  0  0  0           0  0  0
   -1.8396  -13.6041    0.0000 C   0  0  0  0  0  0           0  0  0
   -1.8154  -14.4287    0.0000 C   0  0  0  0  0  0           0  0  0
   -2.5175  -14.8620    0.0000 C   0  0  0  0  0  0           0  0  0
   -2.2913  -12.3480    0.0000 C   0  0  0  0  0  0           0  0  0
   -1.4676  -12.3230    0.0000 C   0  0  0  0  0  0           0  0  0
   -1.0792  -11.5984    0.0000 C   0  0  0  0  0  0           0  0  0
   -1.5133  -10.8982    0.0000 C   0  0  0  0  0  0           0  0  0
   -2.3400  -10.9273    0.0000 C   0  0  0  0  0  0           0  0  0
   -2.7247  -11.6524    0.0000 C   0  0  0  0  0  0           0  0  0
    0.9538  -11.0372    0.0000 I   0  0  0  0  0  0           0  0  0
  9 11  2  0     0  0
 10 17  1  0     0  0
  5  6  2  0     0  0
  6  1  1  0     0  0
 16 12  1  0     0  0
 12 13  1  0     0  0
 13 10  2  0     0  0
  1  2  2  0     0  0
 13 14  1  0     0  0
  5  7  1  0     0  0
 14 15  1  0     0  0
  3  4  2  0     0  0
  4  8  1  0     0  0
 16 17  2  0     0  0
 17 18  1  0     0  0
  2  9  1  0     0  0
 18 19  2  0     0  0
  4  5  1  0     0  0
 19 20  1  0     0  0
  9 10  1  0     0  0
 20 21  2  0     0  0
 21 16  1  0     0  0
  2  3  1  0     0  0
  6 22  1  0     0  0
M  END