
          11280715302D 1   1.00000     0.00000     0

 39 43  0     0  0            999 V2000
   -2.7208   -1.4250    0.0000 C   0  0  0  0  0  0           0  0  0
   -3.3833   -1.9125    0.0000 N   0  0  3  0  0  0           0  0  0
   -4.0583   -1.4292    0.0000 N   0  0  0  0  0  0           0  0  0
   -2.9833   -0.6417    0.0000 C   0  0  0  0  0  0           0  0  0
   -3.8083   -0.6417    0.0000 C   0  0  0  0  0  0           0  0  0
   -1.9333   -1.6750    0.0000 N   0  0  0  0  0  0           0  0  0
   -1.3250   -1.1167    0.0000 C   0  0  0  0  0  0           0  0  0
    0.0667   -0.8167    0.0000 C   0  0  0  0  0  0           0  0  0
   -0.5375   -1.3667    0.0000 N   0  0  0  0  0  0           0  0  0
    0.8542   -1.0667    0.0000 C   0  0  0  0  0  0           0  0  0
    1.4667   -0.5167    0.0000 C   0  0  0  0  0  0           0  0  0
   -3.3833   -2.7292    0.0000 C   0  0  0  0  0  0           0  0  0
   -4.2958    0.0208    0.0000 C   0  0  3  0  0  0           0  0  0
    1.2917    0.2875    0.0000 C   0  0  0  0  0  0           0  0  0
   -1.5000   -0.3167    0.0000 O   0  0  0  0  0  0           0  0  0
   -0.1083   -0.0167    0.0000 C   0  0  0  0  0  0           0  0  0
    5.0417   -0.1542    0.0000 N   0  0  0  0  0  0           0  0  0
    0.5042    0.5375    0.0000 C   0  0  0  0  0  0           0  0  0
   -2.6708   -3.1417    0.0000 C   0  0  0  0  0  0           0  0  0
   -4.0958   -3.1500    0.0000 C   0  0  0  0  0  0           0  0  0
    1.9042    0.8458    0.0000 O   0  0  0  0  0  0           0  0  0
   -2.6583   -3.9625    0.0000 C   0  0  0  0  0  0           0  0  0
   -4.0958   -3.9750    0.0000 C   0  0  0  0  0  0           0  0  0
   -3.3750   -4.3792    0.0000 C   0  0  0  0  0  0           0  0  0
    2.6917    0.5958    0.0000 C   0  0  0  0  0  0           0  0  0
    4.0875    0.9000    0.0000 C   0  0  0  0  0  0           0  0  0
    1.0292   -1.8792    0.0000 C   0  0  0  0  0  0           0  0  0
    4.2542    0.0958    0.0000 C   0  0  0  0  0  0           0  0  0
    2.2542   -0.7625    0.0000 C   0  0  0  0  0  0           0  0  0
   -4.8833    0.6083    0.0000 C   0  0  0  0  0  0           0  0  0
   -3.9625    0.7750    0.0000 C   0  0  0  0  0  0           0  0  0
   -5.1125   -0.0667    0.0000 C   0  0  0  0  0  0           0  0  0
    5.6542    0.4000    0.0000 C   0  0  0  0  0  0           0  0  0
    3.3000    1.1500    0.0000 C   0  0  0  0  0  0           0  0  0
   -3.3708   -5.2042    0.0000 C   0  0  0  0  0  0           0  0  0
    4.6917    1.4583    0.0000 C   0  0  0  0  0  0           0  0  0
    5.4750    1.2083    0.0000 C   0  0  0  0  0  0           0  0  0
    2.4292   -1.5750    0.0000 C   0  0  0  0  0  0           0  0  0
    1.8167   -2.1292    0.0000 C   0  0  0  0  0  0           0  0  0
  2  1  1  0     0  0
  3  2  1  0     0  0
  4  1  2  0     0  0
  5  4  1  0     0  0
  6  1  1  0     0  0
  7  6  1  0     0  0
  8  9  1  0     0  0
  9  7  1  0     0  0
 10  8  2  0     0  0
 11 10  1  0     0  0
 12  2  1  0     0  0
 13  5  1  0     0  0
 14 18  1  0     0  0
 15  7  2  0     0  0
 16  8  1  0     0  0
 17 28  1  0     0  0
 18 16  2  0     0  0
 19 12  1  0     0  0
 20 12  2  0     0  0
 21 14  1  0     0  0
 22 19  2  0     0  0
 23 20  1  0     0  0
 24 23  2  0     0  0
 25 21  1  0     0  0
 26 34  1  0     0  0
 27 10  1  0     0  0
 28 26  2  0     0  0
 29 11  1  0     0  0
 30 13  1  0     0  0
 31 13  1  0     0  0
 32 13  1  0     0  0
 33 37  1  0     0  0
 34 25  1  0     0  0
 35 24  1  0     0  0
 36 26  1  0     0  0
 37 36  2  0     0  0
 38 39  1  0     0  0
 39 27  2  0     0  0
  3  5  2  0     0  0
 24 22  1  0     0  0
 14 11  2  0     0  0
 29 38  2  0     0  0
 33 17  2  0     0  0
M  END