
  CDK    12/20/10,15:21

 36 40  0  0  0  0  0  0  0  0999 V2000
   11.1402  -22.9791    0.0000 C   0  0  0  0  0  0  0  0  0  0  0  0
   11.1391  -23.8065    0.0000 C   0  0  0  0  0  0  0  0  0  0  0  0
   11.8539  -24.2194    0.0000 C   0  0  0  0  0  0  0  0  0  0  0  0
   12.5703  -23.8060    0.0000 C   0  0  0  0  0  0  0  0  0  0  0  0
   12.5675  -22.9755    0.0000 N   0  0  0  0  0  0  0  0  0  0  0  0
   11.8521  -22.5664    0.0000 C   0  0  0  0  0  0  0  0  0  0  0  0
   10.4243  -24.2184    0.0000 C   0  0  0  0  0  0  0  0  0  0  0  0
    9.7101  -23.8054    0.0000 N   0  0  0  0  0  0  0  0  0  0  0  0
    9.7148  -22.9762    0.0000 C   0  0  0  0  0  0  0  0  0  0  0  0
    9.0047  -22.5632    0.0000 C   0  0  0  0  0  0  0  0  0  0  0  0
    8.2875  -22.9716    0.0000 C   0  0  0  0  0  0  0  0  0  0  0  0
    8.2849  -23.7976    0.0000 C   0  0  0  0  0  0  0  0  0  0  0  0
    8.9995  -24.2151    0.0000 C   0  0  0  0  0  0  0  0  0  0  0  0
    7.5749  -22.5558    0.0000 C   0  0  0  0  0  0  0  0  0  0  0  0
    7.5787  -21.7309    0.0000 O   0  0  0  0  0  0  0  0  0  0  0  0
    6.8586  -22.9651    0.0000 N   0  0  0  0  0  0  0  0  0  0  0  0
    6.1425  -22.5499    0.0000 C   0  0  0  0  0  0  0  0  0  0  0  0
    5.4283  -22.9557    0.0000 C   0  0  0  0  0  0  0  0  0  0  0  0
    5.4203  -23.7810    0.0000 C   0  0  0  0  0  0  0  0  0  0  0  0
    6.1327  -24.1989    0.0000 C   0  0  0  0  0  0  0  0  0  0  0  0
    6.8531  -23.7916    0.0000 C   0  0  0  0  0  0  0  0  0  0  0  0
    4.7024  -24.1875    0.0000 N   0  0  0  0  0  0  0  0  0  0  0  0
    3.9498  -23.8449    0.0000 C   0  0  0  0  0  0  0  0  0  0  0  0
    3.3926  -24.4533    0.0000 N   0  0  0  0  0  0  0  0  0  0  0  0
    4.6075  -25.0064    0.0000 C   0  0  0  0  0  0  0  0  0  0  0  0
    3.8019  -25.1732    0.0000 C   0  0  0  0  0  0  0  0  0  0  0  0
    3.5450  -25.9528    0.0000 C   0  0  0  0  0  0  0  0  0  0  0  0
    4.0928  -26.5663    0.0000 C   0  0  0  0  0  0  0  0  0  0  0  0
    4.9007  -26.3949    0.0000 C   0  0  0  0  0  0  0  0  0  0  0  0
    5.1538  -25.6155    0.0000 C   0  0  0  0  0  0  0  0  0  0  0  0
    3.7850  -23.0365    0.0000 O   0  0  0  0  0  0  0  0  0  0  0  0
    2.5728  -24.3610    0.0000 C   0  0  0  0  0  0  0  0  0  0  0  0
    2.2429  -23.6048    0.0000 C   0  0  0  0  0  0  0  0  0  0  0  0
    1.4231  -23.5124    0.0000 N   0  0  0  0  0  0  0  0  0  0  0  0
    1.0932  -22.7562    0.0000 C   0  0  0  0  0  0  0  0  0  0  0  0
    0.9332  -24.1762    0.0000 C   0  0  0  0  0  0  0  0  0  0  0  0
  8  9  1  0  0  0  0 
  4  5  1  0  0  0  0 
  2  3  1  0  0  0  0 
 16 21  1  0  0  0  0 
 17 18  1  0  0  0  0 
 18 19  1  0  0  0  0 
 19 20  1  0  0  0  0 
 20 21  1  0  0  0  0 
  5  6  2  0  0  0  0 
 19 22  1  0  0  0  0 
 22 23  1  0  0  0  0 
  6  1  1  0  0  0  0 
  8 13  1  0  0  0  0 
 23 24  1  0  0  0  0 
 24 26  1  0  0  0  0 
 25 22  1  0  0  0  0 
  9 10  1  0  0  0  0 
 10 11  1  0  0  0  0 
 25 26  2  0  0  0  0 
 11 12  1  0  0  0  0 
 26 27  1  0  0  0  0 
 12 13  1  0  0  0  0 
 27 28  2  0  0  0  0 
  1  2  2  0  0  0  0 
 28 29  1  0  0  0  0 
 11 14  1  0  0  0  0 
 29 30  2  0  0  0  0 
 30 25  1  0  0  0  0 
  2  7  1  0  0  0  0 
 23 31  2  0  0  0  0 
 14 15  2  0  0  0  0 
 24 32  1  0  0  0  0 
  3  4  2  0  0  0  0 
 32 33  1  0  0  0  0 
 14 16  1  0  0  0  0 
 33 34  1  0  0  0  0 
 16 17  1  0  0  0  0 
 34 35  1  0  0  0  0 
  7  8  1  0  0  0  0 
 34 36  1  0  0  0  0 
M  END