
  CDK    9/16/09,9:56

 26 29  0  0  0  0  0  0  0  0999 V2000
    5.2340   -8.1949    0.0000 C   0  0  0  0  0  0  0  0  0  0  0  0
    5.2340   -9.0245    0.0000 C   0  0  0  0  0  0  0  0  0  0  0  0
    5.9486   -9.4370    0.0000 N   0  0  0  0  0  0  0  0  0  0  0  0
    6.6675   -9.0245    0.0000 C   0  0  0  0  0  0  0  0  0  0  0  0
    6.6675   -8.1949    0.0000 C   0  0  0  0  0  0  0  0  0  0  0  0
    5.9486   -7.7778    0.0000 O   0  0  0  0  0  0  0  0  0  0  0  0
    7.3824   -7.7831    0.0000 C   0  0  0  0  0  0  0  0  0  0  0  0
    8.0965   -8.1963    0.0000 O   0  0  0  0  0  0  0  0  0  0  0  0
    8.8114   -7.7846    0.0000 C   0  0  0  0  0  0  0  0  0  0  0  0
    9.5222   -8.2016    0.0000 C   0  0  0  0  0  0  0  0  0  0  0  0
   10.2365   -7.7905    0.0000 C   0  0  0  0  0  0  0  0  0  0  0  0
   10.2379   -6.9646    0.0000 C   0  0  0  0  0  0  0  0  0  0  0  0
    9.5188   -6.5516    0.0000 C   0  0  0  0  0  0  0  0  0  0  0  0
    8.8073   -6.9650    0.0000 C   0  0  0  0  0  0  0  0  0  0  0  0
    5.9474  -10.2620    0.0000 C   0  0  0  0  0  0  0  0  0  0  0  0
    5.2807  -10.7506    0.0000 C   0  0  0  0  0  0  0  0  0  0  0  0
    5.5346  -11.5355    0.0000 C   0  0  0  0  0  0  0  0  0  0  0  0
    6.3595  -11.5367    0.0000 C   0  0  0  0  0  0  0  0  0  0  0  0
    6.6155  -10.7524    0.0000 C   0  0  0  0  0  0  0  0  0  0  0  0
   10.9522   -6.5519    0.0000 C   0  0  0  0  0  0  0  0  0  0  0  0
   11.6667   -6.9641    0.0000 N   0  0  0  0  0  0  0  0  0  0  0  0
   11.6627   -7.7879    0.0000 C   0  0  0  0  0  0  0  0  0  0  0  0
   12.3731   -8.2001    0.0000 C   0  0  0  0  0  0  0  0  0  0  0  0
   13.0899   -7.7908    0.0000 C   0  0  0  0  0  0  0  0  0  0  0  0
   13.0917   -6.9650    0.0000 C   0  0  0  0  0  0  0  0  0  0  0  0
   12.3766   -6.5482    0.0000 C   0  0  0  0  0  0  0  0  0  0  0  0
 12 13  1  0  0  0  0 
 13 14  2  0  0  0  0 
 14  9  1  0  0  0  0 
  5  7  1  0  0  0  0 
  3 15  1  0  0  0  0 
 15 16  1  0  0  0  0 
  1  2  1  0  0  0  0 
  7  8  1  0  0  0  0 
  1  6  1  0  0  0  0 
  8  9  1  0  0  0  0 
 16 17  1  0  0  0  0 
 17 18  1  0  0  0  0 
 18 19  1  0  0  0  0 
 19 15  1  0  0  0  0 
  2  3  1  0  0  0  0 
 12 20  1  0  0  0  0 
  9 10  2  0  0  0  0 
 20 21  1  0  0  0  0 
 21 22  1  0  0  0  0 
  3  4  1  0  0  0  0 
 10 11  1  0  0  0  0 
  4  5  1  0  0  0  0 
 11 12  2  0  0  0  0 
  5  6  1  0  0  0  0 
 21 26  1  0  0  0  0 
 22 23  1  0  0  0  0 
 23 24  1  0  0  0  0 
 24 25  1  0  0  0  0 
 25 26  1  0  0  0  0 
M  END