
          11280715482D 1   1.00000     0.00000     0

 35 40  0     0  0            999 V2000
    4.1417   -0.9667    0.0000 C   0  0  0  0  0  0           0  0  0
    3.3875   -0.6250    0.0000 N   0  0  0  0  0  0           0  0  0
    2.8292   -1.2375    0.0000 C   0  0  0  0  0  0           0  0  0
    4.0417   -1.7875    0.0000 C   0  0  0  0  0  0           0  0  0
    3.2375   -1.9542    0.0000 N   0  0  0  0  0  0           0  0  0
    4.8542   -0.5542    0.0000 C   0  0  0  0  0  0           0  0  0
    5.0875   -3.7042    0.0000 C   0  0  3  0  0  0           0  0  0
    5.5667   -0.9750    0.0000 N   0  0  0  0  0  0           0  0  0
    8.4167   -1.0000    0.0000 C   0  0  0  0  0  0           0  0  0
    7.7125   -0.5792    0.0000 C   0  0  0  0  0  0           0  0  0
    5.6917   -5.1917    0.0000 C   0  0  3  0  0  0           0  0  0
    6.3917   -4.0417    0.0000 C   0  0  3  0  0  0           0  0  0
    5.2667   -4.9625    0.0000 C   0  0  3  0  0  0           0  0  0
    4.8625    0.2708    0.0000 O   0  0  0  0  0  0           0  0  0
    4.6542   -2.3417    0.0000 C   0  0  0  0  0  0           0  0  0
    6.2875   -0.5667    0.0000 C   0  0  0  0  0  0           0  0  0
    6.9917   -0.9917    0.0000 C   0  0  0  0  0  0           0  0  0
    2.0042   -1.1417    0.0000 C   0  0  3  0  0  0           0  0  0
    5.8500   -3.4292    0.0000 C   0  0  0  0  0  0           0  0  0
    5.1167   -4.5667    0.0000 C   0  0  0  0  0  0           0  0  0
    4.7250   -4.3792    0.0000 C   0  0  0  0  0  0           0  0  0
    8.4167   -1.8250    0.0000 O   0  0  0  0  0  0           0  0  0
    4.4792   -3.1500    0.0000 C   0  0  0  0  0  0           0  0  0
    5.2500   -5.9000    0.0000 C   0  0  0  0  0  0           0  0  0
    5.9667   -4.6792    0.0000 C   0  0  0  0  0  0           0  0  0
    6.4542   -4.9125    0.0000 C   0  0  0  0  0  0           0  0  0
    9.1417   -0.5917    0.0000 O   0  0  0  0  0  0           0  0  0
    7.7167    0.2458    0.0000 C   0  0  0  0  0  0           0  0  0
    7.0000    0.6583    0.0000 C   0  0  0  0  0  0           0  0  0
    6.2875    0.2500    0.0000 C   0  0  0  0  0  0           0  0  0
    1.6792   -0.3792    0.0000 C   0  0  0  0  0  0           0  0  0
    1.5250   -1.8042    0.0000 C   0  0  0  0  0  0           0  0  0
    0.7000   -1.7125    0.0000 C   0  0  0  0  0  0           0  0  0
    0.8625   -0.2917    0.0000 C   0  0  0  0  0  0           0  0  0
    0.3667   -0.9542    0.0000 C   0  0  0  0  0  0           0  0  0
  2  1  1  0     0  0
  3  2  1  0     0  0
  4  1  2  0     0  0
  5  4  1  0     0  0
  6  1  1  0     0  0
  7 23  1  0     0  0
  8  6  1  0     0  0
  9 10  1  0     0  0
 10 17  2  0     0  0
 11 20  1  0     0  0
 12 19  1  0     0  0
 13 21  1  0     0  0
 14  6  2  0     0  0
 15  4  1  0     0  0
 16  8  1  0     0  0
 17 16  1  0     0  0
 18  3  1  0     0  0
 19  7  1  0     0  0
 20  7  1  0     0  0
 21  7  1  0     0  0
 22  9  2  0     0  0
 23 15  1  0     0  0
 24 13  1  0     0  0
 25 13  1  0     0  0
 26 11  1  0     0  0
 27  9  1  0     0  0
 28 29  2  0     0  0
 29 30  1  0     0  0
 30 16  2  0     0  0
 31 18  1  0     0  0
 32 18  1  0     0  0
 33 32  1  0     0  0
 34 31  1  0     0  0
 35 33  1  0     0  0
  3  5  2  0     0  0
 10 28  1  0     0  0
 34 35  1  0     0  0
 25 12  1  0     0  0
 11 24  1  0     0  0
 26 12  1  0     0  0
M  END