
  CDK    9/16/09,9:48

 27 30  0  0  0  0  0  0  0  0999 V2000
   -4.1223   -6.4125    0.0000 C   0  0  0  0  0  0  0  0  0  0  0  0
   -4.1234   -7.2398    0.0000 C   0  0  0  0  0  0  0  0  0  0  0  0
   -3.4086   -7.6527    0.0000 C   0  0  0  0  0  0  0  0  0  0  0  0
   -3.4104   -5.9997    0.0000 C   0  0  0  0  0  0  0  0  0  0  0  0
   -2.6950   -6.4088    0.0000 C   0  0  0  0  0  0  0  0  0  0  0  0
   -2.6943   -7.2357    0.0000 C   0  0  0  0  0  0  0  0  0  0  0  0
   -1.9790   -7.6466    0.0000 N   0  0  0  0  0  0  0  0  0  0  0  0
   -1.2639   -7.2319    0.0000 C   0  0  0  0  0  0  0  0  0  0  0  0
   -1.2687   -6.4019    0.0000 C   0  0  0  0  0  0  0  0  0  0  0  0
   -1.9846   -5.9947    0.0000 C   0  0  0  0  0  0  0  0  0  0  0  0
   -1.9890   -5.1697    0.0000 N   0  0  0  0  0  0  0  0  0  0  0  0
   -1.2767   -4.7534    0.0000 C   0  0  0  0  0  0  0  0  0  0  0  0
   -0.5647   -5.1655    0.0000 C   0  0  0  0  0  0  0  0  0  0  0  0
    0.1471   -4.7499    0.0000 C   0  0  0  0  0  0  0  0  0  0  0  0
    0.1432   -3.9241    0.0000 C   0  0  0  0  0  0  0  0  0  0  0  0
   -0.5785   -3.5155    0.0000 C   0  0  0  0  0  0  0  0  0  0  0  0
   -1.2873   -3.9335    0.0000 C   0  0  0  0  0  0  0  0  0  0  0  0
    0.8549   -3.5068    0.0000 O   0  0  0  0  0  0  0  0  0  0  0  0
    1.5721   -3.9146    0.0000 C   0  0  0  0  0  0  0  0  0  0  0  0
    2.2838   -3.4974    0.0000 C   0  0  0  0  0  0  0  0  0  0  0  0
    3.0010   -3.9051    0.0000 C   0  0  0  0  0  0  0  0  0  0  0  0
    3.7127   -3.4879    0.0000 N   0  0  0  0  0  0  0  0  0  0  0  0
    4.4293   -3.8978    0.0000 C   0  0  0  0  0  0  0  0  0  0  0  0
    5.1389   -3.4841    0.0000 C   0  0  0  0  0  0  0  0  0  0  0  0
    5.1377   -2.6588    0.0000 C   0  0  0  0  0  0  0  0  0  0  0  0
    4.4206   -2.2488    0.0000 C   0  0  0  0  0  0  0  0  0  0  0  0
    3.7048   -2.6642    0.0000 C   0  0  0  0  0  0  0  0  0  0  0  0
 12 13  2  0  0  0  0 
  3  6  2  0  0  0  0 
 13 14  1  0  0  0  0 
  6  7  1  0  0  0  0 
 14 15  2  0  0  0  0 
  1  2  2  0  0  0  0 
 15 16  1  0  0  0  0 
  7  8  2  0  0  0  0 
 16 17  2  0  0  0  0 
 17 12  1  0  0  0  0 
  5  4  2  0  0  0  0 
 15 18  1  0  0  0  0 
  8  9  1  0  0  0  0 
 18 19  1  0  0  0  0 
  4  1  1  0  0  0  0 
 19 20  1  0  0  0  0 
  9 10  2  0  0  0  0 
 20 21  1  0  0  0  0 
 10  5  1  0  0  0  0 
 21 22  1  0  0  0  0 
 22 23  1  0  0  0  0 
 10 11  1  0  0  0  0 
  2  3  1  0  0  0  0 
 11 12  1  0  0  0  0 
  5  6  1  0  0  0  0 
 22 27  1  0  0  0  0 
 23 24  1  0  0  0  0 
 24 25  1  0  0  0  0 
 25 26  1  0  0  0  0 
 26 27  1  0  0  0  0 
M  END