
  SciTegic09251318272D

 20 21  0  0  0  0            999 V2000
   -2.5141    0.0413    0.0000 O   0  0
   -1.7996   -0.3712    0.0000 C   0  0
   -1.7996   -1.1962    0.0000 O   0  0
   -1.0851    0.0413    0.0000 C   0  0
   -0.3707   -0.3712    0.0000 C   0  0
   -0.3707   -1.1962    0.0000 C   0  0
   -1.0851   -1.6087    0.0000 C   0  0
   -1.0851   -2.4337    0.0000 C   0  0
   -0.3707   -2.8462    0.0000 C   0  0
    0.3438   -2.4337    0.0000 C   0  0
    0.3438   -1.6087    0.0000 C   0  0
    0.3438    0.0413    0.0000 C   0  0
    0.3438    0.8663    0.0000 C   0  0
    1.0583    1.2788    0.0000 C   0  0
    1.7727    0.8663    0.0000 C   0  0
    1.0583    2.1038    0.0000 C   0  0
    1.7727    2.5163    0.0000 C   0  0
    2.4872    2.1038    0.0000 C   0  0
    3.2017    2.5163    0.0000 Cl  0  0
    2.4872    1.2788    0.0000 C   0  0
  2  1  1  0
  2  3  2  0
  4  2  1  0
  4  5  2  0
  5  6  1  0
 12  5  1  0
  7  6  2  0
 11  6  1  0
  8  7  1  0
  9  8  2  0
  9 10  1  0
 10 11  2  0
 12 13  1  0
 13 14  1  0
 15 14  2  0
 16 14  1  0
 20 15  1  0
 17 16  2  0
 17 18  1  0
 18 19  1  0
 20 18  2  0
M  END