
          11280715242D 1   1.00000     0.00000     0

 62 65  0     1  0            999 V2000
    2.1542   -2.6292    0.0000 C   0  0  1  0  0  0           0  0  0
    4.3042   -2.2167    0.0000 C   0  0  1  0  0  0           0  0  0
    6.4417    3.9708    0.0000 N   0  3  0  0  0  0           0  0  0
    2.8792   -8.8042    0.0000 N   0  3  0  0  0  0           0  0  0
    1.4417   -2.2167    0.0000 C   0  0  0  0  0  0           0  0  0
    5.0167   -2.6292    0.0000 C   0  0  0  0  0  0           0  0  0
    2.8750   -2.2167    0.0000 C   0  0  1  0  0  0           0  0  0
    3.5875   -2.6292    0.0000 C   0  0  1  0  0  0           0  0  0
    0.7292   -2.6292    0.0000 N   0  0  0  0  0  0           0  0  0
    5.7292   -2.2167    0.0000 N   0  0  0  0  0  0           0  0  0
    0.0167   -2.2167    0.0000 C   0  0  2  0  0  0           0  0  0
    6.4417   -2.6292    0.0000 C   0  0  2  0  0  0           0  0  0
   -0.7000   -2.6292    0.0000 C   0  0  0  0  0  0           0  0  0
    7.1625   -2.2167    0.0000 C   0  0  0  0  0  0           0  0  0
    4.3042   -1.3917    0.0000 O   0  0  0  0  0  0           0  0  0
    2.1542   -3.4542    0.0000 O   0  0  0  0  0  0           0  0  0
    5.7292    3.5583    0.0000 C   0  0  0  0  0  0           0  0  0
    2.1625   -8.3917    0.0000 C   0  0  0  0  0  0           0  0  0
    5.7292    2.7333    0.0000 C   0  0  0  0  0  0           0  0  0
    2.1542   -7.5667    0.0000 C   0  0  0  0  0  0           0  0  0
    7.1542    3.5583    0.0000 O   0  5  0  0  0  0           0  0  0
    2.8792   -9.6292    0.0000 O   0  5  0  0  0  0           0  0  0
    5.0167    2.3208    0.0000 C   0  0  0  0  0  0           0  0  0
    1.4417   -7.1667    0.0000 C   0  0  0  0  0  0           0  0  0
    6.4417    4.7792    0.0000 O   0  0  0  0  0  0           0  0  0
    3.5917   -8.3917    0.0000 O   0  0  0  0  0  0           0  0  0
    5.0167   -3.4542    0.0000 O   0  0  0  0  0  0           0  0  0
    1.4417   -1.3917    0.0000 O   0  0  0  0  0  0           0  0  0
    1.4417   -6.3417    0.0000 C   0  0  0  0  0  0           0  0  0
    5.0167    1.4958    0.0000 C   0  0  0  0  0  0           0  0  0
   -0.7000   -3.4542    0.0000 O   0  0  0  0  0  0           0  0  0
    7.1625   -1.3917    0.0000 O   0  0  0  0  0  0           0  0  0
    7.8750   -2.6292    0.0000 N   0  0  0  0  0  0           0  0  0
   -1.4125   -2.2167    0.0000 N   0  0  0  0  0  0           0  0  0
    2.1542   -5.9250    0.0000 C   0  0  0  0  0  0           0  0  0
    5.7292    1.0833    0.0000 C   0  0  0  0  0  0           0  0  0
    0.7292   -5.9292    0.0000 C   0  0  0  0  0  0           0  0  0
    4.3042    1.0750    0.0000 C   0  0  0  0  0  0           0  0  0
    3.5875   -3.4542    0.0000 O   0  0  0  0  0  0           0  0  0
    2.8750   -1.3917    0.0000 O   0  0  0  0  0  0           0  0  0
    5.0167   -0.9792    0.0000 C   0  0  0  0  0  0           0  0  0
    1.4417   -3.8667    0.0000 C   0  0  0  0  0  0           0  0  0
    6.4417   -3.4542    0.0000 C   0  0  3  0  0  0           0  0  0
    0.0167   -1.3917    0.0000 C   0  0  3  0  0  0           0  0  0
    5.0167   -0.1542    0.0000 C   0  0  0  0  0  0           0  0  0
    1.4417   -4.6917    0.0000 C   0  0  0  0  0  0           0  0  0
    0.7292   -5.1042    0.0000 C   0  0  0  0  0  0           0  0  0
    2.1542   -5.1000    0.0000 C   0  0  0  0  0  0           0  0  0
    5.7292    0.2583    0.0000 C   0  0  0  0  0  0           0  0  0
    4.3042    0.2583    0.0000 C   0  0  0  0  0  0           0  0  0
    5.0167    3.9708    0.0000 C   0  0  0  0  0  0           0  0  0
    1.4417   -8.8125    0.0000 C   0  0  0  0  0  0           0  0  0
    0.7292   -7.5750    0.0000 C   0  0  0  0  0  0           0  0  0
    4.3042    2.7250    0.0000 C   0  0  0  0  0  0           0  0  0
    0.7292   -8.4000    0.0000 C   0  0  0  0  0  0           0  0  0
    4.3000    3.5500    0.0000 C   0  0  0  0  0  0           0  0  0
   -2.1250   -2.6292    0.0000 C   0  0  0  0  0  0           0  0  0
    8.5917   -2.2167    0.0000 C   0  0  0  0  0  0           0  0  0
   -0.7000   -0.9792    0.0000 C   0  0  0  0  0  0           0  0  0
    0.7292   -0.9792    0.0000 C   0  0  0  0  0  0           0  0  0
    5.7292   -3.8667    0.0000 C   0  0  0  0  0  0           0  0  0
    7.1625   -3.8667    0.0000 C   0  0  0  0  0  0           0  0  0
  2  8  1  0     0  0
  3 17  1  0     0  0
  4 18  1  0     0  0
  5  1  1  0     0  0
  6  2  1  0     0  0
  7  1  1  0     0  0
  8  7  1  0     0  0
  9  5  1  0     0  0
 10  6  1  0     0  0
 11  9  1  0     0  0
 12 10  1  0     0  0
 13 11  1  0     0  0
 14 12  1  0     0  0
  2 15  1  1     0  0
  1 16  1  1     0  0
 17 19  1  0     0  0
 18 20  2  0     0  0
 19 23  2  0     0  0
 20 24  1  0     0  0
 21  3  1  0     0  0
 22  4  1  0     0  0
 23 30  1  0     0  0
 24 29  1  0     0  0
 25  3  2  0     0  0
 26  4  2  0     0  0
 27  6  2  0     0  0
 28  5  2  0     0  0
 29 35  1  0     0  0
 30 38  1  0     0  0
 31 13  2  0     0  0
 32 14  2  0     0  0
 33 14  1  0     0  0
 34 13  1  0     0  0
 35 48  2  0     0  0
 36 49  1  0     0  0
 37 47  1  0     0  0
 38 50  2  0     0  0
  8 39  1  6     0  0
  7 40  1  6     0  0
 41 15  1  0     0  0
 42 16  1  0     0  0
 12 43  1  6     0  0
 11 44  1  6     0  0
 45 41  1  0     0  0
 46 42  1  0     0  0
 47 46  2  0     0  0
 48 46  1  0     0  0
 49 45  2  0     0  0
 50 45  1  0     0  0
 51 56  1  0     0  0
 52 55  2  0     0  0
 53 24  2  0     0  0
 54 23  1  0     0  0
 55 53  1  0     0  0
 56 54  2  0     0  0
 57 34  1  0     0  0
 58 33  1  0     0  0
 59 44  1  0     0  0
 60 44  1  0     0  0
 61 43  1  0     0  0
 62 43  1  0     0  0
 37 29  2  0     0  0
 36 30  2  0     0  0
 18 52  1  0     0  0
 17 51  2  0     0  0
M  CHG  4   3   1   4   1  21  -1  22  -1
M  END