
  SciTegic01161211222D

 43 48  0  0  0  0            999 V2000
    4.1032   -2.1731    0.0000 N   0  0
    5.5290   -2.1802    0.0000 C   0  0  1  0  0  0
    4.8179   -1.7631    0.0000 C   0  0
    2.7299   -0.4807    0.0000 C   0  0
    3.4303   -0.9164    0.0000 C   0  0  1  0  0  0
    3.4066   -1.7429    0.0000 C   0  0
    6.2636   -1.8246    0.0000 C   0  0
    6.9641   -2.2562    0.0000 N   0  0
    6.2830   -0.9981    0.0000 O   0  0
    6.9361   -3.0791    0.0000 C   0  0
    7.6324   -3.5145    0.0000 C   0  0
    8.3587   -3.1233    0.0000 N   0  0
    8.3884   -2.2958    0.0000 C   0  0
    7.6836   -1.8598    0.0000 C   0  0
    9.0545   -3.5608    0.0000 C   0  0
    9.0264   -4.3883    0.0000 C   0  0
    9.7285   -4.8265    0.0000 C   0  0
   10.4549   -4.4344    0.0000 C   0  0
   10.4791   -3.6035    0.0000 C   0  0
    9.7805   -3.1732    0.0000 C   0  0
    4.1543   -0.5216    0.0000 C   0  0
    2.0060   -0.8755    0.0000 C   0  0
    1.3049   -0.4376    0.0000 C   0  0
    1.2628   -2.0907    0.0000 C   0  0
    1.9876   -1.6983    0.0000 C   0  0
    4.0990   -3.0000    0.0000 C   0  0
    5.5242   -1.3504    0.0000 H   0  0
    5.5248   -3.0072    0.0000 C   0  0  2  0  0  0
    4.8069   -3.4181    0.0000 C   0  0  1  0  0  0
    4.8024   -4.2394    0.0000 C   0  0
    5.5141   -4.6557    0.0000 C   0  0
    6.2321   -4.2489    0.0000 C   0  0
    6.2382   -3.4214    0.0000 C   0  0
    4.0866   -3.8226    0.0000 H   0  0
    6.2388   -2.5886    0.0000 H   0  0
   11.2079   -3.2140    0.0000 F   0  0
   11.1589   -4.8710    0.0000 F   0  0
    0.5563   -1.6629    0.0000 C   0  0
    0.5807   -0.8336    0.0000 N   0  0
   -0.2003   -0.5542    0.0000 C   0  0
   -0.7075   -1.2106    0.0000 C   0  0
   -0.2399   -1.8957    0.0000 N   0  0
   -1.5322   -1.1863    0.0000 C   0  0
 22 23  2  0
 23 39  1  0
  1  3  1  0
 38 24  1  0
  5  6  1  0
 24 25  2  0
 25 22  1  0
  6  1  1  0
  8 14  1  0
 29 26  1  0
 10 11  1  0
 11 12  1  0
  2 27  1  6
 28 29  1  0
 12 13  1  0
 13 14  1  0
 28  2  1  0
  2  7  1  0
 15 16  2  0
  2  3  1  0
 28 33  1  0
 29 30  1  0
 30 31  1  0
 31 32  1  0
 32 33  1  0
 16 17  1  0
 29 34  1  6
  7  8  1  0
 28 35  1  6
 17 18  2  0
 19 36  1  0
  1 26  1  0
 18 37  1  0
 18 19  1  0
  7  9  2  0
 19 20  2  0
 20 15  1  0
 38 39  1  0
 12 15  1  0
  8 10  1  0
  5 21  1  6
  4 22  1  0
 39 40  1  0
 40 41  2  0
 41 42  1  0
 42 38  2  0
  4  5  1  0
 41 43  1  0
M  END