
  SciTegic12211612402D

 34 36  0  0  0  0            999 V2000
    5.4984   -5.5497    0.0000 C   0  0
    4.0312   -5.2378    0.0000 N   0  0
    3.8933   -3.7570    0.0000 N   0  0
    5.2447   -3.1359    0.0000 C   0  0
    6.2484   -4.2507    0.0000 C   0  0
    6.1088   -6.9207    0.0000 C   0  0
    2.5951   -3.0039    0.0000 C   0  0
    2.5973   -1.5031    0.0000 N   0  0
    1.2925   -3.7494    0.0000 N   0  0
    1.2990   -0.7500    0.0000 C   0  0
    1.2990    0.7500    0.0000 C   0  0
    0.0000    1.5000    0.0000 C   0  0
   -1.2990    0.7500    0.0000 C   0  0
   -1.2990   -0.7500    0.0000 C   0  0
    0.0000   -1.5000    0.0000 C   0  0
    7.7381   -4.0910    0.0000 N   0  0
    8.3466   -2.7190    0.0000 C   0  0
    8.6249   -5.3018    0.0000 C   0  0
    9.8180   -5.1726    0.0000 C   0  0
    7.6396   -1.7494    0.0000 O   0  0
    9.8389   -2.5590    0.0000 C   0  0
   10.3254   -1.4621    0.0000 O   0  0
    5.3228   -8.1924    0.0000 C   0  0
    6.0343   -9.5130    0.0000 C   0  0
    7.5336   -9.5571    0.0000 C   0  0
    8.3215   -8.2806    0.0000 C   0  0
    7.6100   -6.9601    0.0000 C   0  0
    8.1028  -10.6135    0.0000 Cl  0  0
    1.2859   -5.2502    0.0000 C   0  0
    1.2806   -6.4502    0.0000 N   0  0
   -0.0031    3.0008    0.0000 O   0  0
   -1.3039    3.7494    0.0000 C   0  0
   -1.3064    4.9494    0.0000 F   0  0
   -2.3421    3.1476    0.0000 F   0  0
  1  2  2  0
  2  3  1  0
  3  4  1  0
  4  5  1  0
  5  1  1  0
  1  6  1  0
  3  7  1  0
  7  8  1  0
  7  9  2  0
  8 10  1  0
 10 11  2  0
 11 12  1  0
 12 13  2  0
 13 14  1  0
 14 15  2  0
 15 10  1  0
  5 16  1  0
 16 17  1  0
 16 18  1  0
 18 19  1  0
 17 20  2  0
 17 21  1  0
 21 22  1  0
  6 23  2  0
 23 24  1  0
 24 25  2  0
 25 26  1  0
 26 27  2  0
 27  6  1  0
 25 28  1  0
  9 29  1  0
 29 30  3  0
 12 31  1  0
 31 32  1  0
 32 33  1  0
 32 34  1  0
M  END