
  SciTegic12231509382D

 13 13  0  0  0  0            999 V2000
    3.9076    1.5548    0.0000 O   0  0
    5.3365    2.3798    0.0000 O   0  0
    4.6221   -1.3327    0.0000 O   0  0
    6.0510   -2.1577    0.0000 N   0  0
    5.3365   -0.0952    0.0000 C   0  0
    4.6221    1.1423    0.0000 C   0  0
    5.3365    1.5548    0.0000 C   0  0
    4.6221    0.3173    0.0000 C   0  0
    5.3365   -0.9202    0.0000 C   0  0
    6.0510    0.3173    0.0000 C   0  0
    6.0510    1.1423    0.0000 C   0  0
    6.0510   -1.3327    0.0000 C   0  0
    6.7655   -2.5702    0.0000 C   0  0
  1  6  1  0
  2  7  1  0
  3  9  1  0
  4 12  1  0
  4 13  1  0
  5  8  1  0
  5  9  1  0
  5 10  2  0
  6  7  1  0
  6  8  2  0
  7 11  2  0
  9 12  1  0
 10 11  1  0
M  END