
  SciTegic07151116262D

 22 25  0  0  0  0            999 V2000
   -2.4698   -0.9323    0.0000 C   0  0
   -1.7928   -1.4038    0.0000 C   0  0
   -1.0459   -1.0534    0.0000 C   0  0
   -0.9760   -0.2314    0.0000 C   0  0
   -1.6529    0.2402    0.0000 C   0  0
   -2.3998   -0.1103    0.0000 C   0  0
   -0.3690   -1.5250    0.0000 C   0  0
    0.3778   -1.1745    0.0000 C   0  0
    0.4478   -0.3525    0.0000 C   0  0
   -0.2292    0.1192    0.0000 C   0  0  2  0  0  0
    1.1946   -0.0020    0.0000 C   0  0  1  0  0  0
    1.2645    0.8200    0.0000 C   0  0  2  0  0  0
    0.5876    1.2916    0.0000 C   0  0
   -0.1592    0.9412    0.0000 C   0  0
    1.9549   -0.3225    0.0000 C   0  0
    2.4946    0.3014    0.0000 C   0  0
    2.0680    1.0076    0.0000 C   0  0
    1.4200    1.6303    0.0000 C   0  0
   -3.2166   -1.2827    0.0000 O   0  0
    2.3884    1.7677    0.0000 O   0  0
   -0.2292   -0.7058    0.0000 H   0  0
    1.1946   -0.8270    0.0000 H   0  0
  1  2  2  0
  1  6  1  0
  1 19  1  0
  2  3  1  0
  3  4  2  0
  7  3  1  0
  4  5  1  0
 10  4  1  0
  5  6  2  0
  7  8  1  0
  8  9  2  0
 10  9  1  0
 11  9  1  0
 10 14  1  0
 11 12  1  0
 11 15  1  0
 12 13  1  0
 12 17  1  0
 12 18  1  1
 13 14  1  0
 15 16  1  0
 16 17  1  0
 17 20  2  0
 10 21  1  6
 11 22  1  6
M  END