
          02060813472D 1   1.00000     0.00000     0

 17 19  0     0  0            999 V2000
   -2.5018    1.2440    0.0000 C   0  0  0  0  0  0           0  0  0
   -2.5030    0.4179    0.0000 C   0  0  0  0  0  0           0  0  0
   -1.7892    0.0056    0.0000 C   0  0  0  0  0  0           0  0  0
   -1.7909    1.6561    0.0000 C   0  0  0  0  0  0           0  0  0
   -1.0767    1.2476    0.0000 C   0  0  0  0  0  0           0  0  0
   -1.0764    0.4179    0.0000 C   0  0  0  0  0  0           0  0  0
   -0.2877    1.5042    0.0000 N   0  0  0  0  0  0           0  0  0
    0.2004    0.8331    0.0000 C   0  0  0  0  0  0           0  0  0
   -0.2905    0.1638    0.0000 N   0  0  3  0  0  0           0  0  0
    0.1943   -0.5098    0.0000 N   0  0  0  0  0  0           0  0  0
    0.9849   -0.2569    0.0000 S   0  0  0  0  0  0           0  0  0
    0.9885    0.5730    0.0000 C   0  0  0  0  0  0           0  0  0
   -3.2167    0.0066    0.0000 S   0  0  3  0  0  0           0  0  0
   -3.9357   -0.3994    0.0000 N   0  0  0  0  0  0           0  0  0
   -2.8085   -0.7089    0.0000 O   0  0  0  0  0  0           0  0  0
   -3.6230    0.7231    0.0000 O   0  0  0  0  0  0           0  0  0
    1.6571    1.0543    0.0000 Cl  0  0  0  0  0  0           0  0  0
  8  9  1  0     0  0
  1  2  2  0     0  0
  5  4  2  0     0  0
  4  1  1  0     0  0
  5  6  1  0     0  0
  9 10  1  0     0  0
 10 11  2  0     0  0
 11 12  2  0     0  0
 12  8  1  0     0  0
  2  3  1  0     0  0
  2 13  1  0     0  0
  3  6  2  0     0  0
 13 14  1  0     0  0
  6  9  1  0     0  0
 13 15  2  0     0  0
  8  7  2  0     0  0
 13 16  2  0     0  0
  7  5  1  0     0  0
 12 17  1  0     0  0
M  END