
          11280715302D 1   1.00000     0.00000     0

 22 25  0     0  0            999 V2000
    3.5417   -4.1750    0.0000 C   0  0  0  0  0  0           0  0  0
    2.1042   -4.1750    0.0000 C   0  0  0  0  0  0           0  0  0
    2.8250   -3.7667    0.0000 C   0  0  0  0  0  0           0  0  0
    2.1125   -5.0042    0.0000 C   0  0  0  0  0  0           0  0  0
    3.5417   -5.0042    0.0000 C   0  0  0  0  0  0           0  0  0
    4.2625   -3.7542    0.0000 C   0  0  0  0  0  0           0  0  0
    2.8250   -5.4167    0.0000 C   0  0  0  0  0  0           0  0  0
    1.5000   -3.6167    0.0000 N   0  0  0  0  0  0           0  0  0
    2.6542   -2.9542    0.0000 N   0  0  0  0  0  0           0  0  0
    1.8375   -2.8667    0.0000 S   0  0  0  0  0  0           0  0  0
    4.2625   -2.9292    0.0000 N   0  0  0  0  0  0           0  0  0
    4.9750   -2.5125    0.0000 C   0  0  3  0  0  0           0  0  0
    5.7042   -1.2750    0.0000 N   0  0  3  0  0  0           0  0  0
    4.9667   -1.6875    0.0000 C   0  0  0  0  0  0           0  0  0
    4.9792   -4.1667    0.0000 O   0  0  0  0  0  0           0  0  0
    5.6875   -2.9250    0.0000 C   0  0  3  0  0  0           0  0  0
    1.3917   -5.4292    0.0000 N   0  0  0  0  0  0           0  0  0
    2.8250   -6.2417    0.0000 Cl  0  0  0  0  0  0           0  0  0
    6.3917   -2.5125    0.0000 C   0  0  0  0  0  0           0  0  0
    6.0917   -2.2042    0.0000 C   0  0  0  0  0  0           0  0  0
    6.4000   -1.6875    0.0000 C   0  0  0  0  0  0           0  0  0
    5.2917   -1.9917    0.0000 C   0  0  0  0  0  0           0  0  0
  2  3  1  0     0  0
  3  1  1  0     0  0
  4  7  2  0     0  0
  5  1  2  0     0  0
  6  1  1  0     0  0
  7  5  1  0     0  0
  8  2  2  0     0  0
  9  3  2  0     0  0
 10  9  1  0     0  0
 11  6  1  0     0  0
 12 11  1  0     0  0
 13 14  1  0     0  0
 14 12  1  0     0  0
 15  6  2  0     0  0
 16 12  1  0     0  0
 17  4  1  0     0  0
 18  7  1  0     0  0
 19 16  1  0     0  0
 20 16  1  0     0  0
 21 19  1  0     0  0
 22 20  1  0     0  0
  4  2  1  0     0  0
  8 10  1  0     0  0
 22 13  1  0     0  0
 21 13  1  0     0  0
M  END