
  SciTegic05171617272D

 36 40  0  0  1  0            999 V2000
    4.7933   -5.0599    0.0000 C   0  0
    3.7662   -4.4393    0.0000 C   0  0
    3.6393   -2.9446    0.0000 C   0  0
    2.1852   -2.6281    0.0000 C   0  0
    1.4028   -3.8873    0.0000 C   0  0
    0.4059   -3.9657    0.0000 C   0  0
    2.3840   -5.0218    0.0000 O   0  0
    1.7138   -1.2033    0.0000 C   0  0
    2.5889    0.0182    0.0000 N   0  0
    1.7138    1.2033    0.0000 N   0  0
    2.0825    2.3453    0.0000 C   0  0
    0.2917    0.7475    0.0000 C   0  0
   -1.0028    1.5132    0.0000 N   0  0
   -2.3155    0.7475    0.0000 C   0  0
   -3.6217    1.4865    0.0000 O   0  0
   -4.9153    0.7255    0.0000 C   0  0
   -6.2216    1.4644    0.0000 C   0  0
   -6.2318    2.6643    0.0000 O   0  0
   -7.5151    0.7033    0.0000 N   0  0
   -8.8215    1.4422    0.0000 C   0  0  1  0  0  0
   -8.9730    2.9239    0.0000 C   0  0
  -10.4170    3.2158    0.0000 C   0  0
  -11.1659    1.9238    0.0000 C   0  0
  -12.6396    1.6234    0.0000 N   0  0
  -13.0995    0.1749    0.0000 C   0  0
  -14.2722   -0.0799    0.0000 C   0  0
  -12.0967   -0.9339    0.0000 C   0  0
  -10.6095   -0.6212    0.0000 C   0  0
  -10.1631    0.8150    0.0000 C   0  0
   -2.3155   -0.7475    0.0000 C   0  0
   -1.0028   -1.5132    0.0000 C   0  0
    0.2917   -0.7475    0.0000 C   0  0
   -0.9940   -3.0137    0.0000 C   0  0
   -2.0293   -3.6205    0.0000 F   0  0
   -0.1249   -3.5084    0.0000 F   0  0
   -0.9864   -4.2137    0.0000 F   0  0
  1  2  1  0
  2  3  2  0
  3  4  1  0
  4  5  2  0
  5  6  1  0
  5  7  1  0
  2  7  1  0
  4  8  1  0
  8  9  2  0
  9 10  1  0
 10 11  1  0
 10 12  1  0
 12 13  2  0
 13 14  1  0
 14 15  1  0
 15 16  1  0
 16 17  1  0
 17 18  2  0
 17 19  1  0
 20 19  1  6
 20 21  1  0
 21 22  1  0
 22 23  1  0
 23 24  2  0
 24 25  1  0
 25 26  1  0
 25 27  2  0
 27 28  1  0
 28 29  2  0
 20 29  1  0
 23 29  1  0
 14 30  2  0
 30 31  1  0
 31 32  2  0
  8 32  1  0
 12 32  1  0
 31 33  1  0
 33 34  1  0
 33 35  1  0
 33 36  1  0
M  END