
  SciTegic12231509382D

 23 24  0  0  0  0            999 V2000
    8.0375   -5.3292    0.0000 C   0  0
    8.0375   -6.0167    0.0000 C   0  0
    7.4417   -4.9917    0.0000 C   0  0
    6.8500   -5.3375    0.0000 C   0  0
    6.8500   -6.0167    0.0000 C   0  0
    7.4417   -6.3667    0.0000 C   0  0
    8.6292   -4.9792    0.0000 C   0  0
    9.2292   -5.3292    0.0000 O   0  0
    9.2292   -6.0167    0.0000 C   0  0
    6.2542   -4.9875    0.0000 C   0  0
    5.6542   -5.3375    0.0000 C   0  0
    3.2792   -5.3375    0.0000 C   0  0
    8.6292   -4.2917    0.0000 O   0  0
    5.0667   -4.9875    0.0000 C   0  0
    2.6792   -4.9875    0.0000 O   0  0
    3.2792   -6.0250    0.0000 O   0  0
    7.4417   -4.3042    0.0000 O   0  0
    6.2542   -6.3625    0.0000 O   0  0
    3.8750   -4.9875    0.0000 C   0  0
    4.4667   -5.3375    0.0000 C   0  0
    7.4417   -7.0542    0.0000 C   0  0
    5.0667   -4.3000    0.0000 C   0  0
    6.2542   -7.0500    0.0000 C   0  0
  2  1  1  0
  3  1  2  0
  4  3  1  0
  5  4  2  0
  6  2  2  0
  7  1  1  0
  8  7  1  0
  9  2  1  0
 10  4  1  0
 11 10  1  0
 12 19  1  0
 13  7  2  0
 14 11  2  0
 15 12  1  0
 16 12  2  0
 17  3  1  0
 18  5  1  0
 19 20  1  0
 20 14  1  0
 21  6  1  0
 22 14  1  0
 23 18  1  0
  8  9  1  0
  5  6  1  0
M  END