
  SciTegic01111613442D

 10 10  0  0  0  0            999 V2000
    1.2990   -0.7500    0.0000 C   0  0
    0.0000   -1.5000    0.0000 C   0  0
   -1.2990   -0.7500    0.0000 C   0  0
   -1.2990    0.7500    0.0000 C   0  0
    0.0000    1.5000    0.0000 C   0  0
    1.2990    0.7500    0.0000 C   0  0
    2.6003    1.4978    0.0000 C   0  0
    2.6024    2.6978    0.0000 O   0  0
    3.6387    0.8963    0.0000 O   0  0
   -2.3383   -1.3500    0.0000 N   0  0
  5  6  2  0
  6  1  1  0
  2  3  1  0
  6  7  1  0
  7  8  1  0
  3  4  2  0
  7  9  2  0
  1  2  2  0
  3 10  1  0
  4  5  1  0
M  END