
  SciTegic04021211102D

 36 39  0  0  0  0            999 V2000
    4.5986  -14.7708    0.0000 C   0  0
    4.5974  -15.5982    0.0000 C   0  0
    5.3122  -16.0110    0.0000 C   0  0
    6.0287  -15.5977    0.0000 C   0  0
    6.0258  -14.7672    0.0000 C   0  0
    5.3104  -14.3580    0.0000 C   0  0
    5.3120  -16.8360    0.0000 C   0  0
    5.3080  -13.5330    0.0000 N   0  0
    5.9743  -13.0474    0.0000 C   0  0
    5.7171  -12.2619    0.0000 C   0  0
    4.8906  -12.2660    0.0000 C   0  0
    4.6406  -13.0528    0.0000 N   0  0
    4.4713  -11.5555    0.0000 C   0  0
    4.8769  -10.8371    0.0000 C   0  0
    3.6464  -11.5634    0.0000 C   0  0
    4.1263  -10.7995    0.0000 C   0  0
    6.6900  -13.4577    0.0000 N   0  0
    7.4032  -13.0429    0.0000 C   0  0
    8.1190  -13.4532    0.0000 N   0  0
    7.4006  -12.2179    0.0000 O   0  0
    8.8241  -12.2152    0.0000 N   0  0
    8.8322  -13.0385    0.0000 C   0  0
    9.6176  -13.2853    0.0000 S   0  0
   10.0951  -12.6144    0.0000 C   0  0
    9.6055  -11.9529    0.0000 C   0  0
    9.6093  -11.1279    0.0000 C   0  0
   10.3257  -10.7187    0.0000 C   0  0
   10.3294   -9.8937    0.0000 O   0  0
   11.0458   -9.4845    0.0000 C   0  0
   11.7584   -9.9003    0.0000 C   0  0
   11.7509  -10.7235    0.0000 C   0  0
   12.4626  -11.1392    0.0000 C   0  0
   13.1800  -10.7300    0.0000 C   0  0
   13.1811   -9.9007    0.0000 C   0  0
   12.4688   -9.4887    0.0000 C   0  0
   13.8931  -11.1448    0.0000 F   0  0
  9 10  2  0
 17 18  1  0
 18 19  1  0
  4  5  1  0
 18 20  2  0
 19 22  1  0
 21 22  2  0
  2  3  1  0
  5  6  2  0
  8  9  1  0
 10 11  1  0
 11 12  2  0
 22 23  1  0
 23 24  1  0
 24 25  2  0
 25 21  1  0
 12  8  1  0
 25 26  1  0
  6  1  1  0
 26 27  1  0
 11 13  1  0
 27 28  1  0
  1  2  2  0
 28 29  1  0
 13 14  1  0
 29 30  1  0
  3  7  1  0
 30 31  2  0
 13 15  1  0
 31 32  1  0
  3  4  2  0
 32 33  2  0
 13 16  1  0
 33 34  1  0
  6  8  1  0
 34 35  2  0
 35 30  1  0
  9 17  1  0
 33 36  1  0
M  END