
          11280715372D 1   1.00000     0.00000     0

 22 24  0     0  0            999 V2000
    3.6417   -3.2292    0.0000 C   0  0  0  0  0  0           0  0  0
    3.6417   -4.0542    0.0000 C   0  0  0  0  0  0           0  0  0
    2.9292   -4.4667    0.0000 C   0  0  0  0  0  0           0  0  0
    2.2167   -4.0542    0.0000 C   0  0  0  0  0  0           0  0  0
    2.9292   -2.8167    0.0000 O   0  0  0  0  0  0           0  0  0
    2.2167   -3.2292    0.0000 C   0  0  0  0  0  0           0  0  0
    4.3625   -2.8167    0.0000 C   0  0  0  0  0  0           0  0  0
    1.5042   -4.4667    0.0000 C   0  0  0  0  0  0           0  0  0
    4.3625   -1.9917    0.0000 C   0  0  0  0  0  0           0  0  0
    1.5042   -2.8167    0.0000 C   0  0  0  0  0  0           0  0  0
    0.7875   -4.0542    0.0000 C   0  0  0  0  0  0           0  0  0
    5.0750   -3.2292    0.0000 C   0  0  0  0  0  0           0  0  0
    5.0750   -1.5792    0.0000 C   0  0  0  0  0  0           0  0  0
    2.9292   -5.2917    0.0000 O   0  0  0  0  0  0           0  0  0
    0.7875   -3.2292    0.0000 C   0  0  0  0  0  0           0  0  0
    4.3625   -4.4667    0.0000 O   0  0  0  0  0  0           0  0  0
    5.7917   -1.9917    0.0000 C   0  0  0  0  0  0           0  0  0
    1.5042   -5.2917    0.0000 O   0  0  0  0  0  0           0  0  0
    3.6417   -1.5792    0.0000 Cl  0  0  0  0  0  0           0  0  0
    5.7917   -2.8167    0.0000 C   0  0  0  0  0  0           0  0  0
    6.5042   -1.5792    0.0000 Cl  0  0  0  0  0  0           0  0  0
    0.0750   -2.8167    0.0000 O   0  0  0  0  0  0           0  0  0
  2  1  2  0     0  0
  3  2  1  0     0  0
  4  6  2  0     0  0
  5  1  1  0     0  0
  6  5  1  0     0  0
  7  1  1  0     0  0
  8  4  1  0     0  0
  9  7  1  0     0  0
 10  6  1  0     0  0
 11 15  1  0     0  0
 12  7  2  0     0  0
 13  9  2  0     0  0
 14  3  2  0     0  0
 15 10  2  0     0  0
 16  2  1  0     0  0
 17 20  2  0     0  0
 18  8  1  0     0  0
 19  9  1  0     0  0
 20 12  1  0     0  0
 21 17  1  0     0  0
 22 15  1  0     0  0
  3  4  1  0     0  0
 13 17  1  0     0  0
 11  8  2  0     0  0
M  END