
  SciTegic09261414462D

 35 40  0  0  0  0            999 V2000
    2.8395  -37.4850    0.0000 C   0  0
    3.5536  -37.8982    0.0000 N   0  0
    3.5436  -36.2469    0.0000 C   0  0
    2.8332  -36.6635    0.0000 N   0  0
    4.2649  -36.6573    0.0000 C   0  0
    4.2629  -37.4865    0.0000 C   0  0
    5.0509  -37.7447    0.0000 N   0  0
    5.0541  -36.4031    0.0000 C   0  0
    5.5376  -37.0740    0.0000 C   0  0
    6.3583  -36.9901    0.0000 C   0  0
    6.6967  -36.2358    0.0000 N   0  0
    6.2083  -35.5647    0.0000 C   0  0
    5.3891  -35.6520    0.0000 C   0  0
    5.3041  -38.5287    0.0000 C   0  0  2  0  0  0
    4.7489  -39.1411    0.0000 C   0  0
    5.0004  -39.9238    0.0000 C   0  0
    5.8072  -40.1004    0.0000 C   0  0  2  0  0  0
    6.3623  -39.4880    0.0000 C   0  0
    6.1106  -38.6989    0.0000 C   0  0
    6.0585  -40.8868    0.0000 C   0  0
    2.1259  -37.9003    0.0000 N   0  0
    2.1178  -38.7218    0.0000 C   0  0
    1.4000  -39.1236    0.0000 N   0  0
    2.8173  -39.9548    0.0000 C   0  0
    2.8222  -39.1354    0.0000 C   0  0
    2.0994  -40.3629    0.0000 C   0  0
    1.3918  -39.9453    0.0000 C   0  0
    0.6804  -40.3471    0.0000 C   0  0
    0.6704  -41.1680    0.0000 C   0  0
    1.3779  -41.5855    0.0000 N   0  0
    2.0956  -41.1821    0.0000 C   0  0
    1.3692  -42.4110    0.0000 C   0  0
    0.6499  -42.8164    0.0000 O   0  0
    2.0799  -42.8314    0.0000 C   0  0
    2.7992  -42.4262    0.0000 O   0  0
  1  2  2  0
  2  6  1  0
  5  3  1  0
  3  4  2  0
  4  1  1  0
  5  6  2  0
  6  7  1  0
  7  9  1  0
  8  5  1  0
  8  9  2  0
  9 10  1  0
 10 11  2  0
 11 12  1  0
 12 13  2  0
 13  8  1  0
 14 15  1  0
 14 19  1  0
 15 16  1  0
 16 17  1  0
 17 18  1  0
 18 19  1  0
 14  7  1  1
 17 20  1  6
  1 21  1  0
 21 22  1  0
 22 23  2  0
 23 27  1  0
 26 24  1  0
 24 25  2  0
 25 22  1  0
 26 27  2  0
 26 31  1  0
 27 28  1  0
 28 29  1  0
 29 30  1  0
 30 31  1  0
 30 32  1  0
 32 33  2  0
 32 34  1  0
 34 35  1  0
M  END