
          11280715352D 1   1.00000     0.00000     0

 35 37  0     1  0            999 V2000
    4.5375   -2.9417    0.0000 C   0  0  2  0  0  0           0  0  0
    5.2500   -3.3417    0.0000 C   0  0  2  0  0  0           0  0  0
    4.5375   -2.1167    0.0000 C   0  0  0  0  0  0           0  0  0
    5.9625   -0.4667    0.0000 N   0  0  3  0  0  0           0  0  0
    5.2500   -4.1667    0.0000 C   0  0  2  0  0  0           0  0  0
    3.8250   -3.3417    0.0000 C   0  0  2  0  0  0           0  0  0
    6.0375   -3.0917    0.0000 C   0  0  1  0  0  0           0  0  0
    5.2500   -1.7042    0.0000 C   0  0  0  0  0  0           0  0  0
    3.8167   -4.1667    0.0000 C   0  0  1  0  0  0           0  0  0
    4.5292   -4.5792    0.0000 C   0  0  0  0  0  0           0  0  0
    6.5167   -3.7542    0.0000 O   0  0  0  0  0  0           0  0  0
    5.2500   -0.8792    0.0000 C   0  0  1  0  0  0           0  0  0
    7.3375   -3.6667    0.0000 C   0  0  0  0  0  0           0  0  0
    5.7375   -5.8167    0.0000 C   0  0  0  0  0  0           0  0  0
    6.0375   -4.4292    0.0000 C   0  0  0  0  0  0           0  0  0
    5.9625    0.3583    0.0000 C   0  0  2  0  0  0           0  0  0
    6.2875   -5.2042    0.0000 O   0  0  0  0  0  0           0  0  0
    7.6750   -2.9167    0.0000 O   0  0  0  0  0  0           0  0  0
    4.9292   -5.6542    0.0000 O   0  0  0  0  0  0           0  0  0
    6.6792   -0.8792    0.0000 C   0  0  0  0  0  0           0  0  0
    6.2917   -2.3042    0.0000 C   0  0  0  0  0  0           0  0  0
    3.1167   -2.9417    0.0000 C   0  0  0  0  0  0           0  0  0
    3.1125   -4.5792    0.0000 C   0  0  0  0  0  0           0  0  0
    4.5417    0.3583    0.0000 C   0  0  0  0  0  0           0  0  0
    7.8250   -4.3417    0.0000 C   0  0  0  0  0  0           0  0  0
    5.9917   -6.6042    0.0000 C   0  0  0  0  0  0           0  0  0
    4.5417   -0.4667    0.0000 C   0  0  0  0  0  0           0  0  0
    5.2500    0.7708    0.0000 C   0  0  0  0  0  0           0  0  0
    6.6792    0.7708    0.0000 C   0  0  0  0  0  0           0  0  0
    2.4042   -3.3417    0.0000 C   0  0  0  0  0  0           0  0  0
    2.4000   -4.1667    0.0000 C   0  0  0  0  0  0           0  0  0
    5.2500   -2.5167    0.0000 H   0  0  0  0  0  0           0  0  0
    3.8167   -2.5167    0.0000 H   0  0  0  0  0  0           0  0  0
    3.8125   -4.9917    0.0000 H   0  0  0  0  0  0           0  0  0
    5.2500   -4.9917    0.0000 H   0  0  0  0  0  0           0  0  0
  2  1  1  0     0  0
  1  3  1  1     0  0
  4 12  1  0     0  0
  5  2  1  0     0  0
  6  1  1  0     0  0
  7  2  1  0     0  0
  8  3  2  0     0  0
  9  6  1  0     0  0
 10  9  1  0     0  0
 11  7  1  0     0  0
 12  8  1  1     0  0
 13 11  1  0     0  0
 14 17  1  0     0  0
 15  5  1  0     0  0
 16  4  1  0     0  0
 17 15  1  0     0  0
 18 13  2  0     0  0
 19 14  2  0     0  0
 20  4  1  0     0  0
  7 21  1  6     0  0
 22  6  1  0     0  0
 23  9  1  0     0  0
 24 27  1  0     0  0
 25 13  1  0     0  0
 26 14  1  0     0  0
 27 12  1  0     0  0
 28 24  1  0     0  0
 16 29  1  6     0  0
 30 22  1  0     0  0
 31 30  1  0     0  0
  2 32  1  6     0  0
  6 33  1  1     0  0
  9 34  1  6     0  0
  5 35  1  6     0  0
  5 10  1  0     0  0
 31 23  1  0     0  0
 16 28  1  0     0  0
M  END