
  SciTegic12231509382D

  9  8  0  0  1  0            999 V2000
    4.2884   -1.2436    0.0000 O   0  0
    3.5766    0.0000    0.0000 O   0  0
    2.8647   -2.0456    0.0000 N   0  0
    0.0000   -1.2050    0.0000 N   0  0
    2.8647   -1.2351    0.0000 C   0  0  2  0  0  0
    3.5766   -0.8234    0.0000 C   0  0
    2.1442   -0.8148    0.0000 C   0  0
    1.4323   -1.2136    0.0000 C   0  0
    0.7204   -0.7933    0.0000 C   0  0
  1  6  2  0
  2  6  1  0
  5  3  1  1
  4  9  1  0
  5  6  1  0
  5  7  1  0
  7  8  1  0
  8  9  1  0
M  END