
          11280715152D 1   1.00000     0.00000     0

 20 21  0     0  0            999 V2000
   -2.6583   -0.2292    0.0000 C   0  0  0  0  0  0           0  0  0
   -1.8625   -0.4542    0.0000 N   0  0  3  0  0  0           0  0  0
    0.3167   -0.5792    0.0000 C   0  0  0  0  0  0           0  0  0
   -0.4500   -0.2667    0.0000 C   0  0  0  0  0  0           0  0  0
    1.7292   -0.3792    0.0000 N   0  0  3  0  0  0           0  0  0
   -1.8458   -1.2792    0.0000 C   0  0  0  0  0  0           0  0  0
   -2.9375    0.5458    0.0000 O   0  0  0  0  0  0           0  0  0
    1.0792   -0.8792    0.0000 C   0  0  0  0  0  0           0  0  0
   -1.2125    0.0458    0.0000 C   0  0  0  0  0  0           0  0  0
   -2.5375   -1.7167    0.0000 C   0  0  0  0  0  0           0  0  0
   -3.2208   -0.8292    0.0000 C   0  0  0  0  0  0           0  0  0
    2.5250   -0.6042    0.0000 C   0  0  0  0  0  0           0  0  0
    1.7000    0.4458    0.0000 C   0  0  0  0  0  0           0  0  0
   -2.5083   -2.5417    0.0000 C   0  0  0  0  0  0           0  0  0
   -3.2625   -1.3292    0.0000 C   0  0  0  0  0  0           0  0  0
    2.4750    0.7208    0.0000 C   0  0  0  0  0  0           0  0  0
    2.9875    0.0708    0.0000 C   0  0  0  0  0  0           0  0  0
   -3.9625   -1.7667    0.0000 C   0  0  0  0  0  0           0  0  0
   -3.2000   -2.9792    0.0000 C   0  0  0  0  0  0           0  0  0
   -3.9375   -2.5917    0.0000 C   0  0  0  0  0  0           0  0  0
  2  1  1  0     0  0
  3  4  3  0     0  0
  4  9  1  0     0  0
  5  8  1  0     0  0
  6  2  1  0     0  0
  7  1  2  0     0  0
  8  3  1  0     0  0
  9  2  1  0     0  0
 10  6  1  0     0  0
 11  1  1  0     0  0
 12  5  1  0     0  0
 13  5  1  0     0  0
 14 10  1  0     0  0
 15 10  2  0     0  0
 16 13  1  0     0  0
 17 12  1  0     0  0
 18 15  1  0     0  0
 19 14  2  0     0  0
 20 18  2  0     0  0
 19 20  1  0     0  0
 17 16  1  0     0  0
M  END