
  SciTegic01091216402D

 69 71  0  0  0  0            999 V2000
   19.8257   -9.2886    0.0000 Na  0  3
   18.6156   -8.8609    0.0000 O   0  0
   14.2916  -11.2877    0.0000 C   0  0  2  0  0  0
   15.0018  -11.7053    0.0000 C   0  0  2  0  0  0
   15.7168  -11.3048    0.0000 C   0  0  1  0  0  0
   15.7276  -10.4810    0.0000 O   0  0
   15.0174  -10.0593    0.0000 C   0  0  1  0  0  0
   14.2963  -10.4655    0.0000 C   0  0  2  0  0  0
   13.5823  -10.0428    0.0000 O   0  0
   15.0268   -9.2312    0.0000 C   0  0
   14.3139   -8.8110    0.0000 O   0  0
   16.4254  -11.7252    0.0000 O   0  0
   13.5706  -11.6939    0.0000 O   0  0
   14.9932  -12.5333    0.0000 O   0  0
   11.4402  -11.2904    0.0000 C   0  0  1  0  0  0
   11.4402  -12.1185    0.0000 C   0  0  1  0  0  0
   12.1555  -12.5264    0.0000 C   0  0  2  0  0  0
   12.8707  -12.1185    0.0000 C   0  0
   12.8698  -11.2881    0.0000 C   0  0  2  0  0  0
   12.1555  -10.8700    0.0000 O   0  0
   12.8678  -10.4593    0.0000 C   0  0
   12.1491  -10.0448    0.0000 O   0  0
   12.1555  -13.3544    0.0000 O   0  0
   10.7272  -12.5316    0.0000 N   0  0
   10.7254  -10.8763    0.0000 C   0  0  1  0  0  0
   10.7230  -10.0481    0.0000 C   0  0  1  0  0  0
   10.7284  -13.3596    0.0000 C   0  0
   10.0112  -13.7768    0.0000 C   0  0
   11.4426  -13.7748    0.0000 O   0  0
   10.0088  -11.2946    0.0000 O   0  0
   11.4360  -10.4622    0.0000 H   0  0
   10.0039   -9.6382    0.0000 C   0  0
   11.4353   -9.6340    0.0000 O   0  0
   10.0016   -8.8101    0.0000 N   0  0
   12.8634   -9.6299    0.0000 O   0  5
   17.1480  -11.3217    0.0000 C   0  0  2  0  0  0
   17.8572  -11.7453    0.0000 C   0  0  2  0  0  0
   18.5776  -11.3452    0.0000 C   0  0  2  0  0  0
   18.5916  -10.5168    0.0000 O   0  0
   17.8790  -10.0900    0.0000 C   0  0  1  0  0  0
   17.1524  -10.4958    0.0000 C   0  0  2  0  0  0
   17.1415  -12.1476    0.0000 H   0  0
   16.4391  -10.0721    0.0000 O   0  0
   17.8916   -9.2621    0.0000 C   0  0
   19.2889  -11.7684    0.0000 O   0  0
   17.8441  -12.5733    0.0000 N   0  0
    9.2867   -8.4001    0.0000 C   0  0
    9.2843   -7.5762    0.0000 O   0  0
    8.5744   -8.8142    0.0000 C   0  0
    7.8588   -8.4037    0.0000 C   0  0
    7.1468   -8.8170    0.0000 C   0  0
    7.1488   -9.6419    0.0000 C   0  0
    7.8687  -10.0517    0.0000 C   0  0
    8.5776   -9.6359    0.0000 C   0  0
   18.5512  -12.9965    0.0000 C   0  0
   18.5382  -13.8204    0.0000 C   0  0
   19.2712  -12.5958    0.0000 O   0  0
   20.0078  -11.3657    0.0000 C   0  0  1  0  0  0
   20.7159  -11.7870    0.0000 C   0  0  2  0  0  0
   20.0185  -10.5418    0.0000 C   0  0
   20.7051  -12.6110    0.0000 N   0  0
   21.4348  -11.3844    0.0000 C   0  0
   22.1430  -11.8056    0.0000 O   0  0
   21.4456  -10.5605    0.0000 O   0  0
   22.8619  -11.4030    0.0000 C   0  0
   21.4133  -13.0322    0.0000 C   0  0
   21.4026  -13.8561    0.0000 C   0  0
   22.1322  -12.6295    0.0000 O   0  0
    6.4369  -10.0570    0.0000 F   0  0
  7 10  1  1
 21 35  1  0
 15 20  1  0
 36 12  1  0
 36 37  1  0
 16 17  1  0
 17 18  1  0
 18 19  1  0
 19 20  1  0
 36 41  1  0
 37 38  1  0
 38 39  1  0
 39 40  1  0
 40 41  1  0
 19 21  1  1
 36 42  1  6
 10 11  1  0
 41 43  1  1
 21 22  2  0
 40 44  1  1
 44  2  1  0
  3  8  1  0
 38 45  1  6
 17 23  1  6
 37 46  1  6
  5 12  1  1
 34 47  1  0
 16 24  1  1
 47 48  2  0
  4  5  1  0
 47 49  1  0
 15 25  1  0
 49 50  2  0
  3 13  1  1
 50 51  1  0
 25 26  1  0
 51 52  2  0
  5  6  1  0
 52 53  1  0
 24 27  1  0
 53 54  2  0
 54 49  1  0
  4 14  1  6
 46 55  1  0
 27 28  1  0
 55 56  1  0
 15 16  1  0
 55 57  2  0
 27 29  2  0
 45 58  1  0
  6  7  1  0
 58 59  1  0
 25 30  1  6
 58 60  1  6
  7  8  1  0
 59 61  1  1
 15 31  1  1
 59 62  1  0
  3  4  1  0
 62 63  1  0
 26 32  1  0
 62 64  2  0
  8  9  1  1
 63 65  1  0
 26 33  1  1
 61 66  1  0
 66 67  1  0
 32 34  1  0
 66 68  2  0
 19 13  1  0
 52 69  1  0
M  CHG  2   1   1  35  -1
M  END