
  Mrv0541 04051115152D          

  9 10  0  0  0  0            999 V2000
   -0.9558   -0.6674    0.0000 O   0  0  0  0  0  0  0  0  0  0  0  0
   -1.4407   -0.0000    0.0000 C   0  0  0  0  0  0  0  0  0  0  0  0
   -0.9558    0.6674    0.0000 C   0  0  0  0  0  0  0  0  0  0  0  0
   -0.1711    0.4125    0.0000 C   0  0  0  0  0  0  0  0  0  0  0  0
    0.5433    0.8250    0.0000 C   0  0  0  0  0  0  0  0  0  0  0  0
    1.2578    0.4125    0.0000 C   0  0  0  0  0  0  0  0  0  0  0  0
    1.2578   -0.4125    0.0000 C   0  0  0  0  0  0  0  0  0  0  0  0
    0.5433   -0.8250    0.0000 C   0  0  0  0  0  0  0  0  0  0  0  0
   -0.1711   -0.4125    0.0000 C   0  0  0  0  0  0  0  0  0  0  0  0
  2  1  1  0  0  0  0
  9  1  1  0  0  0  0
  2  3  2  0  0  0  0
  3  4  1  0  0  0  0
  4  5  2  0  0  0  0
  4  9  1  0  0  0  0
  5  6  1  0  0  0  0
  6  7  2  0  0  0  0
  7  8  1  0  0  0  0
  8  9  2  0  0  0  0
M  END