
  CDK    9/16/09,9:48

 30 33  0  0  0  0  0  0  0  0999 V2000
   12.1771  -19.0571    0.0000 O   0  0  0  0  0  0  0  0  0  0  0  0
   11.3875  -19.3151    0.0000 C   0  0  0  0  0  0  0  0  0  0  0  0
   11.3913  -20.1439    0.0000 C   0  0  0  0  0  0  0  0  0  0  0  0
   12.1807  -20.3970    0.0000 C   0  0  0  0  0  0  0  0  0  0  0  0
   12.6659  -19.7248    0.0000 C   0  0  0  0  0  0  0  0  0  0  0  0
   10.7204  -18.8345    0.0000 C   0  0  0  0  0  0  0  0  0  0  0  0
   10.8056  -18.0129    0.0000 C   0  0  0  0  0  0  0  0  0  0  0  0
   10.1376  -17.5303    0.0000 C   0  0  0  0  0  0  0  0  0  0  0  0
    9.3840  -17.8680    0.0000 N   0  0  0  0  0  0  0  0  0  0  0  0
    9.3026  -18.6932    0.0000 C   0  0  0  0  0  0  0  0  0  0  0  0
    9.9715  -19.1721    0.0000 C   0  0  0  0  0  0  0  0  0  0  0  0
   10.7270  -20.6321    0.0000 C   0  0  0  0  0  0  0  0  0  0  0  0
    9.9715  -20.2981    0.0000 C   0  0  0  0  0  0  0  0  0  0  0  0
    9.3068  -20.7850    0.0000 C   0  0  0  0  0  0  0  0  0  0  0  0
   10.8178  -21.4485    0.0000 C   0  0  0  0  0  0  0  0  0  0  0  0
   10.1561  -21.9375    0.0000 C   0  0  0  0  0  0  0  0  0  0  0  0
    9.3914  -21.6058    0.0000 C   0  0  0  0  0  0  0  0  0  0  0  0
    8.8396  -22.2306    0.0000 C   0  0  0  0  0  0  0  0  0  0  0  0
    9.2633  -22.9484    0.0000 C   0  0  0  0  0  0  0  0  0  0  0  0
   10.0769  -22.7673    0.0000 C   0  0  0  0  0  0  0  0  0  0  0  0
    8.0185  -22.1522    0.0000 N   0  0  0  0  0  0  0  0  0  0  0  0
    7.5401  -22.8242    0.0000 O   0  0  0  0  0  0  0  0  0  0  0  0
   13.4891  -19.7223    0.0000 C   0  0  0  0  0  0  0  0  0  0  0  0
   13.8993  -19.0067    0.0000 N   0  0  0  0  0  0  0  0  0  0  0  0
   13.9036  -20.4354    0.0000 O   0  0  0  0  0  0  0  0  0  0  0  0
   14.7242  -19.0042    0.0000 C   0  0  0  0  0  0  0  0  0  0  0  0
   15.1345  -18.2887    0.0000 C   0  0  0  0  0  0  0  0  0  0  0  0
   15.9594  -18.2862    0.0000 N   0  0  0  0  0  0  0  0  0  0  0  0
   16.3696  -17.5706    0.0000 C   0  0  0  0  0  0  0  0  0  0  0  0
   16.3739  -18.9992    0.0000 C   0  0  0  0  0  0  0  0  0  0  0  0
  1  2  1  0  0  0  0 
 16 15  2  0  0  0  0 
 15 12  1  0  0  0  0 
  3 12  1  0  0  0  0 
 16 17  1  0  0  0  0 
  7  8  1  0  0  0  0 
  3  4  1  0  0  0  0 
  8  9  2  0  0  0  0 
  4  5  2  0  0  0  0 
  9 10  1  0  0  0  0 
 17 18  1  0  0  0  0 
 18 19  1  0  0  0  0 
 19 20  1  0  0  0  0 
 20 16  1  0  0  0  0 
  5  1  1  0  0  0  0 
 18 21  2  0  0  0  0 
 10 11  2  0  0  0  0 
 21 22  1  0  0  0  0 
 11  6  1  0  0  0  0 
  5 23  1  0  0  0  0 
  2  6  1  0  0  0  0 
 23 24  1  0  0  0  0 
  2  3  2  0  0  0  0 
 23 25  2  0  0  0  0 
 24 26  1  0  0  0  0 
 12 13  2  0  0  0  0 
 26 27  1  0  0  0  0 
  6  7  2  0  0  0  0 
 27 28  1  0  0  0  0 
 13 14  1  0  0  0  0 
 28 29  1  0  0  0  0 
 14 17  2  0  0  0  0 
 28 30  1  0  0  0  0 
M  END