
  Mrv0541 05211314572D          

 36 39  0  0  0  0            999 V2000
   -0.2456    0.5425    0.0000 C   0  0  0  0  0  0  0  0  0  0  0  0
    0.4689    0.1300    0.0000 C   0  0  0  0  0  0  0  0  0  0  0  0
    1.1834    0.5425    0.0000 C   0  0  0  0  0  0  0  0  0  0  0  0
    1.8979    0.1300    0.0000 N   0  0  0  0  0  0  0  0  0  0  0  0
    1.1834    1.3675    0.0000 O   0  0  0  0  0  0  0  0  0  0  0  0
    2.6123    0.5425    0.0000 C   0  0  0  0  0  0  0  0  0  0  0  0
    3.3268    0.1300    0.0000 C   0  0  0  0  0  0  0  0  0  0  0  0
    3.3268   -0.6950    0.0000 N   0  0  0  0  0  0  0  0  0  0  0  0
    2.6123   -1.1075    0.0000 C   0  0  0  0  0  0  0  0  0  0  0  0
    1.8979   -0.6950    0.0000 C   0  0  0  0  0  0  0  0  0  0  0  0
    4.0413   -1.1075    0.0000 C   0  0  0  0  0  0  0  0  0  0  0  0
    4.7557   -0.6950    0.0000 C   0  0  0  0  0  0  0  0  0  0  0  0
    5.4702   -1.1075    0.0000 C   0  0  0  0  0  0  0  0  0  0  0  0
    5.4702   -1.9325    0.0000 C   0  0  0  0  0  0  0  0  0  0  0  0
    4.7557   -2.3450    0.0000 C   0  0  0  0  0  0  0  0  0  0  0  0
    4.0413   -1.9325    0.0000 C   0  0  0  0  0  0  0  0  0  0  0  0
   -0.9600    0.1300    0.0000 N   0  0  0  0  0  0  0  0  0  0  0  0
   -0.9600   -0.6950    0.0000 C   0  0  0  0  0  0  0  0  0  0  0  0
   -1.6745    0.5425    0.0000 C   0  0  0  0  0  0  0  0  0  0  0  0
   -2.3890    0.1300    0.0000 C   0  0  0  0  0  0  0  0  0  0  0  0
   -3.1034    0.5425    0.0000 C   0  0  0  0  0  0  0  0  0  0  0  0
   -4.4091    0.8200    0.0000 C   0  0  0  0  0  0  0  0  0  0  0  0
   -3.8571    0.2069    0.0000 C   0  0  0  0  0  0  0  0  0  0  0  0
   -4.1120   -0.5777    0.0000 C   0  0  0  0  0  0  0  0  0  0  0  0
   -4.9190   -0.7492    0.0000 C   0  0  0  0  0  0  0  0  0  0  0  0
   -5.4711   -0.1361    0.0000 C   0  0  0  0  0  0  0  0  0  0  0  0
   -5.2161    0.6485    0.0000 C   0  0  0  0  0  0  0  0  0  0  0  0
   -3.1897    1.3630    0.0000 C   0  0  0  0  0  0  0  0  0  0  0  0
   -3.9966    1.5345    0.0000 C   0  0  0  0  0  0  0  0  0  0  0  0
   -4.2516    2.3191    0.0000 C   0  0  0  0  0  0  0  0  0  0  0  0
   -3.6995    2.9322    0.0000 C   0  0  0  0  0  0  0  0  0  0  0  0
   -2.8926    2.7607    0.0000 C   0  0  0  0  0  0  0  0  0  0  0  0
   -2.6376    1.9761    0.0000 C   0  0  0  0  0  0  0  0  0  0  0  0
    4.7557   -3.1700    0.0000 Cl  0  0  0  0  0  0  0  0  0  0  0  0
    6.1847   -2.3450    0.0000 Cl  0  0  0  0  0  0  0  0  0  0  0  0
    8.4240    0.0000    0.0000 Cl  0  0  0  0  0  0  0  0  0  0  0  0
  1 17  1  0  0  0  0
  6  7  1  0  0  0  0
 17 18  1  0  0  0  0
  7  8  1  0  0  0  0
 17 19  1  0  0  0  0
  8  9  1  0  0  0  0
 19 20  1  0  0  0  0
  9 10  1  0  0  0  0
 20 21  1  0  0  0  0
 21 23  1  0  0  0  0
 22 29  1  0  0  0  0
 28 21  1  0  0  0  0
 22 23  2  0  0  0  0
  4  6  1  0  0  0  0
  8 11  1  0  0  0  0
  2  3  1  0  0  0  0
 11 12  2  0  0  0  0
  1  2  1  0  0  0  0
 12 13  1  0  0  0  0
 22 27  1  0  0  0  0
 23 24  1  0  0  0  0
 24 25  2  0  0  0  0
 25 26  1  0  0  0  0
 26 27  2  0  0  0  0
 28 29  2  0  0  0  0
  3  4  1  0  0  0  0
 13 14  2  0  0  0  0
 14 15  1  0  0  0  0
  3  5  2  0  0  0  0
 15 16  2  0  0  0  0
 28 33  1  0  0  0  0
 29 30  1  0  0  0  0
 30 31  2  0  0  0  0
 31 32  1  0  0  0  0
 32 33  2  0  0  0  0
 16 11  1  0  0  0  0
 15 34  1  0  0  0  0
  4 10  1  0  0  0  0
 14 35  1  0  0  0  0
M  END