
  SciTegic12231509382D

 46 48  0  0  0  0            999 V2000
    1.7042   -2.1917    0.0000 C   0  0
    1.0292   -1.9667    0.0000 C   0  0
    1.4292   -2.6875    0.0000 C   0  0
    2.9875   -2.5792    0.0000 C   0  0
    2.3542   -2.3542    0.0000 C   0  0
    4.3917   -2.8375    0.0000 S   0  0
    2.5792   -1.8542    0.0000 O   0  0
    0.3292   -3.5917    0.0000 S   0  0
   -0.4083   -1.6500    0.0000 S   0  0
    2.3500   -3.7792    0.0000 S   0  0
    1.4875   -1.3917    0.0000 C   0  0
    3.6167   -3.1125    0.0000 O   0  0
    2.0667   -0.8042    0.0000 N   0  0
    0.3917   -1.4375    0.0000 O   0  0
    1.1417   -3.4542    0.0000 O   0  0
    2.7667   -3.0667    0.0000 O   0  0
    3.0667    0.2125    0.0000 C   0  0
    2.8625   -0.5875    0.0000 C   0  0
    5.0167   -3.3667    0.0000 O   0  0
    0.7375   -4.3042    0.0000 O   0  0
    2.7625   -4.5000    0.0000 O   0  0
   -0.9958   -1.0625    0.0000 O   0  0
    3.6417   -2.4792    0.0000 O   0  0
    4.5375   -2.0250    0.0000 O   0  0
    2.1292   -4.5792    0.0000 O   0  0
    1.5250   -3.7792    0.0000 O   0  0
   -0.4250   -3.9292    0.0000 O   0  0
   -0.6333   -2.4417    0.0000 O   0  0
   -0.2000   -2.9542    0.0000 O   0  0
    0.3000   -2.0667    0.0000 O   0  0
    1.8500   -0.0042    0.0000 C   0  0
    3.8625    0.4333    0.0000 N   0  0
    0.6875   -1.1792    0.0000 O   0  0
    2.4792    0.7958    0.0000 O   0  0
    1.0542    0.2083    0.0000 C   0  0
    4.0667    1.2333    0.0000 C   0  0
    0.4792   -0.3792    0.0000 C   0  0
    0.8417    1.0000    0.0000 C   0  0
    3.4792    1.8083    0.0000 C   0  0
    4.8667    1.4500    0.0000 C   0  0
    0.0417    1.2083    0.0000 C   0  0
   -0.3208   -0.1750    0.0000 C   0  0
    5.0750    2.2458    0.0000 C   0  0
    3.6917    2.6083    0.0000 C   0  0
   -0.5375    0.6250    0.0000 C   0  0
    4.4917    2.8333    0.0000 C   0  0
  2  1  1  0
  3  2  1  0
  4  7  1  0
  5  4  1  0
  6 12  1  0
  7  1  1  0
  8 15  1  0
  9 14  1  0
 10 16  1  0
 11  1  1  0
 12  4  1  0
 13 11  1  0
 14  2  1  0
 15  3  1  0
 16  5  1  0
 17 18  1  0
 18 13  1  0
 19  6  1  0
 20  8  1  0
 21 10  1  0
 22  9  1  0
 23  6  2  0
 24  6  2  0
 25 10  2  0
 26 10  2  0
 27  8  2  0
 28  9  2  0
 29  8  2  0
 30  9  2  0
 31 13  1  0
 32 17  1  0
 33 11  2  0
 34 17  2  0
 35 31  1  0
 36 32  1  0
 37 35  1  0
 38 35  2  0
 39 36  1  0
 40 36  1  0
 41 38  1  0
 42 37  2  0
 43 40  1  0
 44 39  1  0
 45 41  2  0
 46 43  1  0
  5  3  1  0
 42 45  1  0
 44 46  1  0
M  END