
  SciTegic09261414462D

 11 12  0  0  0  0            999 V2000
   13.2759   -2.8477    0.0000 C   0  0
   13.2747   -3.6673    0.0000 C   0  0
   13.9828   -4.0763    0.0000 C   0  0
   13.9810   -2.4389    0.0000 C   0  0
   14.6896   -2.8442    0.0000 C   0  0
   14.6884   -3.6693    0.0000 C   0  0
   15.3985   -4.0807    0.0000 C   0  0
   16.1144   -3.6714    0.0000 N   0  0
   16.1155   -2.8462    0.0000 C   0  0
   15.4009   -2.4303    0.0000 C   0  0
   13.9785   -1.6217    0.0000 N   0  0
  1  2  2  0
  2  3  1  0
  3  6  2  0
  5  4  2  0
  4  1  1  0
  5  6  1  0
  5 10  1  0
  6  7  1  0
  7  8  1  0
  8  9  1  0
  9 10  1  0
  4 11  1  0
M  END