
  CDK    9/16/09,9:59

 20 21  0  0  0  0  0  0  0  0999 V2000
   13.5583  -15.9083    0.0000 C   0  0  0  0  0  0  0  0  0  0  0  0
   13.5596  -14.5764    0.0000 N   0  0  0  0  0  0  0  0  0  0  0  0
   13.0784  -15.2475    0.0000 C   0  0  0  0  0  0  0  0  0  0  0  0
   14.3439  -14.8320    0.0000 C   0  0  0  0  0  0  0  0  0  0  0  0
   14.3419  -15.6550    0.0000 C   0  0  0  0  0  0  0  0  0  0  0  0
   15.0566  -16.0707    0.0000 N   0  0  0  0  0  0  0  0  0  0  0  0
   15.7739  -15.6561    0.0000 C   0  0  0  0  0  0  0  0  0  0  0  0
   15.7720  -14.8300    0.0000 N   0  0  0  0  0  0  0  0  0  0  0  0
   15.0566  -14.4180    0.0000 C   0  0  0  0  0  0  0  0  0  0  0  0
   15.0551  -13.5930    0.0000 O   0  0  0  0  0  0  0  0  0  0  0  0
   13.1413  -16.6230    0.0000 C   0  0  0  0  0  0  0  0  0  0  0  0
   13.5514  -17.3397    0.0000 N   0  0  0  0  0  0  0  0  0  0  0  0
   13.5552  -18.7579    0.0000 C   0  0  0  0  0  0  0  0  0  0  0  0
   13.1431  -18.0498    0.0000 C   0  0  0  0  0  0  0  0  0  0  0  0
   14.3764  -17.3405    0.0000 C   0  0  0  0  0  0  0  0  0  0  0  0
   14.7882  -18.0554    0.0000 C   0  0  0  0  0  0  0  0  0  0  0  0
   13.1452  -19.4738    0.0000 O   0  0  0  0  0  0  0  0  0  0  0  0
   14.3749  -18.7694    0.0000 C   0  0  0  0  0  0  0  0  0  0  0  0
   14.7867  -19.4843    0.0000 O   0  0  0  0  0  0  0  0  0  0  0  0
   15.6132  -18.0562    0.0000 O   0  0  0  0  0  0  0  0  0  0  0  0
  1  5  1  0  0  0  0 
  9 10  2  0  0  0  0 
  4  5  2  0  0  0  0 
  1 11  1  0  0  0  0 
  4  2  1  0  0  0  0 
 11 12  1  0  0  0  0 
  5  6  1  0  0  0  0 
  2  3  1  0  0  0  0 
 13 14  1  0  0  0  0 
 14 12  1  0  0  0  0 
  6  7  2  0  0  0  0 
 12 15  1  0  0  0  0 
  3  1  2  0  0  0  0 
 15 16  1  0  0  0  0 
  7  8  1  0  0  0  0 
 13 17  1  0  0  0  0 
 16 18  1  0  0  0  0 
  8  9  1  0  0  0  0 
 18 19  1  0  0  0  0 
  9  4  1  0  0  0  0 
 16 20  1  1  0  0  0 
M  END