
  SciTegic01161211222D

 37 40  0  0  0  0            999 V2000
    0.0277   -1.5958    0.0000 C   0  0
    0.0266   -2.4232    0.0000 C   0  0
    0.7414   -2.8360    0.0000 C   0  0
    0.7396   -1.1830    0.0000 C   0  0
    1.4550   -1.5922    0.0000 C   0  0
    1.4557   -2.4190    0.0000 C   0  0
    2.1710   -2.8300    0.0000 N   0  0
    2.8861   -2.4152    0.0000 C   0  0
    2.8813   -1.5852    0.0000 N   0  0
    2.1654   -1.1780    0.0000 C   0  0
    2.1610   -0.3530    0.0000 N   0  0
    2.8733    0.0633    0.0000 C   0  0
    3.6306   -0.2715    0.0000 C   0  0
    4.1801    0.3451    0.0000 C   0  0
    3.7621    1.0577    0.0000 N   0  0
    2.9557    0.8791    0.0000 N   0  0
    5.0011    0.2637    0.0000 C   0  0
    5.3412   -0.4879    0.0000 C   0  0
    6.1622   -0.5692    0.0000 N   0  0
    6.5022   -1.3209    0.0000 C   0  0
    6.0166   -1.9891    0.0000 C   0  0
    6.3561   -2.7402    0.0000 C   0  0
    7.1779   -2.8221    0.0000 C   0  0
    7.6591   -2.1467    0.0000 C   0  0
    7.3171   -1.3983    0.0000 C   0  0
    8.4804   -2.2251    0.0000 F   0  0
   -0.6875   -2.8333    0.0000 O   0  0
   -1.4000   -2.4208    0.0000 C   0  0
   -2.1125   -2.8333    0.0000 C   0  0
   -2.8250   -2.4208    0.0000 C   0  0
   -3.5375   -2.8333    0.0000 N   0  0
   -4.2500   -2.4208    0.0000 C   0  0
   -4.9625   -2.8333    0.0000 C   0  0
   -5.6750   -2.4208    0.0000 O   0  0
   -3.5375   -3.6583    0.0000 C   0  0
   -2.8230   -4.0708    0.0000 C   0  0
    4.8603   -1.1582    0.0000 O   0  0
  5  4  2  0
 17 18  1  0
  8  9  1  0
 18 19  1  0
  4  1  1  0
 19 20  1  0
  9 10  2  0
 20 21  2  0
 10  5  1  0
 21 22  1  0
 22 23  2  0
 10 11  1  0
 23 24  1  0
  2  3  1  0
 24 25  2  0
 25 20  1  0
 11 12  1  0
 24 26  1  0
 13 14  2  0
  2 27  1  0
  5  6  1  0
 27 28  1  0
  3  6  2  0
 28 29  1  0
  6  7  1  0
 29 30  1  0
  1  2  2  0
 30 31  1  0
 12 13  1  0
 31 32  1  0
 14 15  1  0
 32 33  1  0
 15 16  1  0
 33 34  1  0
 16 12  2  0
 31 35  1  0
  7  8  2  0
 35 36  1  0
 14 17  1  0
 18 37  2  0
M  END