
          11280715392D 1   1.00000     0.00000     0

 44 45  0     0  0            999 V2000
    0.9542   -2.3542    0.0000 C   0  0  0  0  0  0           0  0  0
   13.2542   -9.1125    0.0000 C   0  0  0  0  0  0           0  0  0
   12.6542   -9.1125    0.0000 C   0  0  0  0  0  0           0  0  0
    1.5542   -2.3542    0.0000 C   0  0  0  0  0  0           0  0  0
    0.6542   -1.8292    0.0000 C   0  0  0  0  0  0           0  0  0
   13.5500   -9.6292    0.0000 C   0  0  0  0  0  0           0  0  0
    1.8542   -2.8750    0.0000 N   0  0  3  0  0  0           0  0  0
   12.3542   -8.5917    0.0000 N   0  0  3  0  0  0           0  0  0
    9.0542   -7.0292    0.0000 N   0  0  0  0  0  0           0  0  0
    5.1542   -4.4292    0.0000 N   0  0  0  0  0  0           0  0  0
    0.9542   -1.3167    0.0000 O   0  0  0  0  0  0           0  0  0
   13.2500  -10.1500    0.0000 O   0  0  0  0  0  0           0  0  0
    0.6542   -2.8750    0.0000 C   0  0  0  0  0  0           0  0  0
   13.5500   -8.5917    0.0000 C   0  0  0  0  0  0           0  0  0
   14.1500   -9.6292    0.0000 C   0  0  0  0  0  0           0  0  0
    0.0542   -1.8292    0.0000 C   0  0  0  0  0  0           0  0  0
   11.7542   -8.5917    0.0000 C   0  0  0  0  0  0           0  0  0
    2.4542   -2.8750    0.0000 C   0  0  0  0  0  0           0  0  0
    1.5542   -3.3917    0.0000 C   0  0  0  0  0  0           0  0  0
   12.6542   -8.0667    0.0000 C   0  0  0  0  0  0           0  0  0
    4.5542   -4.4292    0.0000 C   0  0  0  0  0  0           0  0  0
    9.6542   -7.0292    0.0000 C   0  0  0  0  0  0           0  0  0
    5.4542   -4.9542    0.0000 C   0  0  0  0  0  0           0  0  0
    8.7542   -6.5125    0.0000 C   0  0  0  0  0  0           0  0  0
    0.6542   -0.8000    0.0000 C   0  0  0  0  0  0           0  0  0
   13.5500  -10.6667    0.0000 C   0  0  0  0  0  0           0  0  0
    2.7542   -3.3917    0.0000 C   0  0  0  0  0  0           0  0  0
   11.4542   -8.0667    0.0000 C   0  0  0  0  0  0           0  0  0
    6.0542   -4.9542    0.0000 C   0  0  0  0  0  0           0  0  0
    8.1542   -6.5125    0.0000 C   0  0  0  0  0  0           0  0  0
    9.9542   -7.5542    0.0000 C   0  0  0  0  0  0           0  0  0
    4.2542   -3.9167    0.0000 C   0  0  0  0  0  0           0  0  0
    3.6542   -3.9167    0.0000 C   0  0  0  0  0  0           0  0  0
    3.3542   -3.3917    0.0000 C   0  0  0  0  0  0           0  0  0
    6.3542   -5.4750    0.0000 C   0  0  0  0  0  0           0  0  0
    6.9542   -5.4750    0.0000 C   0  0  0  0  0  0           0  0  0
    7.2542   -5.9917    0.0000 C   0  0  0  0  0  0           0  0  0
   10.5542   -7.5542    0.0000 C   0  0  0  0  0  0           0  0  0
   10.8542   -8.0667    0.0000 C   0  0  0  0  0  0           0  0  0
    7.8542   -5.9917    0.0000 C   0  0  0  0  0  0           0  0  0
   14.1417   -8.5917    0.0000 C   0  0  0  0  0  0           0  0  0
    0.0542   -2.8750    0.0000 C   0  0  0  0  0  0           0  0  0
   -0.2458   -2.3542    0.0000 C   0  0  0  0  0  0           0  0  0
   14.4500   -9.1125    0.0000 C   0  0  0  0  0  0           0  0  0
  2  3  1  0     0  0
  3  8  1  0     0  0
  4  1  1  0     0  0
  5  1  2  0     0  0
  6  2  2  0     0  0
  7  4  1  0     0  0
  8 17  1  0     0  0
  9 24  1  0     0  0
 10 21  1  0     0  0
 11  5  1  0     0  0
 12  6  1  0     0  0
 13  1  1  0     0  0
 14  2  1  0     0  0
 15  6  1  0     0  0
 16  5  1  0     0  0
 17 28  1  0     0  0
 18  7  1  0     0  0
 19  7  1  0     0  0
 20  8  1  0     0  0
 21 32  1  0     0  0
 22  9  1  0     0  0
 23 10  1  0     0  0
 24 30  1  0     0  0
 25 11  1  0     0  0
 26 12  1  0     0  0
 27 18  1  0     0  0
 28 39  1  0     0  0
 29 23  1  0     0  0
 30 40  1  0     0  0
 31 22  1  0     0  0
 32 33  1  0     0  0
 33 34  1  0     0  0
 34 27  1  0     0  0
 35 29  1  0     0  0
 36 35  1  0     0  0
 37 36  1  0     0  0
 38 31  1  0     0  0
 39 38  1  0     0  0
 40 37  1  0     0  0
 41 14  2  0     0  0
 42 13  2  0     0  0
 43 42  1  0     0  0
 44 41  1  0     0  0
 16 43  2  0     0  0
 15 44  2  0     0  0
M  END