
  SciTegic12171312592D

 29 32  0  0  0  0            999 V2000
    8.7187  -20.6562    0.0000 C   0  0
    8.7187  -21.4821    0.0000 C   0  0
    9.4321  -21.8931    0.0000 C   0  0
   10.1455  -21.4821    0.0000 C   0  0
   10.1455  -20.6562    0.0000 C   0  0
    9.4321  -20.2411    0.0000 C   0  0
   10.8632  -21.8931    0.0000 C   0  0
   11.5765  -21.4821    0.0000 N   0  0
   11.5765  -20.6562    0.0000 C   0  0
   10.8632  -20.2411    0.0000 C   0  0
   10.8632  -22.7188    0.0000 Cl  0  0
   10.8632  -19.4154    0.0000 O   0  0
   12.2896  -20.2413    0.0000 C   0  0
   12.2896  -19.4156    0.0000 O   0  0
   13.0068  -20.6562    0.0000 N   0  0
   13.7199  -20.2413    0.0000 C   0  0  2  0  0  0
   14.4330  -20.6562    0.0000 C   0  0
   13.7199  -19.4156    0.0000 C   0  0
   15.1503  -20.2413    0.0000 O   0  0
   14.4330  -21.4817    0.0000 O   0  0
   14.4332  -19.0039    0.0000 C   0  0
   15.1850  -19.3381    0.0000 C   0  0
   15.7360  -18.7261    0.0000 N   0  0
   14.5188  -18.1842    0.0000 C   0  0
   15.3232  -18.0132    0.0000 C   0  0
   15.5757  -17.2325    0.0000 C   0  0
   15.0249  -16.6222    0.0000 C   0  0
   14.2183  -16.7978    0.0000 C   0  0
   13.9695  -17.5782    0.0000 C   0  0
  1  2  2  0
  2  3  1  0
  3  4  2  0
  4  5  1  0
  5  6  2  0
  6  1  1  0
  4  7  1  0
  7  8  2  0
  8  9  1  0
  9 10  2  0
 10  5  1  0
  7 11  1  0
 10 12  1  0
  9 13  1  0
 13 14  2  0
 13 15  1  0
 15 16  1  0
 16 17  1  0
 16 18  1  1
 17 19  1  0
 17 20  2  0
 18 21  1  0
 21 22  2  0
 22 23  1  0
 23 25  1  0
 24 21  1  0
 24 25  2  0
 25 26  1  0
 26 27  2  0
 27 28  1  0
 28 29  2  0
 29 24  1  0
M  END