
          08180812472D 1   1.00000     0.00000     0

 25 26  0     1  0            999 V2000
    0.1925  -18.9887    0.0000 C   0  0  2  0  0  0           0  0  0
    0.1925  -19.8183    0.0000 C   0  0  1  0  0  0           0  0  0
    0.9069  -20.2308    0.0000 C   0  0  2  0  0  0           0  0  0
    1.6260  -19.8183    0.0000 C   0  0  1  0  0  0           0  0  0
    1.6260  -18.9887    0.0000 O   0  0  0  0  0  0           0  0  0
    0.9069  -18.5716    0.0000 C   0  0  2  0  0  0           0  0  0
   -0.5219  -20.2308    0.0000 N   0  0  0  0  0  0           0  0  0
   -0.5229  -18.5780    0.0000 O   0  0  0  0  0  0           0  0  0
    2.3399  -20.2318    0.0000 S   0  0  0  0  0  0           0  0  0
    3.0549  -19.8203    0.0000 C   0  0  0  0  0  0           0  0  0
   -1.2364  -19.8183    0.0000 C   0  0  0  0  0  0           0  0  0
   -1.9510  -20.2308    0.0000 C   0  0  0  0  0  0           0  0  0
   -1.2364  -18.9933    0.0000 O   0  0  0  0  0  0           0  0  0
   -2.6642  -19.8142    0.0000 C   0  0  0  0  0  0           0  0  0
   -3.3782  -20.2259    0.0000 C   0  0  0  0  0  0           0  0  0
   -3.3786  -21.0518    0.0000 C   0  0  0  0  0  0           0  0  0
   -2.6591  -21.4642    0.0000 C   0  0  0  0  0  0           0  0  0
   -1.9481  -21.0500    0.0000 C   0  0  0  0  0  0           0  0  0
   -4.0925  -21.4653    0.0000 C   0  0  0  0  0  0           0  0  0
    0.9058  -21.0558    0.0000 O   0  0  0  0  0  0           0  0  0
    0.9058  -17.7466    0.0000 C   0  0  0  0  0  0           0  0  0
    1.6197  -17.3331    0.0000 O   0  0  0  0  0  0           0  0  0
    1.6197  -21.4693    0.0000 C   0  0  0  0  0  0           0  0  0
    1.6185  -22.2943    0.0000 O   0  0  0  0  0  0           0  0  0
    2.3347  -21.0578    0.0000 C   0  0  0  0  0  0           0  0  0
  5  6  1  0     0  0
 11 13  2  0     0  0
 12 14  2  0     0  0
  2  7  1  1     0  0
 14 15  1  0     0  0
  1  2  1  0     0  0
 15 16  2  0     0  0
  1  8  1  1     0  0
 16 17  1  0     0  0
  1  6  1  0     0  0
 17 18  2  0     0  0
 18 12  1  0     0  0
  4  9  1  1     0  0
 16 19  1  0     0  0
  2  3  1  0     0  0
  3 20  1  6     0  0
  9 10  1  0     0  0
  6 21  1  1     0  0
  3  4  1  0     0  0
 21 22  1  0     0  0
  7 11  1  0     0  0
 20 23  1  0     0  0
  4  5  1  0     0  0
 23 24  2  0     0  0
 11 12  1  0     0  0
 23 25  1  0     0  0
M  END