
  SciTegic12231509382D

 27 32  0  0  0  0            999 V2000
    6.5250   -4.8042    0.0000 C   0  0  1  0  0  0
    6.8792   -4.1917    0.0000 C   0  0  2  0  0  0
    5.8167   -4.8042    0.0000 C   0  0
    6.8667   -5.4167    0.0000 C   0  0  1  0  0  0
    5.4667   -5.4167    0.0000 C   0  0
    6.1417   -5.7667    0.0000 O   0  0
    6.5292   -3.5875    0.0000 C   0  0  2  0  0  0
    6.8792   -2.9750    0.0000 N   0  0
    5.4667   -4.1917    0.0000 C   0  0
    5.8167   -3.5792    0.0000 C   0  0
    6.1667   -4.1875    0.0000 C   0  0
    7.5792   -4.1958    0.0000 C   0  0
    7.5750   -5.4167    0.0000 C   0  0
    7.4917   -2.6167    0.0000 C   0  0
    4.7625   -5.4167    0.0000 C   0  0
    6.1750   -2.9750    0.0000 C   0  0
    8.1042   -2.9750    0.0000 C   0  0
    8.4625   -3.5792    0.0000 C   0  0
    8.8167   -2.9667    0.0000 C   0  0
    4.7625   -4.1917    0.0000 C   0  0
    7.9292   -4.8125    0.0000 C   0  0
    7.2292   -3.5792    0.0000 O   0  0
    7.9250   -6.0375    0.0000 O   0  0
    4.4125   -4.8042    0.0000 C   0  0
    4.4042   -6.0292    0.0000 O   0  0
    6.0323   -2.7197    0.0000 H   0  0
    7.0897   -6.3915    0.0000 H   0  0
  2  1  1  0
  3  1  1  0
  4  1  1  0
  5  3  1  0
  4  6  1  0
  7  2  1  0
  8 16  1  0
  9  3  2  0
 10  9  1  0
  1 11  1  1
 12  2  1  0
 13  4  1  0
 14  8  1  0
 15  5  2  0
 16 11  1  0
 17 14  1  0
 18 17  1  0
 19 17  1  0
 20  9  1  0
 21 13  1  0
  2 22  1  1
 23 13  2  0
 24 20  2  0
 25 15  1  0
  6  5  1  0
  7  8  1  0
 21 12  1  0
 10  7  1  0
 15 24  1  0
 18 19  1  0
  7 26  1  6
  4 27  1  1
M  END