
  SciTegic10041313232D

 48 53  0  0  1  0            999 V2000
    5.9606  -16.0237    0.0000 C   0  0
    5.9594  -16.8509    0.0000 C   0  0
    6.6742  -17.2638    0.0000 C   0  0
    6.6724  -15.6109    0.0000 C   0  0
    7.3877  -16.0200    0.0000 C   0  0
    7.3911  -16.8530    0.0000 C   0  0
    8.1102  -17.2643    0.0000 C   0  0
    8.8306  -16.8471    0.0000 C   0  0
    6.8911  -18.0152    0.0000 N   0  0
    7.8911  -18.0568    0.0000 C   0  0
    8.1034  -15.5982    0.0000 C   0  0
    8.8291  -16.0136    0.0000 C   0  0  2  0  0  0
    9.5475  -15.5951    0.0000 N   0  0
    9.5467  -14.7596    0.0000 C   0  0
    8.8210  -14.3443    0.0000 C   0  0  1  0  0  0
    8.0962  -14.7645    0.0000 C   0  0
   10.2630  -16.0058    0.0000 C   0  0
    8.8187  -13.5194    0.0000 C   0  0
    9.5320  -13.1049    0.0000 N   0  0
    8.1031  -13.1089    0.0000 O   0  0
    9.5297  -12.2800    0.0000 C   0  0  2  0  0  0
   10.2430  -11.8655    0.0000 C   0  0
    8.8141  -11.8695    0.0000 C   0  0
    8.8118  -11.0446    0.0000 C   0  0
   10.9585  -12.2760    0.0000 N   0  0
   10.2407  -11.0406    0.0000 O   0  0
   11.6717  -11.8615    0.0000 C   0  0  2  0  0  0
   12.2623  -12.3345    0.0000 C   0  0
   11.6694  -11.0366    0.0000 C   0  0
   12.3827  -10.6221    0.0000 C   0  0
   11.9490  -13.0822    0.0000 O   0  0
   13.0644  -12.1419    0.0000 N   0  0
    9.5409  -16.4237    0.0000 H   0  0
   13.6283  -12.7436    0.0000 C   0  0
   14.4273  -12.5537    0.0000 C   0  0
   14.6657  -11.7636    0.0000 C   0  0
   14.0986  -11.1632    0.0000 C   0  0
   13.2931  -11.3529    0.0000 C   0  0
   14.9930  -13.1541    0.0000 C   0  0
   14.7558  -13.9443    0.0000 O   0  0
   15.7958  -12.9645    0.0000 N   0  0
    8.1008  -12.2840    0.0000 C   0  0
   12.3804   -9.7972    0.0000 C   0  0
   13.0946   -9.3873    0.0000 C   0  0
   13.0943   -8.5660    0.0000 C   0  0
   12.3806   -8.1517    0.0000 C   0  0
   11.6654   -8.5649    0.0000 C   0  0
   11.6641   -9.3925    0.0000 C   0  0
  7 10  2  0
 21 23  1  1
  9 10  1  0
 23 24  1  0
 11 12  1  0
 22 25  1  0
  5  6  1  0
 22 26  2  0
 25 27  1  0
  2  3  1  0
 27 28  1  0
  3  6  2  0
 27 29  1  1
  1  2  2  0
 29 30  1  0
  5 11  1  0
 28 31  2  0
 11 16  2  0
 28 32  1  0
 12 13  1  0
 12 33  1  1
 32 34  1  0
 13 14  1  0
 14 15  1  0
 15 16  1  0
  6  7  1  0
 13 17  1  0
 32 38  1  0
 34 35  1  0
 35 36  1  0
 36 37  1  0
 37 38  1  0
  7  8  1  0
 35 39  1  0
 15 18  1  1
 39 40  2  0
  8 12  1  0
 39 41  1  0
 18 19  1  0
 23 42  1  0
  5  4  2  0
 30 43  1  0
 43 44  1  0
 18 20  2  0
  3  9  1  0
 19 21  1  0
  4  1  1  0
 21 22  1  0
 43 48  1  0
 44 45  1  0
 45 46  1  0
 46 47  1  0
 47 48  1  0
M  END