
          11280715192D 1   1.00000     0.00000     0

 32 33  0     1  0            999 V2000
    0.2417   -2.4750    0.0000 C   0  0  0  0  0  0           0  0  0
    0.9542   -2.8875    0.0000 C   0  0  0  0  0  0           0  0  0
    0.2417   -1.6417    0.0000 C   0  0  0  0  0  0           0  0  0
   -0.4708   -2.8792    0.0000 C   0  0  0  0  0  0           0  0  0
    1.6667   -4.1250    0.0000 C   0  0  0  0  0  0           0  0  0
    6.6750   -3.7167    0.0000 C   0  0  0  0  0  0           0  0  0
    0.9542   -3.7125    0.0000 C   0  0  1  0  0  0           0  0  0
    7.3875   -4.1292    0.0000 C   0  0  1  0  0  0           0  0  0
   -1.1833   -2.4750    0.0000 C   0  0  0  0  0  0           0  0  0
   -0.4708   -1.2292    0.0000 C   0  0  0  0  0  0           0  0  0
   -1.1875   -1.6417    0.0000 C   0  0  0  0  0  0           0  0  0
    1.6667   -4.9500    0.0000 O   0  0  0  0  0  0           0  0  0
    6.6750   -2.8917    0.0000 O   0  0  0  0  0  0           0  0  0
    7.3875   -4.9542    0.0000 C   0  0  0  0  0  0           0  0  0
    2.3792   -3.7125    0.0000 N   0  0  0  0  0  0           0  0  0
    5.9542   -4.1250    0.0000 N   0  0  0  0  0  0           0  0  0
    8.1042   -5.3667    0.0000 C   0  0  0  0  0  0           0  0  0
    0.2417   -4.1250    0.0000 N   0  0  0  0  0  0           0  0  0
    8.1042   -3.7167    0.0000 N   0  0  0  0  0  0           0  0  0
    9.5292   -6.1917    0.0000 C   0  0  0  0  0  0           0  0  0
   -1.9083   -1.2375    0.0000 O   0  0  0  0  0  0           0  0  0
    8.1000   -6.1917    0.0000 C   0  0  0  0  0  0           0  0  0
    8.8125   -4.9542    0.0000 C   0  0  0  0  0  0           0  0  0
    9.5250   -5.3625    0.0000 C   0  0  0  0  0  0           0  0  0
    8.8125   -6.6042    0.0000 C   0  0  0  0  0  0           0  0  0
   10.2375   -6.6000    0.0000 O   0  0  0  0  0  0           0  0  0
   -0.4375   -3.5167    0.0000 C   0  0  0  0  0  0           0  0  0
    0.9542   -1.2375    0.0000 C   0  0  0  0  0  0           0  0  0
    5.2417   -3.7125    0.0000 C   0  0  0  0  0  0           0  0  0
    3.0917   -4.1250    0.0000 C   0  0  0  0  0  0           0  0  0
    3.8125   -3.7125    0.0000 C   0  0  0  0  0  0           0  0  0
    4.5250   -4.1250    0.0000 C   0  0  0  0  0  0           0  0  0
  2  1  1  0     0  0
  3  1  2  0     0  0
  4  1  1  0     0  0
  5  7  1  0     0  0
  6 16  1  0     0  0
  7  2  1  1     0  0
  8  6  1  0     0  0
  9  4  2  0     0  0
 10  3  1  0     0  0
 11  9  1  0     0  0
 12  5  2  0     0  0
 13  6  2  0     0  0
  8 14  1  6     0  0
 15  5  1  0     0  0
 16 29  1  0     0  0
 17 14  1  0     0  0
 18  7  1  0     0  0
 19  8  1  0     0  0
 20 24  1  0     0  0
 21 11  1  0     0  0
 22 17  2  0     0  0
 23 17  1  0     0  0
 24 23  2  0     0  0
 25 22  1  0     0  0
 26 20  1  0     0  0
 27  4  1  0     0  0
 28  3  1  0     0  0
 29 32  1  0     0  0
 30 15  1  0     0  0
 31 30  1  0     0  0
 32 31  1  0     0  0
 10 11  2  0     0  0
 25 20  2  0     0  0
M  END