
          11280714462D 1   1.00000     0.00000     0

 34 38  0     0  0            999 V2000
    6.6792   -0.1542    0.0000 C   0  0  0  0  0  0           0  0  0
    5.4542    0.5708    0.0000 N   0  0  3  0  0  0           0  0  0
    7.1042    0.5583    0.0000 C   0  0  0  0  0  0           0  0  0
    5.8625   -0.1500    0.0000 C   0  0  0  0  0  0           0  0  0
    6.7000    1.2708    0.0000 N   0  0  0  0  0  0           0  0  0
    5.8667    1.2833    0.0000 C   0  0  0  0  0  0           0  0  0
    7.2292   -0.7792    0.0000 C   0  0  0  0  0  0           0  0  0
    7.9125    0.3708    0.0000 S   0  0  0  0  0  0           0  0  0
    7.9917   -0.4500    0.0000 C   0  0  0  0  0  0           0  0  0
    1.7417   -0.1167    0.0000 N   0  0  3  0  0  0           0  0  0
    7.0542   -1.5875    0.0000 C   0  0  0  0  0  0           0  0  0
    4.6292    0.5750    0.0000 C   0  0  0  0  0  0           0  0  0
    0.9167   -0.1167    0.0000 C   0  0  0  0  0  0           0  0  0
    3.3917   -0.1292    0.0000 N   0  0  3  0  0  0           0  0  0
    5.4417   -0.8625    0.0000 O   0  0  0  0  0  0           0  0  0
    5.4625    1.9958    0.0000 O   0  0  0  0  0  0           0  0  0
    7.6542   -2.1375    0.0000 C   0  0  0  0  0  0           0  0  0
    2.1542   -0.8417    0.0000 C   0  0  0  0  0  0           0  0  0
    2.1542    0.5875    0.0000 C   0  0  0  0  0  0           0  0  0
    0.5125    0.5958    0.0000 C   0  0  0  0  0  0           0  0  0
    4.2167   -0.1375    0.0000 C   0  0  0  0  0  0           0  0  0
    2.9750   -0.8417    0.0000 C   0  0  0  0  0  0           0  0  0
    2.9792    0.5833    0.0000 C   0  0  0  0  0  0           0  0  0
    7.4792   -2.9417    0.0000 C   0  0  0  0  0  0           0  0  0
    0.9292    1.3083    0.0000 O   0  0  0  0  0  0           0  0  0
    6.2625   -1.8292    0.0000 C   0  0  0  0  0  0           0  0  0
    6.0792   -2.6375    0.0000 C   0  0  0  0  0  0           0  0  0
    0.5042   -0.8375    0.0000 C   0  0  0  0  0  0           0  0  0
   -0.3083    0.5958    0.0000 C   0  0  0  0  0  0           0  0  0
    6.6917   -3.1917    0.0000 C   0  0  0  0  0  0           0  0  0
    8.0917   -3.5000    0.0000 C   0  0  0  0  0  0           0  0  0
    1.7542    1.3000    0.0000 C   0  0  0  0  0  0           0  0  0
   -0.3208   -0.8292    0.0000 C   0  0  0  0  0  0           0  0  0
   -0.7208   -0.1167    0.0000 C   0  0  0  0  0  0           0  0  0
  2  4  1  0     0  0
  3  1  2  0     0  0
  4  1  1  0     0  0
  5  3  1  0     0  0
  6  2  1  0     0  0
  7  1  1  0     0  0
  8  3  1  0     0  0
  9  7  2  0     0  0
 10 19  1  0     0  0
 11  7  1  0     0  0
 12  2  1  0     0  0
 13 10  1  0     0  0
 14 21  1  0     0  0
 15  4  2  0     0  0
 16  6  2  0     0  0
 17 11  1  0     0  0
 18 22  1  0     0  0
 19 23  1  0     0  0
 20 13  2  0     0  0
 21 12  1  0     0  0
 22 14  1  0     0  0
 23 14  1  0     0  0
 24 17  2  0     0  0
 25 20  1  0     0  0
 26 11  2  0     0  0
 27 26  1  0     0  0
 28 13  1  0     0  0
 29 20  1  0     0  0
 30 27  2  0     0  0
 31 24  1  0     0  0
 32 25  1  0     0  0
 33 28  2  0     0  0
 34 33  1  0     0  0
  8  9  1  0     0  0
  6  5  1  0     0  0
 30 24  1  0     0  0
 18 10  1  0     0  0
 34 29  2  0     0  0
M  END