
  SciTegic01161211242D

 23 24  0  0  0  0            999 V2000
    5.4292   -3.2042    0.0000 C   0  0
    5.7542   -2.6917    0.0000 O   0  0
    5.8125   -3.6667    0.0000 O   0  0
    6.3750   -3.4417    0.0000 C   0  0
    7.3750   -3.7042    0.0000 N   0  3
    5.1250   -3.7167    0.0000 C   0  0
    4.9125   -2.9042    0.0000 C   0  0
    6.3375   -2.8417    0.0000 C   0  0
    7.9625   -1.9417    0.0000 I   0  5
    6.9500   -3.2917    0.0000 C   0  0
    7.2250   -4.2917    0.0000 C   0  0
    7.8917   -4.0000    0.0000 C   0  0
    7.9542   -3.5417    0.0000 C   0  0
    4.5250   -3.7042    0.0000 C   0  0
    5.4125   -4.2292    0.0000 C   0  0
    4.9125   -2.2917    0.0000 C   0  0
    4.3875   -3.2042    0.0000 C   0  0
    3.8625   -2.8917    0.0000 C   0  0
    4.2167   -4.2167    0.0000 C   0  0
    5.1125   -4.7417    0.0000 C   0  0
    4.3875   -1.9917    0.0000 C   0  0
    3.8625   -2.2917    0.0000 C   0  0
    4.5125   -4.7417    0.0000 C   0  0
  2  1  1  0
  3  1  1  0
  4  3  1  0
  5 10  1  0
  6  1  1  0
  7  1  1  0
  8  2  1  0
 10  4  1  0
 11  5  1  0
 12  5  1  0
 13  5  1  0
 14  6  2  0
 15  6  1  0
 16  7  2  0
 17  7  1  0
 18 17  2  0
 19 14  1  0
 20 15  2  0
 21 16  1  0
 22 21  2  0
 23 20  1  0
  8  4  1  0
 18 22  1  0
 23 19  2  0
M  CHG  2   5   1   9  -1
M  END