
          11280715272D 1   1.00000     0.00000     0

 47 49  0     0  0            999 V2000
   -1.2000   -5.5375    0.0000 N   0  0  3  0  0  0           0  0  0
   -1.9333   -5.9125    0.0000 C   0  0  0  0  0  0           0  0  0
   -1.5750   -7.3500    0.0000 C   0  0  0  0  0  0           0  0  0
   -2.1083   -6.7125    0.0000 C   0  0  0  0  0  0           0  0  0
   -0.4500   -5.8792    0.0000 C   0  0  0  0  0  0           0  0  0
   -0.7583   -7.3292    0.0000 N   0  0  0  0  0  0           0  0  0
   -0.2500   -6.6792    0.0000 C   0  0  0  0  0  0           0  0  0
   -1.2000   -4.7167    0.0000 C   0  0  0  0  0  0           0  0  0
    0.1417   -5.3042    0.0000 N   0  0  0  0  0  0           0  0  0
   -1.9208   -8.1000    0.0000 O   0  0  0  0  0  0           0  0  0
   -0.4833   -4.3000    0.0000 O   0  0  0  0  0  0           0  0  0
    8.0667   -0.9792    0.0000 N   0  0  3  0  0  0           0  0  0
    1.6542   -0.5875    0.0000 N   0  0  3  0  0  0           0  0  0
   -2.8833   -6.9625    0.0000 C   0  0  0  0  0  0           0  0  0
   -2.5375   -5.3625    0.0000 C   0  0  0  0  0  0           0  0  0
   -1.2000   -2.2417    0.0000 N   0  0  0  0  0  0           0  0  0
   10.2167   -3.0417    0.0000 N   0  0  0  0  0  0           0  0  0
   -1.9125   -4.3042    0.0000 C   0  0  0  0  0  0           0  0  0
    0.5375   -6.9042    0.0000 C   0  0  0  0  0  0           0  0  0
    0.9292   -5.5292    0.0000 C   0  0  0  0  0  0           0  0  0
    7.3542   -0.5750    0.0000 C   0  0  0  0  0  0           0  0  0
    8.7792   -0.5667    0.0000 C   0  0  0  0  0  0           0  0  0
    0.9417   -1.0000    0.0000 C   0  0  0  0  0  0           0  0  0
    2.3667   -1.0000    0.0000 C   0  0  0  0  0  0           0  0  0
   -1.2000   -3.0667    0.0000 C   0  0  0  0  0  0           0  0  0
   -1.9208   -1.8292    0.0000 C   0  0  0  0  0  0           0  0  0
    8.0667   -1.8042    0.0000 C   0  0  0  0  0  0           0  0  0
    1.6542    0.2375    0.0000 C   0  0  0  0  0  0           0  0  0
   10.2167   -2.2167    0.0000 C   0  0  0  0  0  0           0  0  0
   -1.9208   -3.4792    0.0000 C   0  0  0  0  0  0           0  0  0
    3.0792   -0.5875    0.0000 C   0  0  0  0  0  0           0  0  0
    9.5000   -0.9792    0.0000 C   0  0  0  0  0  0           0  0  0
    0.2250   -0.5875    0.0000 C   0  0  0  0  0  0           0  0  0
    6.6417   -0.9875    0.0000 C   0  0  0  0  0  0           0  0  0
   -1.9208   -1.0042    0.0000 C   0  0  0  0  0  0           0  0  0
   10.9292   -1.8042    0.0000 C   0  0  0  0  0  0           0  0  0
    1.1292   -6.3375    0.0000 C   0  0  0  0  0  0           0  0  0
   -3.4958   -6.4125    0.0000 C   0  0  0  0  0  0           0  0  0
   -3.3208   -5.6042    0.0000 C   0  0  0  0  0  0           0  0  0
    4.5042   -0.5792    0.0000 C   0  0  0  0  0  0           0  0  0
   10.2042   -0.5667    0.0000 C   0  0  0  0  0  0           0  0  0
   -0.4875   -1.0000    0.0000 C   0  0  0  0  0  0           0  0  0
   -1.2083   -0.5917    0.0000 C   0  0  0  0  0  0           0  0  0
   10.9250   -0.9792    0.0000 C   0  0  0  0  0  0           0  0  0
    5.2167   -0.9917    0.0000 C   0  0  0  0  0  0           0  0  0
    5.9292   -0.5792    0.0000 C   0  0  0  0  0  0           0  0  0
    3.7917   -0.9917    0.0000 C   0  0  0  0  0  0           0  0  0
  2  1  1  0     0  0
  3  4  1  0     0  0
  4  2  2  0     0  0
  5  1  1  0     0  0
  6  7  1  0     0  0
  7  5  2  0     0  0
  8  1  1  0     0  0
  9  5  1  0     0  0
 10  3  2  0     0  0
 11  8  2  0     0  0
 12 21  1  0     0  0
 13 23  1  0     0  0
 14  4  1  0     0  0
 15  2  1  0     0  0
 16 25  1  0     0  0
 17 29  1  0     0  0
 18  8  1  0     0  0
 19  7  1  0     0  0
 20  9  2  0     0  0
 21 34  1  0     0  0
 22 12  1  0     0  0
 23 33  1  0     0  0
 24 13  1  0     0  0
 25 30  1  0     0  0
 26 16  1  0     0  0
 27 12  1  0     0  0
 28 13  1  0     0  0
 29 36  1  0     0  0
 30 18  1  0     0  0
 31 24  1  0     0  0
 32 22  1  0     0  0
 33 42  1  0     0  0
 34 46  1  0     0  0
 35 26  1  0     0  0
 36 44  1  0     0  0
 37 20  1  0     0  0
 38 39  1  0     0  0
 39 15  2  0     0  0
 40 47  1  0     0  0
 41 32  1  0     0  0
 42 43  1  0     0  0
 43 35  1  0     0  0
 44 41  1  0     0  0
 45 40  1  0     0  0
 46 45  1  0     0  0
 47 31  1  0     0  0
  3  6  1  0     0  0
 19 37  2  0     0  0
 14 38  2  0     0  0
M  END