
  Mrv0541 04051115152D          

 17 19  0  0  0  0            999 V2000
    0.3445    0.4950    0.0000 O   0  0  0  0  0  0  0  0  0  0  0  0
    1.0590    0.0825    0.0000 C   0  0  0  0  0  0  0  0  0  0  0  0
    1.0590   -0.7425    0.0000 C   0  0  0  0  0  0  0  0  0  0  0  0
    0.3445   -1.1550    0.0000 C   0  0  0  0  0  0  0  0  0  0  0  0
   -0.3699   -0.7425    0.0000 C   0  0  0  0  0  0  0  0  0  0  0  0
   -0.3699    0.0825    0.0000 C   0  0  0  0  0  0  0  0  0  0  0  0
   -1.0844    0.4950    0.0000 C   0  0  0  0  0  0  0  0  0  0  0  0
   -1.7989    0.0825    0.0000 C   0  0  0  0  0  0  0  0  0  0  0  0
   -2.5133    0.4950    0.0000 C   0  0  0  0  0  0  0  0  0  0  0  0
   -2.5133    1.3200    0.0000 C   0  0  0  0  0  0  0  0  0  0  0  0
   -1.7989    1.7325    0.0000 C   0  0  0  0  0  0  0  0  0  0  0  0
   -1.0844    1.3200    0.0000 C   0  0  0  0  0  0  0  0  0  0  0  0
    0.3445   -1.9800    0.0000 O   0  0  0  0  0  0  0  0  0  0  0  0
    1.7735   -1.1550    0.0000 C   0  0  0  0  0  0  0  0  0  0  0  0
    2.4880   -0.7425    0.0000 C   0  0  0  0  0  0  0  0  0  0  0  0
    2.4880    0.0825    0.0000 C   0  0  0  0  0  0  0  0  0  0  0  0
    1.7735    0.4950    0.0000 C   0  0  0  0  0  0  0  0  0  0  0  0
  2  1  1  0  0  0  0
  6  1  1  0  0  0  0
  3  2  1  0  0  0  0
 17  2  2  0  0  0  0
  4  3  1  0  0  0  0
  3 14  2  0  0  0  0
  5  4  1  0  0  0  0
  4 13  2  0  0  0  0
  6  5  2  0  0  0  0
  7  6  1  0  0  0  0
  7  8  2  0  0  0  0
  7 12  1  0  0  0  0
  8  9  1  0  0  0  0
  9 10  2  0  0  0  0
 10 11  1  0  0  0  0
 11 12  2  0  0  0  0
 14 15  1  0  0  0  0
 15 16  2  0  0  0  0
 16 17  1  0  0  0  0
M  END