
  SciTegic01161211242D

 51 54  0  0  0  0            999 V2000
    1.4750   -4.1750    0.0000 C   0  0
    1.4750   -5.0042    0.0000 N   0  0
    2.3125   -2.5167    0.0000 S   0  3
    8.6500   -6.7000    0.0000 C   0  0
    1.4792   -2.5167    0.0000 C   0  0
    6.4917   -6.2667    0.0000 C   0  0
    9.3667   -6.2792    0.0000 C   0  0
    7.9375   -6.2792    0.0000 N   0  0
    0.7625   -3.7542    0.0000 C   0  0
    5.7750   -7.5167    0.0000 C   0  0
    7.2125   -6.6917    0.0000 C   0  0
    5.7750   -6.6875    0.0000 C   0  0
    0.7625   -2.9292    0.0000 C   0  0
    2.1958   -5.4167    0.0000 C   0  0
    3.6250   -6.2542    0.0000 N   0  0
    6.4792   -7.9250    0.0000 C   0  0
    6.4792   -8.7542    0.0000 C   0  0
    6.5000   -5.4417    0.0000 N   0  0
    5.0625   -6.2667    0.0000 C   0  0
    9.3667   -5.4625    0.0000 C   0  0
   10.0750   -6.7125    0.0000 C   0  0
    2.1958   -3.7542    0.0000 O   0  0
    2.9125   -5.0125    0.0000 C   0  0
    2.1917   -6.2542    0.0000 C   0  0
    5.7625   -9.1667    0.0000 C   0  0
    8.6375   -7.5292    0.0000 O   0  0
    1.4792   -1.6875    0.0000 O   0  0
   10.0833   -5.0542    0.0000 C   0  0
   10.8000   -6.2917    0.0000 C   0  0
   10.8000   -5.4667    0.0000 C   0  0
    3.9625   -2.5167    0.0000 N   0  0
    5.0500   -7.9167    0.0000 C   0  0
    0.5542   -8.1500    0.0000 Br  0  5
    4.3375   -6.6750    0.0000 C   0  0
    5.0417   -8.7417    0.0000 C   0  0
    3.6250   -5.4292    0.0000 C   0  0
    2.9000   -6.6667    0.0000 C   0  0
    0.7625   -5.4167    0.0000 C   0  0
    7.2000   -9.1667    0.0000 Cl  0  0
    2.7167   -1.7917    0.0000 C   0  0
    2.7167   -3.2292    0.0000 C   0  0
    5.7625  -10.0000    0.0000 Cl  0  0
   10.0833   -4.2250    0.0000 Cl  0  0
   11.5167   -6.7167    0.0000 Cl  0  0
    7.2250   -5.0375    0.0000 O   0  0
    7.9375   -5.4542    0.0000 C   0  0
    0.0500   -4.1750    0.0000 C   0  0
    0.0500   -5.0042    0.0000 C   0  0
    3.5375   -3.2292    0.0000 C   0  0
    3.5500   -1.8000    0.0000 C   0  0
    7.9375   -4.6250    0.0000 C   0  0
  2  1  1  0
  3  5  1  0
  4  8  1  0
  5 13  1  0
  6 12  1  0
  7  4  1  0
  8 11  1  0
  9  1  1  0
 10 12  1  0
 11  6  1  0
 12 19  1  0
 13  9  1  0
 14  2  1  0
 15 37  1  0
 16 10  1  0
 17 16  2  0
 18  6  2  0
 19 34  1  0
 20  7  1  0
 21  7  2  0
 22  1  2  0
 23 14  1  0
 24 14  1  0
 25 35  2  0
 26  4  2  0
 27  5  2  0
 28 20  2  0
 29 21  1  0
 30 29  2  0
 31 50  1  0
 32 10  2  0
 34 15  1  0
 35 32  1  0
 36 23  1  0
 37 24  1  0
 38  2  1  0
 39 17  1  0
 40  3  1  0
 41  3  1  0
 42 25  1  0
 43 28  1  0
 44 29  1  0
 45 18  1  0
 46  8  1  0
 47  9  1  0
 48 47  1  0
 49 41  1  0
 50 40  1  0
 51 45  1  0
 48 38  1  0
 15 36  1  0
 31 49  1  0
 25 17  1  0
 28 30  1  0
M  CHG  2   3   1  33  -1
M  END