
  SciTegic04191613082D

 39 38  0  0  0  0            999 V2000
    1.2990   -0.7500    0.0000 C   0  0
    1.2990    0.7500    0.0000 C   0  0
    0.0000    1.5000    0.0000 C   0  0
   -1.2990    0.7500    0.0000 C   0  0
   -1.2990   -0.7500    0.0000 C   0  0
    0.0000   -1.5000    0.0000 N   0  3
   -2.6003   -1.4978    0.0000 C   0  0
   -3.8990   -0.7455    0.0000 C   0  0
   -5.2003   -1.4932    0.0000 C   0  0
   -6.4990   -0.7410    0.0000 C   0  0
   -7.8003   -1.4887    0.0000 C   0  0
   -9.0990   -0.7365    0.0000 C   0  0
    2.6003   -1.4977    0.0000 C   0  0
    3.8990   -0.7455    0.0000 C   0  0
    5.2003   -1.4932    0.0000 C   0  0
    6.4990   -0.7409    0.0000 C   0  0
    7.8003   -1.4887    0.0000 C   0  0
    9.0990   -0.7364    0.0000 C   0  0
    0.0000   -2.7000    0.0000 C   0  0
  -10.4003   -1.4842    0.0000 C   0  0
   10.4003   -1.4841    0.0000 C   0  0
  -11.6989   -0.7319    0.0000 C   0  0
   11.6990   -0.7319    0.0000 C   0  0
  -13.0002   -1.4797    0.0000 C   0  0
   13.0002   -1.4796    0.0000 C   0  0
  -14.2989   -0.7274    0.0000 C   0  0
   14.2989   -0.7273    0.0000 C   0  0
  -15.6002   -1.4752    0.0000 C   0  0
  -16.6386   -0.8737    0.0000 C   0  0
   15.6002   -1.4751    0.0000 C   0  0
   16.6386   -0.8736    0.0000 C   0  0
   20.6989   -0.3754    0.0000 C   0  0
   21.9989   -1.1254    0.0000 S   0  0
   19.6595   -0.9750    0.0000 F   0  0
   20.6989    0.8246    0.0000 F   0  0
   19.6598    0.2248    0.0000 F   0  0
   21.9989   -2.3254    0.0000 O   0  5
   23.0383   -0.5257    0.0000 O   0  0
   23.0380   -1.7255    0.0000 O   0  0
  1  2  2  0
  2  3  1  0
  3  4  2  0
  4  5  1  0
  5  6  2  0
  6  1  1  0
  5  7  1  0
  7  8  1  0
  8  9  1  0
  9 10  1  0
 10 11  1  0
 11 12  1  0
  1 13  1  0
 13 14  1  0
 14 15  1  0
 15 16  1  0
 16 17  1  0
 17 18  1  0
  6 19  1  0
 12 20  1  0
 18 21  1  0
 20 22  1  0
 21 23  1  0
 22 24  1  0
 23 25  1  0
 24 26  1  0
 25 27  1  0
 26 28  1  0
 28 29  1  0
 27 30  1  0
 30 31  1  0
 32 33  1  0
 32 34  1  0
 32 35  1  0
 32 36  1  0
 33 37  1  0
 33 38  2  0
 33 39  2  0
M  CHG  2   6   1  37  -1
M  END