
  SciTegic11201417432D

 26 27  0  0  0  0            999 V2000
    0.7667   -1.0417    0.0000 C   0  0
    3.2417   -2.4417    0.0000 C   0  0
    1.3917   -1.4042    0.0000 C   0  0
    0.7667   -0.3417    0.0000 C   0  0
    1.3917   -2.1042    0.0000 N   0  0
    0.1417    0.0083    0.0000 C   0  0
    0.1417   -1.4042    0.0000 C   0  0
    1.3917    0.0083    0.0000 N   0  0
    3.2542   -3.1542    0.0000 C   0  0
    2.6125   -2.1042    0.0000 C   0  0
    3.8542   -2.0792    0.0000 C   0  0
    2.0000   -2.4667    0.0000 C   0  0
    2.6542   -3.5292    0.0000 C   0  0
   -0.4833   -0.3417    0.0000 C   0  0
    3.8542   -1.3667    0.0000 N   0  0
    2.0042   -1.0417    0.0000 C   0  0
   -0.4833   -1.0417    0.0000 C   0  0
    2.0042   -0.3417    0.0000 C   0  0
    2.0000   -3.1917    0.0000 C   0  0
   -1.0958    0.0083    0.0000 Cl  0  0
    3.8667   -3.5167    0.0000 O   0  0
    0.0667   -3.1792    0.0000 Cl  0  0
    4.4667   -1.0292    0.0000 C   0  0
    3.2417   -1.0292    0.0000 C   0  0
    5.0542   -1.4042    0.0000 C   0  0
    2.6542   -1.3917    0.0000 C   0  0
  2 10  2  0
  3  1  2  0
  4  1  1  0
  5  3  1  0
  6  4  1  0
  7  1  1  0
  8  4  2  0
  9 13  2  0
 10 12  1  0
 11  2  1  0
 12  5  1  0
 13 19  1  0
 14 17  1  0
 15 11  1  0
 16  3  1  0
 17  7  2  0
 18  8  1  0
 19 12  2  0
 20 14  1  0
 21  9  1  0
 23 15  1  0
 24 15  1  0
 25 23  1  0
 26 24  1  0
  6 14  2  0
 16 18  2  0
  2  9  1  0
M  END