
  CDK    9/16/09,9:20

 44 46  0  0  0  0  0  0  0  0999 V2000
    8.0817   -8.7283    0.0000 C   0  0  0  0  0  0  0  0  0  0  0  0
    8.0804   -9.5592    0.0000 C   0  0  0  0  0  0  0  0  0  0  0  0
    8.7935   -9.9694    0.0000 C   0  0  0  0  0  0  0  0  0  0  0  0
    9.5127   -9.5587    0.0000 C   0  0  0  0  0  0  0  0  0  0  0  0
    9.5097   -8.7246    0.0000 C   0  0  0  0  0  0  0  0  0  0  0  0
    8.7916   -8.3183    0.0000 C   0  0  0  0  0  0  0  0  0  0  0  0
    8.7890   -7.4899    0.0000 O   0  0  0  0  0  0  0  0  0  0  0  0
    7.3645   -8.3187    0.0000 O   0  0  0  0  0  0  0  0  0  0  0  0
   10.2261   -9.9673    0.0000 C   0  0  0  0  0  0  0  0  0  0  0  0
   10.2274  -10.7957    0.0000 O   0  0  0  0  0  0  0  0  0  0  0  0
   10.9424   -9.5563    0.0000 C   0  0  0  0  0  0  0  0  0  0  0  0
   12.3673   -8.7325    0.0000 C   0  0  0  0  0  0  0  0  0  0  0  0
   11.6497   -8.3215    0.0000 C   0  0  0  0  0  0  0  0  0  0  0  0
   10.9333   -8.7306    0.0000 C   0  0  0  0  0  0  0  0  0  0  0  0
   10.2146   -8.3237    0.0000 O   0  0  0  0  0  0  0  0  0  0  0  0
   13.0809   -8.3243    0.0000 O   0  0  0  0  0  0  0  0  0  0  0  0
   11.6512   -7.4932    0.0000 C   0  0  0  0  0  0  0  0  0  0  0  0
   10.9393   -7.0820    0.0000 C   0  0  0  0  0  0  0  0  0  0  0  0
   10.9409   -6.2536    0.0000 C   0  0  0  0  0  0  0  0  0  0  0  0
   10.2246   -5.8425    0.0000 C   0  0  0  0  0  0  0  0  0  0  0  0
   11.6544   -5.8452    0.0000 C   0  0  0  0  0  0  0  0  0  0  0  0
   12.3641   -9.5612    0.0000 C   0  0  0  0  0  0  0  0  0  0  0  0
   11.6516   -9.9670    0.0000 C   0  0  0  0  0  0  0  0  0  0  0  0
   11.6504  -10.7847    0.0000 O   0  0  0  0  0  0  0  0  0  0  0  0
   12.3599  -11.1988    0.0000 C   0  0  0  0  0  0  0  0  0  0  0  0
   13.0725  -10.7886    0.0000 C   0  0  0  0  0  0  0  0  0  0  0  0
   13.0754   -9.9688    0.0000 C   0  0  0  0  0  0  0  0  0  0  0  0
   11.5935  -11.1880    0.0000 C   0  0  0  0  0  0  0  0  0  0  0  0
   12.7344  -11.9693    0.0000 C   0  0  0  0  0  0  0  0  0  0  0  0
   13.7842  -11.2047    0.0000 C   0  0  0  0  0  0  0  0  0  0  0  0
   14.5024  -10.7922    0.0000 C   0  0  0  0  0  0  0  0  0  0  0  0
   15.2140  -11.2082    0.0000 C   0  0  0  0  0  0  0  0  0  0  0  0
   15.9321  -10.7958    0.0000 C   0  0  0  0  0  0  0  0  0  0  0  0
   15.2119  -12.0322    0.0000 C   0  0  0  0  0  0  0  0  0  0  0  0
   13.2932   -7.5033    0.0000 C   0  0  0  0  0  0  0  0  0  0  0  0
   13.9472   -8.7240    0.0000 C   0  0  0  0  0  0  0  0  0  0  0  0
   13.9472   -7.8521    0.0000 C   0  0  0  0  0  0  0  0  0  0  0  0
   12.8789   -6.7883    0.0000 C   0  0  0  0  0  0  0  0  0  0  0  0
   13.7029   -6.7883    0.0000 C   0  0  0  0  0  0  0  0  0  0  0  0
   14.6561   -7.4240    0.0000 C   0  0  0  0  0  0  0  0  0  0  0  0
   15.3810   -7.8242    0.0000 C   0  0  0  0  0  0  0  0  0  0  0  0
   16.0856   -7.3961    0.0000 C   0  0  0  0  0  0  0  0  0  0  0  0
   16.8105   -7.7963    0.0000 C   0  0  0  0  0  0  0  0  0  0  0  0
   16.0695   -6.5723    0.0000 C   0  0  0  0  0  0  0  0  0  0  0  0
 19 21  1  0  0  0  0 
 22 23  1  0  0  0  0 
  2  3  1  0  0  0  0 
  9 11  1  0  0  0  0 
 11 23  2  0  0  0  0 
  5  6  2  0  0  0  0 
  6  1  1  0  0  0  0 
  1  2  2  0  0  0  0 
 22 27  1  1  0  0  0 
 23 24  1  0  0  0  0 
 25 26  1  0  0  0  0 
 26 27  1  0  0  0  0 
 11 14  1  0  0  0  0 
 25 28  1  0  0  0  0 
 22 12  1  0  0  0  0 
 25 29  2  0  0  0  0 
 12 13  1  0  0  0  0 
 26 30  1  6  0  0  0 
 13 14  1  0  0  0  0 
 30 31  1  0  0  0  0 
  6  7  1  0  0  0  0 
 31 32  2  0  0  0  0 
 14 15  2  0  0  0  0 
 32 33  1  0  0  0  0 
  3  4  2  0  0  0  0 
 32 34  1  0  0  0  0 
 12 16  2  0  0  0  0 
 13 35  1  0  0  0  0 
  1  8  1  0  0  0  0 
 22 36  1  0  0  0  0 
 13 17  1  1  0  0  0 
 36 37  1  0  0  0  0 
 35 37  1  0  0  0  0 
 35 38  1  0  0  0  0 
 17 18  1  0  0  0  0 
 35 39  1  0  0  0  0 
  4  9  1  0  0  0  0 
 37 40  1  6  0  0  0 
 18 19  2  0  0  0  0 
 40 41  1  0  0  0  0 
  4  5  1  0  0  0  0 
 41 42  2  0  0  0  0 
 19 20  1  0  0  0  0 
 42 43  1  0  0  0  0 
  9 10  2  0  0  0  0 
 42 44  1  0  0  0  0 
M  END