
  SciTegic11201309402D

 48 50  0  0  0  0            999 V2000
   -3.7714   -0.2076    0.0000 C   0  0
   -2.9498   -0.1337    0.0000 C   0  0  2  0  0  0
   -2.1614    0.1095    0.0000 C   0  0  1  0  0  0
   -1.9301    0.9014    0.0000 C   0  0  2  0  0  0
   -1.1667    1.2143    0.0000 C   0  0
   -0.4461    0.8125    0.0000 C   0  0  2  0  0  0
   -0.3110   -0.0014    0.0000 C   0  0  1  0  0  0
    0.4427   -0.3369    0.0000 C   0  0  2  0  0  0
    1.1572    0.0756    0.0000 O   0  0
    1.8716   -0.3369    0.0000 C   0  0
    1.8716   -1.1619    0.0000 O   0  0
    2.5861    0.0756    0.0000 C   0  0
    3.3006   -0.3369    0.0000 C   0  0
    4.0150    0.0756    0.0000 C   0  0
    4.7295   -0.3369    0.0000 C   0  0
    5.4440    0.0756    0.0000 C   0  0
    6.1585   -0.3369    0.0000 C   0  0
    6.8729    0.0756    0.0000 C   0  0
    0.3565   -1.1574    0.0000 C   0  0  1  0  0  0
    0.9696   -1.7094    0.0000 O   0  0
    0.7980   -2.5164    0.0000 C   0  0
    0.0134   -2.7714    0.0000 O   0  0
    1.4111   -3.0684    0.0000 C   0  0
    1.2396   -3.8754    0.0000 C   0  0
    2.1957   -2.8135    0.0000 C   0  0
    2.3673   -2.0065    0.0000 C   0  0
   -0.4505   -1.3289    0.0000 C   0  0
   -0.7861   -2.0826    0.0000 C   0  0
   -0.8630   -0.6145    0.0000 C   0  0
   -1.6865   -0.5651    0.0000 C   0  0  2  0  0  0
   -2.1814   -1.2252    0.0000 O   0  0
   -2.9621   -0.9586    0.0000 C   0  0
   -3.6367   -1.4335    0.0000 O   0  0
    0.3705    0.9293    0.0000 C   0  0
   -0.0606    1.5419    0.0000 O   0  0
   -0.4996    2.2404    0.0000 C   0  0
   -1.3240    2.2096    0.0000 O   0  0
   -0.1141    2.9698    0.0000 C   0  0
   -2.5432    1.4534    0.0000 O   0  0
   -2.3716    2.2604    0.0000 C   0  0
   -1.5870    2.5153    0.0000 O   0  0
   -2.9847    2.8124    0.0000 C   0  0
   -2.8132    3.6194    0.0000 C   0  0
   -3.4263    4.1714    0.0000 C   0  0
   -2.7491    0.6885    0.0000 O   0  0
   -3.1092    0.6758    0.0000 O   0  0
   -1.2662   -1.4725    0.0000 H   0  0
    0.4801    0.6103    0.0000 H   0  0
  2  1  1  6
  2  3  1  0
  2 32  1  0
  2 46  1  0
  3  4  1  0
 30  3  1  0
  3 45  1  6
  4  5  1  0
  4 39  1  1
  6  5  1  0
  7  6  1  0
  6 34  1  1
  6 35  1  0
  7  8  1  0
  7 29  1  0
  8  9  1  6
  8 19  1  0
 10  9  1  0
 10 11  2  0
 10 12  1  0
 12 13  1  0
 13 14  1  0
 14 15  1  0
 15 16  1  0
 16 17  1  0
 17 18  1  0
 19 20  1  1
 19 27  1  0
 21 20  1  0
 21 22  2  0
 21 23  1  0
 23 24  1  0
 23 25  2  0
 25 26  1  0
 28 27  1  0
 27 29  2  0
 30 29  1  0
 30 31  1  0
 32 31  1  0
 32 33  2  0
 36 35  1  0
 36 37  2  0
 36 38  1  0
 40 39  1  0
 40 41  2  0
 40 42  1  0
 42 43  1  0
 43 44  1  0
 30 47  1  1
  7 48  1  6
M  END