
  SciTegic04191613082D

187198  0  0  1  0            999 V2000
  -18.3186   -0.3940    0.0000 C   0  0
  -19.2452    0.7856    0.0000 C   0  0
  -18.6869    2.1778    0.0000 C   0  0
  -17.2021    2.3905    0.0000 C   0  0
  -16.2754    1.2109    0.0000 C   0  0
  -14.8072    0.8998    0.0000 C   0  0
  -14.3379   -0.5383    0.0000 C   0  0  1  0  0  0
  -15.7121   -1.1397    0.0000 C   0  0
  -16.2956   -0.0911    0.0000 O   0  0
  -16.9476   -1.9903    0.0000 N   0  0
  -17.9999   -3.0594    0.0000 C   0  0  1  0  0  0
  -18.8307   -4.3082    0.0000 C   0  0
  -19.4102   -5.6918    0.0000 N   0  0
  -19.7174   -7.1600    0.0000 C   0  0  2  0  0  0
  -21.1524   -7.6260    0.0000 C   0  0
  -22.2703   -6.6258    0.0000 C   0  0
  -21.9631   -5.1576    0.0000 C   0  0
  -20.5380   -4.6896    0.0000 C   0  0
  -19.7412   -8.6598    0.0000 C   0  0
  -19.4808  -10.1370    0.0000 N   0  0
  -18.9454  -11.5382    0.0000 C   0  0  1  0  0  0
  -19.9914  -12.6310    0.0000 C   0  0
  -21.4495  -12.2753    0.0000 C   0  0
  -22.5013  -13.3610    0.0000 C   0  0
  -23.9553  -13.0047    0.0000 C   0  0
  -24.9907  -14.0859    0.0000 C   0  0
  -26.4448  -13.7295    0.0000 C   0  0
  -26.8634  -12.2920    0.0000 C   0  0
  -25.8280  -11.2107    0.0000 C   0  0
  -24.3739  -11.5671    0.0000 C   0  0
  -23.3385  -10.4858    0.0000 C   0  0
  -21.8669  -10.8371    0.0000 C   0  0
  -18.1546  -12.8128    0.0000 C   0  0
  -17.1368  -13.9147    0.0000 N   0  0
  -15.9289  -14.8041    0.0000 C   0  0  2  0  0  0
  -14.5745  -15.4487    0.0000 C   0  0
  -13.1226  -15.8255    0.0000 N   0  0
  -11.6256  -15.9206    0.0000 C   0  0  2  0  0  0
  -10.1377  -15.7307    0.0000 C   0  0
   -8.7126  -15.2626    0.0000 N   0  0
   -7.4018  -14.5333    0.0000 C   0  0  2  0  0  0
   -6.5464  -15.7810    0.0000 C   0  0
   -5.0500  -15.6659    0.0000 C   0  0
   -5.1932  -17.1590    0.0000 C   0  0
   -3.9718  -18.0298    0.0000 C   0  0
   -2.6071  -17.4073    0.0000 C   0  0
   -2.4637  -15.9142    0.0000 C   0  0
   -3.6851  -15.0435    0.0000 C   0  0
   -6.2527  -13.5692    0.0000 C   0  0
   -5.3975  -14.4109    0.0000 O   0  0
   -5.3069  -12.4049    0.0000 N   0  0
   -4.5985  -11.0828    0.0000 C   0  0  2  0  0  0
   -4.2024  -13.0110    0.0000 C   0  0
   -4.8783  -14.3501    0.0000 N   0  0
   -5.8100  -15.5257    0.0000 C   0  0  1  0  0  0
   -4.4292  -16.1431    0.0000 C   0  0
   -3.2130  -15.2637    0.0000 C   0  0
   -2.1341  -16.3058    0.0000 C   0  0
   -0.6921  -15.8927    0.0000 C   0  0
   -0.3290  -14.4373    0.0000 C   0  0
   -1.4078  -13.3951    0.0000 C   0  0
   -2.8498  -13.8083    0.0000 C   0  0
   -6.9592  -16.4897    0.0000 C   0  0
   -8.2789  -17.2026    0.0000 N   0  0
   -9.7152  -17.6353    0.0000 C   0  0  1  0  0  0
   -9.4248  -19.1197    0.0000 C   0  0
   -8.0054  -19.6075    0.0000 C   0  0
   -7.7063  -21.0892    0.0000 C   0  0
   -6.2900  -21.5743    0.0000 C   0  0
   -6.0022  -23.0435    0.0000 C   0  0
   -4.5859  -23.5286    0.0000 C   0  0
   -3.4574  -22.5445    0.0000 C   0  0
   -3.7452  -21.0754    0.0000 C   0  0
   -5.1615  -20.5903    0.0000 C   0  0
   -5.4493  -19.1212    0.0000 C   0  0
   -6.8775  -18.6223    0.0000 C   0  0
  -11.2091  -17.7700    0.0000 C   0  0
  -11.2228  -18.9699    0.0000 O   0  0
  -12.6996  -17.6012    0.0000 N   0  0
  -14.1256  -17.1359    0.0000 C   0  0  2  0  0  0
  -15.4287  -16.3930    0.0000 C   0  0
  -16.1254  -17.3700    0.0000 O   0  0
  -16.5556  -15.4030    0.0000 N   0  0
  -17.4602  -14.2064    0.0000 C   0  0  1  0  0  0
  -18.7513  -14.9943    0.0000 C   0  0
  -20.2354  -14.7706    0.0000 C   0  0
  -21.1719  -15.9434    0.0000 C   0  0
  -22.6560  -15.7196    0.0000 N   0  0
  -23.5925  -16.8924    0.0000 C   0  0
  -23.1544  -18.0096    0.0000 N   0  0
  -24.7791  -16.7135    0.0000 N   0  0
  -18.1053  -12.8523    0.0000 C   0  0
  -18.4647  -11.3959    0.0000 N   0  0
  -18.5236   -9.8971    0.0000 C   0  0  1  0  0  0
  -19.9734  -10.3280    0.0000 C   0  0
  -21.0637   -9.2966    0.0000 C   0  0
  -22.5023   -9.7242    0.0000 C   0  0
  -23.5926   -8.6928    0.0000 N   0  0
  -25.0312   -9.1204    0.0000 C   0  0
  -25.9029   -8.2957    0.0000 N   0  0
  -25.3099  -10.2875    0.0000 N   0  0
  -18.2795   -8.4171    0.0000 C   0  0
  -17.7425   -7.0165    0.0000 N   0  0
  -16.9346   -5.7527    0.0000 C   0  0  1  0  0  0
  -18.1219   -4.8155    0.0000 C   0  0
  -17.9065   -3.3302    0.0000 C   0  0
  -19.0845   -2.4003    0.0000 C   0  0
  -20.4792   -2.9547    0.0000 N   0  0
  -21.6573   -2.0248    0.0000 C   0  0
  -21.4839   -0.8374    0.0000 N   0  0
  -22.7724   -2.4681    0.0000 N   0  0
  -15.8888   -4.6774    0.0000 C   0  0
  -16.6600   -3.7580    0.0000 O   0  0
  -14.6480   -3.8346    0.0000 N   0  0
  -13.2629   -3.2588    0.0000 C   0  0  1  0  0  0
  -11.7902   -2.9737    0.0000 C   0  0
  -10.2903   -2.9908    0.0000 N   0  0
   -8.8246   -3.3095    0.0000 C   0  0
   -8.1759   -2.2999    0.0000 O   0  0
   -7.3766   -5.2428    0.0000 C   0  0
   -6.0545   -5.9512    0.0000 C   0  0
   -4.5055   -5.2186    0.0000 C   0  0
   -4.1057   -6.6644    0.0000 C   0  0
   -3.9869   -8.1596    0.0000 N   0  0
   -4.1531   -9.6504    0.0000 C   0  0
   -2.9240   -6.4560    0.0000 O   0  0
   -5.1716   -3.8746    0.0000 C   0  0
   -6.0800   -2.6810    0.0000 C   0  0
   -7.1979   -1.6808    0.0000 C   0  0
   -6.4864   -0.7145    0.0000 O   0  0
   -8.4849   -0.9103    0.0000 N   0  0
   -9.8944   -0.3973    0.0000 C   0  0  2  0  0  0
  -10.0353    1.1089    0.0000 C   0  0
   -8.8116    1.9779    0.0000 C   0  0
   -8.9491    3.4716    0.0000 C   0  0
   -7.7243    4.3376    0.0000 C   0  0
   -6.3620    3.7099    0.0000 C   0  0
   -6.2244    2.2162    0.0000 C   0  0
   -7.4492    1.3502    0.0000 C   0  0
  -11.3755   -0.1603    0.0000 C   0  0
  -11.2994    1.0373    0.0000 O   0  0
  -12.8748   -0.2079    0.0000 N   0  0
   -7.4242   -3.7435    0.0000 C   0  0
  -13.6964   -1.8097    0.0000 C   0  0
  -14.8640   -1.5331    0.0000 O   0  0
  -12.6669   -0.7176    0.0000 N   0  0
  -13.0970    0.7203    0.0000 C   0  0  1  0  0  0
  -12.0675    1.8123    0.0000 C   0  0
  -12.4976    3.2502    0.0000 C   0  0
  -11.4681    4.3423    0.0000 C   0  0
  -11.8982    5.7802    0.0000 C   0  0
  -11.0751    6.6533    0.0000 N   0  0
  -14.3493    1.5474    0.0000 C   0  0
  -14.2779    2.7453    0.0000 O   0  0
  -19.4377   -8.1031    0.0000 O   0  0
  -19.2353  -13.2562    0.0000 O   0  0
  -14.7352  -18.5201    0.0000 C   0  0
  -13.8489  -19.7313    0.0000 C   0  0
  -14.4538  -21.1048    0.0000 C   0  0
  -13.5675  -22.3160    0.0000 N   0  0
  -14.1724  -23.6895    0.0000 C   0  0
  -13.4638  -24.6580    0.0000 N   0  0
  -15.3654  -23.8194    0.0000 N   0  0
   -6.2850  -17.4824    0.0000 O   0  0
   -3.0129  -13.1695    0.0000 O   0  0
   -9.8733  -16.9012    0.0000 O   0  0
  -11.0661  -17.3261    0.0000 C   0  0
  -11.8091  -18.2683    0.0000 O   0  0
  -14.9849  -16.5764    0.0000 O   0  0
  -16.7085  -16.1005    0.0000 C   0  0
  -18.2091  -16.0747    0.0000 C   0  0
  -18.9825  -17.3609    0.0000 C   0  0
  -20.4831  -17.3351    0.0000 N   0  0
  -21.2565  -18.6213    0.0000 C   0  0
  -22.4564  -18.6007    0.0000 N   0  0
  -20.6748  -19.6708    0.0000 N   0  0
  -19.1095  -13.5395    0.0000 O   0  0
  -20.9375   -8.7549    0.0000 O   0  0
  -19.8885   -3.7415    0.0000 O   0  0
  -18.2890   -1.5745    0.0000 C   0  0  1  0  0  0
  -19.4235   -1.1836    0.0000 O   0  0
  -17.3834   -0.7872    0.0000 C   0  0
  -16.8337   -0.1813    0.0000 C   0  0
  -20.4330    0.6154    0.0000 F   0  0
   -4.7426  -12.0723    0.0000 H   0  0
  -20.3117   -7.9643    0.0000 H   0  0
  -17.7114   -2.1019    0.0000 H   0  0
  2  1  1  0
  3  2  2  0
  4  3  1  0
  5  4  2  0
  6  5  1  0
  7  6  1  6
  8  7  1  0
  8  9  2  0
 10  8  1  0
 11 10  1  0
 11 12  1  0
 13 12  1  0
 14 13  1  0
 14 15  1  0
 15 16  1  0
 16 17  1  0
 17 18  1  0
 18 13  1  0
 14 19  1  0
 20 19  1  0
 21 20  1  0
 21 22  1  6
 22 23  1  0
 23 24  2  0
 24 25  1  0
 25 26  2  0
 26 27  1  0
 27 28  2  0
 28 29  1  0
 29 30  2  0
 30 25  1  0
 30 31  1  0
 31 32  2  0
 32 23  1  0
 21 33  1  0
 33 34  1  0
 34 35  1  0
 35 36  1  0
 36 37  1  0
 37 38  1  0
 38 39  1  0
 39 40  1  0
 40 41  1  0
 41 42  1  1
 42 43  1  0
 44 43  1  0
 45 44  2  0
 46 45  1  0
 47 46  2  0
 48 47  1  0
 43 48  2  0
 41 49  1  0
 49 50  2  0
 49 51  1  0
 51 52  1  0
 52 53  1  0
 53 54  1  0
 54 55  1  0
 55 56  1  1
 56 57  1  0
 57 58  2  0
 58 59  1  0
 59 60  2  0
 60 61  1  0
 61 62  2  0
 62 57  1  0
 55 63  1  0
 63 64  1  0
 64 65  1  0
 65 66  1  1
 66 67  1  0
 67 68  2  0
 68 69  1  0
 69 70  2  0
 70 71  1  0
 71 72  2  0
 72 73  1  0
 73 74  2  0
 74 69  1  0
 74 75  1  0
 75 76  2  0
 76 67  1  0
 65 77  1  0
 77 78  2  0
 77 79  1  0
 79 80  1  0
 80 81  1  0
 81 82  2  0
 81 83  1  0
 83 84  1  0
 84 85  1  1
 85 86  1  0
 86 87  1  0
 87 88  1  0
 88 89  1  0
 89 90  1  0
 89 91  2  0
 84 92  1  0
 92 93  1  0
 94 93  1  0
 94 95  1  1
 95 96  1  0
 96 97  1  0
 97 98  1  0
 98 99  1  0
 99100  2  0
 99101  1  0
102 94  1  0
103102  1  0
104103  1  0
104105  1  1
105106  1  0
106107  1  0
107108  1  0
108109  1  0
109110  1  0
109111  2  0
112104  1  0
112113  2  0
114112  1  0
115114  1  0
115116  1  0
117116  1  0
118117  1  0
118119  2  0
120118  1  0
120121  2  0
121122  1  0
122123  1  0
123124  1  0
125124  1  0
 52125  1  0
123126  2  0
122127  2  0
127128  1  0
129128  1  0
129130  2  0
131129  1  0
131132  1  0
132133  1  1
133134  1  0
135134  1  0
136135  2  0
137136  1  0
138137  2  0
139138  1  0
134139  2  0
132140  1  0
140141  2  0
142140  1  0
  7142  1  0
128143  2  0
143120  1  0
115144  1  6
144145  2  0
144146  1  0
147146  1  6
147148  1  0
148149  1  0
149150  1  0
150151  1  0
151152  1  0
147153  1  0
153154  1  0
102155  2  0
 92156  2  0
 80157  1  1
157158  1  0
158159  1  0
159160  1  0
160161  1  0
161162  2  0
161163  1  0
 63164  2  0
 53165  2  0
 39166  2  0
 38167  1  6
167168  1  0
 36169  2  0
 35170  1  6
170171  1  0
171172  1  0
172173  1  0
173174  1  0
174175  2  0
174176  1  0
 33177  2  0
 19178  2  0
 12179  2  0
 11180  1  0
180181  1  1
180182  1  0
183  5  1  0
  1183  2  0
  2184  1  0
 52185  1  6
 14186  1  6
 11187  1  6
M  END