
  SciTegic01061414252D

 26 27  0  0  0  0            999 V2000
    6.3659  -12.4268    0.0000 O   0  0
    5.5409  -12.4268    0.0000 S   0  0
    5.9534  -13.1413    0.0000 O   0  0
    4.8311  -10.3643    0.0000 C   0  0
    4.8300  -11.1917    0.0000 C   0  0
    5.5447  -11.6046    0.0000 C   0  0
    6.2612  -11.1912    0.0000 C   0  0
    6.2583  -10.3608    0.0000 C   0  0
    5.5430   -9.9515    0.0000 C   0  0
    6.9712   -9.9456    0.0000 C   0  0
    7.6872  -10.3553    0.0000 C   0  0
    6.9681   -9.1206    0.0000 O   0  0
    8.4000   -9.9402    0.0000 S   0  0
    9.1161  -10.3499    0.0000 C   0  0
    9.1161  -11.1739    0.0000 N   0  0
    9.8312  -11.5835    0.0000 C   0  0
   10.5450  -11.1682    0.0000 C   0  0
   10.5393  -10.3390    0.0000 C   0  0
    9.8235   -9.9331    0.0000 N   0  0
    4.8300  -12.8419    0.0000 N   0  0
   11.2507   -9.9214    0.0000 O   0  0
   11.2615  -11.5771    0.0000 C   0  0
   11.9739  -11.1610    0.0000 O   0  0
   11.2657  -12.4021    0.0000 O   0  0
   12.6904  -11.5699    0.0000 C   0  0
   13.4028  -11.1538    0.0000 C   0  0
  2  1  2  0
  3  2  2  0
  4  5  2  0
  5  6  1  0
  6  7  2  0
  7  8  1  0
  8  9  2  0
  9  4  1  0
  8 10  1  0
 10 11  1  0
 10 12  2  0
 11 13  1  0
 13 14  1  0
 14 15  2  0
 15 16  1  0
 16 17  2  0
 17 18  1  0
 18 19  1  0
 19 14  1  0
  6  2  1  0
  2 20  1  0
 18 21  2  0
 17 22  1  0
 22 23  1  0
 22 24  2  0
 23 25  1  0
 25 26  1  0
M  END