
          02060813472D 1   1.00000     0.00000     0

 70 72  0     1  0            999 V2000
    3.2201  -13.2397    0.0000 C   0  0  0  0  0  0           0  0  0
    2.5119  -12.8211    0.0000 S   0  0  0  0  0  0           0  0  0
    1.7870  -13.2153    0.0000 S   0  0  0  0  0  0           0  0  0
    1.0828  -12.7966    0.0000 C   0  0  0  0  0  0           0  0  0
    1.0966  -11.9673    0.0000 C   0  0  0  0  0  0           0  0  0
    0.3894  -11.5424    0.0000 C   0  0  0  0  0  0           0  0  0
    0.4031  -10.7185    0.0000 N   0  0  0  0  0  0           0  0  0
   -0.3323  -11.9428    0.0000 O   0  0  0  0  0  0           0  0  0
   -0.3049  -10.2945    0.0000 C   0  0  1  0  0  0           0  0  0
   -0.2912   -9.4706    0.0000 C   0  0  0  0  0  0           0  0  0
   -1.0258  -10.6940    0.0000 C   0  0  0  0  0  0           0  0  0
   -1.7340  -10.2700    0.0000 C   0  0  0  0  0  0           0  0  0
   -1.7199   -9.4405    0.0000 C   0  0  0  0  0  0           0  0  0
   -2.4276   -9.0160    0.0000 C   0  0  0  0  0  0           0  0  0
   -3.1442   -9.4168    0.0000 C   0  0  0  0  0  0           0  0  0
   -3.1641  -10.2524    0.0000 C   0  0  0  0  0  0           0  0  0
   -2.4518  -10.6671    0.0000 C   0  0  0  0  0  0           0  0  0
    0.4347   -9.0702    0.0000 N   0  0  0  0  0  0           0  0  0
   -0.9984   -9.0458    0.0000 O   0  0  0  0  0  0           0  0  0
    1.1731   -9.0889    0.0000 C   0  0  2  0  0  0           0  0  0
    1.8575   -9.0944    0.0000 C   0  0  0  0  0  0           0  0  0
    2.5646   -9.5193    0.0000 N   0  0  0  0  0  0           0  0  0
    1.8713   -8.2651    0.0000 O   0  0  0  0  0  0           0  0  0
    3.2905   -9.1189    0.0000 C   0  0  2  0  0  0           0  0  0
    4.0040   -9.5440    0.0000 C   0  0  0  0  0  0           0  0  0
    3.3044   -8.2897    0.0000 C   0  0  0  0  0  0           0  0  0
    4.0293   -7.8913    0.0000 C   0  0  0  0  0  0           0  0  0
    4.0433   -7.0653    0.0000 C   0  0  0  0  0  0           0  0  0
    4.7639   -6.6678    0.0000 N   0  0  0  0  0  0           0  0  0
    3.3358   -6.6467    0.0000 O   0  0  0  0  0  0           0  0  0
    4.7187   -9.1433    0.0000 O   0  0  0  0  0  0           0  0  0
    3.9841  -10.3677    0.0000 N   0  0  0  0  0  0           0  0  0
    4.6935  -10.7919    0.0000 C   0  0  2  0  0  0           0  0  0
    4.6799  -11.6159    0.0000 C   0  0  0  0  0  0           0  0  0
    5.4131  -10.3922    0.0000 C   0  0  0  0  0  0           0  0  0
    6.1212  -10.8162    0.0000 C   0  0  0  0  0  0           0  0  0
    6.8462  -10.4167    0.0000 N   0  0  0  0  0  0           0  0  0
    6.1076  -11.6402    0.0000 O   0  0  0  0  0  0           0  0  0
    3.9587  -12.0163    0.0000 N   0  0  0  0  0  0           0  0  0
    5.3879  -12.0408    0.0000 O   0  0  0  0  0  0           0  0  0
    3.9453  -12.8434    0.0000 C   0  0  2  0  0  0           0  0  0
    4.6525  -13.2683    0.0000 C   0  0  0  0  0  0           0  0  0
    4.6386  -14.0976    0.0000 N   0  0  3  0  0  0           0  0  0
    5.3678  -12.8699    0.0000 O   0  0  0  0  0  0           0  0  0
    3.9623  -14.5686    0.0000 C   0  0  0  0  0  0           0  0  0
    4.2129  -15.3499    0.0000 C   0  0  0  0  0  0           0  0  0
    5.2999  -14.5997    0.0000 C   0  0  2  0  0  0           0  0  0
    6.0975  -14.3625    0.0000 C   0  0  0  0  0  0           0  0  0
    6.6694  -14.9534    0.0000 N   0  0  0  0  0  0           0  0  0
    6.3240  -13.5696    0.0000 O   0  0  0  0  0  0           0  0  0
    6.4375  -15.7501    0.0000 C   0  0  2  0  0  0           0  0  0
    7.0152  -16.3475    0.0000 C   0  0  0  0  0  0           0  0  0
    5.6410  -15.9468    0.0000 C   0  0  0  0  0  0           0  0  0
    5.0397  -15.3638    0.0000 C   0  0  0  0  0  0           0  0  0
    5.4088  -16.7417    0.0000 C   0  0  3  0  0  0           0  0  0
    4.6124  -16.9466    0.0000 C   0  0  0  0  0  0           0  0  0
    5.9870  -17.3355    0.0000 C   0  0  0  0  0  0           0  0  0
    6.7898  -17.1342    0.0000 O   0  0  0  0  0  0           0  0  0
    7.8139  -16.1408    0.0000 N   0  0  0  0  0  0           0  0  0
    8.3880  -16.7361    0.0000 C   0  0  0  0  0  0           0  0  0
    9.1865  -16.5397    0.0000 C   0  0  0  0  0  0           0  0  0
    9.7687  -17.1308    0.0000 N   0  0  0  0  0  0           0  0  0
    9.4163  -15.7427    0.0000 O   0  0  0  0  0  0           0  0  0
    1.1908   -9.9704    0.0000 C   0  0  2  0  0  0           0  0  0
    1.1488   -8.2333    0.0000 H   0  0  0  0  0  0           0  0  0
    1.8672  -10.4684    0.0000 C   0  0  0  0  0  0           0  0  0
    1.8760  -11.3760    0.0000 C   0  0  0  0  0  0           0  0  0
    0.4773  -10.2716    0.0000 C   0  0  0  0  0  0           0  0  0
   -3.8526   -8.9948    0.0000 C   0  0  0  0  0  0           0  0  0
   -3.8424   -8.1704    0.0000 C   0  0  0  0  0  0           0  0  0
 41  1  1  0     0  0
  1  2  1  0     0  0
  2  3  1  0     0  0
  3  4  1  0     0  0
  4  5  1  0     0  0
  5  6  1  0     0  0
  6  7  1  0     0  0
  6  8  2  0     0  0
  7  9  1  0     0  0
  9 10  1  0     0  0
  9 11  1  6     0  0
 11 12  1  0     0  0
 12 13  2  0     0  0
 13 14  1  0     0  0
 14 15  2  0     0  0
 15 16  1  0     0  0
 16 17  2  0     0  0
 17 12  1  0     0  0
 10 18  1  0     0  0
 10 19  2  0     0  0
 20 18  1  0     0  0
 20 21  1  0     0  0
 21 22  1  0     0  0
 21 23  2  0     0  0
 22 24  1  0     0  0
 24 25  1  0     0  0
 24 26  1  1     0  0
 26 27  1  0     0  0
 27 28  1  0     0  0
 28 29  1  0     0  0
 28 30  2  0     0  0
 25 31  2  0     0  0
 25 32  1  0     0  0
 32 33  1  0     0  0
 33 34  1  0     0  0
 33 35  1  1     0  0
 35 36  1  0     0  0
 36 37  1  0     0  0
 36 38  2  0     0  0
 34 39  1  0     0  0
 34 40  2  0     0  0
 39 41  1  0     0  0
 41 42  1  6     0  0
 42 43  1  0     0  0
 42 44  2  0     0  0
 43 45  1  0     0  0
 45 46  1  0     0  0
 46 54  1  0     0  0
 54 47  1  0     0  0
 47 43  1  0     0  0
 47 48  1  6     0  0
 48 49  1  0     0  0
 48 50  2  0     0  0
 49 51  1  0     0  0
 51 52  1  0     0  0
 51 53  1  6     0  0
 53 55  1  0     0  0
 55 56  1  0     0  0
 55 57  1  0     0  0
 52 58  2  0     0  0
 52 59  1  0     0  0
 59 60  1  0     0  0
 60 61  1  0     0  0
 61 62  1  0     0  0
 61 63  2  0     0  0
 20 64  1  0     0  0
 20 65  1  1     0  0
 64 66  1  0     0  0
 66 67  1  0     0  0
 64 68  1  6     0  0
 15 69  1  0     0  0
 69 70  1  0     0  0
M  END