
          08180812472D 1   1.00000     0.00000     0

 29 31  0     0  0            999 V2000
   -5.6181  -16.6125    0.0000 C   0  0  0  0  0  0           0  0  0
   -5.6193  -17.4398    0.0000 C   0  0  0  0  0  0           0  0  0
   -4.9044  -17.8527    0.0000 C   0  0  0  0  0  0           0  0  0
   -4.1880  -17.4394    0.0000 C   0  0  0  0  0  0           0  0  0
   -4.1909  -16.6088    0.0000 C   0  0  0  0  0  0           0  0  0
   -4.9062  -16.1997    0.0000 C   0  0  0  0  0  0           0  0  0
   -6.3340  -16.2001    0.0000 Cl  0  0  0  0  0  0           0  0  0
   -6.3409  -17.8518    0.0000 Cl  0  0  0  0  0  0           0  0  0
   -3.4783  -16.1911    0.0000 C   0  0  0  0  0  0           0  0  0
   -2.7234  -16.5238    0.0000 C   0  0  0  0  0  0           0  0  0
   -2.1737  -15.9086    0.0000 S   0  0  0  0  0  0           0  0  0
   -2.5889  -15.1957    0.0000 C   0  0  0  0  0  0           0  0  0
   -3.3952  -15.3704    0.0000 N   0  0  0  0  0  0           0  0  0
   -2.2563  -14.4407    0.0000 N   0  0  0  0  0  0           0  0  0
   -1.4361  -14.3513    0.0000 N   0  0  0  0  0  0           0  0  0
   -1.1035  -13.5964    0.0000 C   0  0  0  0  0  0           0  0  0
   -0.2833  -13.5070    0.0000 C   0  0  0  0  0  0           0  0  0
   -1.5942  -12.9299    0.0000 C   0  0  0  0  0  0           0  0  0
   -1.2615  -12.1749    0.0000 O   0  0  0  0  0  0           0  0  0
   -2.4143  -13.0193    0.0000 O   0  0  0  0  0  0           0  0  0
    0.2042  -14.1725    0.0000 C   0  0  0  0  0  0           0  0  0
   -0.1308  -14.9258    0.0000 C   0  0  0  0  0  0           0  0  0
    0.3560  -15.5910    0.0000 C   0  0  0  0  0  0           0  0  0
    1.1770  -15.5019    0.0000 C   0  0  0  0  0  0           0  0  0
    1.5090  -14.7420    0.0000 C   0  0  0  0  0  0           0  0  0
    1.0202  -14.0800    0.0000 C   0  0  0  0  0  0           0  0  0
    1.3497  -13.3184    0.0000 N   0  3  0  0  0  0           0  0  0
    0.8595  -12.6548    0.0000 O   0  0  0  0  0  0           0  0  0
    2.1694  -13.2256    0.0000 O   0  5  0  0  0  0           0  0  0
 12 14  1  0     0  0
  1  7  1  0     0  0
 14 15  1  0     0  0
  3  4  2  0     0  0
 15 16  2  0     0  0
  2  8  1  0     0  0
 16 17  1  0     0  0
  9 10  2  0     0  0
  4  5  1  0     0  0
 18 19  1  0     0  0
 18 20  2  0     0  0
 16 18  1  0     0  0
  2  3  1  0     0  0
 17 21  1  0     0  0
  5  6  2  0     0  0
 21 22  2  0     0  0
  6  1  1  0     0  0
 22 23  1  0     0  0
 10 11  1  0     0  0
 23 24  2  0     0  0
 11 12  1  0     0  0
 24 25  1  0     0  0
 12 13  2  0     0  0
 25 26  2  0     0  0
 26 21  1  0     0  0
 13  9  1  0     0  0
  5  9  1  0     0  0
  1  2  2  0     0  0
 27 28  2  0     0  0
 27 29  1  0     0  0
 26 27  1  0     0  0
M  CHG  2  27   1  29  -1
M  END