
  SciTegic01161211222D

 20 21  0  0  0  0            999 V2000
   -2.9348  -10.7416    0.0000 C   0  0
   -2.9359  -11.5690    0.0000 C   0  0
   -2.2211  -11.9819    0.0000 C   0  0
   -1.5047  -11.5685    0.0000 C   0  0
   -1.5075  -10.7380    0.0000 C   0  0
   -2.2229  -10.3289    0.0000 C   0  0
   -3.6493  -10.3293    0.0000 O   0  0
   -2.2213  -12.8069    0.0000 O   0  0
   -2.2254   -9.5039    0.0000 C   0  0
   -1.5121   -9.0892    0.0000 C   0  0
   -2.9411   -9.0935    0.0000 O   0  0
   -1.5146   -8.2642    0.0000 C   0  0
   -0.8014   -7.8496    0.0000 C   0  0
   -0.0887   -8.2599    0.0000 C   0  0
    0.6240   -7.8459    0.0000 C   0  0
    0.6220   -7.0200    0.0000 C   0  0
   -0.0987   -6.6099    0.0000 C   0  0
   -0.8085   -7.0262    0.0000 C   0  0
    1.3347   -6.6045    0.0000 O   0  0
    1.3395   -8.2566    0.0000 O   0  0
  9 10  1  0
  2  3  1  0
  9 11  2  0
  5  6  2  0
 10 12  2  0
  6  1  1  0
 12 13  1  0
  1  2  2  0
 13 14  2  0
  1  7  1  0
 14 15  1  0
  3  4  2  0
 15 16  2  0
  3  8  1  0
 16 17  1  0
 17 18  2  0
 18 13  1  0
  6  9  1  0
 16 19  1  0
  4  5  1  0
 15 20  1  0
M  END