
  SciTegic02271217242D

 41 44  0  0  0  0            999 V2000
   14.3694    0.2875    0.0000 C   0  0
   14.3682   -0.5398    0.0000 C   0  0
   15.0831   -0.9527    0.0000 C   0  0
   15.7995   -0.5394    0.0000 C   0  0
   15.7966    0.2912    0.0000 C   0  0
   15.0813    0.7003    0.0000 C   0  0
   16.5096    0.7064    0.0000 O   0  0
   17.2256    0.2966    0.0000 C   0  0
   17.2253   -0.5261    0.0000 C   0  0
   17.9405   -0.9358    0.0000 C   0  0
   18.6544   -0.5206    0.0000 C   0  0
   18.6486    0.3087    0.0000 C   0  0
   17.9329    0.7147    0.0000 C   0  0
   19.3710   -0.9294    0.0000 Cl  0  0
   17.9255    1.5396    0.0000 N   0  0
   18.6362    1.9585    0.0000 S   0  0
   19.3544    1.5524    0.0000 C   0  0
   18.2167    2.6792    0.0000 O   0  0
   19.0417    2.6792    0.0000 O   0  0
   19.3588    0.7281    0.0000 C   0  0
   20.0761    0.3221    0.0000 C   0  0
   20.7878    0.7410    0.0000 C   0  0
   20.7777    1.5702    0.0000 C   0  0
   20.0599    1.9725    0.0000 C   0  0
   21.5065    0.3359    0.0000 Cl  0  0
   13.6535   -0.9518    0.0000 C   0  0
   12.9393   -0.5387    0.0000 N   0  0
   13.6528   -1.7768    0.0000 O   0  0
   12.9400    0.2863    0.0000 C   0  0
   12.2258    0.6994    0.0000 C   0  0
   11.5110    0.2874    0.0000 N   0  0
   21.4870    1.9916    0.0000 C   0  0
   22.2066    1.5881    0.0000 F   0  0
   21.4767    2.8166    0.0000 F   0  0
   22.1958    2.4083    0.0000 F   0  0
   10.7603    0.6223    0.0000 C   0  0
   10.2078    0.0096    0.0000 C   0  0
   10.6198   -0.7052    0.0000 C   0  0
   11.4268   -0.5342    0.0000 C   0  0
   17.9432   -1.7608    0.0000 O   0  0
   17.2301   -2.1757    0.0000 C   0  0
 17 20  2  0
  9 10  1  0
 20 21  1  0
  2  3  1  0
 21 22  2  0
 10 11  2  0
 22 23  1  0
  5  6  2  0
 23 24  2  0
 24 17  1  0
 11 12  1  0
 22 25  1  0
  6  1  1  0
  2 26  1  0
 12 13  2  0
 26 27  1  0
 13  8  1  0
 26 28  2  0
  1  2  2  0
 27 29  1  0
 11 14  1  0
 29 30  1  0
  5  7  1  0
 30 31  1  0
 13 15  1  0
 23 32  1  0
  3  4  2  0
 32 33  1  0
 15 16  1  0
 32 34  1  0
  7  8  1  0
 32 35  1  0
 31 36  1  0
 16 17  1  0
 16 18  2  0
  8  9  2  0
 36 37  1  0
 37 38  1  0
 38 39  1  0
 39 31  1  0
 16 19  2  0
 10 40  1  0
  4  5  1  0
 40 41  1  0
M  END