
          05080814042D 1   1.00000     0.00000     0

 33 37  0     1  0            999 V2000
    8.1321  -17.3923    0.0000 C   0  0  0  0  0  0           0  0  0
    7.4216  -17.8070    0.0000 C   0  0  0  0  0  0           0  0  0
    7.4286  -18.6330    0.0000 C   0  0  0  0  0  0           0  0  0
    8.1422  -19.0364    0.0000 C   0  0  0  0  0  0           0  0  0
    8.8451  -17.7993    0.0000 C   0  0  0  0  0  0           0  0  0
    8.8512  -18.6267    0.0000 C   0  0  0  0  0  0           0  0  0
    9.5667  -19.0330    0.0000 C   0  0  0  0  0  0           0  0  0
    9.5546  -17.3782    0.0000 C   0  0  0  0  0  0           0  0  0
   10.2749  -17.7890    0.0000 C   0  0  2  0  0  0           0  0  0
   10.2794  -18.6182    0.0000 C   0  0  2  0  0  0           0  0  0
   10.9959  -19.0267    0.0000 N   0  0  3  0  0  0           0  0  0
   11.7124  -18.6103    0.0000 C   0  0  0  0  0  0           0  0  0
   11.7078  -17.7811    0.0000 C   0  0  1  0  0  0           0  0  0
   10.9868  -17.3681    0.0000 C   0  0  0  0  0  0           0  0  0
   10.2670  -16.9604    0.0000 H   0  0  0  0  0  0           0  0  0
   10.2712  -19.4427    0.0000 H   0  0  0  0  0  0           0  0  0
   12.4203  -17.3655    0.0000 C   0  0  0  0  0  0           0  0  0
   13.1363  -17.7747    0.0000 N   0  0  3  0  0  0           0  0  0
   12.4166  -16.5408    0.0000 O   0  0  0  0  0  0           0  0  0
   13.1340  -18.6025    0.0000 C   0  0  0  0  0  0           0  0  0
   13.8459  -19.0116    0.0000 C   0  0  0  0  0  0           0  0  0
   14.5607  -18.5995    0.0000 C   0  0  0  0  0  0           0  0  0
   14.5590  -17.7740    0.0000 C   0  0  0  0  0  0           0  0  0
   13.8424  -17.3603    0.0000 C   0  0  0  0  0  0           0  0  0
    8.1282  -16.5676    0.0000 O   0  0  0  0  0  0           0  0  0
    7.4119  -16.1588    0.0000 C   0  0  0  0  0  0           0  0  0
   10.9992  -19.8514    0.0000 C   0  0  0  0  0  0           0  0  0
   15.2752  -19.0115    0.0000 C   0  0  0  0  0  0           0  0  0
   15.2713  -19.8353    0.0000 N   0  0  0  0  0  0           0  0  0
   15.9849  -20.2471    0.0000 C   0  0  0  0  0  0           0  0  0
   16.6998  -19.8342    0.0000 C   0  0  0  0  0  0           0  0  0
   16.6966  -19.0053    0.0000 C   0  0  0  0  0  0           0  0  0
   15.9823  -18.5972    0.0000 N   0  0  0  0  0  0           0  0  0
  5  8  1  0     0  0
 10 16  1  1     0  0
  6  7  1  0     0  0
 13 17  1  1     0  0
  7 10  1  0     0  0
 17 18  1  0     0  0
  9  8  1  0     0  0
 17 19  2  0     0  0
 18 20  1  0     0  0
  9 10  1  0     0  0
  3  4  2  0     0  0
  4  6  1  0     0  0
  5  6  2  0     0  0
  1  2  2  0     0  0
 18 24  1  0     0  0
 20 21  1  0     0  0
 21 22  1  0     0  0
 22 23  2  0     0  0
 23 24  1  0     0  0
  5  1  1  0     0  0
  1 25  1  0     0  0
  2  3  1  0     0  0
 25 26  1  0     0  0
  9 14  1  0     0  0
 11 27  1  0     0  0
 10 11  1  0     0  0
 22 28  1  0     0  0
 11 12  1  0     0  0
 28 29  2  0     0  0
 12 13  1  0     0  0
 29 30  1  0     0  0
 13 14  1  0     0  0
 30 31  2  0     0  0
 31 32  1  0     0  0
  9 15  1  6     0  0
 32 33  2  0     0  0
 33 28  1  0     0  0
M  END