
          11280715192D 1   1.00000     0.00000     0

 44 47  0     1  0            999 V2000
    3.7125   -2.5417    0.0000 C   0  0  1  0  0  0           0  0  0
    4.4167   -2.9417    0.0000 C   0  0  1  0  0  0           0  0  0
    2.9917   -2.9417    0.0000 C   0  0  2  0  0  0           0  0  0
    2.9917   -3.7542    0.0000 C   0  0  1  0  0  0           0  0  0
    4.4167   -3.7542    0.0000 C   0  0  2  0  0  0           0  0  0
    3.7125   -1.7125    0.0000 C   0  0  0  0  0  0           0  0  0
    3.7125   -4.1667    0.0000 C   0  0  1  0  0  0           0  0  0
    5.1292   -2.5417    0.0000 O   0  0  0  0  0  0           0  0  0
    5.1292   -1.7125    0.0000 C   0  0  2  0  0  0           0  0  0
    4.4167   -5.4042    0.0000 C   0  0  0  0  0  0           0  0  0
    2.2875   -4.1667    0.0000 C   0  0  3  0  0  0           0  0  0
    4.4167   -1.3042    0.0000 C   0  0  0  0  0  0           0  0  0
    3.7125   -5.0000    0.0000 O   0  0  0  0  0  0           0  0  0
    2.2875   -2.5417    0.0000 C   0  0  2  0  0  0           0  0  0
    5.8375   -8.6750    0.0000 C   0  0  0  0  0  0           0  0  0
    2.9917   -1.3042    0.0000 O   0  0  0  0  0  0           0  0  0
    3.7167   -3.3250    0.0000 O   0  0  0  0  0  0           0  0  0
    5.8625   -2.1542    0.0000 C   0  0  0  0  0  0           0  0  0
    5.1292   -5.0000    0.0000 O   0  0  0  0  0  0           0  0  0
    1.5750   -3.7542    0.0000 C   0  0  0  0  0  0           0  0  0
    5.1292   -9.0792    0.0000 O   0  0  0  0  0  0           0  0  0
    1.5750   -2.9417    0.0000 C   0  0  0  0  0  0           0  0  0
    4.4167   -6.2250    0.0000 N   0  0  0  0  0  0           0  0  0
    4.4167   -2.1667    0.0000 C   0  0  0  0  0  0           0  0  0
    5.1292   -4.1667    0.0000 O   0  0  0  0  0  0           0  0  0
    2.9917   -2.1250    0.0000 C   0  0  0  0  0  0           0  0  0
    6.6500   -1.7792    0.0000 C   0  0  0  0  0  0           0  0  0
    5.8375   -7.8542    0.0000 N   0  0  0  0  0  0           0  0  0
    6.5417   -9.0792    0.0000 C   0  0  0  0  0  0           0  0  0
    8.6625  -11.1250    0.0000 C   0  0  0  0  0  0           0  0  0
    7.2542  -10.3042    0.0000 C   0  0  0  0  0  0           0  0  0
    2.2875   -1.7125    0.0000 O   0  0  0  0  0  0           0  0  0
    6.5417   -9.9000    0.0000 C   0  0  0  0  0  0           0  0  0
    7.9542  -11.5292    0.0000 C   0  0  0  0  0  0           0  0  0
    8.6542  -10.3042    0.0000 C   0  0  0  0  0  0           0  0  0
    7.2500  -11.1250    0.0000 C   0  0  0  0  0  0           0  0  0
    7.9542   -9.9000    0.0000 C   0  0  0  0  0  0           0  0  0
    9.3625  -11.5292    0.0000 O   0  0  0  0  0  0           0  0  0
    5.8417   -1.2917    0.0000 C   0  0  0  0  0  0           0  0  0
    1.6667   -4.6167    0.0000 C   0  0  0  0  0  0           0  0  0
    2.2875   -5.0000    0.0000 C   0  0  0  0  0  0           0  0  0
    5.1292   -6.6292    0.0000 C   0  0  0  0  0  0           0  0  0
    5.1292   -7.4500    0.0000 C   0  0  0  0  0  0           0  0  0
    2.9917   -4.5542    0.0000 H   0  0  0  0  0  0           0  0  0
  2  1  1  0     0  0
  3  1  1  0     0  0
  4  3  1  0     0  0
  5  2  1  0     0  0
  6  1  1  0     0  0
  7  4  1  0     0  0
  8  2  1  0     0  0
  9 12  1  0     0  0
 10 13  1  0     0  0
 11  4  1  0     0  0
 12  6  1  0     0  0
  7 13  1  1     0  0
 14  3  1  0     0  0
 15 28  1  0     0  0
 16  6  2  0     0  0
  1 17  1  6     0  0
  9 18  1  6     0  0
 19 10  2  0     0  0
 20 22  1  0     0  0
 21 15  2  0     0  0
 22 14  1  0     0  0
 23 10  1  0     0  0
  2 24  1  1     0  0
  5 25  1  1     0  0
  3 26  1  1     0  0
 27 18  2  0     0  0
 28 43  1  0     0  0
 29 15  1  0     0  0
 30 35  1  0     0  0
 31 33  1  0     0  0
 14 32  1  6     0  0
 33 29  1  0     0  0
 34 36  1  0     0  0
 35 37  2  0     0  0
 36 31  2  0     0  0
 37 31  1  0     0  0
 38 30  1  0     0  0
  9 39  1  1     0  0
 11 40  1  0     0  0
 11 41  1  0     0  0
 42 23  1  0     0  0
 43 42  1  0     0  0
  4 44  1  6     0  0
  9  8  1  0     0  0
  7  5  1  0     0  0
 20 11  1  0     0  0
 30 34  2  0     0  0
M  END