
  SciTegic04021211102D

 39 43  0  0  0  0            999 V2000
    5.8986   -2.2666    0.0000 C   0  0
    5.8974   -3.0940    0.0000 C   0  0
    6.6122   -3.5069    0.0000 C   0  0
    7.3287   -3.0935    0.0000 C   0  0
    7.3258   -2.2630    0.0000 C   0  0
    6.6104   -1.8539    0.0000 C   0  0
    6.6080   -1.0289    0.0000 N   0  0
    7.2743   -0.5432    0.0000 C   0  0
    7.0171    0.2423    0.0000 C   0  0
    6.1906    0.2382    0.0000 C   0  0
    5.9406   -0.5486    0.0000 N   0  0
    7.9900   -0.9535    0.0000 N   0  0
    8.7032   -0.5388    0.0000 C   0  0
    9.4190   -0.9490    0.0000 N   0  0
    8.7006    0.2862    0.0000 O   0  0
   10.1241    0.2890    0.0000 N   0  0
   10.1322   -0.5343    0.0000 C   0  0
   10.9176   -0.7811    0.0000 S   0  0
   11.3951   -0.1103    0.0000 C   0  0
   10.9055    0.5512    0.0000 C   0  0
   10.9093    1.3762    0.0000 C   0  0
   11.6257    1.7854    0.0000 C   0  0
   11.6294    2.6104    0.0000 O   0  0
   12.3458    3.0196    0.0000 C   0  0
   13.0584    2.6039    0.0000 C   0  0
   13.0509    1.7806    0.0000 C   0  0
   13.7626    1.3649    0.0000 C   0  0
   14.4800    1.7742    0.0000 C   0  0
   14.4811    2.6035    0.0000 C   0  0
   13.7688    3.0154    0.0000 C   0  0
    5.1826   -3.5059    0.0000 C   0  0
    4.4685   -3.0929    0.0000 C   0  0
    3.7537   -3.5048    0.0000 O   0  0
    4.4691   -2.2679    0.0000 O   0  0
    5.7043    0.8998    0.0000 C   0  0
    5.9547    1.6859    0.0000 C   0  0
    5.2845    2.1670    0.0000 C   0  0
    4.6198    1.6782    0.0000 C   0  0
    4.8793    0.8952    0.0000 C   0  0
 17 18  1  0
 18 19  1  0
 19 20  2  0
 20 16  1  0
  7  8  1  0
 20 21  1  0
  9 10  1  0
 21 22  1  0
 10 11  2  0
 22 23  1  0
 11  7  1  0
 23 24  1  0
  5  6  2  0
 24 25  1  0
  8 12  1  0
 25 26  2  0
  6  1  1  0
 26 27  1  0
 12 13  1  0
 27 28  2  0
  1  2  2  0
 28 29  1  0
 13 14  1  0
 29 30  2  0
 30 25  1  0
  6  7  1  0
  2 31  1  0
 13 15  2  0
 31 32  1  0
 14 17  1  0
 32 33  1  0
 16 17  2  0
 32 34  2  0
 35 36  1  0
  8  9  2  0
  3  4  2  0
  4  5  1  0
  2  3  1  0
 36 37  1  0
 37 38  1  0
 38 39  1  0
 39 35  1  0
 10 35  1  0
M  END