
  SciTegic01161211252D

 27 29  0  0  0  0            999 V2000
   -3.7896  -22.7997    0.0000 C   0  0
   -1.1926  -23.3500    0.0000 N   0  0
   -0.4788  -23.7635    0.0000 C   0  0
   -0.4800  -24.5885    0.0000 O   0  0
    0.2363  -23.3521    0.0000 C   0  0
    0.9485  -23.7665    0.0000 N   0  0
    1.6631  -23.3557    0.0000 C   0  0
    1.6647  -22.5298    0.0000 C   0  0
    0.9459  -22.1165    0.0000 C   0  0
    0.2342  -22.5296    0.0000 C   0  0
    2.3793  -22.1174    0.0000 O   0  0
    3.0937  -22.5300    0.0000 C   0  0
    3.0888  -23.3552    0.0000 C   0  0
    3.8024  -23.7678    0.0000 C   0  0
    4.5179  -23.3553    0.0000 C   0  0
    4.5153  -22.5260    0.0000 C   0  0
    3.8012  -22.1172    0.0000 C   0  0
   -1.8756  -23.8129    0.0000 C   0  0
   -2.6659  -23.5697    0.0000 C   0  0
   -1.1338  -22.5275    0.0000 C   0  0
   -2.9703  -22.8042    0.0000 N   0  0
   -1.7401  -21.9659    0.0000 C   0  0
   -2.5564  -22.0919    0.0000 C   0  0
    5.2284  -22.1111    0.0000 Cl  0  0
    5.2328  -23.7669    0.0000 Cl  0  0
   -4.1981  -22.0829    0.0000 C   0  0
   -4.2061  -23.5118    0.0000 C   0  0
 13 14  1  0
  7  8  2  0
 14 15  2  0
  3  5  1  0
 15 16  1  0
  8  9  1  0
 16 17  2  0
 17 12  1  0
  2 18  1  0
  9 10  2  0
 18 19  1  0
 10  5  1  0
  2 20  1  0
  5  6  2  0
 19 21  1  0
  8 11  1  0
 20 22  1  0
  3  4  2  0
 21 23  1  0
 22 23  1  0
 21  1  1  0
 11 12  1  0
 16 24  1  0
  6  7  1  0
 15 25  1  0
 12 13  2  0
  1 26  1  0
  2  3  1  0
  1 27  1  0
M  END