
          11280715052D 1   1.00000     0.00000     0

 40 44  0     0  0            999 V2000
    4.3792   -3.0250    0.0000 N   0  0  3  0  0  0           0  0  0
    4.9917   -2.5875    0.0000 C   0  0  0  0  0  0           0  0  0
    4.7542   -1.8667    0.0000 N   0  0  3  0  0  0           0  0  0
    4.0042   -1.8667    0.0000 N   0  0  0  0  0  0           0  0  0
    3.7750   -2.5875    0.0000 C   0  0  0  0  0  0           0  0  0
    7.6250   -4.1542    0.0000 C   0  0  0  0  0  0           0  0  0
    7.0167   -3.7167    0.0000 N   0  0  0  0  0  0           0  0  0
    7.2500   -3.0042    0.0000 N   0  0  0  0  0  0           0  0  0
    8.2375   -3.7167    0.0000 N   0  0  0  0  0  0           0  0  0
    8.0042   -2.9917    0.0000 N   0  0  0  0  0  0           0  0  0
    5.2000   -1.2542    0.0000 C   0  0  0  0  0  0           0  0  0
    7.6375   -4.9042    0.0000 C   0  0  0  0  0  0           0  0  0
    6.9792   -5.2792    0.0000 C   0  0  0  0  0  0           0  0  0
    4.3792   -3.7750    0.0000 C   0  0  0  0  0  0           0  0  0
    5.7000   -2.8167    0.0000 O   0  0  0  0  0  0           0  0  0
    6.3375   -4.9042    0.0000 C   0  0  0  0  0  0           0  0  0
    4.8875   -0.5792    0.0000 C   0  0  3  0  0  0           0  0  0
    4.1375   -0.5042    0.0000 C   0  0  0  0  0  0           0  0  0
    5.6917   -5.2792    0.0000 C   0  0  0  0  0  0           0  0  0
    6.3417   -4.1542    0.0000 C   0  0  0  0  0  0           0  0  0
    5.0375   -4.1542    0.0000 C   0  0  0  0  0  0           0  0  0
    3.0667   -2.8167    0.0000 C   0  0  0  0  0  0           0  0  0
    5.0417   -4.9042    0.0000 C   0  0  0  0  0  0           0  0  0
    5.6792   -3.7750    0.0000 C   0  0  0  0  0  0           0  0  0
    5.3250    0.0333    0.0000 O   0  0  0  0  0  0           0  0  0
    8.2792   -5.2792    0.0000 C   0  0  0  0  0  0           0  0  0
    6.9792   -6.0292    0.0000 C   0  0  0  0  0  0           0  0  0
    3.8292    0.1750    0.0000 C   0  0  0  0  0  0           0  0  0
    3.7042   -1.1167    0.0000 C   0  0  0  0  0  0           0  0  0
    6.0750   -0.0292    0.0000 C   0  0  0  0  0  0           0  0  0
    2.5000   -2.3167    0.0000 C   0  0  0  0  0  0           0  0  0
    6.5125    0.5750    0.0000 C   0  0  0  0  0  0           0  0  0
    1.7875   -2.5542    0.0000 C   0  0  0  0  0  0           0  0  0
    8.2792   -6.0292    0.0000 C   0  0  0  0  0  0           0  0  0
    7.6375   -6.4042    0.0000 C   0  0  0  0  0  0           0  0  0
    1.2167   -2.0542    0.0000 C   0  0  0  0  0  0           0  0  0
    7.2625    0.4958    0.0000 C   0  0  0  0  0  0           0  0  0
    3.0792    0.2458    0.0000 C   0  0  0  0  0  0           0  0  0
    2.9542   -1.0542    0.0000 C   0  0  0  0  0  0           0  0  0
    2.6417   -0.3667    0.0000 C   0  0  0  0  0  0           0  0  0
  2  1  1  0     0  0
  3  2  1  0     0  0
  4  5  2  0     0  0
  5  1  1  0     0  0
  6 12  1  0     0  0
  7  6  1  0     0  0
  8  7  2  0     0  0
  9  6  2  0     0  0
 10  9  1  0     0  0
 11  3  1  0     0  0
 12 13  1  0     0  0
 13 16  1  0     0  0
 14  1  1  0     0  0
 15  2  2  0     0  0
 16 20  2  0     0  0
 17 11  1  0     0  0
 18 17  1  0     0  0
 19 23  2  0     0  0
 20 24  1  0     0  0
 21 14  1  0     0  0
 22  5  1  0     0  0
 23 21  1  0     0  0
 24 21  2  0     0  0
 25 17  1  0     0  0
 26 12  2  0     0  0
 27 13  2  0     0  0
 28 18  2  0     0  0
 29 18  1  0     0  0
 30 25  1  0     0  0
 31 22  1  0     0  0
 32 30  1  0     0  0
 33 31  1  0     0  0
 34 35  2  0     0  0
 35 27  1  0     0  0
 36 33  1  0     0  0
 37 32  1  0     0  0
 38 28  1  0     0  0
 39 29  2  0     0  0
 40 39  1  0     0  0
  3  4  1  0     0  0
 19 16  1  0     0  0
 38 40  2  0     0  0
 34 26  1  0     0  0
 10  8  1  0     0  0
M  END