
          11280714442D 1   1.00000     0.00000     0

 19 19  0     0  0            999 V2000
   10.7917   -2.7875    0.0000 C   0  0  0  0  0  0           0  0  0
   10.1000   -3.2292    0.0000 C   0  0  0  0  0  0           0  0  0
   11.5250   -3.1667    0.0000 O   0  0  0  0  0  0           0  0  0
   14.3792   -3.0375    0.0000 N   0  0  0  0  0  0           0  0  0
   10.7542   -1.9667    0.0000 O   0  0  0  0  0  0           0  0  0
    9.3667   -2.8500    0.0000 C   0  0  0  0  0  0           0  0  0
   15.0792   -2.5917    0.0000 C   0  0  3  0  0  0           0  0  0
   12.9542   -3.1042    0.0000 C   0  0  3  0  0  0           0  0  0
   12.2167   -2.7250    0.0000 C   0  0  0  0  0  0           0  0  0
   13.6500   -2.6542    0.0000 C   0  0  0  0  0  0           0  0  0
    8.6750   -3.3000    0.0000 C   0  0  0  0  0  0           0  0  0
   12.9917   -3.9292    0.0000 O   0  0  0  0  0  0           0  0  0
   10.1417   -4.0542    0.0000 C   0  0  0  0  0  0           0  0  0
    9.4500   -4.5000    0.0000 C   0  0  0  0  0  0           0  0  0
   15.8042   -2.9750    0.0000 C   0  0  0  0  0  0           0  0  0
   15.0417   -1.7667    0.0000 C   0  0  0  0  0  0           0  0  0
   15.6292   -1.9875    0.0000 C   0  0  0  0  0  0           0  0  0
    8.7125   -4.1167    0.0000 C   0  0  0  0  0  0           0  0  0
    7.9417   -2.9167    0.0000 C   0  0  0  0  0  0           0  0  0
  2  1  1  0     0  0
  3  1  1  0     0  0
  4 10  1  0     0  0
  5  1  2  0     0  0
  6  2  2  0     0  0
  7  4  1  0     0  0
  8  9  1  0     0  0
  9  3  1  0     0  0
 10  8  1  0     0  0
 11  6  1  0     0  0
 12  8  1  0     0  0
 13  2  1  0     0  0
 14 13  2  0     0  0
 15  7  1  0     0  0
 16  7  1  0     0  0
 17  7  1  0     0  0
 18 14  1  0     0  0
 19 11  1  0     0  0
 18 11  2  0     0  0
M  END