
  SciTegic12231509382D

 33 36  0  0  1  0            999 V2000
    6.7426    1.4667    0.0000 O   0  0
    2.1214   -0.8113    0.0000 O   0  0
   10.9723    1.7615    0.0000 O   0  0
   10.7768    0.3460    0.0000 O   0  0
    6.9941    0.0600    0.0000 C   0  0  1  0  0  0
    6.7138   -0.7159    0.0000 C   0  0  2  0  0  0
    5.3699   -0.2304    0.0000 C   0  0  1  0  0  0
    5.9017   -0.8611    0.0000 C   0  0  1  0  0  0
    4.5578   -0.3756    0.0000 C   0  0  2  0  0  0
    7.8187    0.0332    0.0000 C   0  0  2  0  0  0
    6.4623    0.6907    0.0000 C   0  0  2  0  0  0
    5.6502    0.5455    0.0000 C   0  0
    4.2775   -1.1515    0.0000 C   0  0  2  0  0  0
    7.3652   -1.2223    0.0000 C   0  0
    8.0480   -0.7593    0.0000 C   0  0
    5.6214   -1.6370    0.0000 C   0  0
    8.3251    0.6845    0.0000 C   0  0  1  0  0  0
    4.0260    0.2551    0.0000 C   0  0
    4.8093   -1.7823    0.0000 C   0  0
    7.3540    0.8024    0.0000 C   0  0
    3.4654   -1.2968    0.0000 C   0  0
    4.8381    0.4003    0.0000 C   0  0
    2.9335   -0.6661    0.0000 C   0  0  1  0  0  0
    3.2138    0.1099    0.0000 C   0  0
    9.1423    0.5717    0.0000 C   0  0
    8.0142    1.4487    0.0000 C   0  0
    9.6487    1.2230    0.0000 C   0  0
   10.4659    1.1102    0.0000 C   0  0
    3.9378   -2.0920    0.0000 H   0  0
    8.8008   -0.1553    0.0000 H   0  0
    6.5463   -1.6256    0.0000 H   0  0
    4.7253    0.5341    0.0000 H   0  0
    6.4742   -1.6868    0.0000 H   0  0
 11  1  1  6
 23  2  1  6
  3 28  1  0
  4 28  2  0
  5  6  1  0
  5 10  1  0
  5 11  1  0
  5 20  1  1
  6  8  1  0
  6 14  1  0
  7  8  1  0
  7  9  1  0
  7 12  1  0
  8 16  1  0
  9 13  1  0
  9 18  1  0
  9 22  1  1
 10 15  1  0
 10 17  1  0
 11 12  1  0
 13 19  1  0
 13 21  1  0
 14 15  1  0
 16 19  1  0
 17 25  1  0
 17 26  1  6
 18 24  1  0
 21 23  1  0
 23 24  1  0
 25 27  1  0
 27 28  1  0
 13 29  1  1
 10 30  1  6
  8 31  1  1
  7 32  1  6
  6 33  1  6
M  END