
  CDK    6/4/10,11:42

 27 31  0  0  0  0  0  0  0  0999 V2000
   13.3806  -12.0083    0.0000 C   0  0  0  0  0  0  0  0  0  0  0  0
   12.4847  -12.2839    0.0000 C   0  0  0  0  0  0  0  0  0  0  0  0
   12.5705  -11.8047    0.0000 C   0  0  0  0  0  0  0  0  0  0  0  0
   11.9952  -11.7066    0.0000 C   0  0  0  0  0  0  0  0  0  0  0  0
   12.0650  -11.1721    0.0000 C   0  0  0  0  0  0  0  0  0  0  0  0
   11.2539  -11.4967    0.0000 C   0  0  0  0  0  0  0  0  0  0  0  0
   12.1499  -12.5463    0.0000 C   0  0  0  0  0  0  0  0  0  0  0  0
   11.3403  -12.8414    0.0000 C   0  0  0  0  0  0  0  0  0  0  0  0
   12.0920  -12.9804    0.0000 C   0  0  0  0  0  0  0  0  0  0  0  0
   10.8426  -12.2049    0.0000 C   0  0  0  0  0  0  0  0  0  0  0  0
   10.5219  -11.1161    0.0000 N   0  0  0  0  0  0  0  0  0  0  0  0
    8.1611  -14.3375    0.0000 C   0  0  0  0  0  0  0  0  0  0  0  0
    8.1599  -15.1648    0.0000 C   0  0  0  0  0  0  0  0  0  0  0  0
    8.8747  -15.5777    0.0000 C   0  0  0  0  0  0  0  0  0  0  0  0
    9.5912  -15.1644    0.0000 C   0  0  0  0  0  0  0  0  0  0  0  0
    9.5883  -14.3338    0.0000 C   0  0  0  0  0  0  0  0  0  0  0  0
    8.8729  -13.9247    0.0000 C   0  0  0  0  0  0  0  0  0  0  0  0
    8.8683  -13.0961    0.0000 N   0  0  0  0  0  0  0  0  0  0  0  0
    9.5342  -12.6091    0.0000 C   0  0  0  0  0  0  0  0  0  0  0  0
    9.2770  -11.8253    0.0000 C   0  0  0  0  0  0  0  0  0  0  0  0
    8.4519  -11.8277    0.0000 N   0  0  0  0  0  0  0  0  0  0  0  0
    8.1994  -12.6131    0.0000 C   0  0  0  0  0  0  0  0  0  0  0  0
   10.3196  -12.8617    0.0000 C   0  0  0  0  0  0  0  0  0  0  0  0
    9.6948  -11.1137    0.0000 C   0  0  0  0  0  0  0  0  0  0  0  0
    9.2876  -10.3962    0.0000 O   0  0  0  0  0  0  0  0  0  0  0  0
    7.4156  -12.8705    0.0000 C   0  0  0  0  0  0  0  0  0  0  0  0
   10.4936  -13.6682    0.0000 C   0  0  0  0  0  0  0  0  0  0  0  0
 12 13  2  0  0  0  0 
  2  4  1  0  0  0  0 
 13 14  1  0  0  0  0 
  3  5  1  0  0  0  0 
 14 15  2  0  0  0  0 
  4  6  1  0  0  0  0 
 15 16  1  0  0  0  0 
  5  6  1  0  0  0  0 
 16 17  2  0  0  0  0 
 17 12  1  0  0  0  0 
 18 19  1  0  0  0  0 
  7  8  1  0  0  0  0 
  3  7  1  0  0  0  0 
  2  9  1  0  0  0  0 
  6 10  1  0  0  0  0 
 10  8  1  0  0  0  0 
 19 20  2  0  0  0  0 
 20 21  1  0  0  0  0 
 21 22  2  0  0  0  0 
 22 18  1  0  0  0  0 
 17 18  1  0  0  0  0 
  8  9  1  0  0  0  0 
 19 23  1  0  0  0  0 
 20 24  1  0  0  0  0 
 24 11  1  0  0  0  0 
  6 11  1  0  0  0  0 
 24 25  2  0  0  0  0 
  1  2  1  0  0  0  0 
 22 26  1  0  0  0  0 
  1  3  1  0  0  0  0 
 23 27  1  0  0  0  0 
M  END