
  SciTegic04151115542D

 23 24  0  0  0  0            999 V2000
   -4.7556  -11.3750    0.0000 C   0  0
   -4.7568  -12.2023    0.0000 C   0  0
   -4.0419  -12.6152    0.0000 C   0  0
   -3.3255  -12.2019    0.0000 C   0  0
   -3.3284  -11.3713    0.0000 C   0  0
   -4.0437  -10.9622    0.0000 C   0  0
   -4.0421  -13.4402    0.0000 F   0  0
   -5.4716  -12.6143    0.0000 Cl  0  0
   -2.6154  -10.9561    0.0000 N   0  0
   -1.8994  -11.3659    0.0000 C   0  0
   -1.1865  -10.9508    0.0000 C   0  0
   -1.8963  -12.1909    0.0000 O   0  0
   -0.4705  -11.3606    0.0000 N   0  0
   -1.1896  -10.1258    0.0000 O   0  0
    0.2424  -10.9454    0.0000 C   0  0
    0.2393  -10.1204    0.0000 C   0  0
    0.9522   -9.7052    0.0000 C   0  0
    1.6682  -10.1150    0.0000 N   0  0
    1.6714  -10.9400    0.0000 C   0  0
    0.9584  -11.3552    0.0000 C   0  0
    2.3812   -9.6998    0.0000 C   0  0
    3.0972  -10.1096    0.0000 C   0  0
    3.8101   -9.6944    0.0000 C   0  0
  5  6  2  0
 10 12  2  0
  6  1  1  0
 11 13  1  0
  1  2  2  0
 11 14  2  0
  3  7  1  0
 13 15  1  0
 15 20  1  0
  3  4  2  0
 15 16  1  0
  2  8  1  0
 16 17  1  0
 17 18  1  0
  5  9  1  0
 18 19  1  0
  4  5  1  0
 19 20  1  0
  9 10  1  0
 18 21  1  0
  2  3  1  0
 21 22  1  0
 10 11  1  0
 22 23  1  0
M  END