
          11280715362D 1   1.00000     0.00000     0

 35 37  0     0  0            999 V2000
    3.7167    0.3708    0.0000 S   0  0  3  0  0  0           0  0  0
    0.0875   -1.7417    0.0000 C   0  0  0  0  0  0           0  0  0
    2.9917    0.7833    0.0000 N   0  0  0  0  0  0           0  0  0
    0.0875   -0.9042    0.0000 C   0  0  0  0  0  0           0  0  0
    4.5542    0.3708    0.0000 C   0  0  0  0  0  0           0  0  0
    0.8167   -0.4875    0.0000 C   0  0  0  0  0  0           0  0  0
    0.8167    0.3583    0.0000 C   0  0  0  0  0  0           0  0  0
    3.7125   -0.4667    0.0000 O   0  0  0  0  0  0           0  0  0
    3.7125    1.2083    0.0000 O   0  0  0  0  0  0           0  0  0
    1.5417    0.7750    0.0000 C   0  0  3  0  0  0           0  0  0
    3.7167   -2.1625    0.0000 C   0  0  0  0  0  0           0  0  0
    2.2667    0.3625    0.0000 C   0  0  0  0  0  0           0  0  0
   -0.6333   -2.1625    0.0000 C   0  0  0  0  0  0           0  0  0
    0.8167   -2.1625    0.0000 C   0  0  0  0  0  0           0  0  0
   -1.3583   -3.4167    0.0000 N   0  0  0  0  0  0           0  0  0
    3.7167   -3.0000    0.0000 O   0  0  0  0  0  0           0  0  0
    4.9667   -0.3542    0.0000 C   0  0  0  0  0  0           0  0  0
    4.9667    1.0875    0.0000 C   0  0  0  0  0  0           0  0  0
    6.2292    0.3708    0.0000 C   0  0  0  0  0  0           0  0  0
    4.4417   -1.7417    0.0000 O   0  0  0  0  0  0           0  0  0
    5.8042   -0.3542    0.0000 C   0  0  0  0  0  0           0  0  0
    5.8000    1.0958    0.0000 C   0  0  0  0  0  0           0  0  0
    7.0667    0.3750    0.0000 I   0  0  0  0  0  0           0  0  0
   -0.6333   -2.9917    0.0000 C   0  0  0  0  0  0           0  0  0
   -0.6333   -0.4875    0.0000 C   0  0  0  0  0  0           0  0  0
    0.0875    0.7708    0.0000 C   0  0  0  0  0  0           0  0  0
   -0.6333    0.3583    0.0000 C   0  0  0  0  0  0           0  0  0
    2.0667    1.1625    0.0000 C   0  0  0  0  0  0           0  0  0
    1.0292    1.1333    0.0000 C   0  0  0  0  0  0           0  0  0
    2.9917   -1.7417    0.0000 C   0  0  0  0  0  0           0  0  0
   -2.0833   -2.9917    0.0000 C   0  0  0  0  0  0           0  0  0
    1.5417   -1.7417    0.0000 C   0  0  0  0  0  0           0  0  0
   -1.3583   -1.7417    0.0000 C   0  0  0  0  0  0           0  0  0
    2.2667   -2.1625    0.0000 C   0  0  0  0  0  0           0  0  0
   -2.0833   -2.1542    0.0000 C   0  0  0  0  0  0           0  0  0
  2  4  1  0     0  0
  3  1  1  0     0  0
  4  6  2  0     0  0
  5  1  1  0     0  0
  6  7  1  0     0  0
  7 10  1  0     0  0
  8  1  2  0     0  0
  9  1  2  0     0  0
 10 12  1  0     0  0
 11 30  1  0     0  0
 12  3  1  0     0  0
 13  2  1  0     0  0
 14  2  2  0     0  0
 15 24  2  0     0  0
 16 11  2  0     0  0
 17  5  2  0     0  0
 18  5  1  0     0  0
 19 22  1  0     0  0
 20 11  1  0     0  0
 21 17  1  0     0  0
 22 18  2  0     0  0
 23 19  1  0     0  0
 24 13  1  0     0  0
 25 27  2  0     0  0
 26  7  2  0     0  0
 27 26  1  0     0  0
 28 10  1  0     0  0
 29 10  1  0     0  0
 30 34  1  0     0  0
 31 35  2  0     0  0
 32 14  1  0     0  0
 33 13  2  0     0  0
 34 32  1  0     0  0
 35 33  1  0     0  0
 19 21  2  0     0  0
  4 25  1  0     0  0
 15 31  1  0     0  0
M  END