
  SciTegic02181312462D

 39 42  0  0  0  0            999 V2000
   12.6869   -7.6772    0.0000 C   0  0
   12.6869   -6.8522    0.0000 C   0  0
   13.4014   -6.4397    0.0000 C   0  0
   14.1159   -6.8522    0.0000 C   0  0
   14.1159   -7.6772    0.0000 C   0  0
   13.4014   -8.0897    0.0000 N   0  0
   11.9724   -8.0897    0.0000 C   0  0
   11.9724   -8.9147    0.0000 O   0  0
   11.2580   -7.6772    0.0000 N   0  0
   14.8303   -6.4397    0.0000 O   0  0
   16.9737   -7.6772    0.0000 N   0  0
   16.2593   -8.0897    0.0000 C   0  0
   15.5448   -7.6772    0.0000 C   0  0
   15.5448   -6.8522    0.0000 C   0  0
   16.2593   -6.4397    0.0000 C   0  0
   16.9737   -6.8522    0.0000 C   0  0
   17.6882   -8.0897    0.0000 C   0  0
   18.2716   -7.5063    0.0000 C   0  0
   18.4027   -8.5022    0.0000 C   0  0
   17.6882   -8.9147    0.0000 C   0  0
   10.5435   -8.0897    0.0000 C   0  0
   10.5435   -8.9147    0.0000 C   0  0
    9.8290   -9.3272    0.0000 C   0  0
    9.1146   -8.9147    0.0000 C   0  0
    9.1146   -8.0897    0.0000 C   0  0
    9.8290   -7.6772    0.0000 C   0  0
    8.4001   -9.3272    0.0000 N   0  0
    7.6856   -8.9147    0.0000 C   0  0
    7.6856   -8.0897    0.0000 O   0  0
    6.9711   -9.3272    0.0000 N   0  0
    5.3635   -7.9227    0.0000 O   0  0
    6.1704   -8.0942    0.0000 N   0  0
    6.2567   -8.9147    0.0000 C   0  0
    5.5030   -9.2503    0.0000 C   0  0
    4.9510   -8.6372    0.0000 C   0  0
    4.1305   -8.7234    0.0000 C   0  0
    3.9170   -9.5203    0.0000 C   0  0
    3.3100   -8.8096    0.0000 C   0  0
    3.7180   -8.0089    0.0000 C   0  0
  1  2  1  0
  2  3  2  0
  3  4  1  0
  4  5  2  0
  5  6  1  0
  1  6  2  0
  1  7  1  0
  7  8  2  0
  7  9  1  0
 11 12  1  0
 12 13  1  0
 13 14  1  0
 14 15  1  0
 15 16  1  0
 11 16  1  0
 10 14  1  0
 17 18  1  0
 17 20  1  0
 17 19  1  0
 11 17  1  0
  4 10  1  0
 21 22  1  0
 22 23  2  0
 23 24  1  0
 24 25  2  0
 25 26  1  0
 21 26  2  0
 27 28  1  0
 28 29  2  0
 28 30  1  0
 31 32  1  0
 32 33  2  0
 33 34  1  0
 34 35  2  0
 31 35  1  0
 36 37  1  0
 36 39  1  0
 36 38  1  0
 35 36  1  0
 30 33  1  0
 24 27  1  0
  9 21  1  0
M  END