
  SciTegic11201309402D

 29 32  0  0  0  0            999 V2000
    1.9659   -0.4708    0.0000 C   0  0
    2.7780   -0.3256    0.0000 C   0  0
    3.0583    0.4503    0.0000 C   0  0
    2.5265    1.0810    0.0000 C   0  0
    1.7144    0.9358    0.0000 C   0  0
    1.1825    1.5665    0.0000 C   0  0
    0.3704    1.4213    0.0000 C   0  0
    0.0901    0.6454    0.0000 C   0  0  2  0  0  0
    0.6220    0.0146    0.0000 C   0  0  1  0  0  0
    1.4341    0.1599    0.0000 C   0  0  1  0  0  0
   -0.4705   -0.9065    0.0000 C   0  0
    0.3417   -0.7613    0.0000 C   0  0  2  0  0  0
   -1.0023   -0.2758    0.0000 C   0  0  1  0  0  0
   -0.7220    0.5001    0.0000 C   0  0  1  0  0  0
   -1.3733    1.0065    0.0000 C   0  0
   -2.0562    0.5435    0.0000 C   0  0
   -1.8269   -0.2490    0.0000 C   0  0  2  0  0  0
   -1.3622   -1.0182    0.0000 C   0  0
    1.1538   -0.6161    0.0000 C   0  0
   -2.5877   -0.5679    0.0000 C   0  0
   -3.2443   -0.0683    0.0000 C   0  0
    3.8704    0.5955    0.0000 O   0  0
    0.8735   -1.3920    0.0000 O   0  0
   -1.9483   -1.0650    0.0000 O   0  0
   -2.6920   -1.3862    0.0000 O   0  0
   -4.0052   -0.3872    0.0000 O   0  0
   -0.4824    1.4710    0.0000 H   0  0
    1.2667   -0.7499    0.0000 H   0  0
   -0.5546    1.4099    0.0000 H   0  0
  3 22  2  0
  3  4  1  0
  2  3  1  0
  4  5  2  0
  5  6  1  0
 10  5  1  0
  6  7  1  0
  8  7  1  0
  1  2  1  0
  1 10  1  0
 10 19  1  1
 10  9  1  0
  8  9  1  0
  9 12  1  0
 14  8  1  0
 12 23  1  1
 12 11  1  0
 11 13  1  0
 13 18  1  1
 13 14  1  0
 13 17  1  0
 14 15  1  0
 15 16  1  0
 16 17  1  0
 17 24  1  6
 17 20  1  0
 20 25  2  0
 20 21  1  0
 21 26  1  0
 14 27  1  6
  9 28  1  6
  8 29  1  1
M  END