
          11280715352D 1   1.00000     0.00000     0

 30 32  0     0  0            999 V2000
   -2.0958   -2.3292    0.0000 C   0  0  0  0  0  0           0  0  0
    1.0417   -1.9625    0.0000 C   0  0  3  0  0  0           0  0  0
    1.6417   -1.9625    0.0000 N   0  0  0  0  0  0           0  0  0
   -1.5708   -3.2292    0.0000 N   0  0  0  0  0  0           0  0  0
    1.9417   -2.4792    0.0000 C   0  0  0  0  0  0           0  0  0
   -2.0958   -2.9292    0.0000 C   0  0  0  0  0  0           0  0  0
   -1.0458   -2.9250    0.0000 C   0  0  0  0  0  0           0  0  0
   -2.6125   -2.0292    0.0000 C   0  0  0  0  0  0           0  0  0
   -1.0458   -2.3167    0.0000 C   0  0  0  0  0  0           0  0  0
   -1.0583   -1.1250    0.0000 C   0  0  3  0  0  0           0  0  0
    0.4417   -1.9625    0.0000 C   0  0  3  0  0  0           0  0  0
   -2.6208   -1.4292    0.0000 O   0  0  0  0  0  0           0  0  0
   -1.0583   -0.5250    0.0000 N   0  0  0  0  0  0           0  0  0
    1.6417   -3.0000    0.0000 O   0  0  0  0  0  0           0  0  0
   -0.0375   -1.6667    0.0000 C   0  0  0  0  0  0           0  0  0
    0.2292   -1.3000    0.0000 C   0  0  0  0  0  0           0  0  0
   -2.1000   -0.5292    0.0000 C   0  0  3  0  0  0           0  0  0
   -0.8500   -1.7792    0.0000 C   0  0  0  0  0  0           0  0  0
   -0.5458   -1.4250    0.0000 C   0  0  0  0  0  0           0  0  0
   -2.0958   -1.1292    0.0000 C   0  0  0  0  0  0           0  0  0
   -1.5833   -0.2167    0.0000 C   0  0  0  0  0  0           0  0  0
    2.8417   -3.0000    0.0000 Br  0  0  0  0  0  0           0  0  0
   -2.6208   -0.2292    0.0000 O   0  0  0  0  0  0           0  0  0
    2.5417   -2.4792    0.0000 C   0  0  0  0  0  0           0  0  0
    1.0375   -2.5625    0.0000 C   0  0  0  0  0  0           0  0  0
    1.0375   -1.3625    0.0000 C   0  0  0  0  0  0           0  0  0
   -3.1333   -2.9292    0.0000 C   0  0  0  0  0  0           0  0  0
   -2.6125   -3.2292    0.0000 C   0  0  0  0  0  0           0  0  0
   -3.1333   -2.3292    0.0000 C   0  0  0  0  0  0           0  0  0
   -1.6583   -1.1250    0.0000 C   0  0  0  0  0  0           0  0  0
  2 11  1  0     0  0
  3  2  1  0     0  0
  4  6  1  0     0  0
  5  3  1  0     0  0
  6  1  1  0     0  0
  7  9  2  0     0  0
  8  1  2  0     0  0
  9  1  1  0     0  0
 10 13  1  0     0  0
 11 16  1  0     0  0
 12  8  1  0     0  0
 13 21  1  0     0  0
 14  5  2  0     0  0
 15 18  1  0     0  0
 16 19  1  0     0  0
 17 20  1  0     0  0
 18 10  1  0     0  0
 19 10  1  0     0  0
 20 12  1  0     0  0
 21 17  1  0     0  0
 22 24  1  0     0  0
 23 17  1  0     0  0
 24  5  1  0     0  0
 25  2  1  0     0  0
 26  2  1  0     0  0
 27 29  2  0     0  0
 28  6  2  0     0  0
 29  8  1  0     0  0
 30 10  1  0     0  0
  7  4  1  0     0  0
 27 28  1  0     0  0
 15 11  1  0     0  0
M  END