
  SciTegic11201309402D

 81 84  0  0  1  0            999 V2000
   -2.0958   -4.0875    0.0000 C   0  0
   -1.3583   -4.4667    0.0000 C   0  0
   -2.8708   -2.8792    0.0000 C   0  0
   -2.1333   -3.2625    0.0000 C   0  0
    3.0042   -4.5000    0.0000 C   0  0
    0.4417   -5.9917    0.0000 C   0  0
    9.5667   -4.0875    0.0000 C   0  0
    1.5417   -4.5000    0.0000 N   0  0
    8.8417   -4.5000    0.0000 C   0  0  1  0  0  0
    0.8167   -4.0875    0.0000 C   0  0
    7.3792   -4.5000    0.0000 C   0  0
   -3.5583   -3.3167    0.0000 O   0  0
    8.1042   -4.0875    0.0000 N   0  0
   -3.5208   -4.1417    0.0000 C   0  0
   -2.7958   -4.5292    0.0000 C   0  0
    5.1917   -4.0875    0.0000 C   0  0
   -0.6333   -4.0875    0.0000 N   0  0
    0.8167   -7.1417    0.0000 N   0  0
    5.9167   -4.5000    0.0000 N   0  0
    3.7417   -4.0875    0.0000 N   0  0
    2.2792   -4.0875    0.0000 C   0  0  1  0  0  0
    6.6417   -4.0875    0.0000 C   0  0  1  0  0  0
   10.2917   -4.5000    0.0000 N   0  0
    0.2125   -6.7042    0.0000 C   0  0
    0.0917   -4.5000    0.0000 C   0  0  2  0  0  0
    6.6417   -3.2750    0.0000 C   0  0
   11.8667   -4.0792    0.0000 C   0  0
   14.0542   -4.4917    0.0000 C   0  0
   14.7792   -0.8292    0.0000 C   0  0
    1.1917   -5.9917    0.0000 C   0  0
    0.1167   -5.3125    0.0000 C   0  0
   12.5917   -4.4917    0.0000 N   0  0
    4.4667   -4.5000    0.0000 C   0  0  1  0  0  0
   -2.8958   -2.0542    0.0000 C   0  0
    7.0792   -2.5750    0.0000 C   0  0
   14.7792   -4.0792    0.0000 N   0  0
   -1.4333   -2.8250    0.0000 C   0  0
   11.1292   -4.4917    0.0000 C   0  0
    1.4250   -6.7042    0.0000 C   0  0
   13.3167   -4.0792    0.0000 C   0  0  1  0  0  0
    5.1917   -6.5375    0.0000 C   0  0
   15.5042   -0.4167    0.0000 N   0  0
   16.2417   -4.0792    0.0000 C   0  0
   -1.3333   -5.2917    0.0000 O   0  0
    3.0042   -5.3125    0.0000 O   0  0
    9.5667   -3.2792    0.0000 O   0  0
    0.8167   -3.2792    0.0000 O   0  0
    7.3792   -5.3125    0.0000 O   0  0
    5.1917   -3.2792    0.0000 O   0  0
   -4.2208   -4.5792    0.0000 O   0  0
   14.0542   -5.3042    0.0000 O   0  0
   11.8667   -3.2792    0.0000 O   0  0
    6.6667   -1.8667    0.0000 O   0  0
    5.9167   -6.9417    0.0000 O   0  0
   16.2417   -3.2792    0.0000 O   0  0
    4.4667   -5.3125    0.0000 C   0  0
   14.7792   -1.6417    0.0000 N   0  0
   15.5042   -4.4917    0.0000 C   0  0
   14.0542   -0.4167    0.0000 N   0  0
   -2.1958   -1.6167    0.0000 C   0  0
    2.2792   -3.2792    0.0000 C   0  0  2  0  0  0
    7.9167   -2.5792    0.0000 N   0  0
    5.1917   -5.7167    0.0000 C   0  0
    4.4667   -6.9417    0.0000 N   0  0
   -1.4583   -1.9917    0.0000 C   0  0
    8.8417   -5.3125    0.0000 C   0  0
    9.5667   -5.7167    0.0000 S   0  0
   16.9667   -4.4917    0.0000 O   0  0
   10.2917   -5.3250    0.0000 C   0  0
   -2.2333   -0.7917    0.0000 O   0  0
    1.6917   -5.4292    0.0000 C   0  0
   13.3167   -3.2792    0.0000 C   0  0
    2.1542   -6.8625    0.0000 C   0  0
   14.0542   -2.0542    0.0000 C   0  0
    1.5417   -2.8750    0.0000 C   0  0
    3.0042   -2.8750    0.0000 C   0  0
   -1.5333   -0.3500    0.0000 C   0  0
   14.0542   -2.8667    0.0000 C   0  0
    1.5417   -2.0542    0.0000 C   0  0
    2.4292   -5.5875    0.0000 C   0  0
    2.6542   -6.3042    0.0000 C   0  0
  2  1  1  0
  3  4  1  0
  4  1  1  0
  5 21  1  0
  6 31  1  0
  7  9  1  0
  8 10  1  0
  9 13  1  6
 10 25  1  0
 11 22  1  0
 12 14  1  0
 13 11  1  0
 14 15  1  0
 15  1  2  0
 16 33  1  0
 17  2  1  0
 18 24  1  0
 19 16  1  0
 20  5  1  0
 21  8  1  1
 22 19  1  1
 23  7  1  0
 24  6  2  0
 25 17  1  1
 22 26  1  0
 27 38  1  0
 28 40  1  0
 29 57  2  0
 30  6  1  0
 25 31  1  0
 32 27  1  0
 33 20  1  6
 34  3  2  0
 35 26  1  0
 36 28  1  0
 37  4  2  0
 38 23  1  0
 39 30  2  0
 40 32  1  1
 41 63  1  0
 42 29  1  0
 43 58  1  0
 44  2  2  0
 45  5  2  0
 46  7  2  0
 47 10  2  0
 48 11  2  0
 49 16  2  0
 50 14  2  0
 51 28  2  0
 52 27  2  0
 53 35  2  0
 54 41  2  0
 55 43  2  0
 33 56  1  0
 57 74  1  0
 58 36  1  0
 59 29  1  0
 60 65  2  0
 21 61  1  0
 62 35  1  0
 63 56  1  0
 64 41  1  0
 65 37  1  0
  9 66  1  0
 67 66  1  0
 68 43  1  0
 69 23  1  0
 70 60  1  0
 71 30  1  0
 40 72  1  0
 73 39  1  0
 74 78  1  0
 75 61  1  0
 61 76  1  6
 77 70  1  0
 78 72  1  0
 79 75  1  0
 80 71  2  0
 81 80  1  0
  3 12  1  0
 34 60  1  0
 39 18  1  0
 73 81  2  0
M  END