
  SciTegic12231509382D

 29 31  0  0  0  0            999 V2000
   18.1397   -6.3087    0.0000 N   0  0
   18.8698   -5.9266    0.0000 C   0  0
   18.7382   -5.1147    0.0000 C   0  0
   17.9213   -4.9917    0.0000 C   0  0
   17.5531   -5.7268    0.0000 C   0  0
   19.3144   -4.5266    0.0000 C   0  0
   19.0974   -3.7324    0.0000 O   0  0
   20.1134   -4.7343    0.0000 N   0  0
   17.5428   -4.2595    0.0000 C   0  0
   19.6106   -6.2963    0.0000 C   0  0
   16.7396   -5.8641    0.0000 C   0  0
   16.5001   -7.9863    0.0000 N   0  0
   16.9794   -7.3132    0.0000 C   0  0
   16.4898   -6.6474    0.0000 C   0  0
   15.7099   -6.9105    0.0000 C   0  0
   14.9918   -6.5023    0.0000 C   0  0
   14.2807   -6.9202    0.0000 C   0  0
   14.2876   -7.7461    0.0000 C   0  0
   15.0058   -8.1542    0.0000 C   0  0
   15.7169   -7.7365    0.0000 C   0  0
   17.8054   -7.3062    0.0000 O   0  0
   13.5626   -6.5120    0.0000 F   0  0
   20.6933   -4.1440    0.0000 C   0  0
   21.4886   -4.3538    0.0000 C   0  0
   22.0705   -3.7672    0.0000 N   0  0
   22.8681   -3.9775    0.0000 C   0  0
   21.8539   -2.9713    0.0000 C   0  0
   22.4348   -2.3858    0.0000 C   0  0
   23.4489   -3.3920    0.0000 C   0  0
  1  2  1  0
  2  3  2  0
  3  4  1  0
  4  5  2  0
  1  5  1  0
  6  7  2  0
  6  8  1  0
  3  6  1  0
  4  9  1  0
  2 10  1  0
 12 13  1  0
 13 14  1  0
 14 15  1  0
 15 16  1  0
 16 17  2  0
 17 18  1  0
 18 19  2  0
 19 20  1  0
 12 20  1  0
 15 20  2  0
 13 21  2  0
 17 22  1  0
 11 14  2  0
  5 11  1  0
 23 24  1  0
 24 25  1  0
  8 23  1  0
 25 26  1  0
 25 27  1  0
 27 28  1  0
 26 29  1  0
M  END