
          11280715102D 1   1.00000     0.00000     0

 31 34  0     0  0            999 V2000
    0.5542   -4.6875    0.0000 C   0  0  0  0  0  0           0  0  0
   -0.2708   -4.6042    0.0000 N   0  3  0  0  0  0           0  0  0
    1.8625   -4.4042    0.0000 C   0  0  0  0  0  0           0  0  0
    1.1042   -4.0667    0.0000 S   0  0  0  0  0  0           0  0  0
    2.5750   -3.9917    0.0000 C   0  0  0  0  0  0           0  0  0
    2.5750   -3.1667    0.0000 N   0  0  3  0  0  0           0  0  0
    0.9792   -5.4042    0.0000 C   0  0  0  0  0  0           0  0  0
    1.7750   -5.2292    0.0000 C   0  0  0  0  0  0           0  0  0
    4.7125   -1.9292    0.0000 N   0  0  3  0  0  0           0  0  0
    3.2917   -2.7542    0.0000 C   0  0  3  0  0  0           0  0  0
   -0.6083   -3.8542    0.0000 O   0  5  0  0  0  0           0  0  0
    1.8625   -2.7542    0.0000 C   0  0  0  0  0  0           0  0  0
   -0.7458   -5.2750    0.0000 O   0  0  0  0  0  0           0  0  0
    3.2917   -4.4042    0.0000 O   0  0  0  0  0  0           0  0  0
    4.0000   -3.1667    0.0000 C   0  0  0  0  0  0           0  0  0
    3.2917   -1.9292    0.0000 C   0  0  0  0  0  0           0  0  0
    4.7125   -2.7542    0.0000 C   0  0  0  0  0  0           0  0  0
    4.0000   -1.5167    0.0000 C   0  0  0  0  0  0           0  0  0
    5.4292   -1.5167    0.0000 C   0  0  0  0  0  0           0  0  0
    1.1500   -3.1750    0.0000 C   0  0  0  0  0  0           0  0  0
    1.8625   -1.9292    0.0000 C   0  0  0  0  0  0           0  0  0
    0.4292   -1.9375    0.0000 C   0  0  0  0  0  0           0  0  0
    1.1500   -1.5167    0.0000 C   0  0  0  0  0  0           0  0  0
    0.4375   -2.7667    0.0000 C   0  0  0  0  0  0           0  0  0
   -0.2833   -1.5250    0.0000 Br  0  0  0  0  0  0           0  0  0
    6.1417   -1.9375    0.0000 C   0  0  0  0  0  0           0  0  0
    6.1375   -2.7625    0.0000 C   0  0  0  0  0  0           0  0  0
    6.8542   -1.5250    0.0000 C   0  0  0  0  0  0           0  0  0
    7.5667   -1.9375    0.0000 C   0  0  0  0  0  0           0  0  0
    6.8500   -3.1750    0.0000 C   0  0  0  0  0  0           0  0  0
    7.5667   -2.7667    0.0000 C   0  0  0  0  0  0           0  0  0
  2  1  1  0     0  0
  3  4  1  0     0  0
  4  1  1  0     0  0
  5  3  1  0     0  0
  6  5  1  0     0  0
  7  1  2  0     0  0
  8  7  1  0     0  0
  9 18  1  0     0  0
 10  6  1  0     0  0
 11  2  1  0     0  0
 12  6  1  0     0  0
 13  2  2  0     0  0
 14  5  2  0     0  0
 15 10  1  0     0  0
 16 10  1  0     0  0
 17 15  1  0     0  0
 18 16  1  0     0  0
 19  9  1  0     0  0
 20 12  1  0     0  0
 21 12  2  0     0  0
 22 23  2  0     0  0
 23 21  1  0     0  0
 24 20  2  0     0  0
 25 22  1  0     0  0
 26 19  1  0     0  0
 27 26  2  0     0  0
 28 26  1  0     0  0
 29 28  2  0     0  0
 30 27  1  0     0  0
 31 29  1  0     0  0
  3  8  2  0     0  0
 22 24  1  0     0  0
  9 17  1  0     0  0
 31 30  2  0     0  0
M  CHG  2   2   1  11  -1
M  END