
          11280714452D 1   1.00000     0.00000     0

 32 35  0     0  0            999 V2000
    7.1500   -2.8875    0.0000 C   0  0  0  0  0  0           0  0  0
    7.1500   -2.0625    0.0000 C   0  0  0  0  0  0           0  0  0
    0.0125   -2.8917    0.0000 N   0  0  0  0  0  0           0  0  0
    7.8625   -1.6417    0.0000 C   0  0  0  0  0  0           0  0  0
    7.8542   -0.8167    0.0000 C   0  0  0  0  0  0           0  0  0
    6.4292   -3.3000    0.0000 C   0  0  0  0  0  0           0  0  0
    5.7167   -2.8875    0.0000 C   0  0  0  0  0  0           0  0  0
   -0.6958   -3.3042    0.0000 C   0  0  0  0  0  0           0  0  0
    7.8625   -3.3000    0.0000 C   0  0  0  0  0  0           0  0  0
    5.0042   -3.3000    0.0000 C   0  0  0  0  0  0           0  0  0
    7.1417   -0.4042    0.0000 O   0  0  0  0  0  0           0  0  0
    8.5792   -2.0542    0.0000 C   0  0  0  0  0  0           0  0  0
    0.7292   -3.3042    0.0000 C   0  0  0  0  0  0           0  0  0
    6.4292   -4.1250    0.0000 O   0  0  0  0  0  0           0  0  0
    8.5792   -2.8875    0.0000 C   0  0  0  0  0  0           0  0  0
   -0.7000   -4.1292    0.0000 C   0  0  0  0  0  0           0  0  0
    0.0167   -4.5417    0.0000 C   0  0  0  0  0  0           0  0  0
    2.1542   -3.3000    0.0000 O   0  0  0  0  0  0           0  0  0
    4.2917   -2.8875    0.0000 C   0  0  0  0  0  0           0  0  0
    8.5667   -0.4042    0.0000 O   0  0  0  0  0  0           0  0  0
    2.8667   -2.8875    0.0000 C   0  0  0  0  0  0           0  0  0
    3.5792   -3.2917    0.0000 C   0  0  0  0  0  0           0  0  0
    1.4417   -2.8917    0.0000 C   0  0  0  0  0  0           0  0  0
    0.7292   -4.1250    0.0000 C   0  0  0  0  0  0           0  0  0
    7.8625   -4.1250    0.0000 O   0  0  0  0  0  0           0  0  0
    3.5792   -1.6417    0.0000 C   0  0  0  0  0  0           0  0  0
   -1.4083   -2.8917    0.0000 C   0  0  0  0  0  0           0  0  0
    4.2917   -2.0542    0.0000 C   0  0  0  0  0  0           0  0  0
    2.8667   -2.0625    0.0000 C   0  0  0  0  0  0           0  0  0
   -1.4083   -4.5417    0.0000 C   0  0  0  0  0  0           0  0  0
   -2.1208   -3.3042    0.0000 C   0  0  0  0  0  0           0  0  0
   -2.1208   -4.1292    0.0000 C   0  0  0  0  0  0           0  0  0
  2  1  2  0     0  0
  3 13  2  0     0  0
  4  2  1  0     0  0
  5  4  1  0     0  0
  6  1  1  0     0  0
  7  6  1  0     0  0
  8  3  1  0     0  0
  9  1  1  0     0  0
 10  7  2  0     0  0
 11  5  2  0     0  0
 12 15  1  0     0  0
 13 23  1  0     0  0
 14  6  2  0     0  0
 15  9  2  0     0  0
 16 17  1  0     0  0
 17 24  2  0     0  0
 18 21  1  0     0  0
 19 10  1  0     0  0
 20  5  1  0     0  0
 21 22  2  0     0  0
 22 19  1  0     0  0
 23 18  1  0     0  0
 24 13  1  0     0  0
 25  9  1  0     0  0
 26 28  1  0     0  0
 27  8  2  0     0  0
 28 19  2  0     0  0
 29 26  2  0     0  0
 30 16  2  0     0  0
 31 27  1  0     0  0
 32 30  1  0     0  0
 12  4  2  0     0  0
 29 21  1  0     0  0
  8 16  1  0     0  0
 32 31  2  0     0  0
M  END