
          11280715122D 1   1.00000     0.00000     0

 31 34  0     0  0            999 V2000
    8.7917   -8.2667    0.0000 C   0  0  0  0  0  0           0  0  0
    8.2542   -9.4917    0.0000 N   0  0  0  0  0  0           0  0  0
    8.9667   -9.0667    0.0000 N   0  0  0  0  0  0           0  0  0
    7.6417   -8.9542    0.0000 N   0  0  0  0  0  0           0  0  0
    5.0625   -4.3500    0.0000 N   0  0  0  0  0  0           0  0  0
    5.7792   -3.9375    0.0000 C   0  0  0  0  0  0           0  0  0
    7.9750   -8.1875    0.0000 N   0  0  0  0  0  0           0  0  0
    9.3417   -7.6417    0.0000 C   0  0  0  0  0  0           0  0  0
    5.7792   -3.1042    0.0000 C   0  0  0  0  0  0           0  0  0
    9.3375   -6.8250    0.0000 C   0  0  0  0  0  0           0  0  0
    4.3500   -3.9375    0.0000 C   0  0  0  0  0  0           0  0  0
    4.3500   -3.1125    0.0000 N   0  0  0  0  0  0           0  0  0
    6.4875   -4.3500    0.0000 N   0  0  0  0  0  0           0  0  0
    8.6292   -6.4125    0.0000 C   0  0  0  0  0  0           0  0  0
    5.0625   -2.6917    0.0000 C   0  0  0  0  0  0           0  0  0
    3.6292   -4.3500    0.0000 C   0  0  0  0  0  0           0  0  0
    7.9125   -6.8250    0.0000 C   0  0  0  0  0  0           0  0  0
    8.6250   -5.5792    0.0000 C   0  0  0  0  0  0           0  0  0
    6.4875   -5.1750    0.0000 C   0  0  0  0  0  0           0  0  0
    7.2042   -5.5875    0.0000 C   0  0  0  0  0  0           0  0  0
    7.2000   -6.4125    0.0000 C   0  0  0  0  0  0           0  0  0
    7.9125   -5.1750    0.0000 C   0  0  0  0  0  0           0  0  0
    6.4917   -2.6917    0.0000 C   0  0  0  0  0  0           0  0  0
   10.0500   -8.0625    0.0000 C   0  0  0  0  0  0           0  0  0
   10.0500   -6.4125    0.0000 C   0  0  0  0  0  0           0  0  0
    7.2042   -3.1000    0.0000 O   0  0  0  0  0  0           0  0  0
    2.1917   -4.3500    0.0000 O   0  0  0  0  0  0           0  0  0
    2.9167   -3.9375    0.0000 C   0  0  0  0  0  0           0  0  0
    1.4792   -3.9375    0.0000 C   0  0  0  0  0  0           0  0  0
   10.7625   -6.8167    0.0000 C   0  0  0  0  0  0           0  0  0
   10.7667   -7.6500    0.0000 C   0  0  0  0  0  0           0  0  0
  2  3  2  0     0  0
  3  1  1  0     0  0
  4  7  1  0     0  0
  5  6  2  0     0  0
  6 13  1  0     0  0
  7  1  2  0     0  0
  8  1  1  0     0  0
  9  6  1  0     0  0
 10  8  2  0     0  0
 11  5  1  0     0  0
 12 15  1  0     0  0
 13 19  1  0     0  0
 14 10  1  0     0  0
 15  9  2  0     0  0
 16 11  1  0     0  0
 17 14  2  0     0  0
 18 14  1  0     0  0
 19 20  1  0     0  0
 20 22  1  0     0  0
 21 17  1  0     0  0
 22 18  2  0     0  0
 23  9  1  0     0  0
 24  8  1  0     0  0
 25 10  1  0     0  0
 26 23  1  0     0  0
 27 28  1  0     0  0
 28 16  1  0     0  0
 29 27  1  0     0  0
 30 31  1  0     0  0
 31 24  2  0     0  0
  2  4  1  0     0  0
 25 30  2  0     0  0
 21 20  2  0     0  0
 11 12  2  0     0  0
M  END