
  SciTegic06281210282D

 34 36  0  0  0  0            999 V2000
    5.5677    1.3544    0.0000 O   0  0
    5.1591    2.0671    0.0000 S   0  0
    4.7463    1.3570    0.0000 O   0  0
    2.3031    2.0546    0.0000 C   0  0
    2.3020    1.2270    0.0000 C   0  0
    3.0170    0.8142    0.0000 N   0  0
    3.7334    1.2275    0.0000 C   0  0
    3.7306    2.0582    0.0000 C   0  0
    3.0152    2.4674    0.0000 N   0  0
    4.4437    2.4734    0.0000 N   0  0
    5.8728    2.4788    0.0000 C   0  0
    6.5847    2.0634    0.0000 C   0  0
    7.2977    2.4744    0.0000 C   0  0
    7.2983    3.2993    0.0000 C   0  0
    6.5800    3.7111    0.0000 C   0  0
    5.8697    3.2977    0.0000 C   0  0
    8.0126    3.7126    0.0000 C   0  0
    1.5870    0.8151    0.0000 Br  0  0
    4.4488    0.8161    0.0000 O   0  0
    4.4500   -0.0091    0.0000 C   0  0
    5.1652   -0.4204    0.0000 C   0  0
    5.1618   -1.2430    0.0000 C   0  0
    5.8763   -1.6543    0.0000 C   0  0
    6.5913   -1.2406    0.0000 C   0  0
    6.5873   -0.4111    0.0000 C   0  0
    5.8723   -0.0036    0.0000 C   0  0
    7.3070   -1.6510    0.0000 O   0  0
    7.3094   -2.4762    0.0000 C   0  0
    7.2997    0.0050    0.0000 O   0  0
    8.0165   -0.4038    0.0000 C   0  0
    8.7288    0.0123    0.0000 C   0  0
    9.4456   -0.3965    0.0000 N   0  0
   10.1582    0.0196    0.0000 C   0  0
    9.4498   -1.2217    0.0000 C   0  0
  8  9  2  0
 14 17  1  0
  9  4  1  0
  5 18  1  0
  3  2  2  0
  7 19  1  0
  8 10  1  0
 19 20  1  0
 10  2  1  0
 20 21  1  0
  5  6  1  0
 21 22  2  0
  2 11  1  0
 22 23  1  0
 23 24  2  0
 11 12  2  0
 24 25  1  0
  6  7  2  0
 25 26  2  0
 26 21  1  0
 12 13  1  0
 24 27  1  0
  2  1  2  0
 27 28  1  0
 13 14  2  0
 25 29  1  0
  7  8  1  0
 29 30  1  0
 14 15  1  0
 30 31  1  0
  4  5  2  0
 31 32  1  0
 15 16  2  0
 32 33  1  0
 16 11  1  0
 32 34  1  0
M  END