
  CDK    7/28/10,10:58

 31 31  0  0  0  0  0  0  0  0999 V2000
    5.7917   -0.7667    0.0000 P   0  0  0  0  0  0  0  0  0  0  0  0
    6.5042   -1.1792    0.0000 O   0  0  0  0  0  0  0  0  0  0  0  0
    1.5042   -0.7667    0.0000 P   0  0  0  0  0  0  0  0  0  0  0  0
    7.2167   -0.7667    0.0000 P   0  0  0  0  0  0  0  0  0  0  0  0
    5.0667   -1.1792    0.0000 C   0  0  0  0  0  0  0  0  0  0  0  0
    8.5167   -5.1750    0.0000 N   0  0  0  0  0  0  0  0  0  0  0  0
    2.2167   -1.1792    0.0000 C   0  0  0  0  0  0  0  0  0  0  0  0
    5.7917    0.0583    0.0000 O   0  0  0  0  0  0  0  0  0  0  0  0
    8.4042   -4.3500    0.0000 C   0  0  0  0  0  0  0  0  0  0  0  0
    7.8667   -5.6750    0.0000 O   0  0  0  0  0  0  0  0  0  0  0  0
    1.5042    0.0583    0.0000 O   0  0  0  0  0  0  0  0  0  0  0  0
    9.2792   -5.4875    0.0000 O   0  0  0  0  0  0  0  0  0  0  0  0
    7.2167    0.0583    0.0000 O   0  0  0  0  0  0  0  0  0  0  0  0
    6.0042   -1.5625    0.0000 O   0  0  0  0  0  0  0  0  0  0  0  0
    7.3292   -1.5875    0.0000 O   0  0  0  0  0  0  0  0  0  0  0  0
    1.7167   -1.5625    0.0000 O   0  0  0  0  0  0  0  0  0  0  0  0
    0.7792   -1.1792    0.0000 O   0  0  0  0  0  0  0  0  0  0  0  0
    5.0667   -2.0042    0.0000 F   0  0  0  0  0  0  0  0  0  0  0  0
    4.8542   -0.3792    0.0000 F   0  0  0  0  0  0  0  0  0  0  0  0
    2.2167   -2.0042    0.0000 F   0  0  0  0  0  0  0  0  0  0  0  0
    2.0042   -0.3792    0.0000 F   0  0  0  0  0  0  0  0  0  0  0  0
    7.8042   -0.1792    0.0000 O   0  0  0  0  0  0  0  0  0  0  0  0
    9.0667   -3.8417    0.0000 C   0  0  0  0  0  0  0  0  0  0  0  0
    7.6417   -4.0375    0.0000 C   0  0  0  0  0  0  0  0  0  0  0  0
    4.3542   -0.7667    0.0000 C   0  0  0  0  0  0  0  0  0  0  0  0
    2.9292   -0.7667    0.0000 C   0  0  0  0  0  0  0  0  0  0  0  0
    8.1917   -2.7167    0.0000 C   0  0  0  0  0  0  0  0  0  0  0  0
    8.0917   -1.9000    0.0000 C   0  0  0  0  0  0  0  0  0  0  0  0
    8.9542   -3.0292    0.0000 C   0  0  0  0  0  0  0  0  0  0  0  0
    7.5417   -3.2167    0.0000 C   0  0  0  0  0  0  0  0  0  0  0  0
    3.6417   -1.1792    0.0000 C   0  0  0  0  0  0  0  0  0  0  0  0
  2  1  1  0  0  0  0 
  3  7  1  0  0  0  0 
  4  2  1  0  0  0  0 
  5  1  1  0  0  0  0 
  6  9  1  0  0  0  0 
  7 26  1  0  0  0  0 
  8  1  2  0  0  0  0 
  9 24  2  0  0  0  0 
 10  6  1  0  0  0  0 
 11  3  2  0  0  0  0 
 12  6  2  0  0  0  0 
 13  4  2  0  0  0  0 
 14  1  1  0  0  0  0 
 15  4  1  0  0  0  0 
 16  3  1  0  0  0  0 
 17  3  1  0  0  0  0 
 18  5  1  0  0  0  0 
 19  5  1  0  0  0  0 
 20  7  1  0  0  0  0 
 21  7  1  0  0  0  0 
 22  4  1  0  0  0  0 
 23 29  2  0  0  0  0 
 24 30  1  0  0  0  0 
 25  5  1  0  0  0  0 
 26 31  1  0  0  0  0 
 27 28  1  0  0  0  0 
 28 15  1  0  0  0  0 
 29 27  1  0  0  0  0 
 30 27  2  0  0  0  0 
 31 25  1  0  0  0  0 
  9 23  1  0  0  0  0 
M  CHG  1   6   1
M  CHG  1  10  -1
M  END