
  SciTegic09261414462D

 15 16  0  0  0  0            999 V2000
   32.9090   -1.8217    0.0000 N   0  0
   32.8939   -2.6478    0.0000 C   0  0
   32.1716   -3.0488    0.0000 N   0  0
   32.1586   -3.8713    0.0000 C   0  0
   32.8657   -4.2962    0.0000 C   0  0
   33.5858   -3.8986    0.0000 C   0  0
   33.6010   -3.0727    0.0000 N   0  0
   34.2930   -4.3235    0.0000 N   0  0
   34.3621   -5.1415    0.0000 C   0  0
   35.1685   -5.3309    0.0000 C   0  0  1  0  0  0
   35.5934   -4.6238    0.0000 C   0  0
   35.0497   -3.9972    0.0000 C   0  0
   35.4891   -6.0891    0.0000 N   0  0
   31.4364   -4.2725    0.0000 C   0  0
   30.7289   -3.8481    0.0000 C   0  0
  2  3  1  0
  3  4  2  0
  4  5  1  0
  5  6  2  0
  6  7  1  0
  2  7  2  0
  1  2  1  0
  8  9  1  0
  9 10  1  0
 10 11  1  0
 11 12  1  0
  8 12  1  0
 10 13  1  1
  6  8  1  0
  4 14  1  0
 14 15  1  0
M  END