
          11280715192D 1   1.00000     0.00000     0

 12 13  0     0  0            999 V2000
    0.0417   -2.8792    0.0000 N   0  0  0  0  0  0           0  0  0
    0.0500   -1.6792    0.0000 C   0  0  0  0  0  0           0  0  0
    0.0500   -1.0792    0.0000 C   0  0  0  0  0  0           0  0  0
   -0.4708   -2.5750    0.0000 C   0  0  0  0  0  0           0  0  0
    0.5667   -2.5792    0.0000 C   0  0  0  0  0  0           0  0  0
   -0.4708   -1.9792    0.0000 C   0  0  0  0  0  0           0  0  0
    0.5667   -1.9792    0.0000 C   0  0  0  0  0  0           0  0  0
   -0.4708   -0.7792    0.0000 C   0  0  0  0  0  0           0  0  0
    0.5667   -0.7792    0.0000 C   0  0  0  0  0  0           0  0  0
   -0.4708   -0.1792    0.0000 C   0  0  0  0  0  0           0  0  0
    0.5667   -0.1792    0.0000 C   0  0  0  0  0  0           0  0  0
    0.0500    0.1208    0.0000 C   0  0  0  0  0  0           0  0  0
  2  7  2  0     0  0
  3  2  1  0     0  0
  4  1  1  0     0  0
  5  1  2  0     0  0
  6  4  2  0     0  0
  7  5  1  0     0  0
  8  3  1  0     0  0
  9  3  2  0     0  0
 10  8  2  0     0  0
 11  9  1  0     0  0
 12 11  2  0     0  0
  2  6  1  0     0  0
 10 12  1  0     0  0
M  END