
  SciTegic01161211212D

 29 32  0  0  0  0            999 V2000
    8.3474  -16.8032    0.0000 N   0  0
    9.7726  -16.7990    0.0000 C   0  0
    9.0600  -16.3864    0.0000 C   0  0
    8.3516  -17.6283    0.0000 C   0  0
    9.0600  -18.0367    0.0000 N   0  0
    9.7768  -17.6241    0.0000 C   0  0
   10.4895  -16.3864    0.0000 C   0  0
   14.0610  -15.1529    0.0000 C   0  0
   11.9148  -16.3864    0.0000 N   0  0
    7.6347  -16.3864    0.0000 C   0  0
    9.0517  -15.5612    0.0000 O   0  0
    7.6347  -18.0367    0.0000 C   0  0
   14.7778  -15.5654    0.0000 C   0  0
   13.3442  -15.5654    0.0000 C   0  0
   14.0652  -14.3277    0.0000 O   0  0
    6.9263  -16.8032    0.0000 C   0  0
    6.9263  -17.6283    0.0000 C   0  0
   11.2021  -16.7990    0.0000 C   0  0
   14.7653  -16.3906    0.0000 C   0  0
   15.4862  -15.1529    0.0000 C   0  0
   12.6274  -15.1529    0.0000 C   0  0
   13.3400  -16.3906    0.0000 C   0  0
   11.9148  -15.5612    0.0000 C   0  0
   12.6274  -16.7990    0.0000 C   0  0
   16.1989  -16.3989    0.0000 C   0  0
   16.1989  -15.5654    0.0000 C   0  0
   15.4779  -16.8032    0.0000 C   0  0
   10.4895  -18.0367    0.0000 C   0  0
   16.9115  -16.8115    0.0000 F   0  0
  2  3  1  0
  3  1  1  0
  4  1  1  0
  5  4  2  0
  6  5  1  0
  7  2  1  0
  8 14  1  0
  9 18  1  0
 10  1  1  0
 11  3  2  0
 12  4  1  0
 13  8  1  0
 14 22  1  0
 15  8  2  0
 16 10  2  0
 17 16  1  0
 18  7  1  0
 19 13  2  0
 20 13  1  0
 21 23  1  0
 22 24  1  0
 23  9  1  0
 24  9  1  0
 25 26  1  0
 26 20  2  0
 27 19  1  0
 28  6  1  0
 29 25  1  0
 12 17  2  0
  6  2  2  0
 21 14  1  0
 27 25  2  0
M  END