
  SciTegic04091416292D

 26 29  0  0  0  0            999 V2000
   13.9360   -6.7896    0.0000 C   0  0  1  0  0  0
   13.5171   -7.5003    0.0000 C   0  0  1  0  0  0
   14.3420   -7.5077    0.0000 C   0  0  1  0  0  0
   13.9433   -5.9646    0.0000 C   0  0
   13.2326   -5.5458    0.0000 O   0  0
   14.6615   -5.5585    0.0000 N   0  0
   15.0528   -7.9266    0.0000 C   0  0
   15.0454   -8.7515    0.0000 C   0  0
   15.7562   -9.1704    0.0000 C   0  0
   16.4742   -8.7644    0.0000 C   0  0
   16.4817   -7.9394    0.0000 C   0  0
   15.7709   -7.5205    0.0000 C   0  0
   15.3723   -5.9774    0.0000 O   0  0
   12.7989   -7.9064    0.0000 C   0  0
   12.0882   -7.4875    0.0000 C   0  0
   11.3700   -7.8936    0.0000 C   0  0
   11.3627   -8.7186    0.0000 C   0  0
   12.0734   -9.1375    0.0000 C   0  0
   12.7915   -8.7313    0.0000 C   0  0
   10.6498   -9.1224    0.0000 C   0  0
    9.9421   -8.7036    0.0000 N   0  0
    9.2276   -9.1072    0.0000 C   0  0
    9.2198   -9.9293    0.0000 C   0  0
    9.9323  -10.3462    0.0000 C   0  0
   10.6439   -9.9403    0.0000 N   0  0
    8.5054  -10.3345    0.0000 F   0  0
  1  2  1  0
  2  3  1  0
  1  3  1  0
  4  5  2  0
  4  6  1  0
  1  4  1  6
  7  8  1  0
  8  9  2  0
  9 10  1  0
 10 11  2  0
 11 12  1  0
  7 12  2  0
  3  7  1  6
  6 13  1  0
 14 15  1  0
 15 16  2  0
 16 17  1  0
 17 18  2  0
 18 19  1  0
 14 19  2  0
  2 14  1  1
 20 21  2  0
 21 22  1  0
 22 23  2  0
 23 24  1  0
 24 25  2  0
 25 20  1  0
 17 20  1  0
 23 26  1  0
M  END