
  SciTegic12171312552D

 39 44  0  0  0  0            999 V2000
   30.5906  -26.0529    0.0000 C   0  0
   31.5796  -26.5711    0.0000 O   0  0
   30.5871  -25.2276    0.0000 C   0  0
   31.1754  -24.6449    0.0000 N   0  0
   30.8029  -23.9054    0.0000 N   0  0
   29.9838  -24.0314    0.0000 N   0  0
   29.8512  -24.8482    0.0000 C   0  0
   29.5701  -23.3176    0.0000 C   0  0
   28.7451  -23.3191    0.0000 C   0  0
   28.3357  -22.6028    0.0000 C   0  0
   27.5115  -22.6039    0.0000 C   0  0
   27.0994  -23.3196    0.0000 C   0  0
   27.5175  -24.0356    0.0000 C   0  0
   28.3404  -24.0311    0.0000 C   0  0
   26.2744  -23.3221    0.0000 C   0  0
   25.8622  -22.6080    0.0000 C   0  0
   25.0380  -22.6102    0.0000 C   0  0
   24.6268  -23.3264    0.0000 C   0  0
   25.0460  -24.0420    0.0000 C   0  0
   25.8689  -24.0363    0.0000 C   0  0
   32.5835  -26.0529    0.0000 C   0  0
   32.0028  -24.6448    0.0000 N   0  0
   32.5835  -25.2244    0.0000 C   0  0
   33.3142  -24.8512    0.0000 C   0  0
   33.1861  -24.0401    0.0000 N   0  0
   32.3746  -23.9135    0.0000 N   0  0
   33.5859  -23.3185    0.0000 C   0  0
   34.4108  -23.3039    0.0000 C   0  0
   34.8333  -24.0099    0.0000 C   0  0
   35.6574  -23.9958    0.0000 C   0  0
   36.0579  -23.2736    0.0000 C   0  0
   35.6285  -22.5642    0.0000 C   0  0
   34.8058  -22.5819    0.0000 C   0  0
   36.8828  -23.2580    0.0000 C   0  0
   37.3069  -23.9669    0.0000 C   0  0
   38.1310  -23.9516    0.0000 C   0  0
   38.5307  -23.2289    0.0000 C   0  0
   38.1002  -22.5201    0.0000 C   0  0
   37.2776  -22.5389    0.0000 C   0  0
  1  3  1  0
  1  2  1  0
  3  4  1  0
  4  5  2  0
  5  6  1  0
  6  7  1  0
  7  3  2  0
  6  8  1  0
  8  9  1  0
  9 10  2  0
 10 11  1  0
 11 12  2  0
 12 13  1  0
 13 14  2  0
 14  9  1  0
 12 15  1  0
 15 16  2  0
 16 17  1  0
 17 18  2  0
 18 19  1  0
 19 20  2  0
 20 15  1  0
  2 21  1  0
 21 23  1  0
 22 23  1  0
 23 24  2  0
 24 25  1  0
 25 26  1  0
 26 22  2  0
 25 27  1  0
 27 28  1  0
 28 29  2  0
 29 30  1  0
 30 31  2  0
 31 32  1  0
 32 33  2  0
 33 28  1  0
 31 34  1  0
 34 35  2  0
 35 36  1  0
 36 37  2  0
 37 38  1  0
 38 39  2  0
 39 34  1  0
M  END