
  SciTegic01161211252D

 19 19  0  0  0  0            999 V2000
    6.8792   -4.3792    0.0000 C   0  0
    7.1667   -3.8542    0.0000 C   0  0
    6.5667   -8.0292    0.0000 N   0  0
    6.5750   -5.9417    0.0000 O   0  0
    5.9667   -5.9417    0.0000 C   0  0
    5.6667   -5.4250    0.0000 C   0  0
    6.8792   -7.5125    0.0000 C   0  0
    6.5750   -6.9875    0.0000 C   0  0
    6.8792   -6.4667    0.0000 C   0  0
    5.9667   -4.9000    0.0000 O   0  0
    6.8750   -8.5542    0.0000 C   0  0
    5.9667   -6.9875    0.0000 O   0  0
    6.5750   -4.9000    0.0000 C   0  0
    5.6667   -6.4625    0.0000 C   0  0
    5.0667   -5.4250    0.0000 C   0  0
    6.5667   -9.0750    0.0000 C   0  0
    7.4792   -8.5542    0.0000 C   0  0
    4.7667   -5.9417    0.0000 C   0  0
    5.0667   -6.4625    0.0000 C   0  0
  2  1  3  0
  3  7  1  0
  4  5  1  0
  5  6  2  0
  6 10  1  0
  7  8  1  0
  8  9  1  0
  9  4  1  0
 10 13  1  0
 11  3  1  0
 12  8  1  0
 13  1  1  0
 14  5  1  0
 15  6  1  0
 16 11  1  0
 17 11  1  0
 18 15  2  0
 19 18  1  0
 14 19  2  0
M  END