
  SciTegic12231509382D

 27 32  0  0  0  0            999 V2000
    5.7250   -0.6667    0.0000 C   0  0  1  0  0  0
    6.0792   -0.0583    0.0000 C   0  0  2  0  0  0
    5.0208   -0.6708    0.0000 C   0  0
    6.0708   -1.2792    0.0000 C   0  0  1  0  0  0
    4.6708   -1.2792    0.0000 C   0  0
    5.4000   -1.7167    0.0000 O   0  0
    5.7292    0.5500    0.0000 C   0  0  2  0  0  0
    6.0833    1.1625    0.0000 N   0  0
    4.6708   -0.0583    0.0000 C   0  0
    5.0208    0.5542    0.0000 C   0  0
    6.7750   -1.2833    0.0000 C   0  0
    5.3667   -0.0500    0.0000 C   0  0
    6.7833   -0.0625    0.0000 C   0  0
    6.6917    1.5208    0.0000 C   0  0
    3.9625   -1.2792    0.0000 C   0  0
    5.3750    1.1625    0.0000 C   0  0
    7.3083    1.1750    0.0000 C   0  0
    7.6708    0.5667    0.0000 C   0  0
    8.0208    1.1833    0.0000 C   0  0
    7.1292   -0.6750    0.0000 C   0  0
    3.9625   -0.0583    0.0000 C   0  0
    6.4292    0.5583    0.0000 O   0  0
    3.6125   -0.6708    0.0000 C   0  0
    7.1250   -1.9000    0.0000 C   0  0
    3.6083   -1.8917    0.0000 O   0  0
    6.3530   -2.2386    0.0000 H   0  0
    5.2320    1.4176    0.0000 H   0  0
  2  1  1  0
  3  1  1  0
  4  1  1  0
  5  3  1  0
  6  4  1  0
  7  2  1  0
  7  8  1  0
  9  3  2  0
 10  7  1  0
 11  4  1  0
  1 12  1  1
 13  2  1  0
 14  8  1  0
 15  5  2  0
 16 12  1  0
 17 14  1  0
 18 17  1  0
 19 17  1  0
 20 13  1  0
 21  9  1  0
  2 22  1  1
 23 21  2  0
 24 11  2  0
 25 15  1  0
  4 26  1  1
 16  8  1  0
  6  5  1  0
 10  9  1  0
 20 11  1  0
 15 23  1  0
 18 19  1  0
  7 27  1  6
M  END