
          11280715512D 1   1.00000     0.00000     0

 41 44  0     0  0            999 V2000
   -4.8720   -8.5078    0.0000 C   0  0  0  0  0  0           0  0  0
   -4.8731   -9.3351    0.0000 C   0  0  0  0  0  0           0  0  0
   -4.1583   -9.7479    0.0000 C   0  0  0  0  0  0           0  0  0
   -4.1601   -8.0950    0.0000 C   0  0  0  0  0  0           0  0  0
   -3.4400   -9.3322    0.0000 C   0  0  0  0  0  0           0  0  0
   -3.4448   -8.5042    0.0000 C   0  0  0  0  0  0           0  0  0
   -2.7977   -7.9783    0.0000 N   0  0  3  0  0  0           0  0  0
   -2.7838   -9.8466    0.0000 C   0  0  0  0  0  0           0  0  0
   -1.9857   -8.1525    0.0000 C   0  0  0  0  0  0           0  0  0
   -1.9732   -9.6536    0.0000 N   0  0  0  0  0  0           0  0  0
   -1.6209   -8.8989    0.0000 N   0  0  3  0  0  0           0  0  0
   -1.4774   -7.5027    0.0000 O   0  0  0  0  0  0           0  0  0
   -2.9602  -10.6525    0.0000 C   0  0  3  0  0  0           0  0  0
   -0.7960   -8.8916    0.0000 C   0  0  0  0  0  0           0  0  0
   -0.3771   -9.6022    0.0000 C   0  0  0  0  0  0           0  0  0
    0.4478   -9.5949    0.0000 N   0  0  0  0  0  0           0  0  0
   -0.7833  -10.3204    0.0000 O   0  0  0  0  0  0           0  0  0
   -2.9902   -7.1761    0.0000 C   0  0  0  0  0  0           0  0  0
   -2.3919   -6.6083    0.0000 C   0  0  0  0  0  0           0  0  0
   -2.5843   -5.8061    0.0000 C   0  0  3  0  0  0           0  0  0
   -1.6009   -6.8427    0.0000 O   0  0  0  0  0  0           0  0  0
   -2.8040   -5.0039    0.0000 C   0  0  0  0  0  0           0  0  0
   -1.7853   -5.6009    0.0000 C   0  0  0  0  0  0           0  0  0
   -3.3816   -6.0181    0.0000 C   0  0  0  0  0  0           0  0  0
    0.8666  -10.3057    0.0000 C   0  0  0  0  0  0           0  0  0
    0.4586  -11.0214    0.0000 C   0  0  0  0  0  0           0  0  0
    0.8767  -11.7317    0.0000 C   0  0  0  0  0  0           0  0  0
    1.7026  -11.7248    0.0000 C   0  0  0  0  0  0           0  0  0
    2.1085  -11.0016    0.0000 C   0  0  0  0  0  0           0  0  0
    1.6879  -10.2944    0.0000 C   0  0  0  0  0  0           0  0  0
    2.9333  -10.9914    0.0000 N   0  0  0  0  0  0           0  0  0
   -3.7439  -10.9021    0.0000 C   0  0  0  0  0  0           0  0  0
   -3.9216  -11.7041    0.0000 C   0  0  0  0  0  0           0  0  0
   -3.3145  -12.2632    0.0000 C   0  0  0  0  0  0           0  0  0
   -2.5268  -12.0147    0.0000 C   0  0  0  0  0  0           0  0  0
   -2.3463  -11.2070    0.0000 C   0  0  0  0  0  0           0  0  0
    3.3369  -10.2719    0.0000 C   0  0  0  0  0  0           0  0  0
    4.1617  -10.2616    0.0000 C   0  0  0  0  0  0           0  0  0
    4.5653   -9.5421    0.0000 O   0  0  0  0  0  0           0  0  0
    5.3902   -9.5318    0.0000 C   0  0  0  0  0  0           0  0  0
    5.7937   -8.8124    0.0000 C   0  0  0  0  0  0           0  0  0
 19 20  1  0     0  0
  8 10  2  0     0  0
 19 21  2  0     0  0
 20 22  1  0     0  0
  9 11  1  0     0  0
 20 23  1  0     0  0
 10 11  1  0     0  0
 20 24  1  0     0  0
  2  3  1  0     0  0
 16 25  1  0     0  0
  9 12  2  0     0  0
 25 26  2  0     0  0
  5  6  1  0     0  0
 26 27  1  0     0  0
  8 13  1  0     0  0
 27 28  2  0     0  0
  3  5  2  0     0  0
 28 29  1  0     0  0
 11 14  1  0     0  0
 29 30  2  0     0  0
 30 25  1  0     0  0
  6  7  1  0     0  0
 29 31  1  0     0  0
 13 32  1  0     0  0
 14 15  1  0     0  0
  1  2  2  0     0  0
 15 16  1  0     0  0
  5  8  1  0     0  0
 15 17  2  0     0  0
 13 36  1  0     0  0
 32 33  1  0     0  0
 33 34  1  0     0  0
 34 35  1  0     0  0
 35 36  1  0     0  0
  6  4  2  0     0  0
 31 37  1  0     0  0
  7 18  1  0     0  0
 37 38  1  0     0  0
  7  9  1  0     0  0
 38 39  1  0     0  0
 18 19  1  0     0  0
 39 40  1  0     0  0
  4  1  1  0     0  0
 40 41  1  0     0  0
M  END