
  SciTegic12231509382D

 20 22  0  0  0  0            999 V2000
    0.0357   -0.2269    0.0000 S   0  0
    0.0357   -2.7019    0.0000 N   0  0
    0.7502    1.0106    0.0000 C   0  0
    0.0357    0.5981    0.0000 C   0  0
    0.7502    1.8356    0.0000 C   0  0
   -0.6787   -0.6394    0.0000 C   0  0
   -0.6787   -1.4644    0.0000 C   0  0
   -0.6787    1.0106    0.0000 C   0  0
    1.4647    0.5981    0.0000 C   0  0
    0.0357    2.2481    0.0000 C   0  0
    1.4647    2.2481    0.0000 C   0  0
   -0.6787    1.8356    0.0000 C   0  0
   -1.3932   -0.2269    0.0000 C   0  0
    2.1791    1.0106    0.0000 C   0  0
    2.1791    1.8356    0.0000 C   0  0
   -1.3932   -1.8769    0.0000 C   0  0
    0.0357   -1.8769    0.0000 C   0  0
   -2.1077   -0.6394    0.0000 C   0  0
   -2.1077   -1.4644    0.0000 C   0  0
    0.7502   -3.1144    0.0000 C   0  0
  1  4  1  0
  1  6  1  0
  2 17  1  0
  2 20  1  0
  3  4  1  0
  3  5  1  0
  3  9  2  0
  4  8  2  0
  5 10  1  0
  5 11  2  0
  6  7  1  0
  6 13  2  0
  7 16  2  0
  7 17  1  0
  8 12  1  0
  9 14  1  0
 10 12  2  0
 11 15  1  0
 13 18  1  0
 14 15  2  0
 16 19  1  0
 18 19  2  0
M  END