
  SciTegic06051313552D

 63 69  0  0  0  0            999 V2000
    9.9089   -2.1244    0.0000 C   0  0
    9.4110   -1.4695    0.0000 C   0  0
    8.5961   -1.5741    0.0000 C   0  0
    8.2756   -2.3348    0.0000 N   0  0
    8.7764   -2.9918    0.0000 C   0  0
    9.5976   -2.8881    0.0000 C   0  0
    7.4571   -2.4387    0.0000 C   0  0
    7.1377   -3.1995    0.0000 C   0  0
    6.3187   -3.2997    0.0000 C   0  0
    5.9993   -4.0596    0.0000 C   0  0
    6.4987   -4.7176    0.0000 C   0  0
    7.3212   -4.6105    0.0000 C   0  0
    7.6368   -3.8504    0.0000 C   0  0
    5.8228   -2.6449    0.0000 C   0  0
    6.1457   -1.8844    0.0000 C   0  0
    5.6488   -1.2265    0.0000 C   0  0
    4.8290   -1.3280    0.0000 C   0  0
    4.5086   -2.0931    0.0000 C   0  0
    5.0074   -2.7477    0.0000 C   0  0
    4.3305   -0.6705    0.0000 Cl  0  0
   13.7566   -4.5717    0.0000 O   0  0
   14.4734   -4.1632    0.0000 S   0  0
   13.7612   -3.7467    0.0000 O   0  0
   14.4015   -0.4787    0.0000 O   0  0
   14.4205   -1.3077    0.0000 S   0  0
   15.1289   -0.8767    0.0000 O   0  0
   13.5965   -1.3262    0.0000 N   0  0
   14.8486   -2.0153    0.0000 C   0  0
   14.4483   -2.7375    0.0000 C   0  0
   14.8747   -3.4430    0.0000 C   0  0
   15.7006   -3.4265    0.0000 C   0  0
   16.0982   -2.6986    0.0000 C   0  0
   15.6695   -1.9960    0.0000 C   0  0
   16.1286   -4.1319    0.0000 N   0  0
   16.9536   -4.1140    0.0000 C   0  0  2  0  0  0
   17.3816   -4.8194    0.0000 C   0  0
   18.2065   -4.8015    0.0000 C   0  0
   18.6346   -5.5069    0.0000 N   0  0
   17.3505   -3.3906    0.0000 C   0  0
   18.1754   -3.3726    0.0000 S   0  0
   18.5724   -2.6492    0.0000 C   0  0
   19.3981   -2.6337    0.0000 C   0  0
   19.7949   -1.9111    0.0000 C   0  0
   19.3668   -1.2047    0.0000 C   0  0
   18.5376   -1.2254    0.0000 C   0  0
   18.1445   -1.9485    0.0000 C   0  0
   19.4553   -5.4830    0.0000 C   0  0
   13.2001   -2.0499    0.0000 C   0  0
   14.9033   -4.8718    0.0000 C   0  0
   14.5051   -5.5945    0.0000 F   0  0
   15.7283   -4.8554    0.0000 F   0  0
   15.3109   -5.5843    0.0000 F   0  0
   12.4067   -3.4914    0.0000 N   0  0
   13.2327   -3.4749    0.0000 C   0  0
   13.6336   -2.7506    0.0000 N   0  0
   11.9799   -2.7881    0.0000 C   0  0
   12.3763   -2.0645    0.0000 C   0  0
   11.9502   -1.3633    0.0000 C   0  0
   11.1260   -1.3796    0.0000 C   0  0
   10.7296   -2.1031    0.0000 N   0  0
   11.1575   -2.8105    0.0000 C   0  0
   18.2404   -6.2317    0.0000 C   0  0
   13.0147   -4.2674    0.0000 Cl  0  0
  1  2  1  0
  1  6  1  0
  2  3  1  0
  3  4  1  0
  4  5  1  0
  5  6  1  0
  4  7  1  0
  7  8  1  0
  8  9  2  0
  9 10  1  0
 10 11  2  0
 11 12  1  0
 12 13  2  0
 13  8  1  0
 14 15  2  0
 15 16  1  0
 16 17  2  0
 17 18  1  0
 18 19  2  0
 19 14  1  0
  9 14  1  0
 17 20  1  0
 22 21  2  0
 23 22  2  0
 25 24  2  0
 26 25  2  0
 27 25  1  0
 25 28  1  0
 28 29  2  0
 29 30  1  0
 30 31  2  0
 31 32  1  0
 32 33  2  0
 33 28  1  0
 31 34  1  0
 34 35  1  0
 35 36  1  0
 36 37  1  0
 37 38  1  0
 35 39  1  1
 39 40  1  0
 40 41  1  0
 41 42  2  0
 42 43  1  0
 43 44  2  0
 44 45  1  0
 45 46  2  0
 46 41  1  0
 38 47  1  0
 27 48  1  0
 30 22  1  0
 22 49  1  0
 49 50  1  0
 49 51  1  0
 49 52  1  0
 48 57  2  0
 48 55  1  0
 56 53  2  0
 53 54  1  0
 54 55  2  0
 56 57  1  0
 56 61  1  0
 57 58  1  0
 58 59  1  0
 59 60  1  0
 60 61  1  0
 60  1  1  0
 38 62  1  0
 54 63  1  0
M  END