
  Mrv0541 09091310052D          

 35 38  0  0  0  0            999 V2000
    7.3986    0.2459    0.0000 C   0  0  0  0  0  0  0  0  0  0  0  0
    7.3974   -0.5815    0.0000 C   0  0  0  0  0  0  0  0  0  0  0  0
    8.1122   -0.9944    0.0000 C   0  0  0  0  0  0  0  0  0  0  0  0
    8.1104    0.6586    0.0000 C   0  0  0  0  0  0  0  0  0  0  0  0
    8.8258    0.2495    0.0000 C   0  0  0  0  0  0  0  0  0  0  0  0
    9.5415   -0.9988    0.0000 C   0  0  0  0  0  0  0  0  0  0  0  0
   10.2642   -0.5856    0.0000 C   0  0  0  0  0  0  0  0  0  0  0  0
   10.2654    0.2474    0.0000 N   0  0  0  0  0  0  0  0  0  0  0  0
    9.5439    0.6673    0.0000 C   0  0  0  0  0  0  0  0  0  0  0  0
   10.9808    0.6582    0.0000 S   0  0  0  0  0  0  0  0  0  0  0  0
   11.6917    1.0750    0.0000 C   0  0  0  0  0  0  0  0  0  0  0  0
   11.3949   -0.0554    0.0000 O   0  0  0  0  0  0  0  0  0  0  0  0
   10.5677    1.3723    0.0000 O   0  0  0  0  0  0  0  0  0  0  0  0
   12.4076    0.6649    0.0000 C   0  0  0  0  0  0  0  0  0  0  0  0
   13.1179    1.0810    0.0000 C   0  0  0  0  0  0  0  0  0  0  0  0
   13.1128    1.9059    0.0000 C   0  0  0  0  0  0  0  0  0  0  0  0
   12.3914    2.3129    0.0000 C   0  0  0  0  0  0  0  0  0  0  0  0
   11.6840    1.8944    0.0000 C   0  0  0  0  0  0  0  0  0  0  0  0
   13.8239    2.3241    0.0000 F   0  0  0  0  0  0  0  0  0  0  0  0
    8.8288   -0.5833    0.0000 C   0  0  0  0  0  0  0  0  0  0  0  0
    9.5380   -1.8238    0.0000 C   0  0  0  0  0  0  0  0  0  0  0  0
    9.9450   -3.0937    0.0000 N   0  0  0  0  0  0  0  0  0  0  0  0
   10.2031   -2.3101    0.0000 C   0  0  0  0  0  0  0  0  0  0  0  0
    9.1200   -3.0902    0.0000 C   0  0  0  0  0  0  0  0  0  0  0  0
    8.8691   -2.3066    0.0000 C   0  0  0  0  0  0  0  0  0  0  0  0
    8.0666   -2.1334    0.0000 C   0  0  0  0  0  0  0  0  0  0  0  0
    7.5142   -2.7430    0.0000 C   0  0  0  0  0  0  0  0  0  0  0  0
    7.7699   -3.5284    0.0000 C   0  0  0  0  0  0  0  0  0  0  0  0
    8.5718   -3.6978    0.0000 C   0  0  0  0  0  0  0  0  0  0  0  0
   10.4272   -3.7631    0.0000 C   0  0  0  0  0  0  0  0  0  0  0  0
   11.2480   -3.6803    0.0000 C   0  0  0  0  0  0  0  0  0  0  0  0
   11.7302   -4.3497    0.0000 O   0  0  0  0  0  0  0  0  0  0  0  0
   11.5867   -2.9280    0.0000 O   0  0  0  0  0  0  0  0  0  0  0  0
    6.6840    0.6582    0.0000 H   0  0  0  0  0  0  0  0  0  0  0  0
    8.1110   -1.8194    0.0000 H   0  0  0  0  0  0  0  0  0  0  0  0
 16 17  1  0  0  0  0
  6  7  1  0  0  0  0
 17 18  2  0  0  0  0
 18 11  1  0  0  0  0
  7  8  1  0  0  0  0
 16 19  1  0  0  0  0
  8  9  1  0  0  0  0
  4  1  1  0  0  0  0
  6 21  1  0  0  0  0
 21 25  1  0  0  0  0
  8 10  1  0  0  0  0
  5 20  1  0  0  0  0
 24 22  1  0  0  0  0
 22 23  1  0  0  0  0
 23 21  2  0  0  0  0
 10 11  1  0  0  0  0
 24 25  2  0  0  0  0
 10 12  2  0  0  0  0
 25 26  1  0  0  0  0
  2  3  1  0  0  0  0
 26 27  2  0  0  0  0
 10 13  2  0  0  0  0
 27 28  1  0  0  0  0
  3 20  2  0  0  0  0
 28 29  2  0  0  0  0
 29 24  1  0  0  0  0
 11 14  2  0  0  0  0
 22 30  1  0  0  0  0
  1  2  2  0  0  0  0
 30 31  1  0  0  0  0
 14 15  1  0  0  0  0
 31 32  1  0  0  0  0
  5  4  2  0  0  0  0
 31 33  2  0  0  0  0
 15 16  2  0  0  0  0
  1 34  1  0  0  0  0
  5  9  1  0  0  0  0
  3 35  1  0  0  0  0
M  ISO  2  34   3  35   3
M  END