
          11280714442D 1   1.00000     0.00000     0

 20 20  0     0  0            999 V2000
    6.5667   -7.3292    0.0000 C   0  0  0  0  0  0           0  0  0
    5.8667   -7.7750    0.0000 C   0  0  0  0  0  0           0  0  0
    7.2917   -7.7125    0.0000 O   0  0  0  0  0  0           0  0  0
   10.1542   -7.5792    0.0000 N   0  0  0  0  0  0           0  0  0
    6.5292   -6.5042    0.0000 O   0  0  0  0  0  0           0  0  0
   10.8417   -7.1375    0.0000 C   0  0  3  0  0  0           0  0  0
    5.1375   -7.3917    0.0000 C   0  0  0  0  0  0           0  0  0
    5.9125   -8.5917    0.0000 C   0  0  0  0  0  0           0  0  0
    3.0542   -8.7292    0.0000 O   0  0  0  0  0  0           0  0  0
    8.7250   -7.6417    0.0000 C   0  0  3  0  0  0           0  0  0
    3.7875   -9.1042    0.0000 C   0  0  0  0  0  0           0  0  0
    7.9917   -7.2667    0.0000 C   0  0  0  0  0  0           0  0  0
    9.4167   -7.2000    0.0000 C   0  0  0  0  0  0           0  0  0
    4.4792   -8.6625    0.0000 C   0  0  0  0  0  0           0  0  0
    4.4417   -7.8417    0.0000 C   0  0  0  0  0  0           0  0  0
    5.2167   -9.0417    0.0000 C   0  0  0  0  0  0           0  0  0
    8.7625   -8.4667    0.0000 O   0  0  0  0  0  0           0  0  0
   11.4042   -6.5292    0.0000 C   0  0  0  0  0  0           0  0  0
   11.5792   -7.5167    0.0000 C   0  0  0  0  0  0           0  0  0
   10.8125   -6.3125    0.0000 C   0  0  0  0  0  0           0  0  0
  2  1  1  0     0  0
  3  1  1  0     0  0
  4 13  1  0     0  0
  5  1  2  0     0  0
  6  4  1  0     0  0
  7  2  2  0     0  0
  8  2  1  0     0  0
  9 11  2  0     0  0
 10 12  1  0     0  0
 11 14  1  0     0  0
 12  3  1  0     0  0
 13 10  1  0     0  0
 14 16  1  0     0  0
 15  7  1  0     0  0
 16  8  2  0     0  0
 17 10  1  0     0  0
 18  6  1  0     0  0
 19  6  1  0     0  0
 20  6  1  0     0  0
 15 14  2  0     0  0
M  END