
          11280715362D 1   1.00000     0.00000     0

 60 65  0     1  0            999 V2000
    2.1167   -7.9167    0.0000 C   0  0  3  0  0  0           0  0  0
    2.9417   -7.7792    0.0000 C   0  0  3  0  0  0           0  0  0
    2.1292   -8.8500    0.0000 C   0  0  3  0  0  0           0  0  0
    8.4542   -4.5000    0.0000 N   0  0  0  0  0  0           0  0  0
    2.6750   -8.3042    0.0000 O   0  0  0  0  0  0           0  0  0
    7.6875   -4.1917    0.0000 C   0  0  0  0  0  0           0  0  0
    7.1792   -2.8625    0.0000 C   0  0  0  0  0  0           0  0  0
    9.2667   -5.9000    0.0000 C   0  0  0  0  0  0           0  0  0
    1.6917   -9.4125    0.0000 C   0  0  3  0  0  0           0  0  0
    6.1500   -4.6667    0.0000 N   0  0  0  0  0  0           0  0  0
    3.6542   -7.3750    0.0000 N   0  0  0  0  0  0           0  0  0
    2.5042   -9.2750    0.0000 C   0  0  3  0  0  0           0  0  0
    9.1417   -6.7167    0.0000 N   0  0  0  0  0  0           0  0  0
    6.8625   -4.2542    0.0000 C   0  0  1  0  0  0           0  0  0
    9.0167   -5.1042    0.0000 C   0  0  1  0  0  0           0  0  0
    6.3625   -7.5667    0.0000 C   0  0  0  0  0  0           0  0  0
    5.6792   -5.3542    0.0000 C   0  0  0  0  0  0           0  0  0
    7.7417   -1.6500    0.0000 N   0  0  0  0  0  0           0  0  0
    7.1375   -7.8667    0.0000 N   0  0  0  0  0  0           0  0  0
    7.0250   -2.0500    0.0000 C   0  0  0  0  0  0           0  0  0
    1.4917   -7.3875    0.0000 N   0  0  0  0  0  0           0  0  0
    4.3667   -6.9625    0.0000 C   0  0  0  0  0  0           0  0  0
    5.8042   -6.9667    0.0000 C   0  0  1  0  0  0           0  0  0
    6.6167   -3.4667    0.0000 C   0  0  0  0  0  0           0  0  0
    8.0042   -2.9625    0.0000 C   0  0  0  0  0  0           0  0  0
    0.7167   -7.6667    0.0000 C   0  0  0  0  0  0           0  0  0
    8.3500   -2.2125    0.0000 C   0  0  0  0  0  0           0  0  0
    5.5542   -6.1750    0.0000 C   0  0  0  0  0  0           0  0  0
    5.0792   -7.3792    0.0000 C   0  0  0  0  0  0           0  0  0
    8.6750   -7.4000    0.0000 C   0  0  1  0  0  0           0  0  0
    7.7625   -3.4625    0.0000 O   0  0  0  0  0  0           0  0  0
   10.0917   -5.8292    0.0000 O   0  0  0  0  0  0           0  0  0
    9.7375   -4.6917    0.0000 C   0  0  0  0  0  0           0  0  0
    5.9000   -8.2542    0.0000 O   0  0  0  0  0  0           0  0  0
    4.9125   -5.0542    0.0000 O   0  0  0  0  0  0           0  0  0
    4.3750   -6.1375    0.0000 O   0  0  0  0  0  0           0  0  0
    0.0875   -7.1292    0.0000 O   0  0  0  0  0  0           0  0  0
    7.9625   -7.8125    0.0000 C   0  0  0  0  0  0           0  0  0
    1.4167   -8.4375    0.0000 O   0  0  0  0  0  0           0  0  0
    0.9792   -9.8292    0.0000 O   0  0  0  0  0  0           0  0  0
    9.2417   -8.0042    0.0000 C   0  0  0  0  0  0           0  0  0
   10.4542   -5.1042    0.0000 C   0  0  0  0  0  0           0  0  0
    3.1292   -9.8125    0.0000 C   0  0  0  0  0  0           0  0  0
    8.9917   -8.7917    0.0000 C   0  0  0  0  0  0           0  0  0
    2.9792  -10.6167    0.0000 O   0  0  0  0  0  0           0  0  0
    8.4792   -3.6375    0.0000 C   0  0  0  0  0  0           0  0  0
    0.4292   -8.3042    0.0000 C   0  0  0  0  0  0           0  0  0
    9.1750   -2.1375    0.0000 C   0  0  0  0  0  0           0  0  0
   11.1667   -4.6917    0.0000 C   0  0  0  0  0  0           0  0  0
   10.4542   -5.9292    0.0000 C   0  0  0  0  0  0           0  0  0
    9.5542   -9.4000    0.0000 C   0  0  0  0  0  0           0  0  0
    8.1875   -8.9792    0.0000 C   0  0  0  0  0  0           0  0  0
    9.3042   -3.5667    0.0000 C   0  0  0  0  0  0           0  0  0
    9.6500   -2.8125    0.0000 C   0  0  0  0  0  0           0  0  0
    7.9417   -9.7667    0.0000 C   0  0  0  0  0  0           0  0  0
   11.8875   -5.1042    0.0000 C   0  0  0  0  0  0           0  0  0
   11.1667   -6.3500    0.0000 C   0  0  0  0  0  0           0  0  0
    9.3125  -10.1917    0.0000 C   0  0  0  0  0  0           0  0  0
   11.8875   -5.9292    0.0000 C   0  0  0  0  0  0           0  0  0
    8.5042  -10.3750    0.0000 C   0  0  0  0  0  0           0  0  0
  2  1  1  0     0  0
  3  1  1  0     0  0
  4  6  1  0     0  0
  5  2  1  0     0  0
  6 14  1  0     0  0
  7 24  1  0     0  0
  8 13  1  0     0  0
  9  3  1  0     0  0
 10 17  1  0     0  0
 11  2  1  0     0  0
 12  9  1  0     0  0
 13 30  1  0     0  0
 14 10  1  0     0  0
 15  4  1  0     0  0
 16 23  1  0     0  0
 17 28  1  0     0  0
 18 20  1  0     0  0
 19 16  1  0     0  0
 20  7  2  0     0  0
 21  1  1  0     0  0
 22 11  1  0     0  0
 23 29  1  6     0  0
 14 24  1  1     0  0
 25  7  1  0     0  0
 26 21  1  0     0  0
 27 25  2  0     0  0
 28 23  1  0     0  0
 29 22  1  0     0  0
 30 38  1  0     0  0
 31  6  2  0     0  0
 32  8  2  0     0  0
 15 33  1  6     0  0
 34 16  2  0     0  0
 35 17  2  0     0  0
 36 22  2  0     0  0
 37 26  2  0     0  0
 38 19  1  0     0  0
 39  3  1  0     0  0
 40  9  1  0     0  0
 30 41  1  6     0  0
 42 33  1  0     0  0
 43 12  1  0     0  0
 44 41  1  0     0  0
 45 43  1  0     0  0
 46 25  1  0     0  0
 47 26  1  0     0  0
 48 27  1  0     0  0
 49 42  1  0     0  0
 50 42  2  0     0  0
 51 44  2  0     0  0
 52 44  1  0     0  0
 53 46  2  0     0  0
 54 53  1  0     0  0
 55 52  2  0     0  0
 56 49  2  0     0  0
 57 50  1  0     0  0
 58 51  1  0     0  0
 59 57  2  0     0  0
 60 55  1  0     0  0
 12  5  1  0     0  0
 15  8  1  0     0  0
 18 27  1  0     0  0
 60 58  2  0     0  0
 54 48  2  0     0  0
 59 56  1  0     0  0
M  END