
  SciTegic10261210422D

 12 12  0  0  0  0            999 V2000
   24.5339  -21.4572    0.0000 N   0  0
   24.5339  -20.6322    0.0000 C   0  0  2  0  0  0
   25.2493  -20.2177    0.0000 C   0  0
   23.8223  -20.2177    0.0000 C   0  0
   23.1068  -20.6322    0.0000 C   0  0
   23.1068  -21.4572    0.0000 C   0  0
   22.3912  -21.8677    0.0000 C   0  0
   21.6757  -21.4572    0.0000 C   0  0
   21.6757  -20.6322    0.0000 C   0  0
   22.3912  -20.2177    0.0000 C   0  0
   20.9642  -21.8677    0.0000 O   0  0
   20.2486  -21.4572    0.0000 C   0  0
  2  1  1  1
  2  3  1  0
  2  4  1  0
  4  5  1  0
  5  6  1  0
  6  7  2  0
  7  8  1  0
  8  9  2  0
  9 10  1  0
  5 10  2  0
 11 12  1  0
  8 11  1  0
M  END