
          11280715132D 1   1.00000     0.00000     0

 25 27  0     1  0            999 V2000
    6.0167   -4.0667    0.0000 N   0  0  3  0  0  0           0  0  0
    5.3417   -4.5667    0.0000 C   0  0  0  0  0  0           0  0  0
    3.9292   -2.8042    0.0000 C   0  0  0  0  0  0           0  0  0
    4.4917   -3.4042    0.0000 C   0  0  0  0  0  0           0  0  0
    6.6000   -2.7667    0.0000 C   0  0  0  0  0  0           0  0  0
    5.9292   -3.2542    0.0000 C   0  0  0  0  0  0           0  0  0
    4.5792   -4.2292    0.0000 C   0  0  2  0  0  0           0  0  0
    3.1250   -2.9792    0.0000 C   0  0  0  0  0  0           0  0  0
    4.1792   -2.0167    0.0000 C   0  0  0  0  0  0           0  0  0
    7.3500   -3.0917    0.0000 C   0  0  0  0  0  0           0  0  0
    6.7667   -4.4042    0.0000 C   0  0  0  0  0  0           0  0  0
    2.5667   -2.3667    0.0000 C   0  0  0  0  0  0           0  0  0
    3.6292   -1.4042    0.0000 C   0  0  0  0  0  0           0  0  0
    5.4375   -5.3917    0.0000 O   0  0  0  0  0  0           0  0  0
    6.5125   -1.9417    0.0000 C   0  0  0  0  0  0           0  0  0
    2.8167   -1.5792    0.0000 C   0  0  0  0  0  0           0  0  0
    7.4375   -3.9167    0.0000 C   0  0  0  0  0  0           0  0  0
    8.0167   -2.6042    0.0000 C   0  0  0  0  0  0           0  0  0
    3.9167   -4.7167    0.0000 N   0  0  0  0  0  0           0  0  0
    7.1792   -1.4542    0.0000 C   0  0  0  0  0  0           0  0  0
    7.9292   -1.7917    0.0000 C   0  0  0  0  0  0           0  0  0
    7.1000   -0.6292    0.0000 F   0  0  0  0  0  0           0  0  0
    2.2542   -0.9667    0.0000 O   0  0  0  0  0  0           0  0  0
    4.9917   -1.8292    0.0000 C   0  0  0  0  0  0           0  0  0
    2.8667   -3.7667    0.0000 C   0  0  0  0  0  0           0  0  0
  2  1  1  0     0  0
  3  4  1  0     0  0
  7  4  1  1     0  0
  5  6  1  0     0  0
  6  1  1  0     0  0
  7  2  1  0     0  0
  8  3  1  0     0  0
  9  3  2  0     0  0
 10 17  1  0     0  0
 11  1  1  0     0  0
 12  8  2  0     0  0
 13  9  1  0     0  0
 14  2  2  0     0  0
 15  5  1  0     0  0
 16 13  2  0     0  0
 17 11  1  0     0  0
 18 10  1  0     0  0
 19  7  1  0     0  0
 20 15  2  0     0  0
 21 18  2  0     0  0
 22 20  1  0     0  0
 23 16  1  0     0  0
 24  9  1  0     0  0
 25  8  1  0     0  0
 10  5  2  0     0  0
 20 21  1  0     0  0
 16 12  1  0     0  0
M  END