
          11280715122D 1   1.00000     0.00000     0

 32 35  0     0  0            999 V2000
    5.0667   -3.5417    0.0000 C   0  0  0  0  0  0           0  0  0
    5.0667   -4.3667    0.0000 C   0  0  0  0  0  0           0  0  0
    8.0750   -8.7000    0.0000 C   0  0  0  0  0  0           0  0  0
    7.5417   -9.9292    0.0000 N   0  0  0  0  0  0           0  0  0
    8.2542   -9.5042    0.0000 N   0  0  0  0  0  0           0  0  0
    6.9292   -9.3917    0.0000 N   0  0  0  0  0  0           0  0  0
    4.3500   -4.7792    0.0000 N   0  0  0  0  0  0           0  0  0
    7.2542   -8.6250    0.0000 N   0  0  0  0  0  0           0  0  0
    8.6250   -8.0792    0.0000 C   0  0  0  0  0  0           0  0  0
    5.7792   -4.7792    0.0000 N   0  0  3  0  0  0           0  0  0
    5.7875   -3.1167    0.0000 C   0  0  0  0  0  0           0  0  0
    8.6250   -7.2542    0.0000 C   0  0  0  0  0  0           0  0  0
    4.3500   -3.1292    0.0000 C   0  0  0  0  0  0           0  0  0
    7.9167   -6.8417    0.0000 C   0  0  0  0  0  0           0  0  0
    5.7750   -5.6042    0.0000 C   0  0  0  0  0  0           0  0  0
    5.7792   -2.2917    0.0000 O   0  0  0  0  0  0           0  0  0
    3.6375   -4.3667    0.0000 C   0  0  0  0  0  0           0  0  0
    7.9125   -6.0167    0.0000 C   0  0  0  0  0  0           0  0  0
    7.2000   -7.2542    0.0000 C   0  0  0  0  0  0           0  0  0
    3.6375   -3.5417    0.0000 C   0  0  0  0  0  0           0  0  0
    6.4917   -6.0167    0.0000 C   0  0  0  0  0  0           0  0  0
    6.5042   -3.5292    0.0000 O   0  0  0  0  0  0           0  0  0
    2.9167   -3.1292    0.0000 N   0  0  0  0  0  0           0  0  0
    7.1917   -5.6042    0.0000 C   0  0  0  0  0  0           0  0  0
    6.4875   -6.8417    0.0000 C   0  0  0  0  0  0           0  0  0
    6.4875   -4.3667    0.0000 C   0  0  0  0  0  0           0  0  0
    9.3375   -8.4917    0.0000 C   0  0  0  0  0  0           0  0  0
    9.3375   -6.8417    0.0000 C   0  0  0  0  0  0           0  0  0
    7.1917   -4.7792    0.0000 C   0  0  0  0  0  0           0  0  0
   10.0542   -8.0792    0.0000 C   0  0  0  0  0  0           0  0  0
   10.0500   -7.2542    0.0000 C   0  0  0  0  0  0           0  0  0
    7.9042   -4.3750    0.0000 C   0  0  0  0  0  0           0  0  0
  2  1  1  0     0  0
  3  9  1  0     0  0
  4  5  2  0     0  0
  5  3  1  0     0  0
  6  8  1  0     0  0
  7  2  2  0     0  0
  8  3  2  0     0  0
  9 12  2  0     0  0
 10  2  1  0     0  0
 11  1  1  0     0  0
 12 14  1  0     0  0
 13  1  2  0     0  0
 14 19  2  0     0  0
 15 10  1  0     0  0
 16 11  2  0     0  0
 17 20  2  0     0  0
 18 24  2  0     0  0
 19 25  1  0     0  0
 20 13  1  0     0  0
 21 15  1  0     0  0
 22 11  1  0     0  0
 23 20  1  0     0  0
 24 21  1  0     0  0
 25 21  2  0     0  0
 26 10  1  0     0  0
 27  9  1  0     0  0
 28 12  1  0     0  0
 29 26  1  0     0  0
 30 31  1  0     0  0
 31 28  2  0     0  0
 32 29  1  0     0  0
 17  7  1  0     0  0
 14 18  1  0     0  0
 27 30  2  0     0  0
  6  4  1  0     0  0
M  END