
  SciTegic06051315212D

 28 30  0  0  0  0            999 V2000
    1.2615   -2.1420    0.0000 C   0  0
    1.2604   -2.9615    0.0000 C   0  0
    1.9684   -3.3705    0.0000 C   0  0
    2.6781   -2.9611    0.0000 C   0  0
    2.6752   -2.1384    0.0000 C   0  0
    1.9666   -1.7331    0.0000 C   0  0
    1.9648   -4.1850    0.0000 N   0  0
    1.2552   -4.5922    0.0000 C   0  0
    1.2531   -5.4058    0.0000 C   0  0
    1.9589   -5.8184    0.0000 N   0  0
    2.6685   -5.4112    0.0000 C   0  0
    2.6723   -4.5914    0.0000 C   0  0
    1.9556   -6.6356    0.0000 C   0  0
    1.9604   -0.9142    0.0000 N   0  3
    1.2515   -0.5077    0.0000 O   0  0
    2.6669   -0.5035    0.0000 O   0  5
    3.3864   -3.3685    0.0000 N   0  0
    4.0935   -2.9588    0.0000 C   0  0
    4.8018   -3.3663    0.0000 C   0  0
    4.0922   -2.1416    0.0000 O   0  0
    4.7985   -4.1820    0.0000 C   0  0
    5.5060   -4.5894    0.0000 C   0  0
    6.2141   -4.1796    0.0000 C   0  0
    6.2101   -3.3582    0.0000 C   0  0
    5.5021   -2.9545    0.0000 C   0  0
    5.4965   -2.1373    0.0000 Cl  0  0
    6.9158   -2.9460    0.0000 C   0  0
    6.9229   -4.5861    0.0000 F   0  0
  1  2  2  0
  2  3  1  0
  3  4  2  0
  4  5  1  0
  5  6  2  0
  6  1  1  0
  7  8  1  0
  7 12  1  0
  8  9  1  0
  9 10  1  0
 10 11  1  0
 11 12  1  0
  3  7  1  0
 10 13  1  0
 14 15  2  0
 14 16  1  0
  6 14  1  0
  4 17  1  0
 17 18  1  0
 18 19  1  0
 18 20  2  0
 19 21  2  0
 21 22  1  0
 22 23  2  0
 23 24  1  0
 24 25  2  0
 25 19  1  0
 25 26  1  0
 24 27  1  0
 23 28  1  0
M  CHG  2  14   1  16  -1
M  END