
  SciTegic11201309402D

 82 87  0  0  0  0            999 V2000
    3.3800   -3.1100    0.0000 C   0  0
    4.7300   -3.8600    0.0000 C   0  0
    6.0600   -3.0800    0.0000 C   0  0
    6.0400   -1.5300    0.0000 C   0  0
    4.6900   -0.7700    0.0000 C   0  0
    3.3600   -1.5700    0.0000 C   0  0
    3.1644    2.2735    0.0000 C   0  0
    0.7200    1.3900    0.0000 C   0  0  2  0  0  0
   -4.5700   -4.7600    0.0000 C   0  0  2  0  0  0
   -3.2155   -6.5099    0.0000 O   0  0
   -3.2300   -5.5100    0.0000 C   0  0
   -5.8570   -5.5310    0.0000 C   0  0
   -5.8335   -7.0317    0.0000 C   0  0
   -6.8629   -7.6485    0.0000 O   0  0
   -0.5500   -5.4700    0.0000 C   0  0  2  0  0  0
    0.5303   -7.5494    0.0000 O   0  0
   -0.5207   -6.9702    0.0000 C   0  0
    0.7600   -4.6900    0.0000 C   0  0
   -1.8050   -7.7468    0.0000 N   0  0
   -1.9160   -9.2299    0.0000 C   0  0  2  0  0  0
   -0.9921  -11.3812    0.0000 O   0  0
   -0.7751  -10.2010    0.0000 C   0  0
   -3.3773   -9.5683    0.0000 C   0  0
   -3.1674   -7.1504    0.0000 C   0  0
   -4.1508   -8.2831    0.0000 C   0  0
    8.3104  -11.1089    0.0000 C   0  0
    1.7820  -10.6712    0.0000 C   0  0  2  0  0  0
    2.4198  -12.9263    0.0000 O   0  0
    1.5075  -12.1467    0.0000 C   0  0
    3.1962  -10.1686    0.0000 C   0  0
    4.3391  -11.1413    0.0000 C   0  0
    5.7533  -10.6388    0.0000 C   0  0
   -0.1816  -14.1232    0.0000 C   0  0
   -1.8158  -15.8039    0.0000 O   0  0
   -1.5964  -14.6242    0.0000 C   0  0
   -5.9200   -2.4400    0.0000 C   0  0
   -5.9300   -0.9000    0.0000 C   0  0  2  0  0  0
   -6.9550   -3.0473    0.0000 O   0  0
   -7.2301   -0.1513    0.0000 C   0  0
   -4.5900    1.3700    0.0000 C   0  0
   -5.6323    1.9647    0.0000 O   0  0
   -3.2700    2.1500    0.0000 C   0  0  2  0  0  0
   -3.2883    3.6503    0.0000 C   0  0
   -4.5967    4.3856    0.0000 C   0  0
   -4.6173    5.8855    0.0000 C   0  0
   -5.9264    6.6177    0.0000 C   0  0
   -7.2151    5.8501    0.0000 C   0  0
   -7.1947    4.3502    0.0000 C   0  0
   -5.8855    3.6180    0.0000 C   0  0
   -0.6000    2.1600    0.0000 C   0  0
   -0.5980    3.3600    0.0000 O   0  0
    0.7400   -0.1100    0.0000 N   0  0
    2.0400   -0.8900    0.0000 C   0  0
    2.0200   -2.3600    0.0000 C   0  0
   -8.2691   -0.7518    0.0000 C   0  0
   -7.2311    1.0487    0.0000 C   0  0
    1.6871    2.5378    0.0000 C   0  0
    1.1763    3.9490    0.0000 C   0  0
   -0.2999    4.2153    0.0000 C   0  0
   -0.8075    5.6268    0.0000 C   0  0
    0.1612    6.7721    0.0000 C   0  0
    1.6373    6.5059    0.0000 C   0  0
    2.1449    5.0944    0.0000 C   0  0
    3.6770    0.8637    0.0000 C   0  0
    5.1541    0.6026    0.0000 C   0  0
    6.1187    1.7513    0.0000 C   0  0
    5.6063    3.1611    0.0000 C   0  0
    4.1292    3.4222    0.0000 C   0  0
    2.0800   -5.4400    0.0000 S   0  0
   -4.5800   -3.2000    0.0000 N   0  0
   -4.7849   -7.6150    0.0000 N   0  0
   -1.9100   -4.7200    0.0000 N   0  0
    6.8962  -11.6115    0.0000 N   0  0
    8.5274   -9.9287    0.0000 N   0  0
    9.2242  -11.8867    0.0000 N   0  0
    0.6390   -9.6984    0.0000 N   0  0
    0.0928  -12.6477    0.0000 N   0  0
   -2.5086  -13.8445    0.0000 N   0  0
   -4.5900   -0.1300    0.0000 N   0  0
   -1.9300    1.3900    0.0000 N   0  0
    3.4000   -4.6500    0.0000 S   0  0
    2.9135   -0.4032    0.0000 O   0  0
 22 21  2  0
 20 23  1  0
 24 25  1  0
 25 23  1  0
 24 19  1  0
 27 29  1  0
 29 28  2  0
 27 30  1  1
 30 31  1  0
 31 32  1  0
 33 35  1  0
 35 34  2  0
 36 37  1  0
 36 38  2  0
 37 39  1  6
 40 41  2  0
 40 42  1  0
 42 43  1  6
 43 44  1  0
 44 45  2  0
 45 46  1  0
 46 47  2  0
 47 48  1  0
 48 49  2  0
 49 44  1  0
 50  8  1  0
 50 51  2  0
  8 52  1  0
 52 53  1  0
 53 54  1  0
 39 55  1  0
 39 56  1  0
  8 57  1  1
 57  7  1  0
 57 58  1  0
 58 59  2  0
 59 60  1  0
 60 61  2  0
 61 62  1  0
 62 63  2  0
 63 58  1  0
  7 64  2  0
 64 65  1  0
 65 66  2  0
 66 67  1  0
 67 68  2  0
 68  7  1  0
 17 19  1  0
  9 11  1  0
 11 10  2  0
  9 12  1  6
 12 13  1  0
 13 14  2  0
 54  1  1  0
  1  2  1  0
  1  6  1  0
  2  3  1  0
  3  4  1  0
  4  5  1  0
  5  6  1  0
 15 17  1  1
 17 16  2  0
 15 18  1  0
 19 20  1  0
 20 22  1  6
 13 71  1  0
 26 75  2  0
 76 27  1  0
 22 76  1  0
 15 72  1  0
 11 72  1  0
 77 33  1  0
 29 77  1  0
 70 36  1  0
 70  9  1  0
 35 78  1  0
 73 26  1  0
 32 73  1  0
 37 79  1  0
 79 40  1  0
 18 69  1  0
 42 80  1  0
 80 50  1  0
 26 74  1  0
  1 81  1  0
 53 82  2  0
 69 81  1  0
M  END