
  SciTegic02271217242D

 41 44  0  0  0  0            999 V2000
   -0.4723  -24.9458    0.0000 C   0  0
   -0.4734  -25.7732    0.0000 C   0  0
    0.2414  -26.1860    0.0000 C   0  0
    0.9578  -25.7727    0.0000 C   0  0
    0.9550  -24.9422    0.0000 C   0  0
    0.2396  -24.5330    0.0000 C   0  0
    1.6679  -24.5270    0.0000 O   0  0
    2.3839  -24.9368    0.0000 C   0  0
    2.3837  -25.7594    0.0000 C   0  0
    3.0988  -26.1692    0.0000 C   0  0
    3.8127  -25.7539    0.0000 C   0  0
    3.8070  -24.9247    0.0000 C   0  0
    3.0912  -24.5187    0.0000 C   0  0
    4.5293  -26.1628    0.0000 Cl  0  0
    3.0838  -23.6937    0.0000 N   0  0
    3.7946  -23.2748    0.0000 S   0  0
    4.5127  -23.6809    0.0000 C   0  0
    3.3750  -22.5542    0.0000 O   0  0
    4.2000  -22.5542    0.0000 O   0  0
    4.5171  -24.5052    0.0000 C   0  0
    5.2344  -24.9113    0.0000 C   0  0
    5.9461  -24.4923    0.0000 C   0  0
    5.9361  -23.6631    0.0000 C   0  0
    5.2182  -23.2608    0.0000 C   0  0
    6.6648  -24.8974    0.0000 Cl  0  0
   -1.1882  -26.1851    0.0000 C   0  0
   -1.9024  -25.7720    0.0000 N   0  0
   -1.1889  -27.0101    0.0000 O   0  0
   -1.9017  -24.9470    0.0000 C   0  0
   -2.6159  -24.5340    0.0000 C   0  0
   -3.3307  -24.9459    0.0000 N   0  0
   -4.0470  -24.5258    0.0000 C   0  0
   -4.7597  -24.9343    0.0000 C   0  0
   -4.7646  -25.7596    0.0000 C   0  0
   -4.0506  -26.1749    0.0000 C   0  0
   -3.3317  -25.7648    0.0000 C   0  0
    6.6453  -23.2417    0.0000 C   0  0
    7.3649  -23.6453    0.0000 F   0  0
    6.6350  -22.4168    0.0000 F   0  0
    7.3542  -22.8250    0.0000 F   0  0
    3.1015  -26.9941    0.0000 C   0  0
 17 20  2  0
  9 10  1  0
 20 21  1  0
  2  3  1  0
 21 22  2  0
 10 11  2  0
 22 23  1  0
  5  6  2  0
 23 24  2  0
 24 17  1  0
 11 12  1  0
 22 25  1  0
  6  1  1  0
  2 26  1  0
 12 13  2  0
 26 27  1  0
 13  8  1  0
 26 28  2  0
  1  2  2  0
 27 29  1  0
 11 14  1  0
 29 30  1  0
  5  7  1  0
 30 31  1  0
 31 32  1  0
 13 15  1  0
  3  4  2  0
 15 16  1  0
  7  8  1  0
 16 17  1  0
 31 36  1  0
 32 33  1  0
 33 34  1  0
 34 35  1  0
 35 36  1  0
 23 37  1  0
 16 18  2  0
 37 38  1  0
  8  9  2  0
 37 39  1  0
 16 19  2  0
 37 40  1  0
  4  5  1  0
 10 41  1  0
M  END