
          11280715492D 1   1.00000     0.00000     0

 24 25  0     0  0            999 V2000
    0.2292  -22.8500    0.0000 C   0  0  0  0  0  0           0  0  0
    0.2292  -23.6750    0.0000 C   0  0  0  0  0  0           0  0  0
    0.9412  -24.0833    0.0000 N   0  0  3  0  0  0           0  0  0
    1.6532  -23.6750    0.0000 C   0  0  0  0  0  0           0  0  0
    1.6532  -22.8500    0.0000 N   0  0  3  0  0  0           0  0  0
    0.9412  -22.4333    0.0000 C   0  0  0  0  0  0           0  0  0
    0.9412  -21.6083    0.0000 O   0  0  0  0  0  0           0  0  0
    2.3671  -24.0885    0.0000 O   0  0  0  0  0  0           0  0  0
    2.3675  -22.4346    0.0000 C   0  0  0  0  0  0           0  0  0
    3.0833  -22.8448    0.0000 C   0  0  0  0  0  0           0  0  0
    3.0832  -23.6678    0.0000 C   0  0  0  0  0  0           0  0  0
    3.7981  -24.0779    0.0000 C   0  0  0  0  0  0           0  0  0
    4.5123  -23.6630    0.0000 C   0  0  0  0  0  0           0  0  0
    4.5070  -22.8338    0.0000 C   0  0  0  0  0  0           0  0  0
    3.7914  -22.4274    0.0000 C   0  0  0  0  0  0           0  0  0
    0.9412  -24.9083    0.0000 C   0  0  0  0  0  0           0  0  0
    0.2267  -25.3208    0.0000 C   0  0  3  0  0  0           0  0  0
    0.2267  -26.1458    0.0000 C   0  0  0  0  0  0           0  0  0
   -0.4878  -24.9083    0.0000 N   0  0  0  0  0  0           0  0  0
   -0.4878  -26.5583    0.0000 O   0  0  0  0  0  0           0  0  0
    0.9412  -26.5583    0.0000 O   0  0  0  0  0  0           0  0  0
    3.7848  -21.6024    0.0000 C   0  0  0  0  0  0           0  0  0
    4.4960  -21.1842    0.0000 O   0  0  0  0  0  0           0  0  0
    3.0671  -21.1957    0.0000 O   0  0  0  0  0  0           0  0  0
 11 12  1  0     0  0
  5  6  1  0     0  0
 12 13  2  0     0  0
 13 14  1  0     0  0
  6  7  2  0     0  0
 14 15  2  0     0  0
 15 10  1  0     0  0
  1  2  2  0     0  0
  3 16  1  0     0  0
  4  8  2  0     0  0
 16 17  1  0     0  0
  1  6  1  0     0  0
 17 18  1  0     0  0
  5  9  1  0     0  0
 17 19  1  0     0  0
  2  3  1  0     0  0
 18 20  1  0     0  0
  9 10  1  0     0  0
 18 21  2  0     0  0
  3  4  1  0     0  0
 15 22  1  0     0  0
 10 11  2  0     0  0
 22 23  1  0     0  0
  4  5  1  0     0  0
 22 24  2  0     0  0
M  END