
  Mrv0541 05211314572D          

 38 42  0  0  0  0            999 V2000
    4.8310   -3.5819    0.0000 C   0  0  0  0  0  0  0  0  0  0  0  0
    5.5455   -3.1694    0.0000 C   0  0  0  0  0  0  0  0  0  0  0  0
    6.2599   -3.5819    0.0000 C   0  0  0  0  0  0  0  0  0  0  0  0
    6.9744   -3.1694    0.0000 N   0  0  0  0  0  0  0  0  0  0  0  0
    6.2599   -4.4069    0.0000 O   0  0  0  0  0  0  0  0  0  0  0  0
    6.9744   -2.3444    0.0000 C   0  0  0  0  0  0  0  0  0  0  0  0
    7.6889   -1.9319    0.0000 C   0  0  0  0  0  0  0  0  0  0  0  0
    8.4034   -2.3444    0.0000 N   0  0  0  0  0  0  0  0  0  0  0  0
    8.4034   -3.1694    0.0000 C   0  0  0  0  0  0  0  0  0  0  0  0
    7.6889   -3.5819    0.0000 C   0  0  0  0  0  0  0  0  0  0  0  0
    9.1178   -1.9319    0.0000 C   0  0  0  0  0  0  0  0  0  0  0  0
    9.1178   -1.1069    0.0000 C   0  0  0  0  0  0  0  0  0  0  0  0
    9.8323   -0.6944    0.0000 C   0  0  0  0  0  0  0  0  0  0  0  0
   10.5468   -1.1069    0.0000 C   0  0  0  0  0  0  0  0  0  0  0  0
   10.5468   -1.9319    0.0000 C   0  0  0  0  0  0  0  0  0  0  0  0
    9.8323   -2.3444    0.0000 C   0  0  0  0  0  0  0  0  0  0  0  0
   11.2612   -0.6944    0.0000 N   0  3  0  0  0  0  0  0  0  0  0  0
   11.9757   -1.1069    0.0000 O   0  0  0  0  0  0  0  0  0  0  0  0
   11.2612    0.1306    0.0000 O   0  5  0  0  0  0  0  0  0  0  0  0
    4.1165   -3.1694    0.0000 N   0  0  0  0  0  0  0  0  0  0  0  0
    4.1165   -2.3444    0.0000 C   0  0  0  0  0  0  0  0  0  0  0  0
    3.4021   -3.5819    0.0000 C   0  0  0  0  0  0  0  0  0  0  0  0
    2.6876   -3.1694    0.0000 C   0  0  0  0  0  0  0  0  0  0  0  0
    1.9731   -3.5819    0.0000 C   0  0  0  0  0  0  0  0  0  0  0  0
    0.6142   -4.8428    0.0000 C   0  0  0  0  0  0  0  0  0  0  0  0
    0.2017   -4.1283    0.0000 C   0  0  0  0  0  0  0  0  0  0  0  0
    0.5031   -3.3603    0.0000 C   0  0  0  0  0  0  0  0  0  0  0  0
    1.2915   -3.1172    0.0000 C   0  0  0  0  0  0  0  0  0  0  0  0
    1.4750   -2.3128    0.0000 C   0  0  0  0  0  0  0  0  0  0  0  0
    0.8703   -1.7517    0.0000 C   0  0  0  0  0  0  0  0  0  0  0  0
    0.0819   -1.9949    0.0000 C   0  0  0  0  0  0  0  0  0  0  0  0
   -0.1016   -2.7992    0.0000 C   0  0  0  0  0  0  0  0  0  0  0  0
    2.0348   -4.4046    0.0000 C   0  0  0  0  0  0  0  0  0  0  0  0
    1.4300   -4.9657    0.0000 C   0  0  0  0  0  0  0  0  0  0  0  0
    1.6136   -5.7701    0.0000 C   0  0  0  0  0  0  0  0  0  0  0  0
    2.4019   -6.0132    0.0000 C   0  0  0  0  0  0  0  0  0  0  0  0
    3.0067   -5.4521    0.0000 C   0  0  0  0  0  0  0  0  0  0  0  0
    2.8231   -4.6478    0.0000 C   0  0  0  0  0  0  0  0  0  0  0  0
 17 19  1  0  0  0  0
 14 17  1  0  0  0  0
  8  9  1  0  0  0  0
  1 20  1  0  0  0  0
  9 10  1  0  0  0  0
 20 21  1  0  0  0  0
  4  6  1  0  0  0  0
 20 22  1  0  0  0  0
  8 11  1  0  0  0  0
 22 23  1  0  0  0  0
  2  3  1  0  0  0  0
 23 24  1  0  0  0  0
 24 33  1  0  0  0  0
 24 28  1  0  0  0  0
 11 12  2  0  0  0  0
 34 25  1  0  0  0  0
  1  2  1  0  0  0  0
 25 26  2  0  0  0  0
 27 26  1  0  0  0  0
 27 28  2  0  0  0  0
 12 13  1  0  0  0  0
  3  4  1  0  0  0  0
 13 14  2  0  0  0  0
 14 15  1  0  0  0  0
  3  5  2  0  0  0  0
 27 32  1  0  0  0  0
 28 29  1  0  0  0  0
 29 30  2  0  0  0  0
 30 31  1  0  0  0  0
 31 32  2  0  0  0  0
 33 34  2  0  0  0  0
 15 16  2  0  0  0  0
 16 11  1  0  0  0  0
  4 10  1  0  0  0  0
  6  7  1  0  0  0  0
  7  8  1  0  0  0  0
 17 18  2  0  0  0  0
 33 38  1  0  0  0  0
 34 35  1  0  0  0  0
 35 36  2  0  0  0  0
 36 37  1  0  0  0  0
 37 38  2  0  0  0  0
M  CHG  2  17   1  19  -1
M  END