
  SciTegic12011114592D

 24 26  0  0  0  0            999 V2000
   18.2694    2.3334    0.0000 C   0  0
   18.2682    1.5060    0.0000 C   0  0
   18.9831    1.0931    0.0000 C   0  0
   18.9813    2.7461    0.0000 C   0  0
   19.6966    2.3370    0.0000 C   0  0
   19.6954    1.5039    0.0000 C   0  0
   20.4123    1.0887    0.0000 C   0  0
   21.1350    1.5019    0.0000 C   0  0
   21.1362    2.3349    0.0000 C   0  0
   20.4147    2.7548    0.0000 O   0  0
   20.4100    0.2637    0.0000 O   0  0
   21.8500    2.7431    0.0000 C   0  0
   22.5637    2.3271    0.0000 C   0  0
   23.2787    2.7372    0.0000 C   0  0
   23.2812    3.5631    0.0000 C   0  0
   22.5627    3.9772    0.0000 C   0  0
   21.8506    3.5647    0.0000 C   0  0
   18.9828    0.2681    0.0000 O   0  0
   21.8483    1.0873    0.0000 O   0  0
   17.5548    2.7457    0.0000 O   0  0
   17.5534    1.0941    0.0000 C   0  0
   17.5528    0.2691    0.0000 C   0  0
   16.8380   -0.1429    0.0000 C   0  0
   18.2669   -0.1440    0.0000 C   0  0
  2  3  1  0
 12 13  2  0
  3  6  2  0
 13 14  1  0
  1  2  2  0
 14 15  2  0
  5  4  2  0
 15 16  1  0
  4  1  1  0
 16 17  2  0
 17 12  1  0
  9 12  1  0
  5 10  1  0
  3 18  1  0
  6  7  1  0
  8 19  1  0
  7  8  1  0
  1 20  1  0
  8  9  2  0
  2 21  1  0
  9 10  1  0
 21 22  2  0
  5  6  1  0
 22 23  1  0
  7 11  2  0
 22 24  1  0
M  END