
  SciTegic09261414532D

 46 53  0  0  0  0            999 V2000
    8.6121  -10.8752    0.0000 C   0  0
    8.6110  -11.6989    0.0000 C   0  0
    9.3231  -12.1078    0.0000 C   0  0
    9.3213  -10.4622    0.0000 C   0  0
   10.0341  -10.8716    0.0000 C   0  0
   10.0389  -11.6943    0.0000 C   0  0
   10.8230  -11.9428    0.0000 N   0  0
   11.3004  -11.2735    0.0000 C   0  0
   10.8153  -10.6100    0.0000 N   0  0
   11.0801  -12.7226    0.0000 C   0  0
   10.5327  -13.3372    0.0000 C   0  0
    9.7299  -13.1654    0.0000 C   0  0
    9.1869  -13.7791    0.0000 C   0  0
    9.4437  -14.5600    0.0000 C   0  0
   10.2529  -14.7235    0.0000 C   0  0
   10.7965  -14.1125    0.0000 C   0  0
   12.1197  -11.2682    0.0000 C   0  0
   12.5360  -11.9793    0.0000 C   0  0
   13.3566  -11.9748    0.0000 C   0  0
   13.7618  -11.2600    0.0000 C   0  0
   13.3446  -10.5483    0.0000 C   0  0
   12.5255  -10.5562    0.0000 C   0  0
   14.5831  -11.2541    0.0000 O   0  0
   15.0009  -11.9630    0.0000 C   0  0
   15.8222  -11.9571    0.0000 C   0  0  1  0  0  0
   16.2359  -12.6660    0.0000 N   0  0
   15.9142  -13.4170    0.0000 C   0  0
   16.5295  -13.9594    0.0000 N   0  0
   17.0585  -12.7435    0.0000 C   0  0
   17.2324  -13.5441    0.0000 C   0  0
   18.0117  -13.7903    0.0000 C   0  0
   18.6179  -13.2369    0.0000 C   0  0
   18.4395  -12.4341    0.0000 C   0  0
   17.6604  -12.1917    0.0000 C   0  0
   16.2257  -11.2423    0.0000 C   0  0
   17.0437  -11.2401    0.0000 C   0  0
   17.4512  -10.5294    0.0000 C   0  0
   17.0369   -9.8181    0.0000 N   0  0
   16.2146   -9.8221    0.0000 C   0  0
   15.8067  -10.5373    0.0000 C   0  0
   15.1179  -13.5947    0.0000 C   0  0
   14.5613  -12.9869    0.0000 C   0  0
   13.7602  -13.1640    0.0000 C   0  0
   13.5145  -13.9484    0.0000 C   0  0
   14.0761  -14.5559    0.0000 C   0  0
   14.8751  -14.3756    0.0000 C   0  0
  1  2  2  0
  2  3  1  0
  3  6  2  0
  5  4  2  0
  4  1  1  0
  5  6  1  0
  6  7  1  0
  7  8  1  0
  8  9  2  0
  9  5  1  0
  7 10  1  0
 10 11  1  0
 11 12  2  0
 12 13  1  0
 13 14  2  0
 14 15  1  0
 15 16  2  0
 16 11  1  0
 17 18  2  0
 18 19  1  0
 19 20  2  0
 20 21  1  0
 21 22  2  0
 22 17  1  0
  8 17  1  0
 20 23  1  0
 23 24  1  0
 24 25  1  0
 25 26  1  0
 26 27  1  0
 27 28  2  0
 28 30  1  0
 29 26  1  0
 29 30  2  0
 30 31  1  0
 31 32  2  0
 32 33  1  0
 33 34  2  0
 34 29  1  0
 25 35  1  6
 35 36  1  0
 35 40  1  0
 36 37  1  0
 37 38  1  0
 38 39  1  0
 39 40  1  0
 41 42  2  0
 42 43  1  0
 43 44  2  0
 44 45  1  0
 45 46  2  0
 46 41  1  0
 27 41  1  0
M  END