
          11280715472D 1   1.00000     0.00000     0

 24 26  0     0  0            999 V2000
    1.8500    2.5708    0.0000 N   0  0  3  0  0  0           0  0  0
   -1.0000   -2.3750    0.0000 N   0  0  3  0  0  0           0  0  0
    1.1375    2.9875    0.0000 C   0  0  0  0  0  0           0  0  0
    1.8500    1.7458    0.0000 C   0  0  0  0  0  0           0  0  0
    0.4167    2.5708    0.0000 C   0  0  0  0  0  0           0  0  0
    1.1375    1.3375    0.0000 C   0  0  0  0  0  0           0  0  0
   -0.2875   -1.9625    0.0000 C   0  0  0  0  0  0           0  0  0
   -0.2875    1.3375    0.0000 O   0  0  0  0  0  0           0  0  0
    2.5667    2.9875    0.0000 C   0  0  3  0  0  0           0  0  0
    0.4167    1.7500    0.0000 C   0  0  3  0  0  0           0  0  0
   -0.2875    0.5125    0.0000 C   0  0  0  0  0  0           0  0  0
   -0.2875   -1.1375    0.0000 C   0  0  0  0  0  0           0  0  0
   -1.0000    0.1000    0.0000 C   0  0  0  0  0  0           0  0  0
    0.4167    0.1083    0.0000 C   0  0  0  0  0  0           0  0  0
    0.4292   -0.7250    0.0000 C   0  0  0  0  0  0           0  0  0
   -1.0000   -0.7250    0.0000 C   0  0  0  0  0  0           0  0  0
   -1.6708   -1.8792    0.0000 C   0  0  0  0  0  0           0  0  0
   -0.9833   -3.1917    0.0000 C   0  0  0  0  0  0           0  0  0
    2.5667    3.8125    0.0000 C   0  0  0  0  0  0           0  0  0
    3.2792    2.5708    0.0000 C   0  0  0  0  0  0           0  0  0
   -2.4875   -2.1167    0.0000 C   0  0  0  0  0  0           0  0  0
   -1.6458   -3.7500    0.0000 C   0  0  0  0  0  0           0  0  0
   -2.7833   -2.8667    0.0000 C   0  0  0  0  0  0           0  0  0
   -2.4208   -3.5875    0.0000 C   0  0  0  0  0  0           0  0  0
  2  7  1  0     0  0
  3  1  1  0     0  0
  4  1  1  0     0  0
  5  3  1  0     0  0
  6  4  1  0     0  0
  7 12  1  0     0  0
  8 10  1  0     0  0
  9  1  1  0     0  0
 10  6  1  0     0  0
 11  8  1  0     0  0
 12 15  2  0     0  0
 13 11  1  0     0  0
 14 11  2  0     0  0
 15 14  1  0     0  0
 16 13  2  0     0  0
 17  2  1  0     0  0
 18  2  1  0     0  0
 19  9  1  0     0  0
 20  9  1  0     0  0
 21 17  1  0     0  0
 22 18  1  0     0  0
 23 21  1  0     0  0
 24 22  1  0     0  0
  5 10  1  0     0  0
 12 16  1  0     0  0
 24 23  1  0     0  0
M  END