
          11280714582D 1   1.00000     0.00000     0

 34 38  0     0  0            999 V2000
    5.4542   -4.2167    0.0000 C   0  0  0  0  0  0           0  0  0
    4.7417   -8.7542    0.0000 C   0  0  0  0  0  0           0  0  0
    6.1750   -3.8042    0.0000 C   0  0  0  0  0  0           0  0  0
    3.9875   -9.0875    0.0000 N   0  0  0  0  0  0           0  0  0
    3.4375   -8.4750    0.0000 N   0  0  0  0  0  0           0  0  0
    4.6542   -7.9292    0.0000 N   0  0  0  0  0  0           0  0  0
    3.8500   -7.7625    0.0000 N   0  0  0  0  0  0           0  0  0
    5.4542   -9.1625    0.0000 C   0  0  0  0  0  0           0  0  0
    5.4542   -5.0417    0.0000 N   0  0  3  0  0  0           0  0  0
    4.7417   -3.8042    0.0000 N   0  0  0  0  0  0           0  0  0
    6.1750   -8.7500    0.0000 C   0  0  0  0  0  0           0  0  0
    6.1750   -2.9792    0.0000 C   0  0  0  0  0  0           0  0  0
    6.8917   -4.2167    0.0000 C   0  0  0  0  0  0           0  0  0
    5.4542   -2.5667    0.0000 N   0  0  0  0  0  0           0  0  0
    4.7417   -2.9792    0.0000 C   0  0  0  0  0  0           0  0  0
    6.1750   -7.9292    0.0000 C   0  0  0  0  0  0           0  0  0
    6.1750   -5.4542    0.0000 C   0  0  0  0  0  0           0  0  0
    5.4542   -7.5167    0.0000 C   0  0  0  0  0  0           0  0  0
    6.8917   -7.5125    0.0000 C   0  0  0  0  0  0           0  0  0
    6.8792   -2.5625    0.0000 C   0  0  0  0  0  0           0  0  0
    7.6042   -3.8000    0.0000 C   0  0  0  0  0  0           0  0  0
    6.1750   -6.2792    0.0000 C   0  0  0  0  0  0           0  0  0
    5.4542   -6.6917    0.0000 C   0  0  0  0  0  0           0  0  0
    6.8875   -6.6917    0.0000 C   0  0  0  0  0  0           0  0  0
    7.6000   -2.9667    0.0000 C   0  0  0  0  0  0           0  0  0
    4.7417   -5.4542    0.0000 C   0  0  0  0  0  0           0  0  0
    8.3167   -4.2042    0.0000 O   0  0  0  0  0  0           0  0  0
    5.4542   -9.9875    0.0000 C   0  0  0  0  0  0           0  0  0
    6.8875   -9.1542    0.0000 C   0  0  0  0  0  0           0  0  0
    4.0292   -5.0417    0.0000 C   0  0  0  0  0  0           0  0  0
    3.3167   -5.4542    0.0000 C   0  0  0  0  0  0           0  0  0
    6.8917   -9.9792    0.0000 C   0  0  0  0  0  0           0  0  0
    6.1750  -10.4000    0.0000 C   0  0  0  0  0  0           0  0  0
    2.6042   -5.0417    0.0000 C   0  0  0  0  0  0           0  0  0
  2  8  1  0     0  0
  3  1  2  0     0  0
  4  2  1  0     0  0
  5  4  2  0     0  0
  6  2  2  0     0  0
  7  6  1  0     0  0
  8 11  2  0     0  0
  9  1  1  0     0  0
 10  1  1  0     0  0
 11 16  1  0     0  0
 12  3  1  0     0  0
 13  3  1  0     0  0
 14 15  1  0     0  0
 15 10  2  0     0  0
 16 19  1  0     0  0
 17  9  1  0     0  0
 18 23  1  0     0  0
 19 24  2  0     0  0
 20 12  1  0     0  0
 21 13  2  0     0  0
 22 17  1  0     0  0
 23 22  2  0     0  0
 24 22  1  0     0  0
 25 21  1  0     0  0
 26  9  1  0     0  0
 27 21  1  0     0  0
 28  8  1  0     0  0
 29 11  1  0     0  0
 30 26  1  0     0  0
 31 30  1  0     0  0
 32 29  2  0     0  0
 33 32  1  0     0  0
 34 31  1  0     0  0
 14 12  2  0     0  0
 20 25  2  0     0  0
 16 18  2  0     0  0
 33 28  2  0     0  0
  5  7  1  0     0  0
M  END