
  CDK    9/16/09,9:47

 45 48  0  0  0  0  0  0  0  0999 V2000
    2.4622   -8.4730    0.0000 C   0  0  0  0  0  0  0  0  0  0  0  0
    1.9797   -7.8041    0.0000 N   0  0  0  0  0  0  0  0  0  0  0  0
    1.1955   -8.0580    0.0000 C   0  0  0  0  0  0  0  0  0  0  0  0
    3.2828   -8.4765    0.0000 C   0  0  0  0  0  0  0  0  0  0  0  0
    3.6967   -9.1881    0.0000 C   0  0  0  0  0  0  0  0  0  0  0  0
    4.5237   -9.1902    0.0000 C   0  0  0  0  0  0  0  0  0  0  0  0
    4.9384   -9.8986    0.0000 C   0  0  0  0  0  0  0  0  0  0  0  0
    5.7633   -9.9024    0.0000 C   0  0  0  0  0  0  0  0  0  0  0  0
    6.1773  -10.6098    0.0000 C   0  0  0  0  0  0  0  0  0  0  0  0
    7.0052  -10.6110    0.0000 C   0  0  0  0  0  0  0  0  0  0  0  0
    7.4150  -11.3243    0.0000 O   0  0  0  0  0  0  0  0  0  0  0  0
    7.4180   -9.8951    0.0000 O   0  0  0  0  0  0  0  0  0  0  0  0
    4.9385   -8.4723    0.0000 O   0  0  0  0  0  0  0  0  0  0  0  0
    6.1763   -9.1847    0.0000 O   0  0  0  0  0  0  0  0  0  0  0  0
    0.4864   -7.6363    0.0000 C   0  0  0  0  0  0  0  0  0  0  0  0
   -0.2392   -8.0467    0.0000 N   0  0  0  0  0  0  0  0  0  0  0  0
    0.4932   -6.8082    0.0000 O   0  0  0  0  0  0  0  0  0  0  0  0
   -0.9606   -7.6214    0.0000 C   0  0  0  0  0  0  0  0  0  0  0  0
    1.9683   -9.1379    0.0000 C   0  0  0  0  0  0  0  0  0  0  0  0
    1.1897   -8.8853    0.0000 C   0  0  0  0  0  0  0  0  0  0  0  0
   -0.9572   -6.7912    0.0000 C   0  0  0  0  0  0  0  0  0  0  0  0
   -1.6701   -6.3788    0.0000 C   0  0  0  0  0  0  0  0  0  0  0  0
   -2.3872   -6.7914    0.0000 C   0  0  0  0  0  0  0  0  0  0  0  0
   -2.3870   -7.6205    0.0000 C   0  0  0  0  0  0  0  0  0  0  0  0
   -1.6693   -8.0333    0.0000 C   0  0  0  0  0  0  0  0  0  0  0  0
    0.4750   -9.3170    0.0000 C   0  0  0  0  0  0  0  0  0  0  0  0
   -3.1004   -6.3789    0.0000 C   0  0  0  0  0  0  0  0  0  0  0  0
   -3.0999   -5.5551    0.0000 O   0  0  0  0  0  0  0  0  0  0  0  0
   -3.8141   -6.7904    0.0000 N   0  0  0  0  0  0  0  0  0  0  0  0
   -4.5273   -6.3779    0.0000 C   0  0  0  0  0  0  0  0  0  0  0  0
   -3.8146   -7.6142    0.0000 C   0  0  0  0  0  0  0  0  0  0  0  0
   -0.2534   -8.9122    0.0000 C   0  0  0  0  0  0  0  0  0  0  0  0
   -0.9675   -9.3430    0.0000 C   0  0  0  0  0  0  0  0  0  0  0  0
   -0.9514  -10.1785    0.0000 C   0  0  0  0  0  0  0  0  0  0  0  0
   -0.2154  -10.5812    0.0000 C   0  0  0  0  0  0  0  0  0  0  0  0
    0.4956  -10.1480    0.0000 C   0  0  0  0  0  0  0  0  0  0  0  0
    1.9847   -9.9616    0.0000 C   0  0  0  0  0  0  0  0  0  0  0  0
    1.2798  -10.3831    0.0000 C   0  0  0  0  0  0  0  0  0  0  0  0
    1.2960  -11.2060    0.0000 C   0  0  0  0  0  0  0  0  0  0  0  0
    2.0182  -11.6043    0.0000 C   0  0  0  0  0  0  0  0  0  0  0  0
    2.7255  -11.1736    0.0000 C   0  0  0  0  0  0  0  0  0  0  0  0
    2.7057  -10.3520    0.0000 C   0  0  0  0  0  0  0  0  0  0  0  0
   -1.6561  -10.6054    0.0000 F   0  0  0  0  0  0  0  0  0  0  0  0
    2.0359  -12.4279    0.0000 F   0  0  0  0  0  0  0  0  0  0  0  0
    2.2359   -7.0212    0.0000 C   0  0  0  0  0  0  0  0  0  0  0  0
  3 20  2  0  0  0  0 
 22 23  2  0  0  0  0 
  1  4  1  0  0  0  0 
 23 24  1  0  0  0  0 
  4  5  1  0  0  0  0 
 24 25  2  0  0  0  0 
 25 18  1  0  0  0  0 
  5  6  1  0  0  0  0 
 20 26  1  0  0  0  0 
  6  7  1  0  0  0  0 
 23 27  1  0  0  0  0 
  7  8  1  0  0  0  0 
 27 28  2  0  0  0  0 
  8  9  1  0  0  0  0 
 27 29  1  0  0  0  0 
  9 10  1  0  0  0  0 
 29 30  1  0  0  0  0 
 10 11  1  0  0  0  0 
 29 31  1  0  0  0  0 
 10 12  2  0  0  0  0 
 26 32  2  0  0  0  0 
  6 13  1  1  0  0  0 
 32 33  1  0  0  0  0 
  8 14  1  1  0  0  0 
 33 34  2  0  0  0  0 
  3 15  1  0  0  0  0 
 34 35  1  0  0  0  0 
 15 16  1  0  0  0  0 
 35 36  2  0  0  0  0 
 36 26  1  0  0  0  0 
 15 17  2  0  0  0  0 
 19 37  1  0  0  0  0 
 16 18  1  0  0  0  0 
 37 38  2  0  0  0  0 
 19 20  1  0  0  0  0 
 38 39  1  0  0  0  0 
 39 40  2  0  0  0  0 
 19  1  2  0  0  0  0 
 40 41  1  0  0  0  0 
  1  2  1  0  0  0  0 
 41 42  2  0  0  0  0 
 42 37  1  0  0  0  0 
 18 21  2  0  0  0  0 
 34 43  1  0  0  0  0 
  2  3  1  0  0  0  0 
 40 44  1  0  0  0  0 
 21 22  1  0  0  0  0 
  2 45  1  0  0  0  0 
M  END