
          11280715462D 1   1.00000     0.00000     0

 24 26  0     0  0            999 V2000
    2.5917   -2.5667    0.0000 N   0  0  3  0  0  0           0  0  0
    7.5875   -1.2542    0.0000 C   0  0  0  0  0  0           0  0  0
    6.8792   -1.6792    0.0000 C   0  0  0  0  0  0           0  0  0
    4.0167   -1.7292    0.0000 N   0  0  3  0  0  0           0  0  0
    1.8875   -2.9792    0.0000 C   0  0  0  0  0  0           0  0  0
    8.3417   -1.5792    0.0000 O   0  0  0  0  0  0           0  0  0
    7.6542   -0.4375    0.0000 C   0  0  0  0  0  0           0  0  0
    3.3042   -2.9667    0.0000 C   0  0  0  0  0  0           0  0  0
    2.5917   -1.7292    0.0000 C   0  0  0  0  0  0           0  0  0
    6.8917   -2.5042    0.0000 O   0  0  0  0  0  0           0  0  0
    8.8792   -0.9625    0.0000 C   0  0  0  0  0  0           0  0  0
    8.4625   -0.2542    0.0000 C   0  0  0  0  0  0           0  0  0
    6.1542   -1.2792    0.0000 N   0  0  0  0  0  0           0  0  0
    1.1667   -2.5750    0.0000 C   0  0  0  0  0  0           0  0  0
    1.8917   -3.8042    0.0000 C   0  0  0  0  0  0           0  0  0
    3.3042   -1.3167    0.0000 C   0  0  0  0  0  0           0  0  0
    4.0167   -2.5667    0.0000 C   0  0  0  0  0  0           0  0  0
    0.4625   -3.8167    0.0000 C   0  0  0  0  0  0           0  0  0
    1.1792   -4.2250    0.0000 C   0  0  0  0  0  0           0  0  0
    0.4542   -2.9917    0.0000 C   0  0  0  0  0  0           0  0  0
    5.4500   -1.7042    0.0000 C   0  0  0  0  0  0           0  0  0
    4.7417   -1.3125    0.0000 C   0  0  0  0  0  0           0  0  0
   -0.2458   -4.2292    0.0000 O   0  0  0  0  0  0           0  0  0
   -0.2458   -5.0542    0.0000 C   0  0  0  0  0  0           0  0  0
  2  3  1  0     0  0
  3 13  1  0     0  0
  4 16  1  0     0  0
  5  1  1  0     0  0
  6  2  1  0     0  0
  7  2  2  0     0  0
  8  1  1  0     0  0
  9  1  1  0     0  0
 10  3  2  0     0  0
 11  6  1  0     0  0
 12  7  1  0     0  0
 13 21  1  0     0  0
 14  5  2  0     0  0
 15  5  1  0     0  0
 16  9  1  0     0  0
 17  8  1  0     0  0
 18 19  1  0     0  0
 19 15  2  0     0  0
 20 14  1  0     0  0
 21 22  1  0     0  0
 22  4  1  0     0  0
 23 18  1  0     0  0
 24 23  1  0     0  0
  4 17  1  0     0  0
 18 20  2  0     0  0
 12 11  2  0     0  0
M  END