
  SciTegic01161211242D

 21 23  0  0  0  0            999 V2000
    2.0473  -19.1684    0.0000 N   0  0
    2.0473  -19.9941    0.0000 C   0  0
    2.7600  -18.7514    0.0000 C   0  0
    3.4725  -19.1684    0.0000 N   0  0
    4.8955  -20.0001    0.0000 C   0  0
    4.8990  -19.1744    0.0000 C   0  0  1  0  0  0
    4.1852  -18.7563    0.0000 C   0  0
    4.1782  -20.4076    0.0000 C   0  0
    3.4717  -19.9930    0.0000 C   0  0
    2.7615  -20.3976    0.0000 C   0  0
    2.7565  -21.2166    0.0000 C   0  0
    3.4679  -21.6293    0.0000 C   0  0
    4.1752  -21.2224    0.0000 C   0  0
    2.7600  -17.9258    0.0000 O   0  0
    5.6163  -18.7654    0.0000 N   0  0
    6.3291  -19.1820    0.0000 C   0  0
    5.6206  -17.9398    0.0000 C   0  0
    6.3377  -17.5308    0.0000 C   0  0
    6.3421  -16.7052    0.0000 C   0  0
    6.3247  -20.0076    0.0000 C   0  0
    7.0375  -20.4242    0.0000 C   0  0
  9 10  1  0
 10 11  2  0
  1  3  1  0
 11 12  1  0
  2 10  1  0
 12 13  2  0
 13  8  1  0
  4  7  1  0
  3 14  2  0
  8  5  1  0
  6 15  1  1
  5  6  1  0
 15 16  1  0
  6  7  1  0
 15 17  1  0
  4  3  1  0
 17 18  1  0
  4  9  1  0
 18 19  1  0
  8  9  2  0
 16 20  1  0
  1  2  1  0
 20 21  1  0
M  END