
  SciTegic09171211542D

 38 40  0  0  0  0            999 V2000
    7.0300  -18.6328    0.0000 C   0  0
    7.7455  -18.2201    0.0000 C   0  0
    8.4580  -18.6346    0.0000 C   0  0
    8.4553  -19.4605    0.0000 C   0  0
    7.7342  -19.8701    0.0000 C   0  0
    7.0248  -19.4532    0.0000 C   0  0
    9.1676  -19.8766    0.0000 C   0  0
    9.1634  -20.7016    0.0000 C   0  0
    9.8758  -21.1147    0.0000 C   0  0
    8.4469  -21.1054    0.0000 C   0  0
   10.5931  -20.7056    0.0000 O   0  0
    9.8736  -21.9333    0.0000 O   0  0
    8.4350  -21.9268    0.0000 O   0  0
    7.7364  -20.6855    0.0000 O   0  0
    6.3169  -18.2179    0.0000 C   0  0
   -0.8253  -19.8985    0.0000 C   0  0
   -0.1088  -19.4852    0.0000 C   0  0
   -0.1117  -18.6547    0.0000 C   0  0
   -0.8271  -18.2455    0.0000 C   0  0
   -1.5401  -19.4857    0.0000 C   0  0
   -1.5388  -18.6568    0.0000 C   0  0
   -2.3268  -18.3994    0.0000 S   0  0
   -2.8151  -19.0693    0.0000 C   0  0
   -2.3288  -19.7406    0.0000 N   0  0
    0.6012  -18.2395    0.0000 N   0  0
    1.3172  -18.6493    0.0000 C   0  0
    2.0302  -18.2341    0.0000 C   0  0
    1.3204  -19.4743    0.0000 O   0  0
    2.7462  -18.6439    0.0000 C   0  0
    3.4591  -18.2287    0.0000 N   0  0
    4.1751  -18.6385    0.0000 C   0  0
    4.8880  -18.2233    0.0000 C   0  0
    4.1782  -19.4635    0.0000 O   0  0
    5.6040  -18.6331    0.0000 C   0  0
   -3.6401  -19.0681    0.0000 S   0  0
   -4.0516  -18.3530    0.0000 C   0  0
   -4.8734  -18.3518    0.0000 C   0  0
   -5.2849  -17.6368    0.0000 C   0  0
 18 19  2  0
 19 21  1  0
 20 21  2  0
  4  5  1  0
  8 10  1  0
  2  3  1  0
  5  6  2  0
  9 11  1  0
 21 22  1  0
 22 23  1  0
 23 24  2  0
 24 20  1  0
  9 12  2  0
 18 25  1  0
  6  1  1  0
 25 26  1  0
  1  2  2  0
 26 27  1  0
 10 13  1  0
 26 28  2  0
 10 14  2  0
 27 29  1  0
  4  7  1  0
 29 30  1  0
  1 15  1  0
 30 31  1  0
  3  4  2  0
 31 32  1  0
 20 16  1  0
 31 33  2  0
  7  8  1  0
 32 34  1  0
 34 15  1  0
 16 17  2  0
 23 35  1  0
 35 36  1  0
 17 18  1  0
 36 37  1  0
  8  9  1  0
 37 38  1  0
M  END