
          11280714522D 1   1.00000     0.00000     0

 31 35  0     1  0            999 V2000
    5.4792   -4.4667    0.0000 S   0  0  3  0  0  0           0  0  0
    5.2792   -5.2667    0.0000 C   0  0  0  0  0  0           0  0  0
    5.6917   -3.6667    0.0000 N   0  0  3  0  0  0           0  0  0
    4.4042   -1.8417    0.0000 C   0  0  2  0  0  0           0  0  0
    4.4000   -2.6667    0.0000 C   0  0  0  0  0  0           0  0  0
    5.1292   -1.4292    0.0000 N   0  0  3  0  0  0           0  0  0
    5.1125   -3.0875    0.0000 C   0  0  1  0  0  0           0  0  0
    5.8667   -5.8292    0.0000 C   0  0  0  0  0  0           0  0  0
    3.6875   -1.4292    0.0000 C   0  0  0  0  0  0           0  0  0
    4.6792   -4.2500    0.0000 O   0  0  0  0  0  0           0  0  0
    6.2750   -4.6792    0.0000 O   0  0  0  0  0  0           0  0  0
    5.8292   -2.6792    0.0000 C   0  0  0  0  0  0           0  0  0
    6.6500   -5.6125    0.0000 N   0  0  0  0  0  0           0  0  0
    5.8417   -1.8500    0.0000 C   0  0  0  0  0  0           0  0  0
    3.6917   -0.6000    0.0000 C   0  0  0  0  0  0           0  0  0
    5.1292   -0.6000    0.0000 C   0  0  0  0  0  0           0  0  0
    4.4042   -0.1792    0.0000 C   0  0  0  0  0  0           0  0  0
    5.6667   -6.6292    0.0000 C   0  0  0  0  0  0           0  0  0
    4.4792   -5.4875    0.0000 C   0  0  0  0  0  0           0  0  0
    6.4917   -3.4542    0.0000 C   0  0  0  0  0  0           0  0  0
    2.9750   -1.8417    0.0000 C   0  0  0  0  0  0           0  0  0
    4.2792   -6.2875    0.0000 C   0  0  0  0  0  0           0  0  0
    7.2375   -6.1750    0.0000 C   0  0  0  0  0  0           0  0  0
    4.8667   -6.8625    0.0000 C   0  0  0  0  0  0           0  0  0
    2.9750   -0.1875    0.0000 C   0  0  0  0  0  0           0  0  0
    6.2542   -7.1917    0.0000 C   0  0  0  0  0  0           0  0  0
    7.0417   -6.9750    0.0000 C   0  0  0  0  0  0           0  0  0
    2.2542   -1.4292    0.0000 C   0  0  0  0  0  0           0  0  0
    2.2542   -0.6000    0.0000 C   0  0  0  0  0  0           0  0  0
    4.3917   -3.4917    0.0000 H   0  0  0  0  0  0           0  0  0
    3.6917   -2.2500    0.0000 H   0  0  0  0  0  0           0  0  0
  2  1  1  0     0  0
  3  1  1  0     0  0
  4  5  1  0     0  0
  5  7  1  0     0  0
  6 14  1  0     0  0
  7  3  1  0     0  0
  8  2  1  0     0  0
  9  4  1  0     0  0
 10  1  2  0     0  0
 11  1  2  0     0  0
 12  7  1  0     0  0
 13  8  2  0     0  0
 14 12  1  0     0  0
 15  9  1  0     0  0
 16  6  1  0     0  0
 17 16  1  0     0  0
 18  8  1  0     0  0
 19  2  2  0     0  0
 20  3  1  0     0  0
 21  9  2  0     0  0
 22 19  1  0     0  0
 23 13  1  0     0  0
 24 22  2  0     0  0
 25 15  2  0     0  0
 26 18  2  0     0  0
 27 26  1  0     0  0
 28 21  1  0     0  0
 29 28  2  0     0  0
  7 30  1  6     0  0
  4 31  1  6     0  0
 24 18  1  0     0  0
  4  6  1  0     0  0
 27 23  2  0     0  0
 17 15  1  0     0  0
 29 25  1  0     0  0
M  END