
  SciTegic11201309402D

 33 37  0  0  0  0            999 V2000
    3.8125   -3.0292    0.0000 N   0  0
    4.5167   -3.9625    0.0000 C   0  0
    4.0292   -4.4250    0.0000 N   0  0
    4.4375   -3.2917    0.0000 C   0  0  2  0  0  0
    3.2792   -3.4375    0.0000 C   0  0
    5.1125   -4.2875    0.0000 N   0  0
    3.7250   -2.3667    0.0000 C   0  0
    2.3625   -2.3625    0.0000 C   0  0
    4.9667   -2.8875    0.0000 C   0  0
    2.3625   -2.9625    0.0000 C   0  0
    2.7250   -3.3417    0.0000 C   0  0  2  0  0  0
    4.3250   -5.0250    0.0000 C   0  0
    4.9875   -4.9500    0.0000 C   0  0
    1.8417   -2.0625    0.0000 C   0  0
    2.8792   -2.0625    0.0000 C   0  0
    4.2625   -1.9625    0.0000 C   0  0
    4.8792   -2.2250    0.0000 C   0  0
    3.2792   -4.0292    0.0000 O   0  0
    2.8792   -1.4542    0.0000 C   0  0
    1.8417   -1.4542    0.0000 C   0  0
    2.3625   -1.1542    0.0000 C   0  0
    2.3500   -3.7792    0.0000 N   0  0
    2.3542   -0.5542    0.0000 O   0  0
    3.4000   -2.3625    0.0000 C   0  0
    1.3250   -2.3625    0.0000 C   0  0
    4.0625   -5.6500    0.0000 C   0  0
    5.3917   -5.4792    0.0000 C   0  0
    5.4125   -1.8167    0.0000 C   0  0
    4.1750   -1.3000    0.0000 C   0  0
    4.7125   -0.8917    0.0000 C   0  0
    4.4667   -6.1875    0.0000 C   0  0
    5.1375   -6.1000    0.0000 C   0  0
    5.3292   -1.1500    0.0000 C   0  0
  4  2  1  1
  3  2  2  0
  4  1  1  0
  5  1  1  0
  6  2  1  0
  7  1  1  0
  8 10  1  0
  9  4  1  0
 11 10  1  0
 11  5  1  0
 12  3  1  0
 13  6  1  0
 14  8  1  0
 15  8  2  0
 16  7  1  0
 17 16  2  0
 18  5  2  0
 19 15  1  0
 20 14  2  0
 21 19  2  0
 11 22  1  1
 23 21  1  0
 24 15  1  0
 25 14  1  0
 26 12  1  0
 27 13  1  0
 28 17  1  0
 29 16  1  0
 30 29  2  0
 31 26  2  0
 32 27  2  0
 33 30  1  0
 17  9  1  0
 12 13  2  0
 33 28  2  0
 32 31  1  0
 20 21  1  0
M  END