
          11280714462D 1   1.00000     0.00000     0

 22 23  0     0  0            999 V2000
    2.9292   -2.9417    0.0000 N   0  0  3  0  0  0           0  0  0
    2.6667   -2.1042    0.0000 C   0  0  0  0  0  0           0  0  0
    3.1917   -2.4042    0.0000 C   0  0  3  0  0  0           0  0  0
    2.4667   -3.7917    0.0000 N   0  0  0  0  0  0           0  0  0
    3.0042   -3.5417    0.0000 C   0  0  0  0  0  0           0  0  0
    2.6667   -1.4917    0.0000 C   0  0  0  0  0  0           0  0  0
    2.3417   -2.8375    0.0000 C   0  0  0  0  0  0           0  0  0
    2.0542   -3.3625    0.0000 C   0  0  0  0  0  0           0  0  0
    3.1917   -1.1875    0.0000 O   0  0  0  0  0  0           0  0  0
    5.3292   -1.7417    0.0000 N   0  0  0  0  0  0           0  0  0
    4.3000   -1.3292    0.0000 C   0  0  3  0  0  0           0  0  0
    3.7167   -1.4875    0.0000 C   0  0  0  0  0  0           0  0  0
    4.7292   -1.7417    0.0000 C   0  0  0  0  0  0           0  0  0
    2.1417   -2.4042    0.0000 C   0  0  0  0  0  0           0  0  0
    4.4417   -0.7417    0.0000 O   0  0  0  0  0  0           0  0  0
    3.7667   -2.2250    0.0000 C   0  0  0  0  0  0           0  0  0
    5.6875   -2.2292    0.0000 C   0  0  3  0  0  0           0  0  0
    2.1417   -1.1917    0.0000 C   0  0  0  0  0  0           0  0  0
    6.2875   -2.1667    0.0000 C   0  0  0  0  0  0           0  0  0
    5.4417   -2.7792    0.0000 C   0  0  0  0  0  0           0  0  0
    1.6250   -2.1042    0.0000 C   0  0  0  0  0  0           0  0  0
    1.6250   -1.5000    0.0000 C   0  0  0  0  0  0           0  0  0
  2  3  1  0     0  0
  3  1  1  0     0  0
  4  5  2  0     0  0
  5  1  1  0     0  0
  6  2  1  0     0  0
  7  1  1  0     0  0
  8  7  2  0     0  0
  9  6  1  0     0  0
 10 13  1  0     0  0
 11 12  1  0     0  0
 12  9  1  0     0  0
 13 11  1  0     0  0
 14  2  2  0     0  0
 15 11  1  0     0  0
 16  3  1  0     0  0
 17 10  1  0     0  0
 18  6  2  0     0  0
 19 17  1  0     0  0
 20 17  1  0     0  0
 21 14  1  0     0  0
 22 21  2  0     0  0
  4  8  1  0     0  0
 22 18  1  0     0  0
M  END