
  SciTegic10191216002D

 29 32  0  0  0  0            999 V2000
   10.3621  -12.8762    0.0000 C   0  0
   10.3609  -13.7036    0.0000 C   0  0
   11.0757  -14.1165    0.0000 C   0  0
   11.7923  -13.7032    0.0000 C   0  0
   11.7894  -12.8725    0.0000 C   0  0
   11.0739  -12.4634    0.0000 C   0  0
   11.0783  -14.9406    0.0000 C   0  0
   11.0723  -16.5898    0.0000 C   0  0
   11.7888  -16.1786    0.0000 N   0  0
   11.7927  -15.3509    0.0000 C   0  0
   10.3598  -16.1732    0.0000 C   0  0
   10.3630  -15.3538    0.0000 C   0  0
    9.6561  -14.9431    0.0000 C   0  0
    8.9455  -15.3507    0.0000 N   0  0
    8.9462  -16.1732    0.0000 C   0  0
    9.6537  -16.5802    0.0000 C   0  0
    8.2323  -16.5867    0.0000 O   0  0
   11.0715  -11.6383    0.0000 O   0  0
   11.7848  -11.2237    0.0000 C   0  0
    7.5172  -16.1750    0.0000 C   0  0
    6.8031  -16.5885    0.0000 C   0  0
    6.0882  -16.1768    0.0000 C   0  0
    5.3741  -16.5903    0.0000 N   0  0
    4.6618  -16.1745    0.0000 C   0  0
    3.9500  -16.5845    0.0000 C   0  0
    3.9468  -17.4098    0.0000 O   0  0
    4.6616  -17.8237    0.0000 C   0  0
    5.3798  -17.4120    0.0000 C   0  0
   12.5019  -16.5938    0.0000 C   0  0
 13 14  2  0
  1  2  2  0
 14 15  1  0
  3  4  2  0
 15 16  2  0
 16 11  1  0
 15 17  1  0
  4  5  1  0
  6 18  1  0
  7 10  1  0
 18 19  1  0
 11  8  1  0
 17 20  1  0
  8  9  1  0
 20 21  1  0
  9 10  1  0
 21 22  1  0
  7  3  1  0
 22 23  1  0
 23 24  1  0
  2  3  1  0
  5  6  2  0
 11 12  2  0
  6  1  1  0
 12 13  1  0
 23 28  1  0
 24 25  1  0
 25 26  1  0
 26 27  1  0
 27 28  1  0
  7 12  1  0
  9 29  1  0
M  END