
  Mrv0541 04051115152D          

 15 16  0  0  0  0            999 V2000
    1.6522    0.9624    0.0000 N   0  0  0  0  0  0  0  0  0  0  0  0
    1.6522    0.1374    0.0000 C   0  0  0  0  0  0  0  0  0  0  0  0
    2.3666   -0.2751    0.0000 N   0  0  0  0  0  0  0  0  0  0  0  0
    2.3666   -1.1001    0.0000 C   0  0  0  0  0  0  0  0  0  0  0  0
    1.6522   -1.5126    0.0000 C   0  0  0  0  0  0  0  0  0  0  0  0
    0.9377   -1.1001    0.0000 C   0  0  0  0  0  0  0  0  0  0  0  0
    0.9377   -0.2751    0.0000 C   0  0  0  0  0  0  0  0  0  0  0  0
    0.2232    0.1374    0.0000 O   0  0  0  0  0  0  0  0  0  0  0  0
   -0.4912   -0.2751    0.0000 C   0  0  0  0  0  0  0  0  0  0  0  0
   -1.2057    0.1374    0.0000 C   0  0  0  0  0  0  0  0  0  0  0  0
   -1.9202   -0.2751    0.0000 C   0  0  0  0  0  0  0  0  0  0  0  0
   -2.6347    0.1374    0.0000 C   0  0  0  0  0  0  0  0  0  0  0  0
   -2.6347    0.9624    0.0000 C   0  0  0  0  0  0  0  0  0  0  0  0
   -1.9202    1.3749    0.0000 C   0  0  0  0  0  0  0  0  0  0  0  0
   -1.2057    0.9624    0.0000 C   0  0  0  0  0  0  0  0  0  0  0  0
  2  1  1  0  0  0  0
  2  3  2  0  0  0  0
  2  7  1  0  0  0  0
  4  3  1  0  0  0  0
  4  5  2  0  0  0  0
  5  6  1  0  0  0  0
  6  7  2  0  0  0  0
  7  8  1  0  0  0  0
  9  8  1  0  0  0  0
 10  9  1  0  0  0  0
 10 11  2  0  0  0  0
 10 15  1  0  0  0  0
 11 12  1  0  0  0  0
 12 13  2  0  0  0  0
 13 14  1  0  0  0  0
 14 15  2  0  0  0  0
M  END