
  SciTegic04091416292D

 17 19  0  0  0  0            999 V2000
    1.2128   -8.0783    0.0000 C   0  0
    1.4439   -8.8646    0.0000 C   0  0
    2.2388   -9.0562    0.0000 C   0  0
    1.7731   -7.4864    0.0000 C   0  0
    2.5675   -7.6743    0.0000 C   0  0
    2.8054   -8.4624    0.0000 C   0  0
    3.2435   -7.2046    0.0000 N   0  0
    3.8992   -7.7022    0.0000 C   0  0
    3.6311   -8.4801    0.0000 C   0  0
    4.1677   -9.0979    0.0000 C   0  0
    4.9753   -8.9435    0.0000 N   0  0
    5.2435   -8.1656    0.0000 C   0  0
    4.7040   -7.5421    0.0000 C   0  0
    5.5104   -9.5612    0.0000 C   0  0
    5.2430  -10.3334    0.0000 C   0  0
    6.3128   -9.4066    0.0000 O   0  0
    0.8805   -9.4566    0.0000 Cl  0  0
  1  2  2  0
  2  3  1  0
  3  6  2  0
  5  4  2  0
  4  1  1  0
  5  6  1  0
  6  9  1  0
  8  7  1  0
  7  5  1  0
  8  9  2  0
  8 13  1  0
  9 10  1  0
 10 11  1  0
 11 12  1  0
 12 13  1  0
 11 14  1  0
 14 15  1  0
 14 16  2  0
  2 17  1  0
M  END