
  SciTegic06051315212D

 30 32  0  0  0  0            999 V2000
   15.6793   -4.6225    0.0000 N   0  0
   16.3871   -4.2139    0.0000 C   0  0
   17.0948   -4.6225    0.0000 S   0  0
   16.3870   -3.3967    0.0000 S   0  0
   14.9718   -4.2117    0.0000 C   0  0
   14.2662   -4.6168    0.0000 C   0  0
   14.2620   -5.4344    0.0000 N   0  0
   14.9695   -5.8451    0.0000 C   0  0
   15.6813   -5.4384    0.0000 C   0  0
   13.5527   -5.8403    0.0000 C   0  0
   12.8466   -5.4290    0.0000 O   0  0
   13.5496   -6.6575    0.0000 O   0  0
   12.1373   -5.8349    0.0000 C   0  0
   11.4312   -5.4237    0.0000 C   0  0
   12.1342   -6.6521    0.0000 C   0  0
   11.4242   -6.2362    0.0000 C   0  0
   17.8025   -4.2139    0.0000 C   0  0
   18.5102   -4.6225    0.0000 C   0  0
   18.5997   -5.4307    0.0000 N   0  0
   19.3990   -5.6006    0.0000 N   0  0
   19.8076   -4.8928    0.0000 N   0  0
   19.2608   -4.2856    0.0000 C   0  0
   20.6238   -4.8908    0.0000 C   0  0
   21.0341   -5.5975    0.0000 C   0  0
   20.6233   -6.3040    0.0000 C   0  0
   21.8511   -7.0087    0.0000 C   0  0
   22.2577   -6.2949    0.0000 C   0  0
   21.8457   -5.5917    0.0000 C   0  0
   21.0324   -7.0080    0.0000 C   0  0
   22.2614   -7.7153    0.0000 C   0  0
  1  2  1  0
  2  3  1  0
  2  4  2  0
  1  5  1  0
  1  9  1  0
  5  6  1  0
  6  7  1  0
  7  8  1  0
  8  9  1  0
  7 10  1  0
 10 11  1  0
 10 12  2  0
 11 13  1  0
 13 14  1  0
 13 15  1  0
 13 16  1  0
  3 17  1  0
 17 18  1  0
 18 19  1  0
 19 20  2  0
 20 21  1  0
 21 22  1  0
 22 18  2  0
 21 23  1  0
 23 24  1  0
 24 25  2  0
 25 29  1  0
 26 27  1  0
 27 28  2  0
 28 24  1  0
 26 29  2  0
 26 30  1  0
M  END