
  SciTegic06271217572D

 19 20  0  0  0  0            999 V2000
   14.6750  -21.3667    0.0000 O   0  0
   15.5000  -21.3667    0.0000 S   0  0
   15.0875  -20.6522    0.0000 O   0  0
   13.3652  -22.6125    0.0000 C   0  0
   13.3641  -23.4398    0.0000 C   0  0
   14.0789  -23.8527    0.0000 N   0  0
   14.7953  -23.4394    0.0000 C   0  0
   14.7925  -22.6088    0.0000 C   0  0
   14.0771  -22.1997    0.0000 N   0  0
   15.5105  -23.8507    0.0000 O   0  0
   16.2243  -23.4371    0.0000 C   0  0
   15.5054  -22.1936    0.0000 N   0  0
   16.2157  -20.9530    0.0000 C   0  0
   16.8923  -21.4189    0.0000 C   0  0
   17.5487  -20.9191    0.0000 C   0  0
   17.2762  -20.1403    0.0000 C   0  0
   16.4515  -20.1590    0.0000 S   0  0
   17.7460  -19.4621    0.0000 Cl  0  0
   12.6493  -23.8518    0.0000 Br  0  0
  7 10  1  0
  5  6  1  0
 10 11  1  0
  8 12  1  0
 12  2  1  0
  6  7  2  0
  2 13  1  0
 13 14  2  0
  2  1  2  0
  7  8  1  0
  4  5  2  0
  8  9  2  0
 14 15  1  0
 15 16  2  0
 16 17  1  0
 17 13  1  0
  9  4  1  0
 16 18  1  0
  3  2  2  0
  5 19  1  0
M  END