
  SciTegic02271514372D

 34 37  0  0  0  0            999 V2000
    8.4389  -18.3568    0.0000 C   0  0
    8.3901  -15.8688    0.0000 C   0  0
    7.0220  -19.1914    0.0000 C   0  0
    7.7233  -17.9519    0.0000 C   0  0
    7.7391  -19.5936    0.0000 C   0  0
    9.0919  -15.4462    0.0000 C   0  0
    5.9064  -18.6849    0.0000 O   0  0
    9.8098  -15.8428    0.0000 C   0  0
    5.4796  -17.9788    0.0000 O   0  0
    6.2998  -17.9651    0.0000 S   0  0
    9.8270  -16.6606    0.0000 C   0  0
    9.1251  -17.0874    0.0000 C   0  0
    7.6667  -15.4737    0.0000 C   0  0
    6.9648  -15.9006    0.0000 C   0  0
    7.6998  -17.1151    0.0000 O   0  0
    6.2800  -17.1411    0.0000 N   0  0
    7.0169  -18.3713    0.0000 C   0  0
    6.9820  -16.7184    0.0000 C   0  0
    8.4496  -19.1783    0.0000 C   0  0
    8.4058  -16.6923    0.0000 C   0  0
    6.2483  -15.5076    0.0000 C   0  0
    6.2304  -14.6906    0.0000 O   0  0
    5.5140  -14.2976    0.0000 C   0  0  1  0  0  0
    4.7287  -12.2795    0.0000 O   0  0
    4.8431  -15.5587    0.0000 O   0  0
    4.7582  -13.0954    0.0000 C   0  0  2  0  0  0
    4.0870  -14.3550    0.0000 C   0  0  1  0  0  0
    6.1779  -13.0490    0.0000 O   0  0
    4.8135  -14.7387    0.0000 C   0  0  1  0  0  0
    5.4810  -13.4812    0.0000 C   0  0  2  0  0  0
    3.3938  -14.7892    0.0000 C   0  0
    4.0631  -13.5332    0.0000 O   0  0
    3.4214  -15.6088    0.0000 O   0  0
    4.0066  -11.8967    0.0000 C   0  0
  4  1  2  0
 13  2  1  0
 14 13  2  0
 17  3  2  0
  1 19  1  0
  2  6  1  0
  5  3  1  0
 17  4  1  0
  2 20  2  0
 18 15  1  0
 10  9  2  0
 10 17  1  0
 18 14  1  0
 18 16  2  0
  8 11  1  0
 19  5  2  0
 16 10  1  0
 20 15  1  0
 12 20  1  0
  6  8  2  0
 11 12  2  0
 10  7  2  0
 14 21  1  0
 21 22  1  0
 23 22  1  1
 26 30  1  0
 26 32  1  0
 27 31  1  1
 29 27  1  0
 29 25  1  1
 31 33  1  0
 27 32  1  0
 26 24  1  6
 23 29  1  0
 30 23  1  0
 30 28  1  6
 24 34  1  0
M  END