
  SciTegic08041117222D

 19 20  0  0  0  0            999 V2000
    5.5633  -10.0591    0.0000 N   0  0
    5.5622  -10.8863    0.0000 C   0  0
    6.2765  -11.2990    0.0000 N   0  0
    6.9925  -10.8854    0.0000 C   0  0
    6.9896  -10.0557    0.0000 C   0  0
    6.2748   -9.6464    0.0000 C   0  0
    6.2725   -8.8214    0.0000 N   0  0
    4.8978  -11.3747    0.0000 N   0  0
    7.7079  -11.2962    0.0000 N   0  0
    7.7998  -12.1124    0.0000 C   0  0
    8.6072  -12.2821    0.0000 C   0  0
    9.0180  -11.5665    0.0000 C   0  0  2  0  0  0
    8.4645  -10.9549    0.0000 C   0  0
    9.8383  -11.4783    0.0000 N   0  0
   10.1720  -10.7238    0.0000 C   0  0
    4.1422  -11.0434    0.0000 C   0  0
    3.4775  -11.5321    0.0000 C   0  0
    2.7221  -11.2008    0.0000 C   0  0
    3.5684  -12.3520    0.0000 C   0  0
  9 10  1  0
  4  5  1  0
  2  3  1  0
  5  6  2  0
  6  1  1  0
 10 11  1  0
 11 12  1  0
 12 13  1  0
 13  9  1  0
  1  2  2  0
 12 14  1  6
  6  7  1  0
 14 15  1  0
  3  4  2  0
  8 16  1  0
  2  8  1  0
 16 17  1  0
 17 18  1  0
  4  9  1  0
 17 19  1  0
M  END