
  SciTegic10191216002D

 30 33  0  0  0  0            999 V2000
   14.3430   -0.3479    0.0000 C   0  0
   14.3418   -1.1747    0.0000 C   0  0
   15.0540   -1.5872    0.0000 C   0  0
   15.0520    0.0644    0.0000 C   0  0
   15.7694   -0.3439    0.0000 C   0  0
   15.7732   -1.1767    0.0000 C   0  0
   16.4921   -1.5876    0.0000 C   0  0
   17.2121   -1.1703    0.0000 N   0  0
   17.2085   -0.3376    0.0000 C   0  0
   16.4848    0.0779    0.0000 C   0  0
   16.4815    0.8995    0.0000 C   0  0
   17.1945    1.3151    0.0000 C   0  0
   17.1900    2.1385    0.0000 C   0  0
   16.4734    2.5471    0.0000 C   0  0
   15.7598    2.1265    0.0000 C   0  0
   15.7677    1.3046    0.0000 C   0  0
   16.4674    3.3713    0.0000 O   0  0
   17.1783    3.7885    0.0000 C   0  0
   17.9271   -1.5802    0.0000 C   0  0
   13.6274   -1.5858    0.0000 O   0  0
   12.9143   -1.1726    0.0000 C   0  0
   12.9155   -0.3484    0.0000 C   0  0
   12.2023    0.0646    0.0000 C   0  0
   12.2035    0.8888    0.0000 N   0  0
   12.9188    1.3013    0.0000 C   0  0
   12.9219    2.1219    0.0000 C   0  0
   12.2106    2.5388    0.0000 C   0  0
   11.4944    2.1290    0.0000 C   0  0
   11.4896    1.3023    0.0000 C   0  0
   12.2150    3.3629    0.0000 F   0  0
 14 15  1  0
  5  4  2  0
 15 16  2  0
 16 11  1  0
 10 11  1  0
  4  1  1  0
 14 17  1  0
  5 10  1  0
 17 18  1  0
  6  7  1  0
  8 19  1  0
  7  8  1  0
  2 20  1  0
  8  9  1  0
 20 21  1  0
  9 10  1  0
 21 22  1  0
  5  6  1  0
 22 23  1  0
 23 24  1  0
 24 25  1  0
 11 12  2  0
  2  3  1  0
 12 13  1  0
  3  6  2  0
 13 14  2  0
 24 29  1  0
 25 26  1  0
 26 27  1  0
 27 28  1  0
 28 29  1  0
  1  2  2  0
 27 30  1  0
M  END