
          11280715072D 1   1.00000     0.00000     0

 25 27  0     0  0            999 V2000
    6.4250   -8.2917    0.0000 C   0  0  0  0  0  0           0  0  0
    5.9042   -8.5917    0.0000 C   0  0  3  0  0  0           0  0  0
    6.4167   -7.6917    0.0000 O   0  0  0  0  0  0           0  0  0
    5.3792   -8.2917    0.0000 C   0  0  0  0  0  0           0  0  0
    6.9417   -8.5917    0.0000 N   0  0  0  0  0  0           0  0  0
    5.9042   -9.1917    0.0000 C   0  0  3  0  0  0           0  0  0
    8.5000   -8.2917    0.0000 N   0  0  0  0  0  0           0  0  0
    9.0167   -8.5917    0.0000 C   0  0  3  0  0  0           0  0  0
    7.4625   -8.2917    0.0000 C   0  0  0  0  0  0           0  0  0
    4.8667   -8.5917    0.0000 C   0  0  0  0  0  0           0  0  0
    5.3792   -7.6917    0.0000 C   0  0  0  0  0  0           0  0  0
    7.9792   -8.5917    0.0000 C   0  0  0  0  0  0           0  0  0
    5.3917   -9.4917    0.0000 C   0  0  0  0  0  0           0  0  0
    6.4250   -9.4917    0.0000 C   0  0  0  0  0  0           0  0  0
    9.0167   -9.1917    0.0000 C   0  0  0  0  0  0           0  0  0
    9.5375   -8.2917    0.0000 C   0  0  0  0  0  0           0  0  0
    4.3500   -8.3000    0.0000 C   0  0  0  0  0  0           0  0  0
    4.8667   -7.3917    0.0000 C   0  0  0  0  0  0           0  0  0
    6.4250  -10.0917    0.0000 C   0  0  0  0  0  0           0  0  0
    5.3917  -10.0917    0.0000 C   0  0  0  0  0  0           0  0  0
   10.0542   -8.6000    0.0000 C   0  0  0  0  0  0           0  0  0
    9.5292   -9.4917    0.0000 C   0  0  0  0  0  0           0  0  0
   10.0542   -9.2000    0.0000 C   0  0  0  0  0  0           0  0  0
    5.9042  -10.3917    0.0000 C   0  0  0  0  0  0           0  0  0
    4.3417   -7.6917    0.0000 C   0  0  0  0  0  0           0  0  0
  2  1  1  0     0  0
  3  1  2  0     0  0
  4  2  1  0     0  0
  5  1  1  0     0  0
  6  2  1  0     0  0
  7 12  1  0     0  0
  8  7  1  0     0  0
  9  5  1  0     0  0
 10  4  1  0     0  0
 11  4  2  0     0  0
 12  9  1  0     0  0
 13  6  1  0     0  0
 14  6  1  0     0  0
 15  8  1  0     0  0
 16  8  1  0     0  0
 17 10  2  0     0  0
 18 11  1  0     0  0
 19 14  1  0     0  0
 20 13  1  0     0  0
 21 16  1  0     0  0
 22 15  1  0     0  0
 23 21  1  0     0  0
 24 19  1  0     0  0
 25 18  2  0     0  0
 24 20  1  0     0  0
 17 25  1  0     0  0
 23 22  1  0     0  0
M  END