
  SciTegic05281310212D

 45 47  0  0  0  0            999 V2000
   -0.7958   -0.9958    0.0000 C   0  0
   -0.7958   -1.8208    0.0000 C   0  0
   -0.0838   -2.2292    0.0000 N   0  0
    0.6282   -1.8208    0.0000 C   0  0
    0.6282   -0.9958    0.0000 N   0  0
   -0.0838   -0.5792    0.0000 C   0  0  1  0  0  0
   -0.0834    0.2450    0.0000 C   0  0
    0.6327    0.6569    0.0000 C   0  0
    0.6331    1.4811    0.0000 C   0  0
   -0.0819    1.8944    0.0000 C   0  0
   -0.7988    1.4775    0.0000 C   0  0
   -0.7956    0.6546    0.0000 C   0  0
   -0.0830    2.7194    0.0000 F   0  0
    1.3478    1.8933    0.0000 F   0  0
   -1.5115   -0.5854    0.0000 C   0  0
   -1.5139    0.2396    0.0000 O   0  0
   -2.2248   -1.0000    0.0000 O   0  0
   -1.5097   -2.2344    0.0000 C   0  0
   -1.5085   -3.0594    0.0000 O   0  0
   -2.2224   -3.4729    0.0000 C   0  0
    1.3421   -2.2344    0.0000 O   0  0
    1.3439   -0.5854    0.0000 C   0  0
    1.3463    0.2396    0.0000 O   0  0
    2.0571   -1.0000    0.0000 N   0  0
    2.7728   -0.5896    0.0000 C   0  0
    3.4861   -1.0042    0.0000 C   0  0
    4.2018   -0.5938    0.0000 C   0  0
    4.9150   -1.0084    0.0000 N   0  0
    4.9079   -1.8343    0.0000 C   0  0
    5.6170   -2.2487    0.0000 C   0  0
    6.3351   -1.8419    0.0000 C   0  0
    6.3395   -1.0159    0.0000 C   0  0
    5.6258   -0.5968    0.0000 C   0  0
    7.0444   -2.2583    0.0000 C   0  0
    7.0375   -3.0844    0.0000 C   0  0
    7.7484   -3.5016    0.0000 C   0  0
    8.4666   -3.0938    0.0000 C   0  0
    8.4695   -2.2646    0.0000 C   0  0
    7.7580   -1.8511    0.0000 C   0  0
    9.1853   -1.8543    0.0000 N   0  0
    9.8984   -2.2691    0.0000 C   0  0
   10.6142   -1.8589    0.0000 C   0  0
    9.8958   -3.0941    0.0000 O   0  0
   -2.9404   -0.5896    0.0000 C   0  0
    3.0687    0.9337    0.0000 Cl  0  0
 10 11  1  0
  5 22  1  0
  4  5  1  0
 22 23  2  0
 11 12  2  0
 22 24  1  0
 12  7  1  0
 24 25  1  0
  6  7  1  6
 25 26  1  0
  5  6  1  0
 26 27  1  0
 10 13  1  0
 27 28  1  0
 28 29  1  0
  9 14  1  0
  1  2  2  0
  1 15  1  0
  7  8  2  0
 28 33  1  0
 29 30  1  0
 30 31  1  0
 31 32  1  0
 32 33  1  0
 15 16  2  0
  1  6  1  0
 34 35  2  0
 15 17  1  0
 35 36  1  0
  8  9  1  0
 36 37  2  0
  2 18  1  0
 37 38  1  0
  2  3  1  0
 38 39  2  0
 39 34  1  0
 31 34  1  0
 18 19  1  0
 38 40  1  0
  9 10  2  0
 40 41  1  0
 19 20  1  0
 41 42  1  0
  3  4  1  0
 41 43  2  0
  4 21  2  0
 17 44  1  0
M  END