
          11280715292D 1   1.00000     0.00000     0

 12 13  0     0  0            999 V2000
    4.6042    0.8000    0.0000 N   0  0  0  0  0  0           0  0  0
    3.8167   -0.2792    0.0000 C   0  0  0  0  0  0           0  0  0
    3.8167    0.5500    0.0000 C   0  0  0  0  0  0           0  0  0
    5.0667    0.1500    0.0000 C   0  0  0  0  0  0           0  0  0
    4.6042   -0.5292    0.0000 C   0  0  3  0  0  0           0  0  0
    5.9500   -2.2542    0.0000 N   0  0  0  0  0  0           0  0  0
    3.1042   -0.7000    0.0000 C   0  0  0  0  0  0           0  0  0
    3.1042    0.9708    0.0000 C   0  0  0  0  0  0           0  0  0
    4.8792   -1.3167    0.0000 C   0  0  0  0  0  0           0  0  0
    5.6875   -1.4792    0.0000 C   0  0  0  0  0  0           0  0  0
    2.3792   -0.2875    0.0000 C   0  0  0  0  0  0           0  0  0
    2.3792    0.5625    0.0000 C   0  0  0  0  0  0           0  0  0
  2  3  2  0     0  0
  3  1  1  0     0  0
  4  1  1  0     0  0
  5  4  1  0     0  0
  6 10  1  0     0  0
  7  2  1  0     0  0
  8  3  1  0     0  0
  9  5  1  0     0  0
 10  9  1  0     0  0
 11 12  1  0     0  0
 12  8  2  0     0  0
  2  5  1  0     0  0
  7 11  2  0     0  0
M  END