
  CDK    9/16/09,9:58

 22 25  0  0  0  0  0  0  0  0999 V2000
   12.0526  -14.3916    0.0000 C   0  0  0  0  0  0  0  0  0  0  0  0
   12.0513  -15.2193    0.0000 C   0  0  0  0  0  0  0  0  0  0  0  0
   12.7643  -15.6321    0.0000 C   0  0  0  0  0  0  0  0  0  0  0  0
   12.7623  -13.9788    0.0000 C   0  0  0  0  0  0  0  0  0  0  0  0
   13.4805  -14.3877    0.0000 C   0  0  0  0  0  0  0  0  0  0  0  0
   13.4810  -15.2146    0.0000 C   0  0  0  0  0  0  0  0  0  0  0  0
   14.2678  -15.4697    0.0000 N   0  0  0  0  0  0  0  0  0  0  0  0
   14.7534  -14.8003    0.0000 C   0  0  0  0  0  0  0  0  0  0  0  0
   14.2668  -14.1316    0.0000 N   0  0  0  0  0  0  0  0  0  0  0  0
   15.5784  -14.7997    0.0000 N   0  0  0  0  0  0  0  0  0  0  0  0
   15.9915  -15.5138    0.0000 C   0  0  0  0  0  0  0  0  0  0  0  0
   15.5790  -16.2250    0.0000 C   0  0  0  0  0  0  0  0  0  0  0  0
   15.9885  -16.9371    0.0000 C   0  0  0  0  0  0  0  0  0  0  0  0
   16.8138  -16.9408    0.0000 C   0  0  0  0  0  0  0  0  0  0  0  0
   16.8169  -15.5079    0.0000 C   0  0  0  0  0  0  0  0  0  0  0  0
   17.2249  -16.2247    0.0000 C   0  0  0  0  0  0  0  0  0  0  0  0
   18.0478  -16.2286    0.0000 C   0  0  0  0  0  0  0  0  0  0  0  0
   18.4636  -15.5166    0.0000 C   0  0  0  0  0  0  0  0  0  0  0  0
   18.0506  -14.7992    0.0000 C   0  0  0  0  0  0  0  0  0  0  0  0
   17.2290  -14.7986    0.0000 C   0  0  0  0  0  0  0  0  0  0  0  0
   18.4637  -14.0851    0.0000 O   0  0  0  0  0  0  0  0  0  0  0  0
   19.2887  -14.0858    0.0000 C   0  0  0  0  0  0  0  0  0  0  0  0
  5  6  1  0  0  0  0 
 10 11  1  0  0  0  0 
 11 12  1  0  0  0  0 
  2  3  1  0  0  0  0 
  3  6  2  0  0  0  0 
 11 15  1  0  0  0  0 
 12 13  1  0  0  0  0 
 13 14  1  0  0  0  0 
 14 16  1  0  0  0  0 
  1  2  2  0  0  0  0 
  5  4  2  0  0  0  0 
 15 16  2  0  0  0  0 
  6  7  1  0  0  0  0 
 16 17  1  0  0  0  0 
  7  8  1  0  0  0  0 
 17 18  2  0  0  0  0 
  8  9  2  0  0  0  0 
 18 19  1  0  0  0  0 
  9  5  1  0  0  0  0 
 19 20  2  0  0  0  0 
 20 15  1  0  0  0  0 
  4  1  1  0  0  0  0 
 19 21  1  0  0  0  0 
  8 10  1  0  0  0  0 
 21 22  1  0  0  0  0 
M  END