
  CDK    9/16/09,9:56

 56 58  0  0  0  0  0  0  0  0999 V2000
   16.2508   -4.0083    0.0000 N   0  0  0  0  0  0  0  0  0  0  0  0
   16.9693   -4.4250    0.0000 C   0  0  0  0  0  0  0  0  0  0  0  0
   17.6837   -4.0125    0.0000 C   0  0  0  0  0  0  0  0  0  0  0  0
   16.9693   -5.2500    0.0000 C   0  0  0  0  0  0  0  0  0  0  0  0
   18.3982   -4.4250    0.0000 N   0  0  0  0  0  0  0  0  0  0  0  0
   17.6837   -3.1875    0.0000 O   0  0  0  0  0  0  0  0  0  0  0  0
   17.6837   -5.6625    0.0000 C   0  0  0  0  0  0  0  0  0  0  0  0
   17.6837   -6.4875    0.0000 C   0  0  0  0  0  0  0  0  0  0  0  0
   18.3982   -6.9000    0.0000 N   0  0  0  0  0  0  0  0  0  0  0  0
   18.3982   -7.7250    0.0000 C   0  0  0  0  0  0  0  0  0  0  0  0
   19.1127   -8.1375    0.0000 N   0  0  0  0  0  0  0  0  0  0  0  0
   17.6837   -8.1375    0.0000 N   0  0  0  0  0  0  0  0  0  0  0  0
   15.5364   -4.4208    0.0000 C   0  0  0  0  0  0  0  0  0  0  0  0
   14.1035   -4.4208    0.0000 N   0  0  0  0  0  0  0  0  0  0  0  0
   14.8180   -4.0083    0.0000 C   0  0  0  0  0  0  0  0  0  0  0  0
   14.8180   -3.1833    0.0000 C   0  0  0  0  0  0  0  0  0  0  0  0
   15.5324   -2.7708    0.0000 C   0  0  0  0  0  0  0  0  0  0  0  0
   15.5324   -1.9458    0.0000 C   0  0  0  0  0  0  0  0  0  0  0  0
   16.2469   -1.5333    0.0000 N   0  0  0  0  0  0  0  0  0  0  0  0
   16.2469   -0.7083    0.0000 C   0  0  0  0  0  0  0  0  0  0  0  0
   16.9614   -0.2958    0.0000 N   0  0  0  0  0  0  0  0  0  0  0  0
   15.5324   -0.2958    0.0000 N   0  0  0  0  0  0  0  0  0  0  0  0
   15.5324   -5.2458    0.0000 O   0  0  0  0  0  0  0  0  0  0  0  0
    5.5637   -4.4165    0.0000 O   0  0  0  0  0  0  0  0  0  0  0  0
    5.5602   -5.2390    0.0000 C   0  0  0  0  0  0  0  0  0  0  0  0
    4.8250   -5.6133    0.0000 C   0  0  0  0  0  0  0  0  0  0  0  0
    4.0918   -5.2368    0.0000 C   0  0  0  0  0  0  0  0  0  0  0  0
    3.9625   -4.4205    0.0000 O   0  0  0  0  0  0  0  0  0  0  0  0
    3.5069   -5.8204    0.0000 C   0  0  0  0  0  0  0  0  0  0  0  0
    2.6909   -5.6880    0.0000 O   0  0  0  0  0  0  0  0  0  0  0  0
    3.8813   -6.5557    0.0000 C   0  0  0  0  0  0  0  0  0  0  0  0
    4.6925   -6.4293    0.0000 O   0  0  0  0  0  0  0  0  0  0  0  0
    3.5048   -7.2889    0.0000 N   0  0  0  0  0  0  0  0  0  0  0  0
    2.6884   -7.4182    0.0000 C   0  0  0  0  0  0  0  0  0  0  0  0
    2.5560   -8.2342    0.0000 N   0  0  0  0  0  0  0  0  0  0  0  0
    3.2943   -8.6078    0.0000 C   0  0  0  0  0  0  0  0  0  0  0  0
    3.5060   -9.4064    0.0000 C   0  0  0  0  0  0  0  0  0  0  0  0
    2.9211   -9.9900    0.0000 N   0  0  0  0  0  0  0  0  0  0  0  0
    4.3024   -9.6214    0.0000 N   0  0  0  0  0  0  0  0  0  0  0  0
    4.8873   -9.0378    0.0000 C   0  0  0  0  0  0  0  0  0  0  0  0
    4.6745   -8.2432    0.0000 N   0  0  0  0  0  0  0  0  0  0  0  0
    3.8781   -8.0282    0.0000 C   0  0  0  0  0  0  0  0  0  0  0  0
    6.2627   -5.6716    0.0000 N   0  0  0  0  0  0  0  0  0  0  0  0
    9.8167   -4.4208    0.0000 C   0  0  0  0  0  0  0  0  0  0  0  0
   10.5311   -4.0083    0.0000 N   0  0  0  0  0  0  0  0  0  0  0  0
    9.0980   -4.0083    0.0000 C   0  0  0  0  0  0  0  0  0  0  0  0
    9.8167   -5.2500    0.0000 O   0  0  0  0  0  0  0  0  0  0  0  0
    8.3794   -4.4208    0.0000 C   0  0  0  0  0  0  0  0  0  0  0  0
    7.6608   -4.0083    0.0000 C   0  0  0  0  0  0  0  0  0  0  0  0
    6.9450   -4.4141    0.0000 C   0  0  0  0  0  0  0  0  0  0  0  0
    6.9660   -5.2425    0.0000 C   0  0  0  0  0  0  0  0  0  0  0  0
   11.2456   -4.4208    0.0000 C   0  0  0  0  0  0  0  0  0  0  0  0
   11.9601   -4.0083    0.0000 C   0  0  0  0  0  0  0  0  0  0  0  0
   12.6746   -4.4208    0.0000 C   0  0  0  0  0  0  0  0  0  0  0  0
   13.3890   -4.0083    0.0000 C   0  0  0  0  0  0  0  0  0  0  0  0
   13.3890   -3.1833    0.0000 O   0  0  0  0  0  0  0  0  0  0  0  0
 16 17  1  0  0  0  0 
  8  9  1  0  0  0  0 
 17 18  1  0  0  0  0 
  3  5  1  0  0  0  0 
 18 19  1  0  0  0  0 
  9 10  1  0  0  0  0 
 19 20  1  0  0  0  0 
  2  3  1  0  0  0  0 
 20 21  2  0  0  0  0 
 24 25  2  0  0  0  0 
 26 25  1  1  0  0  0 
 26 27  1  0  0  0  0 
 27 28  1  6  0  0  0 
 27 29  1  0  0  0  0 
 29 30  1  6  0  0  0 
 29 31  1  0  0  0  0 
 31 32  1  0  0  0  0 
 26 32  1  0  0  0  0 
 31 33  1  1  0  0  0 
 33 34  1  0  0  0  0 
 34 35  2  0  0  0  0 
 35 36  1  0  0  0  0 
 36 37  1  0  0  0  0 
 37 38  1  0  0  0  0 
 37 39  2  0  0  0  0 
 39 40  1  0  0  0  0 
 40 41  2  0  0  0  0 
 41 42  1  0  0  0  0 
 36 42  2  0  0  0  0 
 33 42  1  0  0  0  0 
 10 11  1  0  0  0  0 
 25 43  1  0  0  0  0 
 20 22  1  0  0  0  0 
  3  6  2  0  0  0  0 
 44 45  1  0  0  0  0 
 13 23  2  0  0  0  0 
 44 46  1  0  0  0  0 
 10 12  2  0  0  0  0 
 44 47  2  0  0  0  0 
  1  2  1  0  0  0  0 
 46 48  1  0  0  0  0 
 13  1  1  0  0  0  0 
 48 49  1  0  0  0  0 
  4  7  1  0  0  0  0 
 49 50  1  0  0  0  0 
  2  4  1  1  0  0  0 
 50 51  1  0  0  0  0 
 51 43  1  0  0  0  0 
 14 15  1  0  0  0  0 
 45 52  1  0  0  0  0 
 15 13  1  0  0  0  0 
 52 53  1  0  0  0  0 
  7  8  1  0  0  0  0 
 53 54  1  0  0  0  0 
 15 16  1  6  0  0  0 
 54 55  1  0  0  0  0 
 55 14  1  0  0  0  0 
 55 56  2  0  0  0  0 
M  END