
          11280715272D 1   1.00000     0.00000     0

 66 71  0     0  0            999 V2000
   -3.2875   -1.6875    0.0000 N   0  0  3  0  0  0           0  0  0
    1.0000   -1.7042    0.0000 N   0  0  3  0  0  0           0  0  0
   -3.3458   -2.5042    0.0000 C   0  0  0  0  0  0           0  0  0
    0.4917   -2.3542    0.0000 C   0  0  0  0  0  0           0  0  0
   -2.5708   -1.2792    0.0000 C   0  0  0  0  0  0           0  0  0
    0.2875   -1.2917    0.0000 C   0  0  0  0  0  0           0  0  0
    1.4292   -3.5042    0.0000 C   0  0  0  0  0  0           0  0  0
   -4.8125   -2.7375    0.0000 C   0  0  0  0  0  0           0  0  0
   -3.8958   -1.1292    0.0000 C   0  0  0  0  0  0           0  0  0
    1.8250   -1.6917    0.0000 C   0  0  0  0  0  0           0  0  0
    0.6875   -3.1542    0.0000 C   0  0  0  0  0  0           0  0  0
   -4.0208   -2.9792    0.0000 C   0  0  0  0  0  0           0  0  0
    2.1750   -3.1417    0.0000 N   0  0  0  0  0  0           0  0  0
   -5.1208   -1.9667    0.0000 N   0  0  0  0  0  0           0  0  0
    2.3417   -2.3292    0.0000 C   0  0  0  0  0  0           0  0  0
   -4.7083   -1.2542    0.0000 C   0  0  0  0  0  0           0  0  0
    0.2917    1.1875    0.0000 C   0  0  0  0  0  0           0  0  0
    8.1375    0.7583    0.0000 C   0  0  0  0  0  0           0  0  0
   -0.4333   -1.7000    0.0000 C   0  0  0  0  0  0           0  0  0
   -1.8583   -1.6917    0.0000 C   0  0  0  0  0  0           0  0  0
   -3.5958   -0.3625    0.0000 N   0  0  0  0  0  0           0  0  0
    2.1125   -0.9250    0.0000 N   0  0  0  0  0  0           0  0  0
   -2.5708   -0.4542    0.0000 O   0  0  0  0  0  0           0  0  0
    0.2917   -0.4667    0.0000 O   0  0  0  0  0  0           0  0  0
   -1.1458   -1.2792    0.0000 N   0  0  3  0  0  0           0  0  0
    1.4417   -4.3292    0.0000 O   0  0  0  0  0  0           0  0  0
   -5.3708   -3.3417    0.0000 O   0  0  0  0  0  0           0  0  0
    7.4250    1.1708    0.0000 N   0  0  3  0  0  0           0  0  0
    1.0042    0.7750    0.0000 N   0  0  3  0  0  0           0  0  0
    0.2917    2.0208    0.0000 O   0  0  0  0  0  0           0  0  0
    8.1375   -0.0667    0.0000 O   0  0  0  0  0  0           0  0  0
    0.0875   -3.7167    0.0000 C   0  0  0  0  0  0           0  0  0
   -3.9583   -3.7917    0.0000 C   0  0  0  0  0  0           0  0  0
   -0.2833   -2.1167    0.0000 C   0  0  0  0  0  0           0  0  0
   -2.6083   -2.8542    0.0000 C   0  0  0  0  0  0           0  0  0
   11.7042   -0.4792    0.0000 N   0  0  0  0  0  0           0  0  0
    3.1542   -2.2042    0.0000 C   0  0  0  0  0  0           0  0  0
   -5.2208   -0.6167    0.0000 C   0  0  0  0  0  0           0  0  0
   -0.4208    0.7750    0.0000 C   0  0  0  0  0  0           0  0  0
    8.8542    1.1708    0.0000 C   0  0  0  0  0  0           0  0  0
   -4.1083    0.2833    0.0000 C   0  0  0  0  0  0           0  0  0
    2.9292   -0.7917    0.0000 C   0  0  0  0  0  0           0  0  0
    6.7125    0.7583    0.0000 C   0  0  0  0  0  0           0  0  0
    1.7250    1.1833    0.0000 C   0  0  0  0  0  0           0  0  0
   -1.1375   -0.4542    0.0000 C   0  0  0  0  0  0           0  0  0
    1.0042   -0.0500    0.0000 C   0  0  0  0  0  0           0  0  0
    7.4250    1.9958    0.0000 C   0  0  0  0  0  0           0  0  0
   10.9917   -0.0667    0.0000 C   0  0  0  0  0  0           0  0  0
   -1.1333    1.1958    0.0000 C   0  0  0  0  0  0           0  0  0
    9.5667    0.7583    0.0000 C   0  0  0  0  0  0           0  0  0
    2.4375    0.7708    0.0000 C   0  0  0  0  0  0           0  0  0
    6.0000    1.1708    0.0000 C   0  0  0  0  0  0           0  0  0
   -1.8500   -0.0417    0.0000 C   0  0  0  0  0  0           0  0  0
   10.9917    0.7583    0.0000 C   0  0  0  0  0  0           0  0  0
   -4.9333    0.1500    0.0000 C   0  0  0  0  0  0           0  0  0
    3.4500   -1.4292    0.0000 C   0  0  0  0  0  0           0  0  0
   -3.2083   -4.1417    0.0000 C   0  0  0  0  0  0           0  0  0
   -0.6958   -3.4792    0.0000 C   0  0  0  0  0  0           0  0  0
   -2.5333   -3.6667    0.0000 C   0  0  0  0  0  0           0  0  0
   -0.8833   -2.6792    0.0000 C   0  0  0  0  0  0           0  0  0
    3.8625    0.7708    0.0000 C   0  0  0  0  0  0           0  0  0
    3.1500    1.1833    0.0000 C   0  0  0  0  0  0           0  0  0
   10.2792    1.1708    0.0000 C   0  0  0  0  0  0           0  0  0
   -1.8458    0.7833    0.0000 C   0  0  0  0  0  0           0  0  0
    5.2875    0.7708    0.0000 C   0  0  0  0  0  0           0  0  0
    4.5750    1.1833    0.0000 C   0  0  0  0  0  0           0  0  0
  2  6  1  0     0  0
  3  1  1  0     0  0
  4  2  1  0     0  0
  5  1  1  0     0  0
  6 19  1  0     0  0
  7 11  1  0     0  0
  8 12  1  0     0  0
  9  1  1  0     0  0
 10  2  1  0     0  0
 11  4  2  0     0  0
 12  3  2  0     0  0
 13 15  1  0     0  0
 14 16  1  0     0  0
 15 10  2  0     0  0
 16  9  2  0     0  0
 17 39  1  0     0  0
 18 28  1  0     0  0
 19 25  1  0     0  0
 20  5  1  0     0  0
 21  9  1  0     0  0
 22 10  1  0     0  0
 23  5  2  0     0  0
 24  6  2  0     0  0
 25 20  1  0     0  0
 26  7  2  0     0  0
 27  8  2  0     0  0
 28 43  1  0     0  0
 29 17  1  0     0  0
 30 17  2  0     0  0
 31 18  2  0     0  0
 32 11  1  0     0  0
 33 12  1  0     0  0
 34  4  1  0     0  0
 35  3  1  0     0  0
 36 48  1  0     0  0
 37 15  1  0     0  0
 38 16  1  0     0  0
 39 49  1  0     0  0
 40 18  1  0     0  0
 41 21  2  0     0  0
 42 22  2  0     0  0
 43 52  1  0     0  0
 44 29  1  0     0  0
 45 25  1  0     0  0
 46 29  1  0     0  0
 47 28  1  0     0  0
 48 54  1  0     0  0
 49 64  1  0     0  0
 50 40  1  0     0  0
 51 44  1  0     0  0
 52 65  1  0     0  0
 53 45  1  0     0  0
 54 63  1  0     0  0
 55 41  1  0     0  0
 56 42  1  0     0  0
 57 59  1  0     0  0
 58 60  1  0     0  0
 59 35  2  0     0  0
 60 34  2  0     0  0
 61 62  1  0     0  0
 62 51  1  0     0  0
 63 50  1  0     0  0
 64 53  1  0     0  0
 65 66  1  0     0  0
 66 61  1  0     0  0
  8 14  1  0     0  0
 55 38  2  0     0  0
 33 57  2  0     0  0
  7 13  1  0     0  0
 56 37  2  0     0  0
 32 58  2  0     0  0
M  END