
  SciTegic01161211222D

 30 32  0  0  0  0            999 V2000
   -5.1964   -3.0275    0.0000 C   0  0
   -5.1975   -3.8547    0.0000 C   0  0
   -4.4832   -4.2676    0.0000 C   0  0
   -4.4849   -2.6148    0.0000 C   0  0
   -3.7701   -3.0241    0.0000 C   0  0
   -3.7668   -3.8568    0.0000 C   0  0
   -3.0480   -4.2681    0.0000 O   0  0
   -2.3280   -3.8512    0.0000 C   0  0
   -2.3311   -3.0185    0.0000 C   0  0  1  0  0  0
   -3.0546   -2.6027    0.0000 O   0  0
   -1.6179   -2.6040    0.0000 C   0  0
   -0.9022   -3.0144    0.0000 N   0  0
   -0.1889   -2.5999    0.0000 C   0  0
    0.5267   -3.0103    0.0000 C   0  0
    1.2399   -2.5958    0.0000 O   0  0
    1.9556   -3.0062    0.0000 C   0  0
    1.9530   -3.8301    0.0000 C   0  0
    2.6677   -4.2405    0.0000 C   0  0
    3.3820   -3.8259    0.0000 C   0  0
    1.2383   -4.2424    0.0000 O   0  0
    1.2380   -5.0673    0.0000 C   0  0
    2.6616   -2.5900    0.0000 C   0  0
    3.3749   -2.9997    0.0000 C   0  0
    4.0987   -4.2345    0.0000 C   0  0
    4.0994   -5.0600    0.0000 C   0  0
    4.8152   -5.4685    0.0000 C   0  0
    5.5284   -5.0520    0.0000 C   0  0
    5.5212   -4.2228    0.0000 C   0  0
    4.8048   -3.8180    0.0000 C   0  0
   -1.2608   -2.0703    0.0000 Cl  0  0
 13 14  1  0
  2  3  1  0
 14 15  1  0
  3  6  2  0
 15 16  1  0
 16 17  2  0
  5  4  2  0
 17 18  1  0
  5 10  1  0
 18 19  2  0
 19 23  1  0
 22 16  1  0
  6  7  1  0
 17 20  1  0
  7  8  1  0
 20 21  1  0
 22 23  2  0
  8  9  1  0
  9 10  1  0
  4  1  1  0
 19 24  1  0
  9 11  1  1
 24 25  2  0
  5  6  1  0
 25 26  1  0
 11 12  1  0
 26 27  2  0
  1  2  2  0
 27 28  1  0
 12 13  1  0
 28 29  2  0
 29 24  1  0
M  END