
  SciTegic09291412002D

 71 73  0  0  0  0            999 V2000
    9.1935   -7.4102    0.0000 S   0  0
    6.3351   -7.4102    0.0000 O   0  0
    7.7645  -12.3599    0.0000 C   0  0
   11.3393   -8.6476    0.0000 C   0  0
    4.8899   -5.5174    0.0000 N   0  0
    7.0476   -6.1726    0.0000 N   0  0
    8.4769  -11.1224    0.0000 C   0  0  1  0  0  0
    7.7643   -7.4102    0.0000 C   0  0  1  0  0  0
   10.6255   -7.4064    0.0000 C   0  0
    1.3383   -4.2132    0.0000 N   0  0
    5.5767   -6.7645    0.0000 O   0  0
   10.6255   -6.5729    0.0000 C   0  0
   12.0518  -10.7100    0.0000 C   0  0
    9.6913  -12.5661    0.0000 C   0  0
    8.4769  -11.9474    0.0000 C   0  0  2  0  0  0
   14.1977   -9.4725    0.0000 C   0  0
    5.6184   -8.6476    0.0000 O   0  0
   14.1977  -11.1224    0.0000 C   0  0
    6.3786   -5.6857    0.0000 C   0  0  2  0  0  0
   15.6224  -11.1224    0.0000 O   0  0
    4.9042   -4.6923    0.0000 C   0  0  2  0  0  0
    2.0419   -4.6361    0.0000 C   0  0
    5.6184   -9.4725    0.0000 C   0  0
    9.9058  -11.1224    0.0000 C   0  0
    6.3351   -9.8850    0.0000 C   0  0
    7.0476   -6.9976    0.0000 C   0  0
   12.0518   -8.2351    0.0000 O   0  0
    7.0476  -11.1224    0.0000 O   0  0
    7.4600   -4.8992    0.0000 C   0  0
    9.9058  -11.9474    0.0000 O   0  0
   10.6225   -8.2351    0.0000 C   0  0
   14.9100  -10.7100    0.0000 C   0  0
    7.7643  -10.7100    0.0000 C   0  0
    7.7644   -9.8848    0.0000 N   0  0
   11.3393  -12.4458    0.0000 C   0  0
    5.5952   -5.9421    0.0000 C   0  0
   11.3393  -13.2707    0.0000 C   0  0
    4.9060   -9.8850    0.0000 N   0  0
    2.0277   -5.4586    0.0000 O   0  0
   12.0518   -9.8850    0.0000 C   0  0  1  0  0  0
    9.1935  -10.7100    0.0000 N   0  0
    4.2105   -3.4425    0.0000 O   0  0
   11.3391   -9.4728    0.0000 N   0  0
   11.3468   -7.8189    0.0000 C   0  0
    7.7166   -5.6857    0.0000 C   0  0
   14.9100   -9.8850    0.0000 C   0  0
   12.7641   -9.4725    0.0000 C   0  0
    6.6351   -4.8992    0.0000 C   0  0
    4.1963   -4.2649    0.0000 C   0  0
   12.7641  -11.1224    0.0000 O   0  0
    5.6241   -4.2877    0.0000 C   0  0
    7.7644   -8.2353    0.0000 N   0  0
    6.3351   -8.2351    0.0000 O   0  0
    8.4768   -6.9976    0.0000 C   0  0
    9.9058   -6.9976    0.0000 S   0  0
   13.4767  -10.7100    0.0000 C   0  0
    7.0476   -9.4725    0.0000 C   0  0  2  0  0  0
    3.4724   -4.6647    0.0000 N   0  0
    6.3343   -3.0476    0.0000 C   0  0
   13.4766   -9.8850    0.0000 C   0  0
    7.0476   -8.6476    0.0000 C   0  0
    4.9051   -3.0548    0.0000 C   0  0
   10.6225  -12.0290    0.0000 C   0  0  1  0  0  0
   10.6225  -10.7100    0.0000 C   0  0  2  0  0  0
   11.3393  -11.1224    0.0000 N   0  0
    2.7672   -4.2399    0.0000 C   0  0
    5.6188   -3.4651    0.0000 C   0  0
    9.2802  -12.1615    0.0000 O   0  0
   16.3373  -10.7107    0.0000 C   0  0
   11.1232  -11.5756    0.0000 H   0  0
    9.3426  -11.6230    0.0000 H   0  0
 30 24  2  0
  1 55  1  0
 20 32  1  0
 43 40  1  0
 67 59  1  0
 52 61  1  0
 53 61  2  0
 50 13  2  0
 51 67  1  0
 58 49  1  0
 42 49  2  0
  9 44  1  0
 40 47  1  1
  1 54  1  0
 63 35  1  0
 63 14  1  6
 67 62  1  0
 25 23  1  0
 43  4  1  0
 48 29  1  0
 60 56  1  0
 52  8  1  0
 31  4  1  0
  8 54  1  0
 15  3  1  6
 65 13  1  0
 47 60  1  0
  5 36  1  0
 21  5  1  6
 16 46  1  0
 18 32  1  0
 29 45  1  0
  6 45  1  0
 10 22  1  0
 63 64  1  0
 61 57  1  0
  7 15  1  0
 19 48  1  0
 27  4  2  0
  7 33  1  0
  8 26  1  6
 60 16  2  0
 21 51  1  0
 46 32  2  0
 58 66  1  0
 39 22  2  0
 12  9  1  0
 56 18  2  0
 66 22  1  0
 28 33  2  0
 40 13  1  0
 64 24  1  0
 17 23  2  0
 55  9  1  0
  2 26  2  0
 21 49  1  0
 34 57  1  0
  6 26  1  0
 11 36  2  0
 64 65  1  0
 35 37  1  0
 57 25  1  1
  6 19  1  0
  9 31  1  0
  7 41  1  0
 34 33  1  0
 41 24  1  0
 38 23  1  0
 19 36  1  6
 15 68  1  0
 20 69  1  0
 64 70  1  6
  7 71  1  6
M  END