
  SciTegic06271217572D

 12 13  0  0  0  0            999 V2000
   13.3183   -8.6784    0.0000 C   0  0
   13.3171   -9.5057    0.0000 C   0  0
   14.0320   -9.9186    0.0000 C   0  0
   14.0302   -8.2657    0.0000 C   0  0
   14.7454   -8.6748    0.0000 C   0  0
   14.7462   -9.5015    0.0000 C   0  0
   15.4614   -9.9125    0.0000 N   0  0
   16.1764   -9.4977    0.0000 C   0  0
   16.1717   -8.6679    0.0000 C   0  0
   15.4558   -8.2606    0.0000 C   0  0
   16.8924   -9.9075    0.0000 N   0  0
   15.4514   -7.4358    0.0000 C   0  0
  5  6  1  0
  3  6  2  0
  6  7  1  0
  1  2  2  0
  7  8  2  0
  5  4  2  0
  8  9  1  0
  4  1  1  0
  9 10  2  0
 10  5  1  0
  8 11  1  0
  2  3  1  0
 10 12  1  0
M  END