
          11280715262D 1   1.00000     0.00000     0

 22 25  0     0  0            999 V2000
   -0.3083    0.3333    0.0000 C   0  0  0  0  0  0           0  0  0
   -2.4458   -0.9250    0.0000 C   0  0  3  0  0  0           0  0  0
   -1.0208   -0.0875    0.0000 C   0  0  0  0  0  0           0  0  0
   -1.7375    0.3208    0.0000 N   0  0  0  0  0  0           0  0  0
   -1.7250   -2.1625    0.0000 C   0  0  3  0  0  0           0  0  0
   -2.9000   -2.5917    0.0000 C   0  0  3  0  0  0           0  0  0
   -3.1958   -2.2250    0.0000 C   0  0  3  0  0  0           0  0  0
   -0.2958    1.1583    0.0000 C   0  0  0  0  0  0           0  0  0
    0.4000   -0.0917    0.0000 C   0  0  0  0  0  0           0  0  0
   -1.7250   -1.3417    0.0000 C   0  0  0  0  0  0           0  0  0
   -2.9000   -1.5542    0.0000 C   0  0  0  0  0  0           0  0  0
   -3.2000   -1.3250    0.0000 C   0  0  0  0  0  0           0  0  0
   -1.0125   -0.9125    0.0000 O   0  0  0  0  0  0           0  0  0
   -2.4458   -0.0917    0.0000 C   0  0  0  0  0  0           0  0  0
   -2.0833   -2.8750    0.0000 C   0  0  0  0  0  0           0  0  0
   -3.5458   -2.8750    0.0000 C   0  0  0  0  0  0           0  0  0
   -2.4208   -2.5167    0.0000 C   0  0  0  0  0  0           0  0  0
   -0.5125    1.9583    0.0000 N   0  0  0  0  0  0           0  0  0
    0.3917   -0.9167    0.0000 Cl  0  0  0  0  0  0           0  0  0
    1.1292    1.1333    0.0000 C   0  0  0  0  0  0           0  0  0
    0.4250    1.5583    0.0000 C   0  0  0  0  0  0           0  0  0
    1.1167    0.3083    0.0000 C   0  0  0  0  0  0           0  0  0
  2 14  1  0     0  0
  3  1  1  0     0  0
  4  3  1  0     0  0
  5 10  1  0     0  0
  6 11  1  0     0  0
  7 12  1  0     0  0
  8  1  1  0     0  0
  9  1  2  0     0  0
 10  2  1  0     0  0
 11  2  1  0     0  0
 12  2  1  0     0  0
 13  3  2  0     0  0
 14  4  1  0     0  0
 15  6  1  0     0  0
 16  7  1  0     0  0
 17  7  1  0     0  0
 18  8  1  0     0  0
 19  9  1  0     0  0
 20 22  2  0     0  0
 21  8  2  0     0  0
 22  9  1  0     0  0
 21 20  1  0     0  0
  5 17  1  0     0  0
  6 16  1  0     0  0
  5 15  1  0     0  0
M  END