
  SciTegic05171617282D

 36 40  0  0  0  0            999 V2000
    5.8797   -8.0705    0.0000 C   0  0
    5.4147   -6.9642    0.0000 C   0  0
    6.1405   -6.0087    0.0000 C   0  0
    3.9258   -6.7752    0.0000 O   0  0
    3.3443   -5.3916    0.0000 C   0  0
    1.8565   -5.2005    0.0000 C   0  0
    1.2781   -3.8165    0.0000 C   0  0
    2.1852   -2.6281    0.0000 C   0  0
    3.6753   -2.8147    0.0000 C   0  0
    4.2537   -4.1987    0.0000 N   0  0
    1.7138   -1.2033    0.0000 C   0  0
    2.5889    0.0182    0.0000 N   0  0
    1.7138    1.2033    0.0000 N   0  0
    0.2917    0.7475    0.0000 C   0  0
   -1.0028    1.5132    0.0000 C   0  0
   -2.3155    0.7475    0.0000 C   0  0
   -2.3155   -0.7475    0.0000 C   0  0
   -1.0028   -1.5132    0.0000 C   0  0
    0.2917   -0.7475    0.0000 C   0  0
   -3.6187   -1.4919    0.0000 C   0  0
   -4.6549   -0.8867    0.0000 O   0  0
   -3.6267   -2.9927    0.0000 N   0  0
   -4.9300   -3.7369    0.0000 C   0  0
   -4.9402   -5.2369    0.0000 C   0  0
   -6.2443   -5.9781    0.0000 C   0  0
   -7.5383   -5.2194    0.0000 C   0  0
   -7.5281   -3.7194    0.0000 N   0  0
   -8.8212   -2.9576    0.0000 C   0  0
   -8.8089   -1.4568    0.0000 C   0  0
   -7.5023   -0.7200    0.0000 C   0  0
   -7.4869    0.7799    0.0000 C   0  0
   -8.7782    1.5432    0.0000 C   0  0
  -10.0849    0.8065    0.0000 C   0  0
  -10.1002   -0.6935    0.0000 C   0  0
  -11.1455   -1.2828    0.0000 F   0  0
   -6.2240   -2.9782    0.0000 C   0  0
  1  2  1  0
  2  3  1  0
  2  4  1  0
  4  5  1  0
  5  6  2  0
  6  7  1  0
  7  8  2  0
  8  9  1  0
  9 10  2  0
  5 10  1  0
  8 11  1  0
 11 12  2  0
 12 13  1  0
 13 14  1  0
 14 15  2  0
 15 16  1  0
 16 17  2  0
 17 18  1  0
 18 19  2  0
 11 19  1  0
 14 19  1  0
 17 20  1  0
 20 21  2  0
 20 22  1  0
 22 23  1  0
 23 24  1  0
 24 25  1  0
 25 26  1  0
 26 27  1  0
 27 28  1  0
 28 29  1  0
 29 30  2  0
 30 31  1  0
 31 32  2  0
 32 33  1  0
 33 34  2  0
 29 34  1  0
 34 35  1  0
 27 36  1  0
 23 36  1  0
M  END