
  SciTegic          2D

 23 26  0  0  0  0            999 V2000
    7.4930   -6.0657    0.0000 C   0  0
    5.3339   -4.1531    0.0000 S   0  0
   -2.3155    0.7475    0.0000 C   0  0
   -2.3155   -0.7475    0.0000 C   0  0
   11.4543   -3.5752    0.0000 C   0  0
   11.1386   -2.1139    0.0000 C   0  0
   -1.0028    1.5132    0.0000 C   0  0
   -1.0028   -1.5132    0.0000 C   0  0
   10.3329   -4.6009    0.0000 C   0  0
    9.6938   -1.6426    0.0000 C   0  0
    4.8506   -1.2602    0.0000 C   0  0
    6.3513   -1.2462    0.0000 C   0  0
    1.7138    1.2033    0.0000 N   0  0
    1.7138   -1.2033    0.0000 N   0  0
    4.0872    0.0320    0.0000 S   0  0
    2.5889    0.0182    0.0000 C   0  0
    6.5065   -3.8981    0.0000 C   0  0
    0.2917    0.7475    0.0000 C   0  0
    0.2917   -0.7475    0.0000 C   0  0
    8.9059   -4.1258    0.0000 C   0  0
    8.5902   -2.6645    0.0000 C   0  0
    7.6122   -4.8716    0.0000 N   0  0
    7.1146   -2.5384    0.0000 N   0  0
  1 22  1  0
 17  2  2  0
  3  4  1  0
  3  7  2  0
  4  8  2  0
  5  6  1  0
  5  9  2  0
  6 10  2  0
  7 18  1  0
  8 19  1  0
  9 20  1  0
 10 21  1  0
 11 12  1  0
 11 15  1  0
 12 23  1  0
 16 13  1  0
 18 13  1  0
 16 14  2  0
 19 14  1  0
 16 15  1  0
 17 22  1  0
 17 23  1  0
 18 19  2  0
 20 21  2  0
 20 22  1  0
 21 23  1  0
M  END