
          08180812472D 1   1.00000     0.00000     0

 17 19  0     0  0            999 V2000
   16.3992  -13.3950    0.0000 C   0  0  0  0  0  0           0  0  0
   15.9746  -12.1225    0.0000 O   0  0  0  0  0  0           0  0  0
   15.7228  -12.9104    0.0000 C   0  0  0  0  0  0           0  0  0
   16.8018  -12.1187    0.0000 C   0  0  0  0  0  0           0  0  0
   17.0591  -12.9025    0.0000 C   0  0  0  0  0  0           0  0  0
   17.8649  -13.0701    0.0000 C   0  0  0  0  0  0           0  0  0
   18.4142  -12.4549    0.0000 C   0  0  0  0  0  0           0  0  0
   18.1521  -11.6695    0.0000 C   0  0  0  0  0  0           0  0  0
   17.3469  -11.5055    0.0000 C   0  0  0  0  0  0           0  0  0
   18.7005  -11.0502    0.0000 O   0  0  0  0  0  0           0  0  0
   14.9404  -13.1677    0.0000 C   0  0  0  0  0  0           0  0  0
   14.3227  -12.6160    0.0000 C   0  0  0  0  0  0           0  0  0
   13.5381  -12.8755    0.0000 C   0  0  0  0  0  0           0  0  0
   13.3701  -13.6863    0.0000 C   0  0  0  0  0  0           0  0  0
   13.9929  -14.2372    0.0000 C   0  0  0  0  0  0           0  0  0
   14.7751  -13.9747    0.0000 C   0  0  0  0  0  0           0  0  0
   12.5852  -13.9475    0.0000 O   0  0  0  0  0  0           0  0  0
  8  9  2  0     0  0
  9  4  1  0     0  0
  1  5  1  0     0  0
  8 10  1  0     0  0
  4  5  2  0     0  0
  4  2  1  0     0  0
 11 12  2  0     0  0
  5  6  1  0     0  0
 12 13  1  0     0  0
  2  3  1  0     0  0
 13 14  2  0     0  0
  6  7  2  0     0  0
 14 15  1  0     0  0
  3  1  2  0     0  0
 15 16  2  0     0  0
 16 11  1  0     0  0
  3 11  1  0     0  0
  7  8  1  0     0  0
 14 17  1  0     0  0
M  END