
          03140815522D 1   1.00000     0.00000     0

 20 21  0     0  0            999 V2000
   10.1777   -1.4083    0.0000 C   0  0  0  0  0  0           0  0  0
   10.1766   -2.2357    0.0000 C   0  0  0  0  0  0           0  0  0
   10.8914   -2.6485    0.0000 C   0  0  0  0  0  0           0  0  0
   11.6078   -2.2352    0.0000 C   0  0  0  0  0  0           0  0  0
   11.6050   -1.4047    0.0000 C   0  0  0  0  0  0           0  0  0
   10.8896   -0.9955    0.0000 C   0  0  0  0  0  0           0  0  0
   12.3179   -0.9895    0.0000 O   0  0  0  0  0  0           0  0  0
   13.0339   -1.3993    0.0000 C   0  0  0  0  0  0           0  0  0
   13.0337   -2.2219    0.0000 C   0  0  0  0  0  0           0  0  0
   13.7488   -2.6317    0.0000 C   0  0  0  0  0  0           0  0  0
   14.4627   -2.2164    0.0000 C   0  0  0  0  0  0           0  0  0
   14.4570   -1.3872    0.0000 C   0  0  0  0  0  0           0  0  0
   13.7412   -0.9812    0.0000 C   0  0  0  0  0  0           0  0  0
   10.8871   -0.1705    0.0000 Cl  0  0  0  0  0  0           0  0  0
    9.4618   -2.6476    0.0000 Cl  0  0  0  0  0  0           0  0  0
   13.7338   -0.1562    0.0000 O   0  0  0  0  0  0           0  0  0
   15.1793   -2.6253    0.0000 C   0  0  0  0  0  0           0  0  0
   15.1835   -3.4502    0.0000 O   0  0  0  0  0  0           0  0  0
   13.0157    0.2499    0.0000 C   0  0  0  0  0  0           0  0  0
   15.8917   -2.2091    0.0000 O   0  0  0  0  0  0           0  0  0
  9 10  1  0     0  0
  2  3  1  0     0  0
 10 11  2  0     0  0
  5  6  2  0     0  0
 11 12  1  0     0  0
  6  1  1  0     0  0
 12 13  2  0     0  0
 13  8  1  0     0  0
  1  2  2  0     0  0
  6 14  1  0     0  0
  5  7  1  0     0  0
  2 15  1  0     0  0
  3  4  2  0     0  0
 13 16  1  0     0  0
  7  8  1  0     0  0
 11 17  1  0     0  0
 17 18  2  0     0  0
  8  9  2  0     0  0
 16 19  1  0     0  0
  4  5  1  0     0  0
 17 20  1  0     0  0
M  END