
          11280715132D 1   1.00000     0.00000     0

 25 26  0     0  0            999 V2000
    0.0792   -1.5417    0.0000 C   0  0  0  0  0  0           0  0  0
    0.0792   -0.9417    0.0000 C   0  0  0  0  0  0           0  0  0
   -0.4458   -1.8417    0.0000 N   0  0  3  0  0  0           0  0  0
   -0.9583   -0.9417    0.0000 N   0  0  3  0  0  0           0  0  0
   -0.9583   -1.5417    0.0000 C   0  0  0  0  0  0           0  0  0
   -0.4458   -0.6417    0.0000 C   0  0  0  0  0  0           0  0  0
    0.6500   -1.7292    0.0000 N   0  0  0  0  0  0           0  0  0
    0.6500   -0.7542    0.0000 N   0  0  0  0  0  0           0  0  0
    1.0042   -1.2417    0.0000 C   0  0  0  0  0  0           0  0  0
   -1.4750   -1.8417    0.0000 O   0  0  0  0  0  0           0  0  0
   -0.4458   -0.0417    0.0000 O   0  0  0  0  0  0           0  0  0
    2.7125    0.3875    0.0000 C   0  0  0  0  0  0           0  0  0
   -0.4458   -2.4417    0.0000 C   0  0  0  0  0  0           0  0  0
   -1.4750   -0.6417    0.0000 C   0  0  0  0  0  0           0  0  0
    2.1500    0.6000    0.0000 O   0  0  0  0  0  0           0  0  0
    2.8042   -0.2042    0.0000 N   0  0  0  0  0  0           0  0  0
    3.0750    1.3583    0.0000 Br  0  0  0  0  0  0           0  0  0
    1.6042   -1.2417    0.0000 C   0  0  0  0  0  0           0  0  0
    3.1667    0.7708    0.0000 C   0  0  0  0  0  0           0  0  0
    2.5042   -0.7250    0.0000 C   0  0  0  0  0  0           0  0  0
   -0.9625   -2.7417    0.0000 C   0  0  0  0  0  0           0  0  0
   -1.4833   -0.0417    0.0000 C   0  0  0  0  0  0           0  0  0
    1.9042   -0.7250    0.0000 C   0  0  0  0  0  0           0  0  0
   -1.9958    0.2583    0.0000 C   0  0  0  0  0  0           0  0  0
   -0.9625   -3.3417    0.0000 C   0  0  0  0  0  0           0  0  0
  2  1  2  0     0  0
  3  1  1  0     0  0
  4  5  1  0     0  0
  5  3  1  0     0  0
  6  2  1  0     0  0
  7  1  1  0     0  0
  8  2  1  0     0  0
  9  7  1  0     0  0
 10  5  2  0     0  0
 11  6  2  0     0  0
 12 16  1  0     0  0
 13  3  1  0     0  0
 14  4  1  0     0  0
 15 12  2  0     0  0
 16 20  1  0     0  0
 17 19  1  0     0  0
 18  9  1  0     0  0
 19 12  1  0     0  0
 20 23  1  0     0  0
 21 13  1  0     0  0
 22 14  1  0     0  0
 23 18  1  0     0  0
 24 22  1  0     0  0
 25 21  1  0     0  0
  8  9  2  0     0  0
  4  6  1  0     0  0
M  END