
          11280715072D 1   1.00000     0.00000     0

 38 42  0     0  0            999 V2000
    1.2500   -0.0542    0.0000 C   0  0  0  0  0  0           0  0  0
    7.0167   -3.2500    0.0000 C   0  0  0  0  0  0           0  0  0
    0.5250    0.3458    0.0000 C   0  0  0  0  0  0           0  0  0
    7.7375   -3.6500    0.0000 C   0  0  0  0  0  0           0  0  0
   -0.1833   -0.0875    0.0000 C   0  0  0  0  0  0           0  0  0
    8.4500   -3.2250    0.0000 C   0  0  0  0  0  0           0  0  0
    7.0042   -2.4250    0.0000 C   0  0  0  0  0  0           0  0  0
    1.2667   -0.8750    0.0000 C   0  0  0  0  0  0           0  0  0
    8.4292   -2.3917    0.0000 C   0  0  0  0  0  0           0  0  0
   -0.1583   -0.9125    0.0000 C   0  0  0  0  0  0           0  0  0
    0.5667   -1.3042    0.0000 C   0  0  0  0  0  0           0  0  0
    7.7042   -2.0000    0.0000 C   0  0  0  0  0  0           0  0  0
    1.9542    0.3750    0.0000 C   0  0  0  0  0  0           0  0  0
    6.3042   -3.6667    0.0000 C   0  0  0  0  0  0           0  0  0
    9.2042   -2.1250    0.0000 O   0  0  0  0  0  0           0  0  0
   -0.9458   -1.1875    0.0000 O   0  0  0  0  0  0           0  0  0
    1.9917   -1.2667    0.0000 O   0  0  0  0  0  0           0  0  0
    6.2875   -2.0250    0.0000 O   0  0  0  0  0  0           0  0  0
   -0.9708    0.1583    0.0000 C   0  0  0  0  0  0           0  0  0
    9.2417   -3.4625    0.0000 C   0  0  0  0  0  0           0  0  0
   -1.4458   -0.5292    0.0000 C   0  0  0  0  0  0           0  0  0
    9.7125   -2.7792    0.0000 C   0  0  0  0  0  0           0  0  0
    1.9292    1.2000    0.0000 O   0  0  0  0  0  0           0  0  0
    6.3167   -4.4917    0.0000 O   0  0  0  0  0  0           0  0  0
    0.5125    1.1708    0.0000 O   0  0  0  0  0  0           0  0  0
    7.7500   -4.4667    0.0000 O   0  0  0  0  0  0           0  0  0
    5.5792   -2.4500    0.0000 C   0  0  0  0  0  0           0  0  0
    2.6917   -0.8417    0.0000 C   0  0  0  0  0  0           0  0  0
    3.4167   -1.2417    0.0000 C   0  0  0  0  0  0           0  0  0
    4.8542   -2.0500    0.0000 C   0  0  0  0  0  0           0  0  0
    4.8417   -1.2167    0.0000 C   0  0  0  0  0  0           0  0  0
    4.1167   -0.8167    0.0000 C   0  0  0  0  0  0           0  0  0
    4.1500   -2.4667    0.0000 C   0  0  0  0  0  0           0  0  0
    3.4292   -2.0667    0.0000 C   0  0  0  0  0  0           0  0  0
    5.5875   -3.2667    0.0000 C   0  0  0  0  0  0           0  0  0
    2.6750   -0.0167    0.0000 C   0  0  0  0  0  0           0  0  0
    8.4667   -4.8667    0.0000 C   0  0  0  0  0  0           0  0  0
   -0.2125    1.5625    0.0000 C   0  0  0  0  0  0           0  0  0
  2  7  2  0     0  0
  3  1  2  0     0  0
  4  2  1  0     0  0
  5  3  1  0     0  0
  6  9  1  0     0  0
  7 18  1  0     0  0
  8  1  1  0     0  0
  9 12  2  0     0  0
 10 11  1  0     0  0
 11  8  2  0     0  0
 12  7  1  0     0  0
 13  1  1  0     0  0
 14  2  1  0     0  0
 15  9  1  0     0  0
 16 10  1  0     0  0
 17  8  1  0     0  0
 18 27  1  0     0  0
 19  5  1  0     0  0
 20  6  1  0     0  0
 21 19  2  0     0  0
 22 15  1  0     0  0
 23 13  2  0     0  0
 24 14  2  0     0  0
 25  3  1  0     0  0
 26  4  1  0     0  0
 27 30  1  0     0  0
 28 17  1  0     0  0
 29 28  1  0     0  0
 30 33  2  0     0  0
 31 32  2  0     0  0
 32 29  1  0     0  0
 33 34  1  0     0  0
 34 29  2  0     0  0
 35 14  1  0     0  0
 36 13  1  0     0  0
 37 26  1  0     0  0
 38 25  1  0     0  0
 10  5  2  0     0  0
 16 21  1  0     0  0
 31 30  1  0     0  0
  6  4  2  0     0  0
 22 20  2  0     0  0
M  END