
          08180812492D 1   1.00000     0.00000     0

 21 22  0     0  0            999 V2000
    9.1861   -8.2750    0.0000 N   0  0  0  0  0  0           0  0  0
    9.1849   -9.1023    0.0000 C   0  0  0  0  0  0           0  0  0
    9.8997   -9.5152    0.0000 N   0  0  0  0  0  0           0  0  0
   10.6162   -9.1019    0.0000 C   0  0  0  0  0  0           0  0  0
   10.6133   -8.2713    0.0000 C   0  0  0  0  0  0           0  0  0
    9.8979   -7.8622    0.0000 C   0  0  0  0  0  0           0  0  0
   11.3262   -7.8561    0.0000 C   0  0  0  0  0  0           0  0  0
   12.0422   -8.2659    0.0000 C   0  0  0  0  0  0           0  0  0
   12.1353   -9.0850    0.0000 C   0  0  0  0  0  0           0  0  0
   12.9429   -9.2535    0.0000 C   0  0  0  0  0  0           0  0  0
   13.3527   -8.5374    0.0000 S   0  0  0  0  0  0           0  0  0
   12.7983   -7.9265    0.0000 C   0  0  0  0  0  0           0  0  0
   11.5255   -9.6407    0.0000 C   0  0  0  0  0  0           0  0  0
   13.2813  -10.0059    0.0000 C   0  0  0  0  0  0           0  0  0
   14.1021  -10.0890    0.0000 C   0  0  0  0  0  0           0  0  0
   14.4405  -10.8414    0.0000 O   0  0  0  0  0  0           0  0  0
    9.8955   -7.0372    0.0000 N   0  0  0  0  0  0           0  0  0
    8.4701   -9.5143    0.0000 C   0  0  3  0  0  0           0  0  0
    7.7500   -9.9208    0.0000 F   0  0  0  0  0  0           0  0  0
    8.8789  -10.2309    0.0000 F   0  0  0  0  0  0           0  0  0
    8.0631   -8.7967    0.0000 F   0  0  0  0  0  0           0  0  0
  5  6  2  0     0  0
  9 10  2  0     0  0
 10 11  1  0     0  0
 11 12  1  0     0  0
 12  8  2  0     0  0
  6  1  1  0     0  0
  9 13  1  0     0  0
  1  2  2  0     0  0
 10 14  1  0     0  0
  5  7  1  0     0  0
 14 15  1  0     0  0
  3  4  2  0     0  0
 15 16  1  0     0  0
  7  8  1  0     0  0
  6 17  1  0     0  0
  8  9  1  0     0  0
  2 18  1  0     0  0
 18 19  1  0     0  0
  4  5  1  0     0  0
 18 20  1  0     0  0
  2  3  1  0     0  0
 18 21  1  0     0  0
M  END