
  SciTegic04071410272D

 29 31  0  0  0  0            999 V2000
   -1.5734    0.9144    0.0000 C   0  0  1  0  0  0
   -0.5064    0.1125    0.0000 C   0  0  2  0  0  0
   -1.0226    0.5412    0.0000 C   0  0
   -1.9943    0.5412    0.0000 C   0  0  1  0  0  0
   -2.1340    1.3543    0.0000 N   0  3
   -0.6446    0.9299    0.0000 C   0  0
   -2.5142   -0.1711    0.0000 C   0  0
   -1.8939    0.2058    0.0000 C   0  0
   -0.0946   -0.6024    0.0000 C   0  0
    0.7304   -0.6032    0.0000 C   0  0
    1.1422   -1.3180    0.0000 C   0  0
    1.1436    0.1109    0.0000 C   0  0
   -1.7633    1.7173    0.0000 H   0  0
   -2.5970    1.1045    0.0000 H   0  0
   -2.8983    1.6647    0.0000 C   0  0
   -2.0438    2.1744    0.0000 C   0  0
    0.7318    0.8258    0.0000 C   0  0
    1.1450    1.5398    0.0000 C   0  0
    1.9700    1.5390    0.0000 C   0  0
    2.3818    0.8242    0.0000 C   0  0
    1.9686    0.1101    0.0000 C   0  0
    0.7290   -2.0321    0.0000 C   0  0
    1.1408   -2.7470    0.0000 C   0  0
    1.9658   -2.7478    0.0000 C   0  0
    2.3790   -2.0337    0.0000 C   0  0
    1.9672   -1.3189    0.0000 C   0  0
    2.3804   -0.6048    0.0000 C   0  0
   -0.0960   -2.0313    0.0000 C   0  0
    4.6211    0.0000    0.0000 Br  0  5
  1 13  1  6
  4  5  1  0
  4 14  1  1
  1  5  1  0
  5 15  1  0
  1  6  1  0
  5 16  1  0
  6  2  1  0
 12 17  2  0
  4  7  1  0
 17 18  1  0
  1  8  1  0
 18 19  2  0
  7  8  1  0
 19 20  1  0
 20 21  2  0
 21 12  1  0
  2  9  1  6
 11 22  2  0
 22 23  1  0
  9 10  2  0
 23 24  2  0
 24 25  1  0
 10 11  1  0
 25 26  2  0
 26 11  1  0
  2  3  1  0
 21 27  1  0
 10 12  1  0
 22 28  1  0
  3  4  1  0
M  CHG  2   5   1  29  -1
M  END