
  SciTegic12011114592D

 39 43  0  0  0  0            999 V2000
   -4.7215   -0.2080    0.0000 N   0  0
   -4.0064    0.2017    0.0000 C   0  0
   -4.0035    1.0277    0.0000 N   0  0
   -4.7218    1.4421    0.0000 C   0  0
   -4.7223    2.2671    0.0000 N   0  0
   -4.0077    2.6803    0.0000 C   0  0
   -3.2932   -0.2132    0.0000 S   0  0
   -2.5773    0.1968    0.0000 C   0  0
   -1.8684   -0.2212    0.0000 C   0  0
   -1.1530    0.1882    0.0000 C   0  0
   -1.1497    1.0141    0.0000 C   0  0
   -1.8678    1.4289    0.0000 C   0  0
   -2.5804    1.0172    0.0000 C   0  0
   -0.4343    1.4251    0.0000 N   0  0
   -3.2218    2.4321    0.0000 C   0  0
   -2.7428    3.1038    0.0000 C   0  0
   -3.2335    3.7670    0.0000 N   0  0
   -4.0160    3.5052    0.0000 N   0  0
   -1.9177    3.1110    0.0000 C   0  0
   -6.2090    1.2813    0.0000 C   0  0
   -6.6946    0.6200    0.0000 C   0  0
   -6.2165   -0.0417    0.0000 C   0  0
   -5.4314    0.2104    0.0000 N   0  0
   -5.4308    1.0282    0.0000 C   0  0
    0.2793    1.0112    0.0000 C   0  0
    0.9947    1.4222    0.0000 C   0  0
    1.7083    1.0077    0.0000 N   0  0
    0.2776    0.1861    0.0000 O   0  0
    1.6997    0.1872    0.0000 C   0  0
    2.4816   -0.0762    0.0000 C   0  0  1  0  0  0
    2.9737    0.5860    0.0000 C   0  0
    2.4960    1.2586    0.0000 C   0  0  2  0  0  0
    2.7574    2.0411    0.0000 C   0  0
    3.5657    2.2060    0.0000 O   0  0
    2.7280   -0.8637    0.0000 O   0  0
    3.5331   -1.0439    0.0000 C   0  0
    4.0918   -0.4368    0.0000 C   0  0
    4.3305   -1.2557    0.0000 C   0  0
    3.7795   -1.8312    0.0000 C   0  0
 18  6  2  0
  3  4  2  0
 16 19  1  0
 23 24  1  0
  8  9  2  0
  4 24  1  0
 21 22  2  0
  9 10  1  0
  1  2  2  0
 10 11  2  0
 20 21  1  0
 22 23  1  0
 24 20  2  0
  4  5  1  0
 14 25  1  0
 11 12  1  0
 25 26  1  0
 23  1  1  0
 26 27  1  0
 12 13  2  0
 25 28  2  0
 27 29  1  0
 13  8  1  0
  5  6  1  0
 11 14  1  0
 17 18  1  0
 29 30  1  0
 30 31  1  0
 31 32  1  0
 32 27  1  0
  2  3  1  0
 32 33  1  1
 15 16  2  0
 33 34  1  0
  2  7  1  0
 30 35  1  1
 35 36  1  0
  7  8  1  0
 36 39  1  0
  6 15  1  0
 36 37  1  0
 16 17  1  0
 36 38  1  0
M  END