
  SciTegic06051313522D

 23 25  0  0  0  0            999 V2000
    1.1471   -3.2467    0.0000 C   0  0
    1.8568   -2.8372    0.0000 C   0  0
    1.8539   -2.0146    0.0000 C   0  0
    1.1453   -1.6093    0.0000 C   0  0
    2.5601   -1.6033    0.0000 N   0  0
    3.2693   -2.0092    0.0000 C   0  0
    3.2691   -2.8241    0.0000 C   0  0
    3.9775   -3.2300    0.0000 C   0  0
    4.6846   -2.8186    0.0000 C   0  0
    4.6789   -1.9972    0.0000 C   0  0
    3.9699   -1.5951    0.0000 C   0  0
    0.4391   -2.8377    0.0000 C   0  0
    0.4403   -2.0166    0.0000 C   0  0
   -0.3449   -1.7617    0.0000 N   0  0
   -0.8270   -2.4253    0.0000 O   0  0
   -0.3429   -3.0902    0.0000 N   0  0
    1.1453   -0.7883    0.0000 N   0  3
    0.4367   -0.3813    0.0000 O   0  0
    1.8521   -0.3782    0.0000 O   0  5
    5.3866   -1.5816    0.0000 N   0  3
    5.3807   -0.7644    0.0000 O   0  0
    6.0973   -1.9850    0.0000 O   0  5
    5.3944   -3.2236    0.0000 Cl  0  0
 12  1  1  0
  1  2  2  0
  2  3  1  0
  3  4  2  0
  4 13  1  0
  3  5  1  0
  5  6  1  0
  6  7  2  0
  7  8  1  0
  8  9  2  0
  9 10  1  0
 10 11  2  0
 11  6  1  0
 12 13  1  0
 13 14  2  0
 14 15  1  0
 15 16  1  0
 16 12  2  0
 17 18  2  0
 17 19  1  0
  4 17  1  0
 20 21  2  0
 20 22  1  0
 10 20  1  0
  9 23  1  0
M  CHG  4  17   1  19  -1  20   1  22  -1
M  END