
          11280715362D 1   1.00000     0.00000     0

 31 36  0     0  0            999 V2000
    4.8542   -6.4000    0.0000 C   0  0  0  0  0  0           0  0  0
    4.8542   -7.0042    0.0000 C   0  0  0  0  0  0           0  0  0
    4.3292   -7.3042    0.0000 N   0  0  3  0  0  0           0  0  0
    3.8042   -6.4000    0.0000 C   0  0  0  0  0  0           0  0  0
    5.3792   -6.0917    0.0000 C   0  0  0  0  0  0           0  0  0
    9.2125   -6.3542    0.0000 C   0  0  0  0  0  0           0  0  0
    3.8042   -7.0042    0.0000 C   0  0  0  0  0  0           0  0  0
    9.4625   -6.9042    0.0000 C   0  0  0  0  0  0           0  0  0
    5.9042   -6.4042    0.0000 C   0  0  3  0  0  0           0  0  0
   10.0542   -6.8292    0.0000 N   0  0  0  0  0  0           0  0  0
    8.6250   -6.2417    0.0000 C   0  0  0  0  0  0           0  0  0
    9.6500   -5.9500    0.0000 C   0  0  0  0  0  0           0  0  0
    5.3750   -7.3042    0.0000 C   0  0  0  0  0  0           0  0  0
    6.9417   -6.4042    0.0000 N   0  0  3  0  0  0           0  0  0
    8.0625   -5.6500    0.0000 C   0  0  0  0  0  0           0  0  0
   10.1667   -6.2417    0.0000 C   0  0  0  0  0  0           0  0  0
    6.4167   -6.1042    0.0000 C   0  0  0  0  0  0           0  0  0
    5.9042   -7.0042    0.0000 C   0  0  0  0  0  0           0  0  0
    5.3792   -5.4917    0.0000 O   0  0  0  0  0  0           0  0  0
    8.0792   -6.4792    0.0000 C   0  0  0  0  0  0           0  0  0
    7.3417   -5.6500    0.0000 C   0  0  0  0  0  0           0  0  0
    7.4042   -6.2417    0.0000 C   0  0  0  0  0  0           0  0  0
    4.3292   -7.9042    0.0000 C   0  0  0  0  0  0           0  0  0
    3.2792   -6.1000    0.0000 C   0  0  0  0  0  0           0  0  0
    3.2792   -7.3042    0.0000 C   0  0  0  0  0  0           0  0  0
    9.6417   -5.3542    0.0000 C   0  0  0  0  0  0           0  0  0
   10.6792   -5.9417    0.0000 C   0  0  0  0  0  0           0  0  0
    2.7667   -6.4000    0.0000 C   0  0  0  0  0  0           0  0  0
    2.7667   -7.0042    0.0000 C   0  0  0  0  0  0           0  0  0
   10.1542   -5.0542    0.0000 C   0  0  0  0  0  0           0  0  0
   10.6792   -5.3417    0.0000 C   0  0  0  0  0  0           0  0  0
  2  1  2  0     0  0
  3  2  1  0     0  0
  4  1  1  0     0  0
  5  1  1  0     0  0
  6 11  1  0     0  0
  7  4  2  0     0  0
  8  6  2  0     0  0
  9  5  1  0     0  0
 10  8  1  0     0  0
 11 20  1  0     0  0
 12  6  1  0     0  0
 13  2  1  0     0  0
 14 17  1  0     0  0
 15 21  1  0     0  0
 16 12  2  0     0  0
  9 17  1  0     0  0
 18  9  1  0     0  0
 19  5  2  0     0  0
 20 22  1  0     0  0
 21 14  1  0     0  0
 22 14  1  0     0  0
 23  3  1  0     0  0
 24  4  1  0     0  0
 25  7  1  0     0  0
 26 12  1  0     0  0
 27 16  1  0     0  0
 28 24  2  0     0  0
 29 28  1  0     0  0
 30 26  2  0     0  0
 31 30  1  0     0  0
  7  3  1  0     0  0
 13 18  1  0     0  0
 25 29  2  0     0  0
 15 11  2  0     0  0
 10 16  1  0     0  0
 27 31  2  0     0  0
M  END