
  SciTegic12171312592D

 23 24  0  0  0  0            999 V2000
   25.2633  -21.0975    0.0000 C   0  0
   25.2633  -21.9190    0.0000 C   0  0
   25.9765  -22.3339    0.0000 C   0  0
   26.6896  -21.9190    0.0000 C   0  0
   26.6896  -21.0975    0.0000 C   0  0
   25.9765  -20.6826    0.0000 C   0  0
   27.4069  -22.3339    0.0000 C   0  0
   28.1199  -21.9190    0.0000 N   0  0
   28.1199  -21.0975    0.0000 C   0  0
   27.4069  -20.6826    0.0000 C   0  0
   27.4069  -23.1591    0.0000 Cl  0  0
   27.4069  -19.8574    0.0000 O   0  0
   28.8327  -20.6829    0.0000 C   0  0
   28.8327  -19.8576    0.0000 O   0  0
   29.5497  -21.0975    0.0000 N   0  0
   30.2625  -20.6829    0.0000 C   0  0  2  0  0  0
   30.9752  -21.0975    0.0000 C   0  0
   30.2623  -19.8577    0.0000 C   0  0
   31.6880  -20.6829    0.0000 O   0  0
   30.9752  -21.9186    0.0000 O   0  0
   30.9753  -19.4460    0.0000 C   0  0
   30.9754  -18.6210    0.0000 C   0  0
   31.6898  -19.8585    0.0000 C   0  0
  1  2  2  0
  2  3  1  0
  3  4  2  0
  4  5  1  0
  5  6  2  0
  6  1  1  0
  4  7  1  0
  7  8  2  0
  8  9  1  0
  9 10  2  0
 10  5  1  0
  7 11  1  0
 10 12  1  0
  9 13  1  0
 13 14  2  0
 13 15  1  0
 15 16  1  0
 16 17  1  0
 16 18  1  1
 17 19  1  0
 17 20  2  0
 18 21  1  0
 21 22  1  0
 21 23  1  0
M  END