
          11280715242D 1   1.00000     0.00000     0

 42 46  0     0  0            999 V2000
    5.4042  -11.1042    0.0000 N   0  0  0  0  0  0           0  0  0
    4.9292   -9.8542    0.0000 N   0  0  3  0  0  0           0  0  0
    4.7167  -10.6542    0.0000 C   0  0  0  0  0  0           0  0  0
    6.0500  -10.5875    0.0000 C   0  0  0  0  0  0           0  0  0
    5.7542   -9.8167    0.0000 N   0  0  0  0  0  0           0  0  0
    0.8167   -8.4292    0.0000 C   0  0  0  0  0  0           0  0  0
   10.3167  -13.0542    0.0000 C   0  0  0  0  0  0           0  0  0
   10.3167  -12.2292    0.0000 C   0  0  0  0  0  0           0  0  0
    1.2292   -9.1417    0.0000 C   0  0  0  0  0  0           0  0  0
    9.6042  -13.4667    0.0000 C   0  0  0  0  0  0           0  0  0
    1.2292   -7.7167    0.0000 C   0  0  0  0  0  0           0  0  0
    4.5250   -9.1417    0.0000 C   0  0  0  0  0  0           0  0  0
    6.7625  -11.0000    0.0000 S   0  0  0  0  0  0           0  0  0
    2.0542   -9.1417    0.0000 C   0  0  0  0  0  0           0  0  0
    9.6042  -11.8167    0.0000 C   0  0  0  0  0  0           0  0  0
    4.1292  -11.2292    0.0000 C   0  0  0  0  0  0           0  0  0
    8.8917  -13.0542    0.0000 O   0  0  0  0  0  0           0  0  0
    2.0542   -7.7125    0.0000 O   0  0  0  0  0  0           0  0  0
    9.6042  -10.9917    0.0000 C   0  0  0  0  0  0           0  0  0
    2.4542   -8.4292    0.0000 C   0  0  0  0  0  0           0  0  0
    8.8917  -12.2292    0.0000 C   0  0  0  0  0  0           0  0  0
    2.4625   -9.8542    0.0000 C   0  0  0  0  0  0           0  0  0
    3.7000   -9.1417    0.0000 C   0  0  0  0  0  0           0  0  0
    9.6042  -14.2917    0.0000 O   0  0  0  0  0  0           0  0  0
    0.8125   -7.0000    0.0000 O   0  0  0  0  0  0           0  0  0
    7.4750  -10.5792    0.0000 C   0  0  0  0  0  0           0  0  0
    8.1875  -10.9917    0.0000 C   0  0  0  0  0  0           0  0  0
    3.2792   -8.4250    0.0000 C   0  0  0  0  0  0           0  0  0
    3.2792   -9.8542    0.0000 C   0  0  0  0  0  0           0  0  0
    8.8917  -10.5792    0.0000 C   0  0  0  0  0  0           0  0  0
    8.1792  -11.8167    0.0000 C   0  0  0  0  0  0           0  0  0
   11.0292  -13.4667    0.0000 C   0  0  0  0  0  0           0  0  0
   -0.0083   -8.4292    0.0000 C   0  0  0  0  0  0           0  0  0
   11.0292  -11.8167    0.0000 C   0  0  0  0  0  0           0  0  0
    0.8167   -9.8542    0.0000 C   0  0  0  0  0  0           0  0  0
    3.3375  -11.0167    0.0000 C   0  0  3  0  0  0           0  0  0
    3.1167  -10.2167    0.0000 C   0  0  0  0  0  0           0  0  0
    2.7542  -11.6042    0.0000 C   0  0  0  0  0  0           0  0  0
   11.7417  -12.2292    0.0000 C   0  0  0  0  0  0           0  0  0
   -0.0083   -9.8542    0.0000 C   0  0  0  0  0  0           0  0  0
   -0.4208   -9.1417    0.0000 C   0  0  0  0  0  0           0  0  0
   11.7500  -13.0542    0.0000 C   0  0  0  0  0  0           0  0  0
  2  3  1  0     0  0
  3  1  2  0     0  0
  4  1  1  0     0  0
  5  4  2  0     0  0
  6  9  2  0     0  0
  7  8  2  0     0  0
  8 15  1  0     0  0
  9 14  1  0     0  0
 10  7  1  0     0  0
 11  6  1  0     0  0
 12  2  1  0     0  0
 13  4  1  0     0  0
 14 22  2  0     0  0
 15 21  2  0     0  0
 16  3  1  0     0  0
 17 10  2  0     0  0
 18 11  2  0     0  0
 19 30  2  0     0  0
 20 28  2  0     0  0
 21 31  1  0     0  0
 22 29  1  0     0  0
 23 12  1  0     0  0
 24 10  1  0     0  0
 25 11  1  0     0  0
 26 13  1  0     0  0
 27 26  1  0     0  0
 28 23  1  0     0  0
 29 23  2  0     0  0
 30 27  1  0     0  0
 31 27  2  0     0  0
 32  7  1  0     0  0
 33  6  1  0     0  0
 34  8  1  0     0  0
 35  9  1  0     0  0
 36 16  1  0     0  0
 37 36  1  0     0  0
 38 36  1  0     0  0
 39 34  2  0     0  0
 40 35  2  0     0  0
 41 40  1  0     0  0
 42 39  1  0     0  0
  2  5  1  0     0  0
 15 19  1  0     0  0
 14 20  1  0     0  0
 42 32  2  0     0  0
 41 33  2  0     0  0
M  END