
  SciTegic09261414532D

 11 12  0  0  0  0            999 V2000
    5.5769   -9.8441    0.0000 N   0  0
    4.7971  -10.1071    0.0000 N   0  0
    4.8088  -10.9282    0.0000 C   0  0
    5.5933  -11.1714    0.0000 C   0  0
    6.0674  -10.5008    0.0000 C   0  0
    6.8858  -10.4860    0.0000 C   0  0
    7.3738  -11.1418    0.0000 N   0  0
    8.1486  -10.8791    0.0000 N   0  0
    8.1367  -10.0608    0.0000 C   0  0
    7.3545   -9.8207    0.0000 C   0  0
    5.8199   -9.0639    0.0000 C   0  0
  2  3  2  0
  1  2  1  0
  3  4  1  0
  4  5  2  0
  5  1  1  0
  7  8  1  0
  6  7  2  0
  8  9  1  0
  9 10  2  0
 10  6  1  0
  5  6  1  0
  1 11  1  0
M  END