
          05080814042D 1   1.00000     0.00000     0

 39 44  0     1  0            999 V2000
    7.5449  -20.3443    0.0000 C   0  0  0  0  0  0           0  0  0
    6.8340  -20.7593    0.0000 C   0  0  0  0  0  0           0  0  0
    6.8410  -21.5858    0.0000 C   0  0  0  0  0  0           0  0  0
    7.5550  -21.9893    0.0000 C   0  0  0  0  0  0           0  0  0
    8.2583  -20.7516    0.0000 C   0  0  0  0  0  0           0  0  0
    8.2644  -21.5795    0.0000 C   0  0  0  0  0  0           0  0  0
    8.9803  -21.9858    0.0000 C   0  0  0  0  0  0           0  0  0
    8.9682  -20.3302    0.0000 C   0  0  0  0  0  0           0  0  0
    9.6888  -20.7411    0.0000 C   0  0  2  0  0  0           0  0  0
    9.6933  -21.5709    0.0000 C   0  0  2  0  0  0           0  0  0
   10.4103  -21.9796    0.0000 N   0  0  3  0  0  0           0  0  0
   11.1272  -21.5631    0.0000 C   0  0  0  0  0  0           0  0  0
   11.1227  -20.7333    0.0000 C   0  0  1  0  0  0           0  0  0
   10.4012  -20.3200    0.0000 C   0  0  0  0  0  0           0  0  0
    9.6810  -19.9121    0.0000 H   0  0  0  0  0  0           0  0  0
    9.6851  -22.3959    0.0000 H   0  0  0  0  0  0           0  0  0
   11.8354  -20.3175    0.0000 C   0  0  0  0  0  0           0  0  0
   12.5519  -20.7269    0.0000 N   0  0  3  0  0  0           0  0  0
   11.8317  -19.4924    0.0000 O   0  0  0  0  0  0           0  0  0
   12.5496  -21.5553    0.0000 C   0  0  0  0  0  0           0  0  0
   13.2619  -21.9645    0.0000 C   0  0  0  0  0  0           0  0  0
   13.9771  -21.5523    0.0000 N   0  0  3  0  0  0           0  0  0
   13.9754  -20.7261    0.0000 C   0  0  0  0  0  0           0  0  0
   13.2585  -20.3123    0.0000 C   0  0  0  0  0  0           0  0  0
    7.5409  -19.5192    0.0000 O   0  0  0  0  0  0           0  0  0
    6.8243  -19.1100    0.0000 C   0  0  0  0  0  0           0  0  0
   10.4137  -22.8047    0.0000 C   0  0  0  0  0  0           0  0  0
   14.6920  -21.9643    0.0000 C   0  0  0  0  0  0           0  0  0
   14.6881  -22.7887    0.0000 C   0  0  0  0  0  0           0  0  0
   15.4021  -23.2007    0.0000 C   0  0  0  0  0  0           0  0  0
   16.1174  -22.7876    0.0000 C   0  0  0  0  0  0           0  0  0
   15.3996  -21.5499    0.0000 C   0  0  0  0  0  0           0  0  0
   16.1121  -21.9584    0.0000 C   0  0  0  0  0  0           0  0  0
   16.8201  -21.5457    0.0000 C   0  0  0  0  0  0           0  0  0
   16.8167  -20.7246    0.0000 C   0  0  0  0  0  0           0  0  0
   16.0994  -20.3179    0.0000 C   0  0  0  0  0  0           0  0  0
   15.3944  -20.7330    0.0000 C   0  0  0  0  0  0           0  0  0
   16.0908  -19.4952    0.0000 C   0  0  0  0  0  0           0  0  0
   16.0840  -18.6700    0.0000 N   0  0  0  0  0  0           0  0  0
  9  8  1  0     0  0
 17 19  2  0     0  0
 18 20  1  0     0  0
  9 10  1  0     0  0
  3  4  2  0     0  0
  4  6  1  0     0  0
  5  6  2  0     0  0
  1  2  2  0     0  0
 18 24  1  0     0  0
 20 21  1  0     0  0
 21 22  1  0     0  0
 22 23  1  0     0  0
 23 24  1  0     0  0
  5  1  1  0     0  0
  1 25  1  0     0  0
  2  3  1  0     0  0
 25 26  1  0     0  0
  9 14  1  0     0  0
 11 27  1  0     0  0
 10 11  1  0     0  0
 22 28  1  0     0  0
 11 12  1  0     0  0
 28 29  2  0     0  0
 12 13  1  0     0  0
 29 30  1  0     0  0
 13 14  1  0     0  0
 30 31  2  0     0  0
 31 33  1  0     0  0
 32 28  1  0     0  0
  9 15  1  6     0  0
 32 33  1  0     0  0
  5  8  1  0     0  0
 33 34  2  0     0  0
 10 16  1  1     0  0
 34 35  1  0     0  0
  6  7  1  0     0  0
 35 36  2  0     0  0
 13 17  1  1     0  0
 36 37  1  0     0  0
 37 32  2  0     0  0
  7 10  1  0     0  0
 17 18  1  0     0  0
 38 39  3  0     0  0
 36 38  1  0     0  0
M  END