
          11280714472D 1   1.00000     0.00000     0

 15 15  0     0  0            999 V2000
    0.8750   -2.2292    0.0000 C   0  0  0  0  0  0           0  0  0
    0.1625   -3.4750    0.0000 C   0  0  0  0  0  0           0  0  0
    0.1625   -2.6500    0.0000 C   0  0  0  0  0  0           0  0  0
    0.8750   -3.8875    0.0000 C   0  0  0  0  0  0           0  0  0
    1.5917   -2.6417    0.0000 C   0  0  0  0  0  0           0  0  0
    1.5917   -3.4750    0.0000 C   0  0  0  0  0  0           0  0  0
    0.8667   -1.4042    0.0000 C   0  0  0  0  0  0           0  0  0
   -0.5583   -3.8875    0.0000 Br  0  0  0  0  0  0           0  0  0
   -0.5500   -2.2375    0.0000 O   0  0  0  0  0  0           0  0  0
    1.5792   -0.1667    0.0000 N   0  0  0  0  0  0           0  0  0
    2.3042   -3.8875    0.0000 O   0  0  0  0  0  0           0  0  0
    1.5875   -0.9917    0.0000 C   0  0  3  0  0  0           0  0  0
   -0.5500   -1.4125    0.0000 C   0  0  0  0  0  0           0  0  0
    2.3042   -4.7125    0.0000 C   0  0  0  0  0  0           0  0  0
    2.3000   -1.4042    0.0000 C   0  0  0  0  0  0           0  0  0
  2  3  2  0     0  0
  3  1  1  0     0  0
  4  6  2  0     0  0
  5  1  2  0     0  0
  6  5  1  0     0  0
  7  1  1  0     0  0
  8  2  1  0     0  0
  9  3  1  0     0  0
 10 12  1  0     0  0
 11  6  1  0     0  0
 12  7  1  0     0  0
 13  9  1  0     0  0
 14 11  1  0     0  0
 15 12  1  0     0  0
  2  4  1  0     0  0
M  END