
          11280715482D 1   1.00000     0.00000     0

 31 31  0     0  0            999 V2000
    2.9625   -5.3792    0.0000 C   0  0  0  0  0  0           0  0  0
    3.5417   -5.9667    0.0000 C   0  0  0  0  0  0           0  0  0
    2.3792   -5.9667    0.0000 C   0  0  0  0  0  0           0  0  0
    2.9625   -6.5417    0.0000 C   0  0  0  0  0  0           0  0  0
    3.6792   -1.6667    0.0000 C   0  0  0  0  0  0           0  0  0
    8.6917   -2.0667    0.0000 C   0  0  0  0  0  0           0  0  0
    4.3917    0.4083    0.0000 C   0  0  0  0  0  0           0  0  0
    1.5542   -5.9667    0.0000 O   0  0  0  0  0  0           0  0  0
    2.9625   -7.3667    0.0000 O   0  0  0  0  0  0           0  0  0
    8.6917   -2.9042    0.0000 N   0  0  0  0  0  0           0  0  0
    4.3917   -2.0667    0.0000 N   0  0  0  0  0  0           0  0  0
    2.9625   -4.5542    0.0000 N   0  0  0  0  0  0           0  0  0
    4.3667   -5.9667    0.0000 N   0  0  0  0  0  0           0  0  0
    3.6792   -0.8292    0.0000 O   0  0  0  0  0  0           0  0  0
    3.6792    0.8208    0.0000 O   0  0  0  0  0  0           0  0  0
    2.9625   -2.0667    0.0000 O   0  0  0  0  0  0           0  0  0
    4.3917   -0.4167    0.0000 O   0  0  0  0  0  0           0  0  0
    7.9750   -1.6667    0.0000 N   0  0  0  0  0  0           0  0  0
    9.4042   -1.6667    0.0000 N   0  0  0  0  0  0           0  0  0
    5.1042    0.8208    0.0000 N   0  0  0  0  0  0           0  0  0
    5.1042   -0.8292    0.0000 C   0  0  0  0  0  0           0  0  0
    2.2417   -1.6667    0.0000 C   0  0  0  0  0  0           0  0  0
    0.8167   -1.6667    0.0000 N   0  0  0  0  0  0           0  0  0
    5.1042   -1.6667    0.0000 C   0  0  3  0  0  0           0  0  0
    1.5292   -2.0667    0.0000 C   0  0  3  0  0  0           0  0  0
    2.2417   -4.1417    0.0000 C   0  0  0  0  0  0           0  0  0
    7.2542   -2.0667    0.0000 C   0  0  0  0  0  0           0  0  0
    5.8250   -2.0667    0.0000 C   0  0  0  0  0  0           0  0  0
    1.5292   -2.9042    0.0000 C   0  0  0  0  0  0           0  0  0
    6.5417   -1.6667    0.0000 C   0  0  0  0  0  0           0  0  0
    2.2417   -3.3167    0.0000 C   0  0  0  0  0  0           0  0  0
  2  1  1  0     0  0
  3  1  1  0     0  0
  4  3  2  0     0  0
  5 16  1  0     0  0
  6 18  2  0     0  0
  7 17  1  0     0  0
  8  3  1  0     0  0
  9  4  1  0     0  0
 10  6  1  0     0  0
 11  5  1  0     0  0
 12  1  2  0     0  0
 13  2  2  0     0  0
 14  5  2  0     0  0
 15  7  2  0     0  0
 16 22  1  0     0  0
 17 21  1  0     0  0
 18 27  1  0     0  0
 19  6  1  0     0  0
 20  7  1  0     0  0
 21 24  1  0     0  0
 22 25  1  0     0  0
 23 25  1  0     0  0
 24 11  1  0     0  0
 25 29  1  0     0  0
 26 12  1  0     0  0
 27 30  1  0     0  0
 28 24  1  0     0  0
 29 31  1  0     0  0
 30 28  1  0     0  0
 31 26  1  0     0  0
  4  2  1  0     0  0
M  END