
  SciTegic09291413392D

 44 45  0  0  0  0            999 V2000
    8.5749   -5.8000    0.0000 O   0  0
    7.9031   -6.2855    0.0000 C   0  0
    8.1583   -7.0751    0.0000 C   0  0
    8.9875   -7.0751    0.0000 C   0  0
    9.2443   -6.2867    0.0000 C   0  0
   10.0290   -6.0323    0.0000 O   0  0
    9.4721   -7.7427    0.0000 C   0  0
    7.4833   -5.5667    0.0000 C   0  0
    7.4785   -6.9923    0.0000 C   0  0
    6.6536   -6.9780    0.0000 O   0  0
    6.6583   -5.5688    0.0000 O   0  0
    6.2440   -4.8554    0.0000 C   0  0
    5.4190   -4.8577    0.0000 C   0  0
    6.6546   -4.1399    0.0000 O   0  0
    9.0467   -8.4497    0.0000 C   0  0
    8.2211   -8.4332    0.0000 C   0  0
    7.7959   -9.1393    0.0000 C   0  0
    8.1955   -9.8621    0.0000 C   0  0
    9.0247   -9.8744    0.0000 C   0  0
    9.4462   -9.1677    0.0000 C   0  0
    5.0046   -4.1442    0.0000 C   0  0
    4.1796   -4.1464    0.0000 C   0  0
    5.4151   -3.4286    0.0000 C   0  0
    5.0008   -2.7153    0.0000 C   0  0
    5.4114   -1.9997    0.0000 C   0  0
    4.1758   -2.7175    0.0000 C   0  0
    3.7690   -4.8620    0.0000 C   0  0
    2.9440   -4.8641    0.0000 C   0  0
    4.1833   -5.5754    0.0000 C   0  0
   10.2711   -9.1801    0.0000 C   0  0
   10.6728   -9.9006    0.0000 C   0  0
   11.4977   -9.9130    0.0000 O   0  0
   10.2496  -10.6088    0.0000 O   0  0
   11.8994  -10.6336    0.0000 C   0  0
   12.7243  -10.6459    0.0000 C   0  0
   11.4763  -11.3418    0.0000 C   0  0
   12.3041  -11.3458    0.0000 C   0  0
   10.6942   -8.4719    0.0000 C   0  0
   11.5191   -8.4842    0.0000 O   0  0
   10.2925   -7.7513    0.0000 O   0  0
   11.9423   -7.7760    0.0000 C   0  0
   12.7672   -7.7884    0.0000 C   0  0
   11.5406   -7.0555    0.0000 C   0  0
   12.3500   -7.0583    0.0000 C   0  0
  2  3  1  0
  1  2  1  0
  3  4  1  0
  4  5  1  0
  5  1  1  0
  5  6  2  0
  4  7  2  0
  2  8  1  0
  2  9  1  0
  9 10  1  0
  8 11  1  0
 11 12  1  0
 12 13  1  0
 12 14  2  0
  7 15  1  0
 15 16  2  0
 16 17  1  0
 17 18  2  0
 18 19  1  0
 19 20  2  0
 20 15  1  0
 13 21  1  0
 21 22  1  0
 21 23  1  0
 23 24  1  0
 24 25  1  0
 24 26  1  0
 22 27  1  0
 27 28  1  0
 27 29  1  0
 20 30  1  0
 30 31  1  0
 31 32  1  0
 31 33  2  0
 32 34  1  0
 34 35  1  0
 34 36  1  0
 34 37  1  0
 30 38  1  0
 38 39  1  0
 38 40  2  0
 39 41  1  0
 41 42  1  0
 41 43  1  0
 41 44  1  0
M  END