
  SciTegic01161211252D

 27 30  0  0  0  0            999 V2000
   11.5574  -27.2333    0.0000 N   0  0
   12.2712  -27.6469    0.0000 C   0  0
   12.2700  -28.4719    0.0000 O   0  0
   12.9863  -27.2354    0.0000 C   0  0
   13.6985  -27.6498    0.0000 N   0  0
   14.4131  -27.2390    0.0000 C   0  0
   14.4147  -26.4132    0.0000 C   0  0
   13.6959  -25.9998    0.0000 C   0  0
   12.9842  -26.4129    0.0000 C   0  0
   15.1293  -26.0008    0.0000 O   0  0
   15.8437  -26.4133    0.0000 C   0  0
   15.8388  -27.2386    0.0000 C   0  0
   16.5524  -27.6511    0.0000 C   0  0
   17.2679  -27.2386    0.0000 C   0  0
   17.2653  -26.4093    0.0000 C   0  0
   16.5512  -26.0006    0.0000 C   0  0
   10.8744  -27.6962    0.0000 C   0  0
   10.0841  -27.4530    0.0000 C   0  0
   11.6162  -26.4108    0.0000 C   0  0
    9.7797  -26.6875    0.0000 N   0  0
   11.0099  -25.8492    0.0000 C   0  0
   10.1936  -25.9753    0.0000 C   0  0
    8.9550  -26.6877    0.0000 C   0  0
    8.3732  -26.1028    0.0000 C   0  0
    7.7883  -26.6846    0.0000 C   0  0
    8.3701  -27.2695    0.0000 C   0  0
   17.9784  -25.9944    0.0000 Cl  0  0
  6  7  2  0
 13 14  2  0
  2  4  1  0
 14 15  1  0
  7  8  1  0
 15 16  2  0
 16 11  1  0
  1 17  1  0
  8  9  2  0
 17 18  1  0
  9  4  1  0
  1 19  1  0
  4  5  2  0
 18 20  1  0
  7 10  1  0
 19 21  1  0
  2  3  2  0
 20 22  1  0
 21 22  1  0
 23 24  1  0
 10 11  1  0
  5  6  1  0
 11 12  2  0
  1  2  1  0
 24 25  1  0
 25 26  1  0
 26 23  1  0
 20 23  1  0
 12 13  1  0
 15 27  1  0
M  END