
  SciTegic01111613442D

 23 24  0  0  1  0            999 V2000
    2.3383    1.3500    0.0000 I   0  0
    0.0000   -2.7000    0.0000 I   0  0
    4.9235   -5.8621    0.0000 I   0  0
    2.5973   -1.5031    0.0000 O   0  0
    2.5806   -7.2040    0.0000 O   0  0
   -5.2024    2.6932    0.0000 O   0  0
   -6.2387    0.8917    0.0000 O   0  0
   -3.8969   -0.4545    0.0000 N   0  0
    1.2990   -0.7500    0.0000 C   0  0
    1.2990    0.7500    0.0000 C   0  0
    0.0000   -1.5000    0.0000 C   0  0
   -1.2990    0.7500    0.0000 C   0  0
    2.5951   -3.0039    0.0000 C   0  0
    0.0000    1.5000    0.0000 C   0  0
   -1.2990   -0.7500    0.0000 C   0  0
    3.8915   -3.7585    0.0000 C   0  0
    3.8864   -5.2585    0.0000 C   0  0
   -2.6003    1.4977    0.0000 C   0  0
    1.2935   -3.7495    0.0000 C   0  0
    2.5847   -6.0040    0.0000 C   0  0
    1.2883   -5.2495    0.0000 C   0  0
   -3.8990    0.7455    0.0000 C   0  0  1  0  0  0
   -5.2003    1.4932    0.0000 C   0  0
  1 10  1  0
  2 11  1  0
  3 17  1  0
  4  9  1  0
  4 13  1  0
  5 20  1  0
  6 23  1  0
  7 23  2  0
 22  8  1  6
  9 10  2  0
  9 11  1  0
 10 14  1  0
 11 15  2  0
 12 14  2  0
 12 15  1  0
 12 18  1  0
 13 16  1  0
 13 19  2  0
 16 17  2  0
 17 20  1  0
 18 22  1  0
 19 21  1  0
 20 21  2  0
 22 23  1  0
M  END