
  Mrv0541 04051115152D          

 27 29  0  0  0  0            999 V2000
   -2.4200   -0.7758    0.0000 O   0  0  0  0  0  0  0  0  0  0  0  0
   -2.5916    0.0311    0.0000 S   0  0  0  0  0  0  0  0  0  0  0  0
   -2.7631    0.8381    0.0000 O   0  0  0  0  0  0  0  0  0  0  0  0
   -3.3985   -0.1404    0.0000 C   0  0  0  0  0  0  0  0  0  0  0  0
   -3.9506    0.4727    0.0000 C   0  0  0  0  0  0  0  0  0  0  0  0
   -4.7575    0.3012    0.0000 C   0  0  0  0  0  0  0  0  0  0  0  0
   -1.7846    0.2027    0.0000 N   0  0  0  0  0  0  0  0  0  0  0  0
   -1.2326   -0.4104    0.0000 C   0  0  0  0  0  0  0  0  0  0  0  0
   -0.4256   -0.2389    0.0000 C   0  0  0  0  0  0  0  0  0  0  0  0
   -0.1707    0.5457    0.0000 F   0  0  0  0  0  0  0  0  0  0  0  0
   -1.4875   -1.1951    0.0000 C   0  0  0  0  0  0  0  0  0  0  0  0
   -0.9355   -1.8081    0.0000 C   0  0  0  0  0  0  0  0  0  0  0  0
   -0.1285   -1.6366    0.0000 C   0  0  0  0  0  0  0  0  0  0  0  0
    0.4235   -2.2497    0.0000 F   0  0  0  0  0  0  0  0  0  0  0  0
    0.1264   -0.8520    0.0000 C   0  0  0  0  0  0  0  0  0  0  0  0
    0.9334   -0.6805    0.0000 C   0  0  0  0  0  0  0  0  0  0  0  0
    1.4854   -1.2936    0.0000 O   0  0  0  0  0  0  0  0  0  0  0  0
    1.1884    0.1041    0.0000 C   0  0  0  0  0  0  0  0  0  0  0  0
    0.7034    0.7716    0.0000 C   0  0  0  0  0  0  0  0  0  0  0  0
    1.9730    0.3591    0.0000 C   0  0  0  0  0  0  0  0  0  0  0  0
    2.6874   -0.0534    0.0000 C   0  0  0  0  0  0  0  0  0  0  0  0
    1.9730    1.1841    0.0000 C   0  0  0  0  0  0  0  0  0  0  0  0
    1.1884    1.4390    0.0000 N   0  0  0  0  0  0  0  0  0  0  0  0
    2.6874    1.5966    0.0000 N   0  0  0  0  0  0  0  0  0  0  0  0
    3.4019    1.1841    0.0000 C   0  0  0  0  0  0  0  0  0  0  0  0
    3.4019    0.3591    0.0000 C   0  0  0  0  0  0  0  0  0  0  0  0
    4.1164   -0.0534    0.0000 Cl  0  0  0  0  0  0  0  0  0  0  0  0
  1  2  2  0  0  0  0
  3  2  2  0  0  0  0
  4  2  1  0  0  0  0
  7  2  1  0  0  0  0
  4  5  1  0  0  0  0
  5  6  1  0  0  0  0
  8  7  1  0  0  0  0
  8  9  2  0  0  0  0
 11  8  1  0  0  0  0
  9 10  1  0  0  0  0
 15  9  1  0  0  0  0
 12 11  2  0  0  0  0
 13 12  1  0  0  0  0
 13 14  1  0  0  0  0
 15 13  2  0  0  0  0
 16 15  1  0  0  0  0
 16 17  2  0  0  0  0
 16 18  1  0  0  0  0
 19 18  2  0  0  0  0
 20 18  1  0  0  0  0
 19 23  1  0  0  0  0
 21 20  2  0  0  0  0
 20 22  1  0  0  0  0
 21 26  1  0  0  0  0
 22 23  1  0  0  0  0
 22 24  2  0  0  0  0
 25 24  1  0  0  0  0
 25 26  2  0  0  0  0
 26 27  1  0  0  0  0
M  END