
          11280715492D 1   1.00000     0.00000     0

 58 63  0     1  0            999 V2000
    8.2549  -20.4876    0.0000 N   0  0  0  0  0  0           0  0  0
    8.2270  -18.0119    0.0000 C   0  0  0  0  0  0           0  0  0
    7.4976  -16.7847    0.0000 N   0  0  0  0  0  0           0  0  0
    8.2165  -17.1893    0.0000 C   0  0  1  0  0  0           0  0  0
    8.9271  -16.7678    0.0000 C   0  0  0  0  0  0           0  0  0
    8.9187  -15.9416    0.0000 C   0  0  0  0  0  0           0  0  0
    8.1998  -15.5370    0.0000 C   0  0  0  0  0  0           0  0  0
    8.1893  -14.7145    0.0000 C   0  0  0  0  0  0           0  0  0
    8.8999  -14.2929    0.0000 C   0  0  0  0  0  0           0  0  0
    8.8915  -13.4668    0.0000 O   0  0  0  0  0  0           0  0  0
    9.6189  -14.6975    0.0000 C   0  0  0  0  0  0           0  0  0
    9.6273  -15.5237    0.0000 C   0  0  0  0  0  0           0  0  0
    8.9459  -18.4165    0.0000 O   0  0  0  0  0  0           0  0  0
    7.5164  -18.4334    0.0000 N   0  0  3  0  0  0           0  0  0
   10.3462  -15.9283    0.0000 C   0  0  0  0  0  0           0  0  0
    7.4885  -15.9598    0.0000 C   0  0  0  0  0  0           0  0  0
    6.7985  -18.0249    0.0000 C   0  0  0  0  0  0           0  0  0
    6.8157  -19.6762    0.0000 C   0  0  0  0  0  0           0  0  0
    7.5304  -19.2565    0.0000 C   0  0  3  0  0  0           0  0  0
    6.0955  -19.2694    0.0000 C   0  0  0  0  0  0           0  0  0
    6.0903  -18.4467    0.0000 C   0  0  0  0  0  0           0  0  0
    5.3764  -18.0416    0.0000 C   0  0  0  0  0  0           0  0  0
    4.6671  -18.4581    0.0000 C   0  0  0  0  0  0           0  0  0
    4.6763  -19.2839    0.0000 C   0  0  0  0  0  0           0  0  0
    5.3908  -19.6853    0.0000 C   0  0  0  0  0  0           0  0  0
    8.2499  -19.6602    0.0000 C   0  0  0  0  0  0           0  0  0
    8.9593  -19.2390    0.0000 O   0  0  0  0  0  0           0  0  0
    6.8260  -20.4799    0.0000 C   0  0  0  0  0  0           0  0  0
    7.5382  -20.8962    0.0000 C   0  0  0  0  0  0           0  0  0
    6.1129  -20.8947    0.0000 C   0  0  0  0  0  0           0  0  0
    6.1156  -21.7197    0.0000 C   0  0  0  0  0  0           0  0  0
    5.4025  -22.1345    0.0000 N   0  0  0  0  0  0           0  0  0
    3.2721  -20.8719    0.0000 C   0  0  0  0  0  0           0  0  0
    1.8446  -20.8559    0.0000 N   0  0  0  0  0  0           0  0  0
    2.5643  -20.4526    0.0000 C   0  0  1  0  0  0           0  0  0
    2.5742  -19.6265    0.0000 C   0  0  0  0  0  0           0  0  0
    1.8644  -19.2036    0.0000 C   0  0  0  0  0  0           0  0  0
    1.1447  -19.6069    0.0000 C   0  0  0  0  0  0           0  0  0
    0.4370  -19.1877    0.0000 C   0  0  0  0  0  0           0  0  0
    0.4440  -18.3563    0.0000 C   0  0  0  0  0  0           0  0  0
   -0.2658  -17.9335    0.0000 O   0  0  0  0  0  0           0  0  0
    1.1637  -17.9531    0.0000 C   0  0  0  0  0  0           0  0  0
    1.8764  -18.3811    0.0000 C   0  0  0  0  0  0           0  0  0
    3.9918  -20.4686    0.0000 O   0  0  0  0  0  0           0  0  0
    3.2621  -21.6980    0.0000 N   0  0  3  0  0  0           0  0  0
    2.5961  -17.9778    0.0000 C   0  0  0  0  0  0           0  0  0
    1.1355  -20.4343    0.0000 C   0  0  0  0  0  0           0  0  0
    2.5396  -22.0984    0.0000 C   0  0  0  0  0  0           0  0  0
    3.9586  -22.9432    0.0000 C   0  0  0  0  0  0           0  0  0
    3.9722  -22.1144    0.0000 C   0  0  3  0  0  0           0  0  0
    3.2364  -23.3464    0.0000 C   0  0  0  0  0  0           0  0  0
    2.5312  -22.9226    0.0000 C   0  0  0  0  0  0           0  0  0
    1.8137  -23.3213    0.0000 C   0  0  0  0  0  0           0  0  0
    1.8001  -24.1438    0.0000 C   0  0  0  0  0  0           0  0  0
    2.5101  -24.5658    0.0000 C   0  0  0  0  0  0           0  0  0
    3.2247  -24.1646    0.0000 C   0  0  0  0  0  0           0  0  0
    4.6915  -21.7103    0.0000 C   0  0  0  0  0  0           0  0  0
    4.7010  -20.8853    0.0000 O   0  0  0  0  0  0           0  0  0
  2 14  1  0     0  0
 28 29  1  0     0  0
 29  1  1  0     0  0
 12 15  1  0     0  0
 28 30  1  0     0  0
  7 16  1  0     0  0
 30 31  1  0     0  0
 31 32  1  0     0  0
 14 17  1  0     0  0
  4  3  1  1     0  0
  2  4  1  0     0  0
  4  5  1  0     0  0
 14 19  1  0     0  0
 17 21  1  0     0  0
 20 18  1  0     0  0
 18 19  1  0     0  0
  5  6  1  0     0  0
  6  7  2  0     0  0
 20 21  2  0     0  0
  7  8  1  0     0  0
 21 22  1  0     0  0
  8  9  2  0     0  0
 35 34  1  1     0  0
 33 35  1  0     0  0
 35 36  1  0     0  0
 36 37  1  0     0  0
 37 38  2  0     0  0
 38 39  1  0     0  0
 39 40  2  0     0  0
 40 41  1  0     0  0
 40 42  1  0     0  0
 42 43  2  0     0  0
 37 43  1  0     0  0
 33 44  2  0     0  0
 33 45  1  0     0  0
 43 46  1  0     0  0
 38 47  1  0     0  0
 22 23  2  0     0  0
 45 48  1  0     0  0
  9 10  1  0     0  0
 23 24  1  0     0  0
  9 11  1  0     0  0
 45 50  1  0     0  0
 48 52  1  0     0  0
 51 49  1  0     0  0
 49 50  1  0     0  0
 24 25  2  0     0  0
 25 20  1  0     0  0
 51 52  2  0     0  0
 11 12  2  0     0  0
 52 53  1  0     0  0
 19 26  1  0     0  0
 53 54  2  0     0  0
  6 12  1  0     0  0
 54 55  1  0     0  0
 26 27  2  0     0  0
 55 56  2  0     0  0
 56 51  1  0     0  0
  1 26  1  0     0  0
 50 57  1  0     0  0
  2 13  2  0     0  0
 57 58  2  0     0  0
 32 57  1  0     0  0
M  END