
  SciTegic11201309402D

 19 20  0  0  1  0            999 V2000
    3.8497   -5.6784    0.0000 N   0  0
    3.1440   -6.0918    0.0000 C   0  0  2  0  0  0
    2.4217   -5.6784    0.0000 C   0  0  1  0  0  0
    1.7077   -6.0918    0.0000 C   0  0
    0.9938   -5.6784    0.0000 O   0  0
    2.4217   -4.8517    0.0000 O   0  0
    0.2756   -6.0918    0.0000 C   0  0
    3.8497   -4.8517    0.0000 C   0  0
    4.5636   -6.0918    0.0000 C   0  0
    3.1440   -6.9185    0.0000 C   0  0
   -0.4384   -5.6784    0.0000 C   0  0
    0.2798   -6.9185    0.0000 C   0  0
    4.5636   -6.9185    0.0000 C   0  0
    3.8497   -7.3319    0.0000 C   0  0
   -0.4342   -7.3319    0.0000 C   0  0
   -1.1524   -6.0918    0.0000 C   0  0
   -1.1524   -6.9268    0.0000 C   0  0
    1.7077   -5.2651    0.0000 H   0  0
    3.1357   -5.2651    0.0000 H   0  0
  2  1  1  0
  3  2  1  0
  4  3  1  0
  5  4  1  0
  3  6  1  0
  7  5  1  0
  8  1  1  0
  9  1  1  0
 10  2  1  0
 11  7  2  0
 12  7  1  0
 13  9  1  0
 14 13  1  0
 15 12  2  0
 16 11  1  0
 17 15  1  0
  3 18  1  6
  2 19  1  6
 14 10  1  0
 17 16  2  0
M  END