
          11290713132D 1   1.00000     0.00000     0

 67 74  0     1  0            999 V2000
    9.5226  -16.5025    0.0000 N   0  0  0  0  0  0           0  0  0
   10.2384  -16.9127    0.0000 C   0  0  0  0  0  0           0  0  0
   10.2410  -17.7377    0.0000 O   0  0  0  0  0  0           0  0  0
   10.9515  -16.4979    0.0000 C   0  0  0  0  0  0           0  0  0
   11.6673  -16.9081    0.0000 O   0  0  0  0  0  0           0  0  0
   11.6700  -17.7331    0.0000 C   0  0  0  0  0  0           0  0  0
   10.9584  -18.1448    0.0000 C   0  0  0  0  0  0           0  0  0
   10.9607  -18.9691    0.0000 C   0  0  0  0  0  0           0  0  0
   11.6770  -19.3801    0.0000 C   0  0  0  0  0  0           0  0  0
   12.3925  -18.9608    0.0000 C   0  0  0  0  0  0           0  0  0
   12.3867  -18.1380    0.0000 C   0  0  0  0  0  0           0  0  0
   11.6808  -20.2051    0.0000 C   0  0  0  0  0  0           0  0  0
   12.3971  -20.6143    0.0000 C   0  0  0  0  0  0           0  0  0
   12.4009  -21.4393    0.0000 C   0  0  0  0  0  0           0  0  0
   11.7376  -21.9283    0.0000 C   0  0  0  0  0  0           0  0  0
   11.9961  -22.7117    0.0000 C   0  0  0  0  0  0           0  0  0
   13.0724  -21.9222    0.0000 N   0  3  0  0  0  0           0  0  0
   12.8221  -22.7039    0.0000 C   0  0  0  0  0  0           0  0  0
   13.3709  -23.3082    0.0000 C   0  0  0  0  0  0           0  0  0
   13.8715  -21.7447    0.0000 B   0  5  0  0  0  0           0  0  0
   14.4232  -22.3547    0.0000 N   0  0  3  0  0  0           0  0  0
   14.1768  -23.1353    0.0000 C   0  0  0  0  0  0           0  0  0
   14.8430  -23.6109    0.0000 C   0  0  0  0  0  0           0  0  0
   15.5013  -23.1242    0.0000 C   0  0  0  0  0  0           0  0  0
   15.2417  -22.3479    0.0000 C   0  0  0  0  0  0           0  0  0
   13.6542  -20.9417    0.0000 F   0  0  0  0  0  0           0  0  0
   14.6667  -21.5250    0.0000 F   0  0  0  0  0  0           0  0  0
   15.7210  -21.6764    0.0000 C   0  0  0  0  0  0           0  0  0
   16.5457  -21.6679    0.0000 C   0  0  0  0  0  0           0  0  0
   16.7941  -20.8812    0.0000 C   0  0  0  0  0  0           0  0  0
   16.1225  -20.4019    0.0000 C   0  0  0  0  0  0           0  0  0
   15.4593  -20.8925    0.0000 S   0  0  0  0  0  0           0  0  0
    5.2406  -18.1655    0.0000 N   0  0  0  0  0  0           0  0  0
    5.9538  -17.7507    0.0000 C   0  0  0  0  0  0           0  0  0
    6.6696  -18.1609    0.0000 O   0  0  0  0  0  0           0  0  0
    5.9511  -16.9257    0.0000 C   0  0  0  0  0  0           0  0  0
    6.6642  -16.5109    0.0000 C   0  0  0  0  0  0           0  0  0
    7.3800  -16.9211    0.0000 C   0  0  0  0  0  0           0  0  0
    8.0932  -16.5063    0.0000 C   0  0  0  0  0  0           0  0  0
    8.8090  -16.9165    0.0000 C   0  0  0  0  0  0           0  0  0
    0.9581  -20.6610    0.0000 N   0  0  0  0  0  0           0  0  0
    1.6745  -20.2477    0.0000 C   0  0  0  0  0  0           0  0  0
    1.6716  -19.4172    0.0000 N   0  0  0  0  0  0           0  0  0
    0.9563  -19.0080    0.0000 C   0  0  0  0  0  0           0  0  0
    0.2432  -20.2482    0.0000 C   0  0  0  0  0  0           0  0  0
    0.2399  -19.4239    0.0000 C   0  0  0  0  0  0           0  0  0
   -0.5451  -19.1723    0.0000 N   0  0  0  0  0  0           0  0  0
   -1.0270  -19.8411    0.0000 C   0  0  0  0  0  0           0  0  0
   -0.5397  -20.5060    0.0000 N   0  0  3  0  0  0           0  0  0
   -0.9583  -21.2167    0.0000 C   0  0  2  0  0  0           0  0  0
   -1.7789  -21.3003    0.0000 O   0  0  0  0  0  0           0  0  0
   -1.9574  -22.1055    0.0000 C   0  0  1  0  0  0           0  0  0
   -1.2467  -22.5242    0.0000 C   0  0  2  0  0  0           0  0  0
   -0.6290  -21.9776    0.0000 C   0  0  1  0  0  0           0  0  0
   -2.7140  -22.4345    0.0000 C   0  0  0  0  0  0           0  0  0
   -3.3772  -21.9437    0.0000 O   0  0  0  0  0  0           0  0  0
   -2.8074  -23.2542    0.0000 N   0  0  0  0  0  0           0  0  0
   -3.5640  -23.5831    0.0000 C   0  0  0  0  0  0           0  0  0
   -3.6574  -24.4028    0.0000 C   0  0  0  0  0  0           0  0  0
   -1.1676  -23.3454    0.0000 O   0  0  0  0  0  0           0  0  0
    0.1763  -22.1568    0.0000 O   0  0  0  0  0  0           0  0  0
    0.9536  -18.1830    0.0000 N   0  0  0  0  0  0           0  0  0
    1.6667  -17.7682    0.0000 C   0  0  0  0  0  0           0  0  0
    2.3825  -18.1784    0.0000 C   0  0  0  0  0  0           0  0  0
    3.0957  -17.7636    0.0000 C   0  0  0  0  0  0           0  0  0
    3.8115  -18.1738    0.0000 C   0  0  0  0  0  0           0  0  0
    4.5246  -17.7590    0.0000 C   0  0  0  0  0  0           0  0  0
 31 32  1  0     0  0
 32 28  1  0     0  0
 15 16  2  0     0  0
 16 18  1  0     0  0
 33 34  1  0     0  0
 17 14  2  0     0  0
 34 35  2  0     0  0
 17 18  1  0     0  0
 34 36  1  0     0  0
 36 37  1  0     0  0
  8  9  2  0     0  0
 37 38  1  0     0  0
  4  5  1  0     0  0
 38 39  1  0     0  0
  9 10  1  0     0  0
 39 40  1  0     0  0
 40  1  1  0     0  0
 17 20  1  0     0  0
 45 41  1  0     0  0
 18 19  2  0     0  0
 41 42  2  0     0  0
 19 22  1  0     0  0
 42 43  1  0     0  0
 21 20  1  0     0  0
 43 44  2  0     0  0
 44 46  1  0     0  0
 45 46  2  0     0  0
 21 22  1  0     0  0
  2  3  2  0     0  0
 10 11  2  0     0  0
 11  6  1  0     0  0
  5  6  1  0     0  0
 46 47  1  0     0  0
 47 48  2  0     0  0
 48 49  1  0     0  0
 49 45  1  0     0  0
  9 12  1  0     0  0
 50 49  1  1     0  0
 50 51  1  0     0  0
 22 23  2  0     0  0
 23 24  1  0     0  0
 24 25  2  0     0  0
 25 21  1  0     0  0
 51 52  1  0     0  0
 52 53  1  0     0  0
 53 54  1  0     0  0
 54 50  1  0     0  0
  1  2  1  0     0  0
 52 55  1  1     0  0
 20 26  1  0     0  0
 55 56  2  0     0  0
 12 13  2  0     0  0
 55 57  1  0     0  0
 20 27  1  0     0  0
 57 58  1  0     0  0
  6  7  2  0     0  0
 58 59  1  0     0  0
 25 28  1  0     0  0
 53 60  1  6     0  0
 28 29  2  0     0  0
 54 61  1  6     0  0
 13 14  1  0     0  0
 44 62  1  0     0  0
 14 15  1  0     0  0
 62 63  1  0     0  0
  2  4  1  0     0  0
 63 64  1  0     0  0
  7  8  1  0     0  0
 64 65  1  0     0  0
 29 30  1  0     0  0
 65 66  1  0     0  0
 30 31  2  0     0  0
 66 67  1  0     0  0
 67 33  1  0     0  0
M  CHG  2  17   1  20  -1
M  END