
  SciTegic11201309402D

 25 27  0  0  0  0            999 V2000
   -1.9842   -0.8310    0.0000 C   0  0
   -1.1772   -1.0025    0.0000 C   0  0
   -1.4321   -1.7871    0.0000 C   0  0
   -1.0909   -0.1820    0.0000 O   0  0
   -0.4235   -1.3381    0.0000 O   0  0
    0.1285   -0.7250    0.0000 C   0  0  1  0  0  0
    0.9535   -0.7250    0.0000 C   0  0  2  0  0  0
    1.5056   -1.3381    0.0000 O   0  0
    2.2592   -1.0025    0.0000 C   0  0
    2.5142   -1.7871    0.0000 C   0  0
    3.0662   -0.8310    0.0000 C   0  0
    2.1730   -0.1820    0.0000 O   0  0
    1.3660   -0.0105    0.0000 C   0  0  2  0  0  0
    0.9535    0.7040    0.0000 C   0  0
    0.1285    0.7040    0.0000 O   0  0
   -0.2840   -0.0105    0.0000 C   0  0  1  0  0  0
   -0.7689    0.6569    0.0000 C   0  0
   -0.4333    1.4106    0.0000 O   0  0
   -0.9183    2.0781    0.0000 S   0  0
   -1.4032    2.7455    0.0000 O   0  0
   -0.2508    2.5630    0.0000 O   0  0
   -1.5857    1.5931    0.0000 N   0  0
    1.9538    0.7985    0.0000 H   0  0
    0.5468   -1.6386    0.0000 H   0  0
    0.5353   -1.6385    0.0000 H   0  0
  1  2  1  0
  2  3  1  0
  2  4  1  0
  2  5  1  0
 16  4  1  0
  6  5  1  0
  7  6  1  0
  6 16  1  0
  7  8  1  0
 13  7  1  0
  9  8  1  0
 10  9  1  0
  9 11  1  0
  9 12  1  0
 13 12  1  0
 13 14  1  0
 14 15  1  0
 16 15  1  0
 16 17  1  1
 17 18  1  0
 18 19  1  0
 20 19  2  0
 21 19  2  0
 22 19  1  0
 13 23  1  6
  7 24  1  6
  6 25  1  1
M  END