
  SciTegic05171617262D

 41 46  0  0  0  0            999 V2000
   13.3876    9.0138    0.0000 C   0  0
   12.2223    9.3002    0.0000 C   0  0
   13.0531   10.1661    0.0000 C   0  0
   11.8042   10.7417    0.0000 C   0  0
   12.6347   11.6079    0.0000 O   0  0
   11.1855    8.2187    0.0000 C   0  0
   11.4514    6.7424    0.0000 C   0  0
   10.1326    6.0550    0.0000 C   0  0
    9.9261    4.5685    0.0000 N   0  0
    8.5358    4.0031    0.0000 C   0  0
    7.5888    4.7401    0.0000 O   0  0
    8.3293    2.5166    0.0000 N   0  0
    6.9391    1.9512    0.0000 C   0  0
    6.7306    0.4658    0.0000 C   0  0
    5.3399   -0.0964    0.0000 C   0  0
    4.1622    0.8244    0.0000 C   0  0
    4.3662    2.3123    0.0000 C   0  0
    5.7569    2.8745    0.0000 C   0  0
    2.7318    0.3704    0.0000 C   0  0
    1.5048    1.2733    0.0000 C   0  0
    0.3010    0.3704    0.0000 N   0  0
    0.7408   -1.0186    0.0000 C   0  0
    2.2688   -1.0186    0.0000 N   0  0
   -0.4399   -1.9215    0.0000 S   0  0
   -1.6669   -1.0186    0.0000 C   0  0
   -3.1485   -1.3659    0.0000 C   0  0
   -4.1672    0.0000    0.0000 C   0  0
   -5.6666   -0.0664    0.0000 O   0  0
   -6.4725    1.1997    0.0000 C   0  0
   -7.9719    1.1358    0.0000 C   0  0
   -8.7778    2.4019    0.0000 N   0  0
  -10.2766    2.3402    0.0000 C   0  0
  -11.0794    3.6073    0.0000 C   0  0
  -10.3836    4.9361    0.0000 O   0  0
   -8.8849    4.9979    0.0000 C   0  0
   -8.0820    3.7308    0.0000 C   0  0
   -3.6810    1.1807    0.0000 C   0  0
   -2.2225    1.5280    0.0000 C   0  0
   -1.2039    0.3704    0.0000 C   0  0
    9.0467    7.0714    0.0000 N   0  0
    9.6993    8.4220    0.0000 O   0  0
  1  2  1  0
  2  3  1  0
  2  4  1  0
  4  5  1  0
  2  6  1  0
  6  7  2  0
  7  8  1  0
  8  9  1  0
  9 10  1  0
 10 11  2  0
 10 12  1  0
 12 13  1  0
 13 14  2  0
 14 15  1  0
 15 16  2  0
 16 17  1  0
 17 18  2  0
 13 18  1  0
 16 19  1  0
 19 20  2  0
 20 21  1  0
 21 22  1  0
 22 23  2  0
 19 23  1  0
 22 24  1  0
 24 25  1  0
 25 26  2  0
 26 27  1  0
 27 28  1  0
 28 29  1  0
 29 30  1  0
 30 31  1  0
 31 32  1  0
 32 33  1  0
 33 34  1  0
 34 35  1  0
 35 36  1  0
 31 36  1  0
 27 37  2  0
 37 38  1  0
 38 39  2  0
 21 39  1  0
 25 39  1  0
  8 40  2  0
 40 41  1  0
  6 41  1  0
M  END