
  CDK    9/16/09,9:44

 22 25  0  0  0  0  0  0  0  0999 V2000
    4.0990   -7.4834    0.0000 C   0  0  0  0  0  0  0  0  0  0  0  0
    4.0990   -8.3124    0.0000 N   0  0  0  0  0  0  0  0  0  0  0  0
    4.8129   -7.0667    0.0000 C   0  0  0  0  0  0  0  0  0  0  0  0
    5.5314   -7.4834    0.0000 C   0  0  0  0  0  0  0  0  0  0  0  0
    6.9605   -8.3109    0.0000 C   0  0  0  0  0  0  0  0  0  0  0  0
    6.9582   -7.4807    0.0000 C   0  0  0  0  0  0  0  0  0  0  0  0
    6.2432   -7.0712    0.0000 C   0  0  0  0  0  0  0  0  0  0  0  0
    6.2441   -8.7237    0.0000 C   0  0  0  0  0  0  0  0  0  0  0  0
    5.5268   -8.3120    0.0000 C   0  0  0  0  0  0  0  0  0  0  0  0
    4.8155   -8.7250    0.0000 C   0  0  0  0  0  0  0  0  0  0  0  0
    4.8153   -9.5515    0.0000 C   0  0  0  0  0  0  0  0  0  0  0  0
    6.2502   -9.5485    0.0000 C   0  0  0  0  0  0  0  0  0  0  0  0
    5.5345   -9.9590    0.0000 C   0  0  0  0  0  0  0  0  0  0  0  0
    5.5331  -10.7821    0.0000 C   0  0  0  0  0  0  0  0  0  0  0  0
    6.2466  -11.1958    0.0000 C   0  0  0  0  0  0  0  0  0  0  0  0
    6.9631  -10.7802    0.0000 C   0  0  0  0  0  0  0  0  0  0  0  0
    6.9610   -9.9585    0.0000 C   0  0  0  0  0  0  0  0  0  0  0  0
    7.6742   -9.5452    0.0000 O   0  0  0  0  0  0  0  0  0  0  0  0
    7.6780  -11.1908    0.0000 O   0  0  0  0  0  0  0  0  0  0  0  0
    3.3845   -8.7200    0.0000 C   0  0  0  0  0  0  0  0  0  0  0  0
    4.0990   -9.1322    0.0000 H   0  0  0  0  0  0  0  0  0  0  0  0
    7.6708   -7.0662    0.0000 Br  0  0  0  0  0  0  0  0  0  0  0  0
  8 12  1  0  0  0  0 
  9 10  1  0  0  0  0 
 10 11  1  0  0  0  0 
 11 13  1  0  0  0  0 
  8  5  2  0  0  0  0 
  1  3  1  0  0  0  0 
 12 13  2  0  0  0  0 
  5  6  1  0  0  0  0 
 13 14  1  0  0  0  0 
  2 10  1  0  0  0  0 
 14 15  2  0  0  0  0 
  6  7  2  0  0  0  0 
 15 16  1  0  0  0  0 
  7  4  1  0  0  0  0 
 16 17  2  0  0  0  0 
 17 12  1  0  0  0  0 
  8  9  1  0  0  0  0 
 17 18  1  0  0  0  0 
  4  3  1  0  0  0  0 
 16 19  1  0  0  0  0 
  1  2  1  0  0  0  0 
  2 20  1  0  0  0  0 
  4  9  2  0  0  0  0 
 10 21  1  6  0  0  0 
  6 22  1  0  0  0  0 
M  END