
  SciTegic11201309402D

 97100  0  0  1  0            999 V2000
   11.9542   -1.4750    0.0000 C   0  0  1  0  0  0
   12.6667   -1.0792    0.0000 C   0  0
   11.2542   -1.0625    0.0000 N   0  0
    8.4167   -2.6542    0.0000 C   0  0
   14.7667   -1.5125    0.0000 C   0  0
    4.2167   -0.9792    0.0000 C   0  0
   10.5417   -1.4625    0.0000 C   0  0
    2.0917   -1.3625    0.0000 C   0  0
    6.3167   -1.4125    0.0000 C   0  0
    8.4417   -1.0292    0.0000 C   0  0
   13.3625   -1.4917    0.0000 N   0  0
    2.8042   -0.9625    0.0000 N   0  0
   14.0667   -1.0917    0.0000 C   0  0  1  0  0  0
    3.5042   -1.3792    0.0000 C   0  0  1  0  0  0
    9.7042   -2.9417    0.0000 N   0  0
    4.9167   -1.3917    0.0000 N   0  0
    7.0292   -1.0125    0.0000 N   0  0
   15.4792   -1.1167    0.0000 N   0  0
    9.1667   -2.3292    0.0000 C   0  0
    9.1417   -1.4417    0.0000 N   0  0
    7.7292   -1.4292    0.0000 C   0  0  2  0  0  0
    5.6167   -0.9917    0.0000 C   0  0  1  0  0  0
    1.4000   -0.9417    0.0000 C   0  0  2  0  0  0
   -0.0250   -0.9292    0.0000 C   0  0
    0.6875   -1.3417    0.0000 N   0  0
    8.4917   -3.4667    0.0000 C   0  0
    7.7167   -2.2375    0.0000 C   0  0
   16.1917   -1.5417    0.0000 C   0  0  2  0  0  0
    9.8417   -1.0417    0.0000 C   0  0  1  0  0  0
    9.2917   -3.6417    0.0000 C   0  0
   -2.1750    0.3125    0.0000 C   0  0
   -6.4667    0.3125    0.0000 C   0  0
   -6.4667   -2.1625    0.0000 C   0  0
   -4.3208   -2.5792    0.0000 C   0  0
   12.6667   -0.2667    0.0000 O   0  0
   -1.4583   -0.9292    0.0000 N   0  0
   -5.7500   -0.9292    0.0000 N   0  0
   14.7542   -2.3250    0.0000 O   0  0
    4.2250   -0.1667    0.0000 O   0  0
   10.5375   -2.2750    0.0000 O   0  0
    6.3125   -2.2250    0.0000 O   0  0
    2.0875   -2.1750    0.0000 O   0  0
    8.4500   -0.2167    0.0000 O   0  0
    5.6292   -0.1792    0.0000 C   0  0
    1.4042   -0.1292    0.0000 C   0  0
   -0.0250   -0.1042    0.0000 O   0  0
   11.9417   -2.2917    0.0000 C   0  0  2  0  0  0
   -0.7458   -1.3375    0.0000 C   0  0
   -6.4667    1.1458    0.0000 O   0  0
   -7.1792   -2.5792    0.0000 O   0  0
   -2.1750    1.1458    0.0000 O   0  0
   -5.0333   -2.1625    0.0000 O   0  0
   -6.4667   -1.3375    0.0000 C   0  0
   -5.7500   -0.1042    0.0000 C   0  0
   -1.4583   -0.1042    0.0000 C   0  0
   -3.6000   -1.3375    0.0000 N   0  0
   -3.6000   -2.1625    0.0000 C   0  0
   16.1792   -2.3667    0.0000 C   0  0  1  0  0  0
   -2.1750   -1.3375    0.0000 C   0  0
   -5.0333   -1.3375    0.0000 C   0  0
   14.7917    0.1208    0.0000 S   0  0
    4.1917   -2.6042    0.0000 S   0  0
   -7.1792   -0.1042    0.0000 O   0  0
   -4.3208   -3.4042    0.0000 O   0  0
   -5.7500   -2.5792    0.0000 O   0  0
   -2.8958   -0.1042    0.0000 O   0  0
    3.4917   -2.1917    0.0000 C   0  0
   14.0792   -0.2792    0.0000 C   0  0
   -4.3208   -0.9292    0.0000 C   0  0
   -2.8958   -0.9292    0.0000 C   0  0
    2.1167    0.2625    0.0000 C   0  0
    6.3417    0.2125    0.0000 C   0  0
   11.2917    2.1958    0.0000 N   0  0
   12.6417   -2.7042    0.0000 O   0  0
   16.8875   -2.7875    0.0000 O   0  0
   16.9125   -1.1375    0.0000 C   0  0
   17.6167   -1.5542    0.0000 O   0  0
    7.9417   -4.0667    0.0000 C   0  0
    9.8542   -0.2292    0.0000 C   0  0
    9.5292   -4.4167    0.0000 C   0  0
   11.2792    1.3750    0.0000 C   0  0
   11.2292   -2.6917    0.0000 C   0  0
   15.4542   -2.7667    0.0000 C   0  0
    6.3542    1.0250    0.0000 C   0  0
    2.8167   -0.1500    0.0000 C   0  0
    7.0417   -0.2000    0.0000 C   0  0
    2.1250    1.0750    0.0000 C   0  0
   10.5667    0.1625    0.0000 C   0  0
   10.5792    0.9750    0.0000 C   0  0
    8.1875   -4.8375    0.0000 C   0  0
    8.9792   -5.0167    0.0000 C   0  0
    7.7500    0.2000    0.0000 C   0  0
    2.8375    1.4833    0.0000 C   0  0
    3.5292    0.2500    0.0000 C   0  0
    7.0625    1.4250    0.0000 C   0  0
    3.5292    1.0583    0.0000 C   0  0
    7.7542    1.0083    0.0000 C   0  0
  2  1  1  0
  1  3  1  6
  4 27  1  0
  5 13  1  0
  6 16  1  0
  7  3  1  0
  8 12  1  0
  9 17  1  0
 10 20  1  0
 11  2  1  0
 14 12  1  6
 13 11  1  1
 14  6  1  0
 15 19  1  0
 22 16  1  1
 21 17  1  1
 18  5  1  0
 19  4  2  0
 29 20  1  1
 21 10  1  0
 22  9  1  0
 23  8  1  0
 24 25  1  0
 23 25  1  6
 26  4  1  0
 21 27  1  0
 28 18  1  1
 29  7  1  0
 30 26  2  0
 31 55  1  0
 32 54  1  0
 33 53  1  0
 34 57  1  0
 35  2  2  0
 36 48  1  0
 37 60  1  0
 38  5  2  0
 39  6  2  0
 40  7  2  0
 41  9  2  0
 42  8  2  0
 43 10  2  0
 22 44  1  0
 23 45  1  0
 46 24  2  0
  1 47  1  0
 48 24  1  0
 49 32  2  0
 50 33  2  0
 51 31  2  0
 52 34  2  0
 53 37  1  0
 54 37  1  0
 55 36  1  0
 56 70  1  0
 57 56  1  0
 28 58  1  0
 59 36  1  0
 60 69  1  0
 61 68  1  0
 62 67  1  0
 63 32  1  0
 64 34  1  0
 65 33  1  0
 66 31  1  0
 14 67  1  0
 13 68  1  0
 69 56  1  0
 70 59  1  0
 71 45  1  0
 72 44  1  0
 73 81  1  0
 47 74  1  6
 58 75  1  1
 76 28  1  0
 77 76  1  0
 78 26  1  0
 29 79  1  0
 80 30  1  0
 81 89  1  0
 82 47  1  0
 83 58  1  0
 84 72  1  0
 85 71  2  0
 86 72  2  0
 87 71  1  0
 88 79  1  0
 89 88  1  0
 90 78  2  0
 91 90  1  0
 92 86  1  0
 93 87  2  0
 94 85  1  0
 95 84  2  0
 96 93  1  0
 97 92  2  0
 30 15  1  0
 80 91  2  0
 95 97  1  0
 96 94  2  0
M  END