
  SciTegic04091414152D

 41 45  0  0  0  0            999 V2000
   20.6419   -7.5717    0.0000 C   0  0
   19.8248   -7.5588    0.0000 C   0  0
   19.5582   -8.3314    0.0000 C   0  0
   20.2135   -8.8239    0.0000 N   0  0
   20.8797   -8.3523    0.0000 N   0  0
   20.2051   -9.6387    0.0000 C   0  0
   19.4900  -10.0365    0.0000 C   0  0
   19.4780  -10.8529    0.0000 C   0  0
   20.1803  -11.2724    0.0000 C   0  0
   20.8962  -10.8696    0.0000 C   0  0
   20.9047  -10.0545    0.0000 C   0  0
   21.1344   -6.9175    0.0000 C   0  0
   21.9455   -7.0169    0.0000 O   0  0
   20.8148   -6.1654    0.0000 O   0  0
   18.7809   -8.5696    0.0000 C   0  0
   18.1832   -8.0107    0.0000 C   0  0
   17.4024   -8.2493    0.0000 C   0  0
   17.2181   -9.0463    0.0000 C   0  0
   17.8208   -9.6045    0.0000 C   0  0
   18.5993   -9.3630    0.0000 C   0  0
   18.7643  -11.2510    0.0000 Cl  0  0
   16.4370   -9.2865    0.0000 C   0  0
   15.8385   -8.7301    0.0000 N   0  0
   20.1697  -12.0895    0.0000 Cl  0  0
   15.0574   -8.9702    0.0000 C   0  0
   14.4589   -8.4139    0.0000 O   0  0
   14.8748   -9.7668    0.0000 C   0  0
   14.0935  -10.0038    0.0000 C   0  0
   13.9107  -10.7995    0.0000 C   0  0
   14.5096  -11.3568    0.0000 C   0  0
   15.2940  -11.1129    0.0000 C   0  0
   15.4730  -10.3178    0.0000 C   0  0
   16.2531  -10.0743    0.0000 Cl  0  0
   14.3319  -12.1556    0.0000 C   0  0
   13.5806  -12.4771    0.0000 O   0  0
   13.6542  -13.2910    0.0000 C   0  0
   14.4511  -13.4725    0.0000 C   0  0
   14.8698  -12.7708    0.0000 C   0  0
   13.0370  -13.8295    0.0000 C   0  0
   12.2636  -13.5657    0.0000 O   0  0
   13.1953  -14.6312    0.0000 O   0  0
  1  2  1  0
  2  3  2  0
  3  4  1  0
  4  5  1  0
  5  1  2  0
  6  7  2  0
  7  8  1  0
  8  9  2  0
  9 10  1  0
 10 11  2  0
 11  6  1  0
  4  6  1  0
 12 13  1  0
 12 14  2  0
  1 12  1  0
 15 16  2  0
 16 17  1  0
 17 18  2  0
 18 19  1  0
 19 20  2  0
 20 15  1  0
  3 15  1  0
  8 21  1  0
 18 22  1  0
 22 23  1  0
  9 24  1  0
 23 25  1  0
 25 26  2  0
 25 27  1  0
 27 28  2  0
 28 29  1  0
 29 30  2  0
 30 31  1  0
 31 32  2  0
 32 27  1  0
 32 33  1  0
 34 35  1  0
 35 36  1  0
 36 37  2  0
 37 38  1  0
 38 34  2  0
 30 34  1  0
 39 40  1  0
 39 41  2  0
 36 39  1  0
M  END