
          11280715082D 1   1.00000     0.00000     0

 29 32  0     0  0            999 V2000
   -0.8125    0.2875    0.0000 C   0  0  0  0  0  0           0  0  0
   -0.5458   -0.2500    0.0000 N   0  0  0  0  0  0           0  0  0
    5.5000    0.0750    0.0000 N   0  3  0  0  0  0           0  0  0
   -1.4083    0.1958    0.0000 S   0  0  0  0  0  0           0  0  0
   -0.9625   -0.6667    0.0000 C   0  0  0  0  0  0           0  0  0
   -1.4958   -0.4000    0.0000 C   0  0  0  0  0  0           0  0  0
   -0.5375    0.8208    0.0000 N   0  0  0  0  0  0           0  0  0
    4.9042    0.0458    0.0000 C   0  0  0  0  0  0           0  0  0
    1.2542    0.9125    0.0000 N   0  0  3  0  0  0           0  0  0
    6.0375   -0.4167    0.0000 O   0  5  0  0  0  0           0  0  0
    5.9125    0.8833    0.0000 O   0  0  0  0  0  0           0  0  0
    4.5750    0.5500    0.0000 C   0  0  0  0  0  0           0  0  0
    4.6292   -0.4917    0.0000 C   0  0  0  0  0  0           0  0  0
    0.0625    0.8500    0.0000 C   0  0  3  0  0  0           0  0  0
    0.3292    1.3875    0.0000 C   0  0  0  0  0  0           0  0  0
    0.3875    0.3500    0.0000 C   0  0  0  0  0  0           0  0  0
    0.9875    0.3833    0.0000 C   0  0  0  0  0  0           0  0  0
    0.9292    1.4208    0.0000 C   0  0  0  0  0  0           0  0  0
    3.7042   -0.0125    0.0000 C   0  0  0  0  0  0           0  0  0
    3.9792    0.5208    0.0000 C   0  0  0  0  0  0           0  0  0
    4.0292   -0.5167    0.0000 C   0  0  0  0  0  0           0  0  0
    1.8542    0.9375    0.0000 C   0  0  0  0  0  0           0  0  0
    2.1792    0.4333    0.0000 C   0  0  0  0  0  0           0  0  0
    3.1042   -0.0417    0.0000 O   0  0  0  0  0  0           0  0  0
   -0.9333   -1.2667    0.0000 C   0  0  0  0  0  0           0  0  0
   -1.9958   -0.7250    0.0000 C   0  0  0  0  0  0           0  0  0
    2.7792    0.4625    0.0000 C   0  0  0  0  0  0           0  0  0
   -1.9708   -1.3167    0.0000 C   0  0  0  0  0  0           0  0  0
   -1.4333   -1.5917    0.0000 C   0  0  0  0  0  0           0  0  0
  2  1  2  0     0  0
  3  8  1  0     0  0
  4  1  1  0     0  0
  5  2  1  0     0  0
  6  4  1  0     0  0
  7  1  1  0     0  0
  8 13  2  0     0  0
  9 17  1  0     0  0
 10  3  1  0     0  0
 11  3  2  0     0  0
 12 20  2  0     0  0
 13 21  1  0     0  0
 14  7  1  0     0  0
 15 14  1  0     0  0
 16 14  1  0     0  0
 17 16  1  0     0  0
 18 15  1  0     0  0
 19 24  1  0     0  0
 20 19  1  0     0  0
 21 19  2  0     0  0
 22  9  1  0     0  0
 23 22  1  0     0  0
 24 27  1  0     0  0
 25  5  1  0     0  0
 26  6  1  0     0  0
 27 23  1  0     0  0
 28 26  2  0     0  0
 29 25  2  0     0  0
  5  6  2  0     0  0
 18  9  1  0     0  0
 28 29  1  0     0  0
 12  8  1  0     0  0
M  CHG  2   3   1  10  -1
M  END