
          11280715362D 1   1.00000     0.00000     0

 19 21  0     0  0            999 V2000
    1.6042    0.1958    0.0000 C   0  0  0  0  0  0           0  0  0
    2.0625   -0.0542    0.0000 N   0  0  3  0  0  0           0  0  0
    1.6000    0.7208    0.0000 N   0  0  0  0  0  0           0  0  0
    1.0875   -0.1042    0.0000 C   0  0  0  0  0  0           0  0  0
    0.0417   -0.1125    0.0000 O   0  0  0  0  0  0           0  0  0
    0.0375    1.1000    0.0000 O   0  0  0  0  0  0           0  0  0
   -0.4833    0.1875    0.0000 C   0  0  0  0  0  0           0  0  0
    2.5000    0.7333    0.0000 C   0  0  0  0  0  0           0  0  0
    2.5042    0.2083    0.0000 C   0  0  0  0  0  0           0  0  0
    0.5667    0.1958    0.0000 C   0  0  3  0  0  0           0  0  0
   -0.4833    0.7958    0.0000 C   0  0  0  0  0  0           0  0  0
    2.0667   -0.5750    0.0000 C   0  0  3  0  0  0           0  0  0
    0.5667    0.8000    0.0000 C   0  0  0  0  0  0           0  0  0
   -1.0083   -0.1125    0.0000 C   0  0  0  0  0  0           0  0  0
   -1.0083    1.0958    0.0000 C   0  0  0  0  0  0           0  0  0
    1.6250   -0.8417    0.0000 C   0  0  0  0  0  0           0  0  0
    2.5250   -0.8292    0.0000 C   0  0  0  0  0  0           0  0  0
   -1.5208    0.1875    0.0000 C   0  0  0  0  0  0           0  0  0
   -1.5208    0.7958    0.0000 C   0  0  0  0  0  0           0  0  0
  2  1  1  0     0  0
  3  1  2  0     0  0
  4  1  1  0     0  0
  5 10  1  0     0  0
  6 13  1  0     0  0
  7  5  1  0     0  0
  8  3  1  0     0  0
  9  2  1  0     0  0
 10  4  1  0     0  0
 11  6  1  0     0  0
 12  2  1  0     0  0
 13 10  1  0     0  0
 14  7  2  0     0  0
 15 11  2  0     0  0
 16 12  1  0     0  0
 17 12  1  0     0  0
 18 14  1  0     0  0
 19 15  1  0     0  0
  8  9  2  0     0  0
  7 11  1  0     0  0
 18 19  2  0     0  0
M  END