
          11280715522D 1   1.00000     0.00000     0

 46 49  0     0  0            999 V2000
    3.2069   -4.9208    0.0000 C   0  0  0  0  0  0           0  0  0
    3.2057   -5.7482    0.0000 C   0  0  0  0  0  0           0  0  0
    3.9206   -6.1610    0.0000 C   0  0  0  0  0  0           0  0  0
    3.9188   -4.5080    0.0000 C   0  0  0  0  0  0           0  0  0
    4.6341   -4.9172    0.0000 C   0  0  0  0  0  0           0  0  0
    4.6349   -5.7440    0.0000 C   0  0  0  0  0  0           0  0  0
    5.3502   -6.1550    0.0000 N   0  0  0  0  0  0           0  0  0
    6.0652   -5.7402    0.0000 C   0  0  0  0  0  0           0  0  0
    6.0605   -4.9102    0.0000 C   0  0  0  0  0  0           0  0  0
    5.3446   -4.5030    0.0000 C   0  0  0  0  0  0           0  0  0
    3.9225   -6.9860    0.0000 O   0  0  0  0  0  0           0  0  0
    4.6379   -7.3969    0.0000 C   0  0  0  0  0  0           0  0  0
    4.6398   -8.2219    0.0000 C   0  0  0  0  0  0           0  0  0
    3.9237   -8.6317    0.0000 C   0  0  0  0  0  0           0  0  0
    3.9253   -9.4559    0.0000 C   0  0  0  0  0  0           0  0  0
    4.6412   -9.8676    0.0000 C   0  0  0  0  0  0           0  0  0
    5.3571   -9.4490    0.0000 C   0  0  0  0  0  0           0  0  0
    5.3520   -8.6261    0.0000 C   0  0  0  0  0  0           0  0  0
    3.2096   -8.2185    0.0000 Cl  0  0  0  0  0  0           0  0  0
    6.0637   -8.2088    0.0000 Cl  0  0  0  0  0  0           0  0  0
    6.7813   -6.1499    0.0000 C   0  0  0  0  0  0           0  0  0
    6.0740   -9.8573    0.0000 S   0  0  3  0  0  0           0  0  0
    6.7833  -10.2667    0.0000 N   0  0  0  0  0  0           0  0  0
    6.4218   -9.2354    0.0000 O   0  0  0  0  0  0           0  0  0
    5.6689  -10.5760    0.0000 O   0  0  0  0  0  0           0  0  0
    7.5290   -9.8228    0.0000 C   0  0  3  0  0  0           0  0  0
    8.2083   -9.4333    0.0000 C   0  0  0  0  0  0           0  0  0
    7.8829  -10.5037    0.0000 C   0  0  0  0  0  0           0  0  0
    7.2681   -9.1736    0.0000 C   0  0  0  0  0  0           0  0  0
    8.1993   -8.6084    0.0000 O   0  0  0  0  0  0           0  0  0
    8.9273   -9.8380    0.0000 N   0  0  3  0  0  0           0  0  0
    8.9318  -10.6634    0.0000 C   0  0  0  0  0  0           0  0  0
    9.6467  -11.0680    0.0000 C   0  0  0  0  0  0           0  0  0
   10.3591  -10.6512    0.0000 N   0  0  3  0  0  0           0  0  0
   10.3520   -9.8253    0.0000 C   0  0  0  0  0  0           0  0  0
    9.6326   -9.4161    0.0000 C   0  0  0  0  0  0           0  0  0
   11.0765  -11.0586    0.0000 C   0  0  0  0  0  0           0  0  0
   11.0824  -11.8835    0.0000 N   0  0  0  0  0  0           0  0  0
   11.7880  -10.6409    0.0000 N   0  0  0  0  0  0           0  0  0
   12.5054  -11.0483    0.0000 C   0  0  0  0  0  0           0  0  0
   13.2169  -10.6307    0.0000 C   0  0  0  0  0  0           0  0  0
   13.9343  -11.0381    0.0000 C   0  0  0  0  0  0           0  0  0
   14.6458  -10.6204    0.0000 C   0  0  0  0  0  0           0  0  0
   15.3632  -11.0278    0.0000 C   0  0  0  0  0  0           0  0  0
   16.0747  -10.6102    0.0000 C   0  0  0  0  0  0           0  0  0
   16.7921  -11.0176    0.0000 N   0  0  0  0  0  0           0  0  0
 17 22  1  0     0  0
 22 23  1  0     0  0
  3 11  1  0     0  0
 22 24  2  0     0  0
  2  3  1  0     0  0
 22 25  2  0     0  0
 11 12  1  0     0  0
 23 26  1  0     0  0
  5  6  1  0     0  0
 26 27  1  0     0  0
 12 13  1  0     0  0
 26 28  1  0     0  0
  3  6  2  0     0  0
 26 29  1  0     0  0
 13 14  2  0     0  0
 27 30  2  0     0  0
  6  7  1  0     0  0
 27 31  1  0     0  0
 31 32  1  0     0  0
 14 15  1  0     0  0
  1  2  2  0     0  0
 15 16  2  0     0  0
  7  8  2  0     0  0
 16 17  1  0     0  0
 31 36  1  0     0  0
 32 33  1  0     0  0
 33 34  1  0     0  0
 34 35  1  0     0  0
 35 36  1  0     0  0
  5  4  2  0     0  0
 34 37  1  0     0  0
 17 18  2  0     0  0
 37 38  2  0     0  0
 18 13  1  0     0  0
 37 39  1  0     0  0
  8  9  1  0     0  0
 39 40  1  0     0  0
 14 19  1  0     0  0
 40 41  1  0     0  0
  4  1  1  0     0  0
 41 42  1  0     0  0
 18 20  1  0     0  0
 42 43  1  0     0  0
  9 10  2  0     0  0
 43 44  1  0     0  0
  8 21  1  0     0  0
 44 45  1  0     0  0
 10  5  1  0     0  0
 45 46  1  0     0  0
M  END