
          11280715062D 1   1.00000     0.00000     0

 30 33  0     0  0            999 V2000
    4.6417   -1.7667    0.0000 C   0  0  0  0  0  0           0  0  0
    4.1167   -2.0500    0.0000 C   0  0  0  0  0  0           0  0  0
    4.0917   -2.6542    0.0000 C   0  0  0  0  0  0           0  0  0
    6.1792   -2.7167    0.0000 N   0  0  3  0  0  0           0  0  0
    7.2250   -2.1167    0.0000 N   0  0  3  0  0  0           0  0  0
    5.1417   -2.6875    0.0000 C   0  0  3  0  0  0           0  0  0
    5.1542   -2.0792    0.0000 C   0  0  0  0  0  0           0  0  0
    4.6042   -2.9750    0.0000 C   0  0  0  0  0  0           0  0  0
    9.3167   -2.1292    0.0000 C   0  0  0  0  0  0           0  0  0
    9.8417   -1.8292    0.0000 C   0  0  0  0  0  0           0  0  0
    4.6625   -1.1667    0.0000 O   0  0  0  0  0  0           0  0  0
    5.6500   -3.0042    0.0000 C   0  0  0  0  0  0           0  0  0
    9.3125   -2.7292    0.0000 O   0  0  0  0  0  0           0  0  0
   10.3625   -2.1375    0.0000 C   0  0  0  0  0  0           0  0  0
    9.8417   -1.2292    0.0000 C   0  0  0  0  0  0           0  0  0
    6.1792   -2.1167    0.0000 C   0  0  0  0  0  0           0  0  0
    6.7042   -3.0250    0.0000 C   0  0  0  0  0  0           0  0  0
    7.2167   -2.7250    0.0000 C   0  0  0  0  0  0           0  0  0
    6.7042   -1.8167    0.0000 C   0  0  0  0  0  0           0  0  0
   10.8875   -1.2292    0.0000 C   0  0  0  0  0  0           0  0  0
   10.3625   -0.9292    0.0000 C   0  0  0  0  0  0           0  0  0
   10.8875   -1.8375    0.0000 C   0  0  0  0  0  0           0  0  0
   11.4042   -0.9250    0.0000 F   0  0  0  0  0  0           0  0  0
    7.7500   -1.8250    0.0000 C   0  0  0  0  0  0           0  0  0
    3.5625   -2.9417    0.0000 C   0  0  0  0  0  0           0  0  0
    8.2667   -2.1250    0.0000 C   0  0  0  0  0  0           0  0  0
    3.6000   -1.7292    0.0000 C   0  0  0  0  0  0           0  0  0
    8.7917   -1.8292    0.0000 C   0  0  0  0  0  0           0  0  0
    3.0500   -2.6167    0.0000 C   0  0  0  0  0  0           0  0  0
    3.0667   -2.0125    0.0000 C   0  0  0  0  0  0           0  0  0
  2  1  1  0     0  0
  3  2  2  0     0  0
  4 12  1  0     0  0
  5 18  1  0     0  0
  6  7  1  0     0  0
  7  1  1  0     0  0
  8  6  1  0     0  0
  9 28  1  0     0  0
 10  9  1  0     0  0
 11  1  2  0     0  0
 12  6  1  0     0  0
 13  9  2  0     0  0
 14 10  2  0     0  0
 15 10  1  0     0  0
 16  4  1  0     0  0
 17  4  1  0     0  0
 18 17  1  0     0  0
 19 16  1  0     0  0
 20 21  1  0     0  0
 21 15  2  0     0  0
 22 14  1  0     0  0
 23 20  1  0     0  0
 24  5  1  0     0  0
 25  3  1  0     0  0
 26 24  1  0     0  0
 27  2  1  0     0  0
 28 26  1  0     0  0
 29 30  1  0     0  0
 30 27  2  0     0  0
  3  8  1  0     0  0
 29 25  2  0     0  0
 19  5  1  0     0  0
 22 20  2  0     0  0
M  END