
          11280715122D 1   1.00000     0.00000     0

 27 29  0     0  0            999 V2000
    7.0750   -4.1792    0.0000 C   0  0  0  0  0  0           0  0  0
    6.3625   -3.7667    0.0000 C   0  0  0  0  0  0           0  0  0
    2.3167   -4.2875    0.0000 N   0  0  3  0  0  0           0  0  0
    7.0750   -5.0042    0.0000 C   0  0  0  0  0  0           0  0  0
    3.6792   -5.2125    0.0000 N   0  0  3  0  0  0           0  0  0
    6.3625   -2.9417    0.0000 N   0  0  3  0  0  0           0  0  0
    7.7875   -5.4167    0.0000 N   0  0  0  0  0  0           0  0  0
    5.6417   -4.1792    0.0000 O   0  0  0  0  0  0           0  0  0
    3.0542   -3.9167    0.0000 C   0  0  0  0  0  0           0  0  0
    2.2542   -5.1042    0.0000 C   0  0  0  0  0  0           0  0  0
    1.6000   -3.8750    0.0000 C   0  0  0  0  0  0           0  0  0
    6.3625   -5.4250    0.0000 N   0  0  0  0  0  0           0  0  0
    2.9375   -5.5667    0.0000 C   0  0  0  0  0  0           0  0  0
    3.7375   -4.3792    0.0000 C   0  0  0  0  0  0           0  0  0
    7.7875   -3.7667    0.0000 C   0  0  0  0  0  0           0  0  0
    4.3542   -5.6750    0.0000 C   0  0  0  0  0  0           0  0  0
    5.0667   -5.2542    0.0000 C   0  0  0  0  0  0           0  0  0
    8.5042   -5.0042    0.0000 C   0  0  0  0  0  0           0  0  0
    5.6500   -5.8375    0.0000 C   0  0  0  0  0  0           0  0  0
    7.0750   -2.5292    0.0000 C   0  0  0  0  0  0           0  0  0
    5.6417   -2.5292    0.0000 C   0  0  0  0  0  0           0  0  0
    1.6000   -3.0417    0.0000 C   0  0  0  0  0  0           0  0  0
    0.8792   -4.2875    0.0000 C   0  0  0  0  0  0           0  0  0
    8.5042   -4.1792    0.0000 C   0  0  0  0  0  0           0  0  0
    0.8792   -2.6292    0.0000 C   0  0  0  0  0  0           0  0  0
    0.1667   -3.8750    0.0000 C   0  0  0  0  0  0           0  0  0
    0.1667   -3.0417    0.0000 C   0  0  0  0  0  0           0  0  0
  2  1  1  0     0  0
  3  9  1  0     0  0
  4  1  2  0     0  0
  5 16  1  0     0  0
  6  2  1  0     0  0
  7  4  1  0     0  0
  8  2  2  0     0  0
  9 14  1  0     0  0
 10 13  1  0     0  0
 11  3  1  0     0  0
 12  4  1  0     0  0
 13  5  1  0     0  0
 14  5  1  0     0  0
 15  1  1  0     0  0
 16 17  1  0     0  0
 17 19  1  0     0  0
 18 24  1  0     0  0
 19 12  1  0     0  0
 20  6  1  0     0  0
 21  6  1  0     0  0
 22 11  1  0     0  0
 23 11  2  0     0  0
 24 15  2  0     0  0
 25 22  2  0     0  0
 26 23  1  0     0  0
 27 26  2  0     0  0
 18  7  2  0     0  0
 10  3  1  0     0  0
 27 25  1  0     0  0
M  END