
          11280714442D 1   1.00000     0.00000     0

 25 25  0     0  0            999 V2000
    4.1042    0.3333    0.0000 C   0  0  0  0  0  0           0  0  0
    4.9292    0.3458    0.0000 C   0  0  0  0  0  0           0  0  0
   10.7167   -1.0000    0.0000 C   0  0  0  0  0  0           0  0  0
    5.3542   -0.3542    0.0000 O   0  0  0  0  0  0           0  0  0
    9.8917   -1.0000    0.0000 N   0  0  0  0  0  0           0  0  0
    3.6792    1.0333    0.0000 C   0  0  0  0  0  0           0  0  0
   11.1292   -0.2792    0.0000 O   0  0  0  0  0  0           0  0  0
    5.3292    1.0708    0.0000 O   0  0  0  0  0  0           0  0  0
    7.8292   -0.3042    0.0000 N   0  0  0  0  0  0           0  0  0
    8.6542   -0.2875    0.0000 C   0  0  3  0  0  0           0  0  0
    9.4792   -0.2875    0.0000 C   0  0  0  0  0  0           0  0  0
    6.6125   -1.0417    0.0000 C   0  0  3  0  0  0           0  0  0
    6.1792   -0.3417    0.0000 C   0  0  0  0  0  0           0  0  0
   11.1292   -1.7125    0.0000 O   0  0  0  0  0  0           0  0  0
    7.4375   -1.0292    0.0000 C   0  0  0  0  0  0           0  0  0
    4.0792    1.7583    0.0000 F   0  0  0  0  0  0           0  0  0
    3.7125   -0.3917    0.0000 C   0  0  0  0  0  0           0  0  0
    6.2167   -1.7667    0.0000 O   0  0  0  0  0  0           0  0  0
    2.8542    1.0208    0.0000 C   0  0  0  0  0  0           0  0  0
    9.0542    0.4375    0.0000 C   0  0  0  0  0  0           0  0  0
    9.0875   -0.9917    0.0000 C   0  0  0  0  0  0           0  0  0
   10.7167   -2.4292    0.0000 C   0  0  0  0  0  0           0  0  0
    2.8792   -0.4125    0.0000 C   0  0  0  0  0  0           0  0  0
   11.1292   -3.1417    0.0000 C   0  0  0  0  0  0           0  0  0
    2.4542    0.2958    0.0000 C   0  0  0  0  0  0           0  0  0
  2  1  1  0     0  0
  3  5  1  0     0  0
  4  2  1  0     0  0
  5 11  1  0     0  0
  6  1  1  0     0  0
  7  3  2  0     0  0
  8  2  2  0     0  0
  9 15  1  0     0  0
 10  9  1  0     0  0
 11 10  1  0     0  0
 12 13  1  0     0  0
 13  4  1  0     0  0
 14  3  1  0     0  0
 15 12  1  0     0  0
 16  6  1  0     0  0
 17  1  2  0     0  0
 18 12  1  0     0  0
 19  6  2  0     0  0
 20 10  1  0     0  0
 21 10  1  0     0  0
 22 14  1  0     0  0
 23 17  1  0     0  0
 24 22  1  0     0  0
 25 23  2  0     0  0
 25 19  1  0     0  0
M  END