
          11290715552D 1   1.00000     0.00000     0

 23 26  0     1  0            999 V2000
   -2.7159   -6.8274    0.0000 C   0  0  0  0  0  0           0  0  0
   -2.7170   -7.6490    0.0000 C   0  0  0  0  0  0           0  0  0
   -2.0071   -8.0591    0.0000 C   0  0  0  0  0  0           0  0  0
   -2.0089   -6.4175    0.0000 C   0  0  0  0  0  0           0  0  0
   -1.2985   -6.8238    0.0000 C   0  0  0  0  0  0           0  0  0
   -1.2951   -7.6511    0.0000 C   0  0  0  0  0  0           0  0  0
   -0.5809   -8.0595    0.0000 C   0  0  0  0  0  0           0  0  0
    0.1346   -7.6452    0.0000 C   0  0  0  0  0  0           0  0  0
   -0.5877   -6.4049    0.0000 C   0  0  2  0  0  0           0  0  0
    0.1307   -6.8214    0.0000 C   0  0  2  0  0  0           0  0  0
    0.1319   -5.1635    0.0000 C   0  0  0  0  0  0           0  0  0
   -0.5902   -5.5768    0.0000 C   0  0  0  0  0  0           0  0  0
    0.8503   -5.5799    0.0000 C   0  0  1  0  0  0           0  0  0
    0.8422   -6.4069    0.0000 C   0  0  1  0  0  0           0  0  0
    1.6262   -6.6702    0.0000 C   0  0  0  0  0  0           0  0  0
    2.1188   -6.0060    0.0000 C   0  0  0  0  0  0           0  0  0
    1.6393   -5.3323    0.0000 C   0  0  2  0  0  0           0  0  0
   -3.4268   -8.0582    0.0000 O   0  0  0  0  0  0           0  0  0
    1.9001   -4.5556    0.0000 O   0  0  0  0  0  0           0  0  0
    0.8441   -4.7585    0.0000 C   0  0  0  0  0  0           0  0  0
    0.1241   -5.9999    0.0000 H   0  0  0  0  0  0           0  0  0
   -0.5958   -7.2205    0.0000 H   0  0  0  0  0  0           0  0  0
    0.8359   -7.2247    0.0000 H   0  0  0  0  0  0           0  0  0
  9 12  1  0     0  0
 10 14  1  0     0  0
 13 11  1  0     0  0
 11 12  1  0     0  0
 13 14  1  0     0  0
  2  3  1  0     0  0
  3  6  2  0     0  0
  1  2  2  0     0  0
  5  9  1  0     0  0
  6  7  1  0     0  0
 14 15  1  0     0  0
 15 16  1  0     0  0
 16 17  1  0     0  0
 17 13  1  0     0  0
  7  8  2  0     0  0
  2 18  1  0     0  0
  8 10  1  0     0  0
 17 19  1  1     0  0
  9 10  1  0     0  0
 13 20  1  1     0  0
  5  4  2  0     0  0
 10 21  1  1     0  0
  4  1  1  0     0  0
  9 22  1  6     0  0
  5  6  1  0     0  0
 14 23  1  6     0  0
M  END