
  SciTegic06051315212D

 30 33  0  0  0  0            999 V2000
    8.0413   -4.2825    0.0000 C   0  0
    8.7539   -4.6945    0.0000 C   0  0
    9.4670   -4.2796    0.0000 C   0  0
    9.4643   -3.4529    0.0000 C   0  0
    8.7426   -3.0430    0.0000 C   0  0
    8.0326   -3.4602    0.0000 C   0  0
    3.7394   -3.4739    0.0000 C   0  0
    3.7383   -4.3020    0.0000 C   0  0
    4.4537   -4.7152    0.0000 C   0  0
    5.1708   -4.3015    0.0000 C   0  0
    5.1679   -3.4702    0.0000 C   0  0
    4.4519   -3.0608    0.0000 C   0  0
    5.8815   -3.0547    0.0000 N   0  0
    6.5981   -3.4649    0.0000 C   0  0
    7.3117   -3.0494    0.0000 N   0  0
    6.6012   -4.2906    0.0000 O   0  0
    3.0228   -4.7143    0.0000 O   0  0
    3.0222   -5.5401    0.0000 C   0  0
    2.3066   -5.9508    0.0000 N   0  0
    2.3056   -6.7757    0.0000 C   0  0
    3.0210   -7.1900    0.0000 N   0  0
    4.5179   -5.6918    0.0000 C   0  0
    3.7363   -5.9497    0.0000 C   0  0
    3.7410   -6.7734    0.0000 C   0  0
    4.5267   -7.0220    0.0000 N   0  0
    5.0046   -6.3511    0.0000 N   0  0
    8.7550   -5.5203    0.0000 C   0  0
    8.0405   -5.9341    0.0000 F   0  0
    9.4708   -5.9321    0.0000 F   0  0
    8.7495   -6.3432    0.0000 F   0  0
  1  2  2  0
  2  3  1  0
  3  4  2  0
  4  5  1  0
  5  6  2  0
  6  1  1  0
  7  8  2  0
  8  9  1  0
  9 10  2  0
 10 11  1  0
 11 12  2  0
 12  7  1  0
 11 13  1  0
 13 14  1  0
 14 15  1  0
 14 16  2  0
 15  6  1  0
  8 17  1  0
 17 18  1  0
 18 19  2  0
 19 20  1  0
 20 21  2  0
 21 24  1  0
 23 18  1  0
 23 24  2  0
 22 23  1  0
 24 25  1  0
 25 26  1  0
 26 22  2  0
  2 27  1  0
 27 28  1  0
 27 29  1  0
 27 30  1  0
M  END