
          08180812492D 1   1.00000     0.00000     0

 41 47  0     1  0            999 V2000
    4.4821   -8.5241    0.0000 C   0  0  0  0  0  0           0  0  0
    4.0529   -9.2305    0.0000 C   0  0  0  0  0  0           0  0  0
    4.4500   -9.9532    0.0000 C   0  0  0  0  0  0           0  0  0
    5.2760   -9.9708    0.0000 C   0  0  0  0  0  0           0  0  0
    5.3040   -8.5399    0.0000 C   0  0  0  0  0  0           0  0  0
    5.7087   -9.2614    0.0000 C   0  0  0  0  0  0           0  0  0
    6.5508   -7.8405    0.0000 C   0  0  2  0  0  0           0  0  0
    5.7219   -7.8285    0.0000 C   0  0  0  0  0  0           0  0  0
    6.9555   -8.5621    0.0000 C   0  0  1  0  0  0           0  0  0
    6.5335   -9.2754    0.0000 C   0  0  2  0  0  0           0  0  0
    6.9381   -9.9935    0.0000 C   0  0  2  0  0  0           0  0  0
    7.7661  -10.0045    0.0000 C   0  0  1  0  0  0           0  0  0
    8.1881   -9.2912    0.0000 C   0  0  0  0  0  0           0  0  0
    7.7819   -8.5669    0.0000 C   0  0  0  0  0  0           0  0  0
    5.9854  -10.3808    0.0000 O   0  0  0  0  0  0           0  0  0
    7.3630   -9.2735    0.0000 O   0  0  0  0  0  0           0  0  0
    6.7596   -7.0384    0.0000 N   0  0  3  0  0  0           0  0  0
    6.3141   -8.4744    0.0000 C   0  0  0  0  0  0           0  0  0
    6.8969   -7.8875    0.0000 C   0  0  0  0  0  0           0  0  0
    5.9604   -7.2507    0.0000 H   0  0  0  0  0  0           0  0  0
    6.7983   -6.2151    0.0000 C   0  0  0  0  0  0           0  0  0
    7.5307   -5.8372    0.0000 C   0  0  3  0  0  0           0  0  0
    8.3525   -5.8787    0.0000 C   0  0  0  0  0  0           0  0  0
    7.9746   -5.1464    0.0000 C   0  0  0  0  0  0           0  0  0
    4.0229  -10.6580    0.0000 O   0  0  0  0  0  0           0  0  0
    8.1696  -10.7231    0.0000 N   0  0  0  0  0  0           0  0  0
    8.9937  -10.7330    0.0000 C   0  0  0  0  0  0           0  0  0
    9.3972  -11.4515    0.0000 C   0  0  0  0  0  0           0  0  0
    9.4143  -10.0242    0.0000 O   0  0  0  0  0  0           0  0  0
   10.2212  -11.4614    0.0000 C   0  0  2  0  0  0           0  0  0
   10.6193  -12.1808    0.0000 O   0  0  0  0  0  0           0  0  0
   11.4397  -12.1925    0.0000 C   0  0  1  0  0  0           0  0  0
   11.8642  -11.4857    0.0000 C   0  0  2  0  0  0           0  0  0
   11.4619  -10.7653    0.0000 C   0  0  1  0  0  0           0  0  0
   10.6353  -10.7518    0.0000 C   0  0  1  0  0  0           0  0  0
   10.2307  -10.0338    0.0000 O   0  0  0  0  0  0           0  0  0
   11.8850  -10.0580    0.0000 O   0  0  0  0  0  0           0  0  0
   12.6882  -11.4987    0.0000 O   0  0  0  0  0  0           0  0  0
   11.8406  -12.9127    0.0000 C   0  0  0  0  0  0           0  0  0
   11.4174  -13.6198    0.0000 O   0  0  0  0  0  0           0  0  0
    7.1467  -10.7844    0.0000 H   0  0  0  0  0  0           0  0  0
 18 19  1  0     0  0
 19 17  1  0     0  0
  9 10  1  0     0  0
  7 20  1  6     0  0
  4  6  1  0     0  0
 17 21  1  0     0  0
  5  1  1  0     0  0
 21 22  1  0     0  0
 23 22  1  0     0  0
 24 23  1  0     0  0
 22 24  1  0     0  0
  5  6  2  0     0  0
  2  3  1  0     0  0
  3 25  1  0     0  0
  1  2  2  0     0  0
 12 26  1  1     0  0
  9 14  1  0     0  0
 26 27  1  0     0  0
 10 11  1  0     0  0
 27 28  1  0     0  0
 11 12  1  0     0  0
 27 29  2  0     0  0
 12 13  1  0     0  0
 30 28  1  1     0  0
 30 31  1  0     0  0
 13 14  1  0     0  0
  3  4  2  0     0  0
  4 15  1  0     0  0
 11 15  1  0     0  0
  5  8  1  0     0  0
 30 35  1  0     0  0
 31 32  1  0     0  0
 32 33  1  0     0  0
 33 34  1  0     0  0
 34 35  1  0     0  0
  9 16  1  1     0  0
 35 36  1  6     0  0
  6 10  1  0     0  0
 34 37  1  1     0  0
  7 17  1  0     0  0
 33 38  1  6     0  0
  9  7  1  0     0  0
 32 39  1  1     0  0
 10 18  1  1     0  0
 39 40  1  0     0  0
  7  8  1  0     0  0
 11 41  1  1     0  0
M  END