
  SciTegic12121614472D

164171  0  0  0  0            999 V2000
  -17.9734  -54.6412   -0.0002 N   0  0
  -19.0944  -55.3175   -0.0003 N   0  0
  -20.2862  -54.3109   -0.0002 N   0  0
  -19.7318  -52.9727   -0.0002 C   0  0
  -18.2232  -53.1082   -0.0002 C   0  0
   10.6939  -42.3416   -0.0001 C   0  0
   10.4311  -40.8648   -0.0001 C   0  0
    9.0208  -40.3539   -0.0001 C   0  0
    7.8732  -41.3199   -0.0001 C   0  0
    8.1359  -42.7967   -0.0001 C   0  0
    9.5462  -43.3076   -0.0001 C   0  0
   34.2650  -41.2770    0.0000 C   0  0
   32.8555  -40.7614    0.0000 C   0  0
   31.7037  -41.7235    0.0000 N   0  0
   32.6494  -39.5792    0.0000 O   0  0
   30.2942  -41.2079    0.0000 C   0  0
   29.1423  -42.1700    0.0000 C   0  0
   27.7328  -41.6545    0.0000 C   0  0
   26.5810  -42.6166    0.0000 N   0  0
   27.5267  -40.4723    0.0000 O   0  0
   25.1715  -42.1010    0.0000 C   0  0
   24.0196  -43.0631    0.0000 C   0  0
   22.6101  -42.5475    0.0000 C   0  0
   21.4583  -43.5097   -0.0001 N   0  0
   22.4040  -41.3654    0.0000 O   0  0
   20.0488  -42.9941   -0.0001 C   0  0  2  0  0  0
   18.8969  -43.9562   -0.0001 C   0  0
   19.7880  -41.5161    0.0000 C   0  0  2  0  0  0
   18.6606  -41.1051    0.0000 O   0  0
   20.7074  -40.7449    0.0000 C   0  0
   19.1030  -45.1384   -0.0001 O   0  0
   17.4874  -43.4406   -0.0001 N   0  0
   16.3356  -44.4027   -0.0001 C   0  0  2  0  0  0
   14.9261  -43.8871   -0.0001 C   0  0
   16.5903  -45.8818   -0.0001 C   0  0  1  0  0  0
   17.7164  -46.2963   -0.0001 C   0  0
   15.6685  -46.6500   -0.0001 O   0  0
   13.7742  -44.8493   -0.0001 N   0  0
   14.7200  -42.7050   -0.0001 O   0  0
   12.3648  -44.3337   -0.0001 C   0  0  2  0  0  0
   11.2129  -45.2958   -0.0001 C   0  0
   12.1039  -42.8557   -0.0001 C   0  0
    9.8034  -44.7802   -0.0001 N   0  0
   11.4190  -46.4780   -0.0001 O   0  0
    8.6515  -45.7423   -0.0001 C   0  0
    7.2421  -45.2267   -0.0001 C   0  0
    6.0902  -46.1889   -0.0001 N   0  0
    7.0360  -44.0446   -0.0001 O   0  0
    4.6807  -45.6733   -0.0001 C   0  0  2  0  0  0
    3.5288  -46.6354   -0.0001 C   0  0
    4.4199  -44.1953   -0.0001 C   0  0
    3.0099  -43.6813   -0.0001 C   0  0
    2.7490  -42.2033   -0.0001 S   0  0
    1.6216  -41.7923   -0.0001 C   0  0
    3.7349  -47.8176   -0.0001 O   0  0
    2.1194  -46.1198   -0.0001 N   0  0
    0.9675  -47.0819   -0.0001 C   0  0  2  0  0  0
   -0.4420  -46.5664   -0.0001 C   0  0
   -1.5938  -47.5285   -0.0001 N   0  0
   -0.6481  -45.3842   -0.0001 O   0  0
   -3.0033  -47.0129   -0.0001 C   0  0  2  0  0  0
   -4.1552  -47.9750   -0.0002 C   0  0
   -3.2641  -45.5349   -0.0001 C   0  0  2  0  0  0
   -4.3916  -45.1239   -0.0001 O   0  0
   -2.3447  -44.7637   -0.0001 C   0  0
   -3.9491  -49.1572   -0.0002 O   0  0
   -5.5647  -47.4594   -0.0002 N   0  0
   -6.7165  -48.4216   -0.0002 C   0  0  2  0  0  0
   -8.1260  -47.9060   -0.0002 C   0  0
   -6.4618  -49.9006   -0.0002 C   0  0
   -7.6148  -50.8615   -0.0002 C   0  0
   -7.4111  -52.0441   -0.0002 C   0  0
   -8.7409  -50.4469   -0.0002 C   0  0
   -9.2779  -48.8681   -0.0002 N   0  0
   -8.3321  -46.7238   -0.0002 O   0  0
  -10.6874  -48.3525   -0.0002 C   0  0  2  0  0  0
  -11.8392  -49.3146   -0.0002 C   0  0
  -10.9482  -46.8745   -0.0002 C   0  0
  -12.3582  -46.3605   -0.0002 C   0  0
  -12.6190  -44.8825   -0.0002 C   0  0
  -14.0291  -44.3685   -0.0002 C   0  0
  -14.2376  -43.1867   -0.0001 N   0  0
  -13.2487  -48.7990   -0.0002 N   0  0
    1.2222  -48.5610   -0.0001 C   0  0
    0.0693  -49.5219   -0.0002 C   0  0
    0.3240  -51.0009   -0.0002 S   0  0
   -0.5978  -51.7692   -0.0002 C   0  0
  -11.6331  -50.4968   -0.0002 O   0  0
  -14.3969  -49.7558   -0.0002 C   0  0  2  0  0  0
  -16.0057  -49.2740   -0.0002 C   0  0
  -14.3141  -51.7499   -0.0002 C   0  0
  -17.3403  -48.1729   -0.0002 N   0  0
  -16.5709  -50.3325   -0.0002 O   0  0
  -18.7467  -48.8307   -0.0002 C   0  0  2  0  0  0
  -20.2747  -48.7182   -0.0002 C   0  0
  -18.5295  -50.0109   -0.0002 C   0  0
  -20.7656  -49.8132   -0.0002 O   0  0
  -21.3332  -47.6933   -0.0002 N   0  0
  -22.7488  -47.9899   -0.0002 C   0  0  2  0  0  0
  -23.1450  -49.4354   -0.0002 C   0  0
  -23.7647  -46.8856   -0.0002 C   0  0
  -23.3168  -45.4532   -0.0002 C   0  0
  -24.3308  -44.3477   -0.0002 C   0  0
  -23.8805  -42.9169   -0.0002 C   0  0
  -22.4162  -42.5915   -0.0001 C   0  0
  -21.4022  -43.6968   -0.0001 C   0  0
  -21.8525  -45.1277   -0.0002 C   0  0
  -25.1277  -50.4965   -0.0002 N   0  0
  -22.2070  -50.1838   -0.0002 O   0  0
  -25.6503  -51.8746   -0.0002 C   0  0  2  0  0  0
  -24.8599  -53.1705   -0.0003 C   0  0
  -27.1479  -51.9966   -0.0002 C   0  0
  -27.7910  -53.3527   -0.0003 C   0  0
  -29.2868  -53.4747   -0.0003 C   0  0
  -29.9299  -54.8308   -0.0003 C   0  0
  -31.1259  -54.9284   -0.0003 N   0  0
  -25.3976  -54.2433   -0.0003 O   0  0
  -23.4236  -53.0353   -0.0002 N   0  0
  -22.7478  -51.7082   -0.0002 C   0  0  1  0  0  0
  -23.6402  -50.5073   -0.0002 C   0  0
  -20.5609  -51.7227   -0.0002 C   0  0
  -25.1316  -50.6755   -0.0002 N   0  0
  -23.2407  -49.5906   -0.0002 O   0  0
  -26.0236  -49.4685   -0.0002 C   0  0  2  0  0  0
  -27.5150  -49.6366   -0.0002 C   0  0
  -25.4268  -48.0914   -0.0002 C   0  0
  -26.3202  -46.8855   -0.0002 C   0  0
  -25.8430  -45.7844   -0.0002 C   0  0
  -27.5123  -47.0223   -0.0002 C   0  0
  -27.9945  -50.7367   -0.0003 O   0  0
  -28.4071  -48.4297   -0.0002 N   0  0
  -29.8984  -48.5978   -0.0003 C   0  0  2  0  0  0
  -30.7905  -47.3908   -0.0002 C   0  0
  -30.5009  -49.9724   -0.0003 C   0  0
  -31.6935  -50.1055   -0.0003 O   0  0
  -31.9829  -47.5252   -0.0003 O   0  0
  -30.3110  -46.2908   -0.0002 N   0  0
   34.5262  -42.7541    0.0000 C   0  0
   35.9360  -43.2665    0.0000 C   0  0
   37.0846  -42.3019    0.0000 C   0  0
   36.8235  -40.8248    0.0000 C   0  0
   35.4138  -40.3123    0.0000 C   0  0
   36.1972  -44.7444    0.0000 C   0  0
   36.6991  -47.7025    0.0000 O   0  0
   37.8539  -46.7454    0.0000 C   0  0
   37.6026  -45.2664    0.0000 C   0  0
   38.7574  -44.3093    0.0000 C   0  0
   40.1637  -44.8311    0.0000 C   0  0
   40.4150  -46.3101    0.0000 C   0  0
   39.2602  -47.2672    0.0000 C   0  0
   35.0595  -45.6987    0.0000 C   0  0
   35.3109  -47.1776    0.0000 C   0  0
   34.1380  -48.1378    0.0000 C   0  0
   32.7317  -47.6160    0.0000 C   0  0
   32.4803  -46.1371    0.0000 C   0  0
   33.6352  -45.1799    0.0000 C   0  0
   31.8077  -48.3816    0.0000 O   0  0
   41.5401  -46.7274    0.0000 O   0  0
   38.4962  -42.8117    0.0000 C   0  0
   39.4140  -42.0386    0.0000 O   0  0
   38.6720  -43.7961    0.0000 O   0  0
  -15.5434  -52.7405   -0.0002 C   0  0
  -15.1807  -54.4343   -0.0002 C   0  0
  -16.5172  -55.1642   -0.0002 C   0  0
  1  2  1  0
  2  3  2  0
  3  4  1  0
  4  5  2  0
  5  1  1  0
  6  7  2  0
  7  8  1  0
  8  9  2  0
  9 10  1  0
 10 11  2  0
 11  6  1  0
 12 13  1  0
 13 14  1  0
 13 15  2  0
 14 16  1  0
 16 17  1  0
 17 18  1  0
 18 19  1  0
 18 20  2  0
 19 21  1  0
 21 22  1  0
 22 23  1  0
 23 24  1  0
 23 25  2  0
 26 24  1  6
 26 27  1  0
 26 28  1  0
 28 29  1  6
 28 30  1  0
 27 31  2  0
 27 32  1  0
 33 32  1  1
 33 34  1  0
 33 35  1  0
 35 36  1  1
 35 37  1  0
 34 38  1  0
 34 39  2  0
 40 38  1  6
 40 41  1  0
 40 42  1  0
 42  6  1  0
 41 43  1  0
 41 44  2  0
 43 45  1  0
 45 46  1  0
 46 47  1  0
 46 48  2  0
 49 47  1  6
 49 50  1  0
 49 51  1  0
 51 52  1  0
 52 53  1  0
 53 54  1  0
 50 55  2  0
 50 56  1  0
 57 56  1  1
 57 58  1  0
 58 59  1  0
 58 60  2  0
 61 59  1  6
 61 62  1  0
 61 63  1  0
 63 64  1  6
 63 65  1  0
 62 66  2  0
 62 67  1  0
 68 67  1  1
 68 69  1  0
 68 70  1  0
 70 71  1  0
 71 72  1  0
 71 73  1  0
 69 74  1  0
 69 75  2  0
 76 74  1  6
 76 77  1  0
 76 78  1  0
 78 79  1  0
 79 80  1  0
 80 81  1  0
 81 82  1  0
 77 83  1  0
 57 84  1  0
 84 85  1  0
 85 86  1  0
 86 87  1  0
 77 88  2  0
 89 83  1  1
 89 90  1  0
 89 91  1  0
 90 92  1  0
 90 93  2  0
 92 94  1  0
 94 95  1  0
 94 96  1  1
 95 97  2  0
 95 98  1  0
 98 99  1  0
 99100  1  0
 99101  1  6
101102  1  0
102103  2  0
103104  1  0
104105  2  0
105106  1  0
106107  2  0
107102  1  0
100108  1  0
100109  2  0
108110  1  0
110111  1  0
110112  1  6
112113  1  0
113114  1  0
114115  1  0
115116  1  0
111117  2  0
111118  1  0
119118  1  0
119120  1  1
119121  1  0
120122  1  0
120123  2  0
124122  1  6
124125  1  0
124126  1  0
126127  1  0
127128  1  0
127129  1  0
125130  2  0
125131  1  0
132131  1  1
132133  1  0
132134  1  0
134135  1  0
133136  2  0
133137  1  0
 12138  2  0
138139  1  0
139140  2  0
140141  1  0
141142  2  0
142 12  1  0
139143  1  0
143146  1  0
143151  2  0
145144  1  0
144152  1  0
145146  2  0
146147  1  0
147148  2  0
148149  1  0
149150  2  0
150145  1  0
151152  1  0
151156  1  0
152153  2  0
153154  1  0
154155  1  0
155156  2  0
154157  2  0
149158  1  0
140159  1  0
159160  2  0
159161  1  0
 91162  1  0
162163  1  0
163164  1  0
164  1  1  0
121  4  1  0
M  END