
  SciTegic12231509382D

 16 16  0  0  0  0            999 V2000
   11.0692   -2.5124    0.0000 C   0  0
   11.0681   -3.3398    0.0000 C   0  0
   11.7828   -3.7527    0.0000 C   0  0
   12.4993   -3.3392    0.0000 C   0  0
   12.4965   -2.5088    0.0000 C   0  0
   11.7810   -2.0996    0.0000 C   0  0
   10.3533   -3.7517    0.0000 O   0  0
   10.3546   -2.1001    0.0000 S   0  0
   10.3544   -1.2751    0.0000 C   0  0
   13.2143   -3.7506    0.0000 O   0  0
   13.2157   -4.5756    0.0000 C   0  0
   13.2093   -2.0936    0.0000 C   0  0
   13.9254   -2.5034    0.0000 C   0  0
   14.6382   -2.0882    0.0000 C   0  0
   13.9284   -3.3283    0.0000 N   0  0
    9.6392   -3.3386    0.0000 C   0  0
  1  2  2  0
  2  3  1  0
  3  4  2  0
  4  5  1  0
  5  6  2  0
  6  1  1  0
  2  7  1  0
  1  8  1  0
  8  9  1  0
  4 10  1  0
 10 11  1  0
  5 12  1  0
 12 13  1  0
 13 14  1  0
 13 15  1  0
  7 16  1  0
M  END