
          11280714462D 1   1.00000     0.00000     0

 28 29  0     0  0            999 V2000
    3.2000   -3.0042    0.0000 N   0  0  3  0  0  0           0  0  0
    3.4917   -3.9417    0.0000 C   0  0  0  0  0  0           0  0  0
    2.8917   -3.9417    0.0000 N   0  0  0  0  0  0           0  0  0
    3.6792   -3.3667    0.0000 C   0  0  0  0  0  0           0  0  0
    3.1917   -2.4042    0.0000 C   0  0  0  0  0  0           0  0  0
    2.7125   -3.3542    0.0000 C   0  0  0  0  0  0           0  0  0
    2.6667   -2.1042    0.0000 C   0  0  0  0  0  0           0  0  0
    3.8375   -4.4292    0.0000 C   0  0  0  0  0  0           0  0  0
    2.6667   -1.4917    0.0000 C   0  0  0  0  0  0           0  0  0
    3.7167   -2.1000    0.0000 C   0  0  0  0  0  0           0  0  0
    3.1917   -1.1875    0.0000 O   0  0  0  0  0  0           0  0  0
    3.5917   -4.9750    0.0000 O   0  0  0  0  0  0           0  0  0
    5.3292   -1.7417    0.0000 N   0  0  0  0  0  0           0  0  0
    4.3000   -1.3292    0.0000 C   0  0  3  0  0  0           0  0  0
    3.7167   -1.4875    0.0000 C   0  0  0  0  0  0           0  0  0
    4.4375   -4.3667    0.0000 O   0  0  0  0  0  0           0  0  0
    4.2542   -3.1917    0.0000 C   0  0  0  0  0  0           0  0  0
    4.7292   -1.7417    0.0000 C   0  0  0  0  0  0           0  0  0
    2.1417   -2.4042    0.0000 C   0  0  0  0  0  0           0  0  0
    4.4417   -0.7417    0.0000 O   0  0  0  0  0  0           0  0  0
    5.6875   -2.2292    0.0000 C   0  0  3  0  0  0           0  0  0
    2.1417   -1.1917    0.0000 C   0  0  0  0  0  0           0  0  0
    4.7875   -4.8542    0.0000 C   0  0  0  0  0  0           0  0  0
    5.4417   -2.7792    0.0000 C   0  0  0  0  0  0           0  0  0
    6.2875   -2.1667    0.0000 C   0  0  0  0  0  0           0  0  0
    1.6250   -2.1042    0.0000 C   0  0  0  0  0  0           0  0  0
    5.3792   -4.8000    0.0000 C   0  0  0  0  0  0           0  0  0
    1.6250   -1.5000    0.0000 C   0  0  0  0  0  0           0  0  0
  2  4  2  0     0  0
  3  6  2  0     0  0
  4  1  1  0     0  0
  5  1  1  0     0  0
  6  1  1  0     0  0
  7  5  1  0     0  0
  8  2  1  0     0  0
  9  7  1  0     0  0
 10  5  2  0     0  0
 11  9  1  0     0  0
 12  8  2  0     0  0
 13 18  1  0     0  0
 14 15  1  0     0  0
 15 11  1  0     0  0
 16  8  1  0     0  0
 17  4  1  0     0  0
 18 14  1  0     0  0
 19  7  2  0     0  0
 20 14  1  0     0  0
 21 13  1  0     0  0
 22  9  2  0     0  0
 23 16  1  0     0  0
 24 21  1  0     0  0
 25 21  1  0     0  0
 26 19  1  0     0  0
 27 23  1  0     0  0
 28 26  2  0     0  0
  2  3  1  0     0  0
 28 22  1  0     0  0
M  END