
  SciTegic01161211222D

 33 34  0  0  0  0            999 V2000
    4.5417   -3.5083    0.0000 N   0  3
    4.9542   -4.2250    0.0000 C   0  0
    3.7125   -3.5125    0.0000 C   0  0
    3.3042   -4.2292    0.0000 C   0  0
    4.5417   -4.9375    0.0000 C   0  0
    3.7167   -4.9375    0.0000 C   0  0
    5.7750   -4.2250    0.0000 C   0  0
    4.9542   -5.6500    0.0000 C   0  0
    3.3125   -5.6458    0.0000 C   0  0
    2.4875   -4.2333    0.0000 C   0  0
    7.0250   -2.0708    0.0000 N   0  3
    4.9542   -2.7917    0.0000 C   0  0
    3.2958   -2.8000    0.0000 C   0  0
    6.1875   -4.9333    0.0000 C   0  0
    2.0792   -4.9417    0.0000 C   0  0
    5.7833   -2.7917    0.0000 C   0  0
    5.7750   -5.6500    0.0000 C   0  0
    2.4958   -5.6500    0.0000 C   0  0
    7.0167   -4.9292    0.0000 N   0  0
    1.2542   -4.9458    0.0000 N   0  0
    6.1958   -2.0750    0.0000 C   0  0
    7.4375   -2.7875    0.0000 C   0  0
    7.4375   -1.3542    0.0000 C   0  0
    7.8458   -2.0667    0.0000 C   0  0
    3.7042   -2.0833    0.0000 C   0  0
    2.4708   -2.8083    0.0000 C   0  0
    8.2667   -2.7875    0.0000 C   0  0
    8.2625   -1.3542    0.0000 C   0  0
    2.0500   -2.0958    0.0000 C   0  0
    3.2875   -1.3667    0.0000 C   0  0
    2.4583   -1.3708    0.0000 C   0  0
    7.1417   -6.6875    0.0000 I   0  5
    7.9208   -4.6833    0.0000 I   0  5
  2  1  2  0
  3  1  1  0
  4  3  2  0
  5  2  1  0
  6  4  1  0
  7  2  1  0
  8  5  1  0
  9  6  1  0
 10  4  1  0
 11 21  1  0
 12  1  1  0
 13  3  1  0
 14  7  2  0
 15 10  2  0
 16 12  1  0
 17 14  1  0
 18 15  1  0
 19 14  1  0
 20 15  1  0
 21 16  1  0
 22 11  1  0
 23 11  1  0
 24 11  1  0
 25 13  2  0
 26 13  1  0
 27 22  1  0
 28 23  1  0
 29 26  2  0
 30 25  1  0
 31 29  1  0
  5  6  2  0
 17  8  2  0
 31 30  2  0
  9 18  2  0
M  CHG  4   1   1  11   1  32  -1  33  -1
M  END