
          11280714452D 1   1.00000     0.00000     0

 23 26  0     0  0            999 V2000
    0.4500   -0.6250    0.0000 C   0  0  3  0  0  0           0  0  0
   -0.0750   -0.3167    0.0000 O   0  0  0  0  0  0           0  0  0
    1.0292   -0.7792    0.0000 C   0  0  0  0  0  0           0  0  0
    1.4792   -0.3792    0.0000 N   0  0  0  0  0  0           0  0  0
   -0.0750   -1.5167    0.0000 O   0  0  0  0  0  0           0  0  0
   -0.5958   -0.6167    0.0000 C   0  0  0  0  0  0           0  0  0
    0.4500   -1.2167    0.0000 C   0  0  0  0  0  0           0  0  0
    0.4250   -0.0292    0.0000 O   0  0  0  0  0  0           0  0  0
    1.2667   -1.3292    0.0000 N   0  0  0  0  0  0           0  0  0
   -0.5958   -1.2167    0.0000 C   0  0  0  0  0  0           0  0  0
    0.0000    0.3958    0.0000 C   0  0  0  0  0  0           0  0  0
    0.0917    0.9958    0.0000 C   0  0  0  0  0  0           0  0  0
    1.9917   -0.6875    0.0000 C   0  0  0  0  0  0           0  0  0
    1.8625   -1.2667    0.0000 C   0  0  0  0  0  0           0  0  0
   -1.1083   -0.3167    0.0000 C   0  0  0  0  0  0           0  0  0
   -1.1083   -1.5167    0.0000 C   0  0  0  0  0  0           0  0  0
    0.6542    1.2083    0.0000 C   0  0  0  0  0  0           0  0  0
   -0.3833    1.3708    0.0000 C   0  0  0  0  0  0           0  0  0
   -1.6333   -0.6250    0.0000 C   0  0  0  0  0  0           0  0  0
   -1.6333   -1.2167    0.0000 C   0  0  0  0  0  0           0  0  0
   -0.2875    1.9708    0.0000 C   0  0  0  0  0  0           0  0  0
    0.7500    1.8083    0.0000 C   0  0  0  0  0  0           0  0  0
    0.2792    2.1875    0.0000 C   0  0  0  0  0  0           0  0  0
  2  1  1  0     0  0
  3  1  1  0     0  0
  4  3  2  0     0  0
  5  7  1  0     0  0
  6  2  1  0     0  0
  7  1  1  0     0  0
  8  1  1  0     0  0
  9  3  1  0     0  0
 10  5  1  0     0  0
 11  8  1  0     0  0
 12 11  1  0     0  0
 13  4  1  0     0  0
 14  9  1  0     0  0
 15  6  2  0     0  0
 16 10  2  0     0  0
 17 12  2  0     0  0
 18 12  1  0     0  0
 19 15  1  0     0  0
 20 16  1  0     0  0
 21 18  2  0     0  0
 22 17  1  0     0  0
 23 21  1  0     0  0
  6 10  1  0     0  0
 14 13  1  0     0  0
 19 20  2  0     0  0
 22 23  2  0     0  0
M  END