
          11280714542D 1   1.00000     0.00000     0

 33 34  0     0  0            999 V2000
    0.6042   -6.1667    0.0000 C   0  0  0  0  0  0           0  0  0
    1.1250   -6.4667    0.0000 N   0  0  0  0  0  0           0  0  0
    4.2917   -5.2875    0.0000 N   0  0  3  0  0  0           0  0  0
    1.6417   -6.1667    0.0000 C   0  0  0  0  0  0           0  0  0
    0.0875   -6.4750    0.0000 C   0  0  0  0  0  0           0  0  0
    4.0625   -5.9917    0.0000 C   0  0  3  0  0  0           0  0  0
    3.7417   -5.6000    0.0000 C   0  0  3  0  0  0           0  0  0
    5.5500   -5.9625    0.0000 C   0  0  0  0  0  0           0  0  0
    6.1500   -5.9500    0.0000 C   0  0  0  0  0  0           0  0  0
    2.6792   -6.1625    0.0000 C   0  0  3  0  0  0           0  0  0
    3.2000   -5.8542    0.0000 C   0  0  0  0  0  0           0  0  0
    2.9167   -5.4542    0.0000 C   0  0  0  0  0  0           0  0  0
    2.1667   -6.4625    0.0000 N   0  0  0  0  0  0           0  0  0
    0.6000   -5.5667    0.0000 O   0  0  0  0  0  0           0  0  0
   -0.4333   -6.1750    0.0000 C   0  0  0  0  0  0           0  0  0
    1.6417   -5.5667    0.0000 O   0  0  0  0  0  0           0  0  0
    4.0542   -6.5917    0.0000 C   0  0  0  0  0  0           0  0  0
    3.5375   -6.2917    0.0000 C   0  0  0  0  0  0           0  0  0
    6.4375   -5.4250    0.0000 O   0  0  0  0  0  0           0  0  0
    5.2375   -5.4500    0.0000 O   0  0  0  0  0  0           0  0  0
    6.4542   -6.4625    0.0000 O   0  0  0  0  0  0           0  0  0
    5.2625   -6.4875    0.0000 O   0  0  0  0  0  0           0  0  0
    4.5875   -4.7667    0.0000 C   0  0  0  0  0  0           0  0  0
   -0.4375   -5.5750    0.0000 O   0  0  0  0  0  0           0  0  0
    0.0875   -7.0792    0.0000 C   0  0  0  0  0  0           0  0  0
   -0.9583   -5.2792    0.0000 C   0  0  0  0  0  0           0  0  0
   -0.9500   -6.4750    0.0000 C   0  0  0  0  0  0           0  0  0
   -1.4750   -5.5792    0.0000 C   0  0  0  0  0  0           0  0  0
   -1.9958   -5.2792    0.0000 C   0  0  3  0  0  0           0  0  0
   -0.4333   -7.3792    0.0000 C   0  0  0  0  0  0           0  0  0
   -2.0000   -4.6792    0.0000 C   0  0  0  0  0  0           0  0  0
   -2.5125   -5.5792    0.0000 C   0  0  0  0  0  0           0  0  0
   -0.9500   -7.0792    0.0000 C   0  0  0  0  0  0           0  0  0
  2  1  1  0     0  0
  3  7  1  0     0  0
  4  2  1  0     0  0
  5  1  1  0     0  0
  6 11  1  0     0  0
  7 12  1  0     0  0
  9  8  1  0     0  0
 10 13  1  0     0  0
 11 10  1  0     0  0
 12 10  1  0     0  0
 13  4  1  0     0  0
 14  1  2  0     0  0
 15  5  2  0     0  0
 16  4  2  0     0  0
 17  6  1  0     0  0
 18  7  1  0     0  0
 19  9  2  0     0  0
 20  8  2  0     0  0
 21  9  1  0     0  0
 22  8  1  0     0  0
 23  3  1  0     0  0
 24 15  1  0     0  0
 25  5  1  0     0  0
 26 24  1  0     0  0
 27 15  1  0     0  0
 28 26  1  0     0  0
 29 28  1  0     0  0
 30 25  2  0     0  0
 31 29  1  0     0  0
 32 29  1  0     0  0
 33 30  1  0     0  0
 33 27  2  0     0  0
  3  6  1  0     0  0
 18 17  1  0     0  0
M  END