
          11280715032D 1   1.00000     0.00000     0

 51 55  0     0  0            999 V2000
    0.7625   -1.2042    0.0000 C   0  0  0  0  0  0           0  0  0
    0.7625   -2.0292    0.0000 N   0  0  3  0  0  0           0  0  0
    7.9000   -3.7167    0.0000 C   0  0  0  0  0  0           0  0  0
    5.7625   -3.2917    0.0000 C   0  0  0  0  0  0           0  0  0
    8.6167   -3.3042    0.0000 C   0  0  0  0  0  0           0  0  0
    7.1875   -3.3042    0.0000 N   0  0  3  0  0  0           0  0  0
    0.0500   -0.7917    0.0000 C   0  0  3  0  0  0           0  0  0
    5.0375   -4.5292    0.0000 C   0  0  0  0  0  0           0  0  0
    6.4750   -3.7042    0.0000 C   0  0  0  0  0  0           0  0  0
    5.0417   -3.7042    0.0000 C   0  0  3  0  0  0           0  0  0
    0.7667    0.4583    0.0000 C   0  0  0  0  0  0           0  0  0
    1.4792   -2.4417    0.0000 C   0  0  3  0  0  0           0  0  0
    2.9000   -3.2792    0.0000 N   0  0  3  0  0  0           0  0  0
    0.0500    0.0333    0.0000 C   0  0  0  0  0  0           0  0  0
    5.7500   -4.9292    0.0000 C   0  0  0  0  0  0           0  0  0
    3.2375    0.4583    0.0000 N   0  0  3  0  0  0           0  0  0
    5.7500   -5.7542    0.0000 C   0  0  0  0  0  0           0  0  0
    5.7625   -2.4667    0.0000 N   0  0  0  0  0  0           0  0  0
    4.3292   -3.2792    0.0000 C   0  0  0  0  0  0           0  0  0
    9.3250   -3.7292    0.0000 C   0  0  0  0  0  0           0  0  0
    8.6167   -2.4792    0.0000 C   0  0  0  0  0  0           0  0  0
    1.4792   -0.7917    0.0000 O   0  0  0  0  0  0           0  0  0
    1.4750   -3.2667    0.0000 C   0  0  0  0  0  0           0  0  0
    2.1917   -2.0292    0.0000 C   0  0  0  0  0  0           0  0  0
    5.0292   -6.1667    0.0000 C   0  0  0  0  0  0           0  0  0
    7.9000   -4.5417    0.0000 O   0  0  0  0  0  0           0  0  0
    9.3292   -2.0792    0.0000 C   0  0  0  0  0  0           0  0  0
   10.0417   -3.3167    0.0000 C   0  0  0  0  0  0           0  0  0
    1.5917    0.4583    0.0000 C   0  0  3  0  0  0           0  0  0
   10.0500   -2.4917    0.0000 C   0  0  0  0  0  0           0  0  0
    4.3250   -4.9292    0.0000 C   0  0  0  0  0  0           0  0  0
    0.7667    1.2708    0.0000 O   0  0  0  0  0  0           0  0  0
    3.6125   -3.6917    0.0000 C   0  0  0  0  0  0           0  0  0
    4.3125   -5.7542    0.0000 C   0  0  0  0  0  0           0  0  0
    2.1875   -3.6792    0.0000 C   0  0  0  0  0  0           0  0  0
    2.9042   -2.4542    0.0000 C   0  0  0  0  0  0           0  0  0
    2.0000   -0.2542    0.0000 C   0  0  0  0  0  0           0  0  0
    2.0000    1.1708    0.0000 C   0  0  0  0  0  0           0  0  0
    2.8250    1.1708    0.0000 C   0  0  0  0  0  0           0  0  0
    2.8167   -0.2667    0.0000 C   0  0  0  0  0  0           0  0  0
    0.0500   -2.4417    0.0000 C   0  0  0  0  0  0           0  0  0
    6.4625   -6.1667    0.0000 Cl  0  0  0  0  0  0           0  0  0
    5.0250   -6.9917    0.0000 Cl  0  0  0  0  0  0           0  0  0
    9.3292   -1.2542    0.0000 Cl  0  0  0  0  0  0           0  0  0
   10.7542   -3.7292    0.0000 Cl  0  0  0  0  0  0           0  0  0
    6.4792   -2.0542    0.0000 O   0  0  0  0  0  0           0  0  0
    7.1917   -2.4792    0.0000 C   0  0  0  0  0  0           0  0  0
   -0.6583   -1.2042    0.0000 C   0  0  0  0  0  0           0  0  0
    4.0625    0.4583    0.0000 C   0  0  0  0  0  0           0  0  0
   -0.6583   -2.0292    0.0000 C   0  0  0  0  0  0           0  0  0
    7.2000   -1.6542    0.0000 C   0  0  0  0  0  0           0  0  0
  2  1  1  0     0  0
  3  6  1  0     0  0
  4 10  1  0     0  0
  5  3  1  0     0  0
  6  9  1  0     0  0
  7  1  1  0     0  0
 10  8  1  0     0  0
  9  4  1  0     0  0
 10 19  1  0     0  0
 11 14  1  0     0  0
 12  2  1  0     0  0
 13 36  1  0     0  0
  7 14  1  0     0  0
 15  8  1  0     0  0
 16 39  1  0     0  0
 17 15  2  0     0  0
 18  4  2  0     0  0
 19 33  1  0     0  0
 20  5  2  0     0  0
 21  5  1  0     0  0
 22  1  2  0     0  0
 23 12  1  0     0  0
 24 12  1  0     0  0
 25 34  2  0     0  0
 26  3  2  0     0  0
 27 21  2  0     0  0
 28 20  1  0     0  0
 29 11  1  0     0  0
 30 27  1  0     0  0
 31  8  2  0     0  0
 32 11  2  0     0  0
 33 13  1  0     0  0
 34 31  1  0     0  0
 35 23  1  0     0  0
 36 24  1  0     0  0
 37 29  1  0     0  0
 38 29  1  0     0  0
 39 38  1  0     0  0
 40 37  1  0     0  0
 41  2  1  0     0  0
 42 17  1  0     0  0
 43 25  1  0     0  0
 44 27  1  0     0  0
 45 28  1  0     0  0
 46 18  1  0     0  0
 47  6  1  0     0  0
 48  7  1  0     0  0
 49 16  1  0     0  0
 50 48  1  0     0  0
 51 46  1  0     0  0
 41 50  1  0     0  0
 13 35  1  0     0  0
 16 40  1  0     0  0
 17 25  1  0     0  0
 30 28  2  0     0  0
M  END