
  SciTegic12231509382D

 15 15  0  0  0  0            999 V2000
   -4.1848   -1.8500    0.0000 C   0  0
   -4.1859   -2.6773    0.0000 C   0  0
   -3.4711   -3.0902    0.0000 C   0  0
   -2.7547   -2.6769    0.0000 C   0  0
   -2.7575   -1.8463    0.0000 C   0  0
   -3.4729   -1.4372    0.0000 C   0  0
   -3.4713   -3.9152    0.0000 O   0  0
   -4.1859   -4.3275    0.0000 C   0  0
   -4.9007   -3.0893    0.0000 I   0  0
   -3.4754   -0.6122    0.0000 O   0  0
   -2.7621   -0.1976    0.0000 C   0  0
   -2.0446   -1.4311    0.0000 C   0  0
   -1.3286   -1.8409    0.0000 C   0  0  1  0  0  0
   -0.6157   -1.4258    0.0000 C   0  0
   -1.3255   -2.6659    0.0000 N   0  0
  7  8  1  0
  3  4  2  0
  2  9  1  0
  1  2  2  0
  6 10  1  0
  4  5  1  0
 10 11  1  0
  5 12  1  0
  5  6  2  0
 12 13  1  0
  6  1  1  0
 13 14  1  0
  2  3  1  0
 13 15  1  1
  3  7  1  0
M  END