
  SciTegic11201309402D

110118  0  0  0  0            999 V2000
    9.8793    2.9044    0.0000 C   0  0
    9.1677    3.3247    0.0000 C   0  0
    9.1799    4.1504    0.0000 C   0  0
    9.8997    4.5552    0.0000 O   0  0
    8.4709    4.5757    0.0000 O   0  0
    9.8715    2.0795    0.0000 C   0  0  2  0  0  0
    9.8876    0.4463    0.0000 C   0  0
    9.1664    0.8470    0.0000 C   0  0
    9.1530    1.6719    0.0000 N   0  0
    8.4588    0.4229    0.0000 O   0  0
   10.5812    1.6589    0.0000 C   0  0
   11.3003    2.0632    0.0000 N   0  0
   10.5718    0.8339    0.0000 O   0  0
   14.3919   -1.0052    0.0000 C   0  0
   -1.6769   -7.9096    0.0000 C   0  0
   -2.4621   -9.3688    0.0000 O   0  0
   10.4948   -5.9845    0.0000 C   0  0
   10.7193   -5.1907    0.0000 N   0  0
   11.0700   -6.5759    0.0000 O   0  0
   11.5191   -4.9882    0.0000 C   0  0  2  0  0  0
   11.7436   -4.1943    0.0000 C   0  0
   12.0943   -5.5796    0.0000 C   0  0  1  0  0  0
   11.8698   -6.3734    0.0000 C   0  0
   12.8941   -5.3771    0.0000 O   0  0
   12.5434   -3.9919    0.0000 N   0  0
   11.1684   -3.6029    0.0000 O   0  0
    9.4710   -6.9757    0.0000 N   0  0
    9.6954   -6.1866    0.0000 C   0  0  1  0  0  0
    9.0140   -5.7295    0.0000 C   0  0
    8.3687   -6.2363    0.0000 C   0  0
    8.6513   -7.0065    0.0000 C   0  0
   12.7679   -3.1980    0.0000 C   0  0  2  0  0  0
   13.5677   -2.9955    0.0000 C   0  0
   12.1927   -2.6066    0.0000 C   0  0
   14.1429   -3.5869    0.0000 O   0  0
   13.7932   -2.2002    0.0000 N   0  0
   14.5237   -1.8196    0.0000 C   0  0
   13.5765   -0.8789    0.0000 C   0  0
   13.2031   -1.6158    0.0000 C   0  0  1  0  0  0
   12.3781   -1.6141    0.0000 C   0  0
   11.9675   -0.8994    0.0000 N   0  0
   11.9641   -2.3277    0.0000 O   0  0
   12.5207   -0.2883    0.0000 C   0  0
   12.1121    0.4284    0.0000 C   0  0
   11.3041    0.2611    0.0000 C   0  0
   11.2133   -0.5596    0.0000 C   0  0  1  0  0  0
   10.4901   -0.9565    0.0000 C   0  0
    9.8967   -0.3786    0.0000 N   0  0
   10.4721   -1.7813    0.0000 O   0  0
   11.2469   -5.9504    0.0000 H   0  0
   10.0509   -7.5625    0.0000 C   0  0
    9.8327   -8.3581    0.0000 C   0  0  1  0  0  0
   10.8490   -7.3537    0.0000 O   0  0
    9.0346   -8.5669    0.0000 N   0  0
   10.4126   -8.9449    0.0000 C   0  0
   11.2107   -8.7361    0.0000 C   0  0
    8.2124   -8.5779    0.0000 C   0  0
    7.7939   -7.8670    0.0000 C   0  0
    7.8060   -9.2958    0.0000 O   0  0
    6.2458   -7.4747    0.0000 C   0  0
    5.5402   -7.9023    0.0000 C   0  0
    6.2282   -6.6499    0.0000 O   0  0
    4.8171   -7.5051    0.0000 C   0  0
    4.1116   -7.9327    0.0000 C   0  0
    3.3885   -7.5355    0.0000 C   0  0
    2.6830   -7.9631    0.0000 N   0  0
    1.9599   -7.5660    0.0000 C   0  0
    1.2544   -7.9936    0.0000 N   0  0
    1.9423   -6.7411    0.0000 S   0  0
    0.5313   -7.5964    0.0000 C   0  0
    0.5190   -6.7740    0.0000 C   0  0
   -0.2031   -6.3768    0.0000 C   0  0
   -0.1649   -8.0269    0.0000 C   0  0
   -0.8841   -7.6335    0.0000 C   0  0
   -0.9044   -6.7999    0.0000 C   0  0
   -1.7095   -6.5609    0.0000 C   0  0
   -2.1816   -7.2469    0.0000 O   0  0
   -1.9757   -5.7825    0.0000 O   0  0
   -1.2345   -8.6090    0.0000 C   0  0
   -1.6359   -9.3387    0.0000 C   0  0
   -1.1996  -10.0432    0.0000 C   0  0
   -0.3704  -10.0193    0.0000 C   0  0
    0.0220   -9.2850    0.0000 C   0  0
   -0.4096   -8.5835    0.0000 C   0  0
   -2.8917   -8.6646    0.0000 C   0  0
   -2.5125   -7.9402    0.0000 C   0  0
   -2.9386   -7.2430    0.0000 C   0  0
   -3.7606   -7.2689    0.0000 C   0  0
   -4.1462   -7.9979    0.0000 C   0  0
   -3.7094   -8.6922    0.0000 C   0  0
    0.0635  -10.7208    0.0000 O   0  0
   -4.9710   -8.0273    0.0000 O   0  0
   11.7907   -9.3228    0.0000 C   0  0
   11.5731  -10.1205    0.0000 O   0  0
   12.5894   -9.1160    0.0000 O   0  0
    6.9683   -7.8751    0.0000 N   0  0
    9.1675   -0.7671    0.0000 C   0  0
    9.1394   -1.5917    0.0000 C   0  0
    8.4113   -1.9796    0.0000 C   0  0
    8.3832   -2.8041    0.0000 C   0  0
    7.6551   -3.1921    0.0000 C   0  0
    7.6270   -4.0166    0.0000 C   0  0
    6.9625   -7.0500    0.0000 C   0  0
    7.6740   -6.6325    0.0000 C   0  0
    7.6682   -5.8075    0.0000 C   0  0
    8.2881   -5.4025    0.0000 C   0  0
    8.3270   -4.4532    0.0000 C   0  0
   10.3821   -0.0036    0.0000 H   0  0
   12.6805   -0.7632    0.0000 H   0  0
    9.8662   -5.2013    0.0000 H   0  0
 27 28  1  0
 51 53  2  0
 15 86  1  0
 52 54  1  0
  3  4  1  0
 52 55  1  6
  8  9  1  0
 55 56  1  0
 15 79  1  0
 54 57  1  0
 85 16  1  0
 57 58  1  0
 28 29  1  0
 57 59  2  0
 58 96  1  0
 29 30  1  0
 96 60  1  0
 30 31  1  0
 60 61  1  0
 31 27  1  0
 60 62  2  0
 16 80  1  0
 61 63  1  0
 25 32  1  0
 63 64  1  0
  3  5  2  0
 64 65  1  0
 32 33  1  0
 65 66  1  0
 28 17  1  0
 66 67  1  0
 32 34  1  1
 67 68  1  0
  8 10  2  0
 67 69  2  0
 33 35  2  0
 68 70  1  0
 17 18  1  0
 70 71  2  0
 33 36  1  0
 71 72  1  0
 72 75  2  0
 36 37  1  0
 74 73  2  0
 73 70  1  0
 74 75  1  0
  6  9  1  1
 17 19  2  0
  2  3  1  0
 37 14  1  0
 75 76  1  0
 76 77  1  0
 77 15  1  0
 15 74  1  0
 14 38  1  0
 76 78  2  0
 38 39  1  0
 39 36  1  0
 79 80  2  0
 18 20  1  0
 80 81  1  0
 39 40  1  0
 81 82  2  0
  6 11  1  0
 82 83  1  0
 40 41  1  0
 83 84  2  0
 84 79  1  0
 20 21  1  0
 40 42  2  0
 85 86  2  0
 41 43  1  0
 86 87  1  0
  1  2  1  0
 87 88  2  0
 20 22  1  0
 88 89  1  0
 11 12  1  0
 89 90  2  0
 90 85  1  0
 22 23  1  6
 82 91  1  0
 43 44  1  0
 89 92  1  0
 44 45  1  0
 56 93  1  0
 45 46  1  0
 46 41  1  0
 93 94  1  0
 93 95  2  0
 48  7  1  0
 46 47  1  0
 48 97  1  0
  6  1  1  0
 22 24  1  0
 97 98  1  0
 47 48  1  0
 98 99  1  0
 11 13  2  0
 99100  1  0
 47 49  2  0
100101  1  0
 21 25  1  0
101102  1  0
 20 50  1  1
 96103  1  0
  7  8  1  0
103104  1  0
 27 51  1  0
104105  1  0
 21 26  2  0
105106  1  0
 51 52  1  0
102107  1  0
106107  2  0
 46108  1  1
 39109  1  1
 28110  1  6
M  END