
  SciTegic09081514192D

 23 25  0  0  0  0            999 V2000
    4.2010   -3.2956    0.0000 C   0  0
    2.7343   -2.9815    0.0000 C   0  0
    2.5987   -1.5004    0.0000 C   0  0
    3.9511   -0.8815    0.0000 N   0  0
    4.9531   -1.9978    0.0000 N   0  0
    4.8111   -4.6641    0.0000 C   0  0
    4.1059   -5.6350    0.0000 O   0  0
    6.0045   -4.7897    0.0000 O   0  0
    1.2990   -0.7500    0.0000 C   0  0
    1.2990    0.7500    0.0000 C   0  0
    0.0000    1.5000    0.0000 C   0  0
   -1.2990    0.7500    0.0000 C   0  0
   -1.2990   -0.7500    0.0000 C   0  0
    0.0000   -1.5000    0.0000 C   0  0
    4.2567    0.5878    0.0000 C   0  0
    3.2235    1.6679    0.0000 C   0  0
    3.6446    3.1076    0.0000 C   0  0
    5.1019    3.4627    0.0000 C   0  0
    6.1382    2.3782    0.0000 C   0  0
    5.7171    0.9385    0.0000 C   0  0
    2.8156    3.9752    0.0000 Cl  0  0
    5.4388    4.6145    0.0000 Cl  0  0
   -2.3383    1.3500    0.0000 C   0  0
  1  2  1  0
  2  3  2  0
  3  4  1  0
  4  5  1  0
  5  1  2  0
  6  7  1  0
  6  8  2  0
  1  6  1  0
  9 10  2  0
 10 11  1  0
 11 12  2  0
 12 13  1  0
 13 14  2  0
 14  9  1  0
  3  9  1  0
 15 16  2  0
 16 17  1  0
 17 18  2  0
 18 19  1  0
 19 20  2  0
 20 15  1  0
  4 15  1  0
 17 21  1  0
 18 22  1  0
 12 23  1  0
M  END