
          11280715002D 1   1.00000     0.00000     0

 27 30  0     0  0            999 V2000
   -0.8958   -3.8125    0.0000 N   0  0  3  0  0  0           0  0  0
   -0.1083   -3.5542    0.0000 C   0  0  0  0  0  0           0  0  0
   -0.8958   -4.6375    0.0000 C   0  0  0  0  0  0           0  0  0
    0.3750   -4.2167    0.0000 N   0  0  3  0  0  0           0  0  0
   -0.1083   -4.8917    0.0000 N   0  0  0  0  0  0           0  0  0
    4.9167   -3.5042    0.0000 C   0  0  0  0  0  0           0  0  0
    1.2000   -4.2167    0.0000 C   0  0  0  0  0  0           0  0  0
    2.4417   -3.5042    0.0000 N   0  0  3  0  0  0           0  0  0
    0.1417   -2.7667    0.0000 O   0  0  0  0  0  0           0  0  0
    5.3292   -4.2167    0.0000 C   0  0  0  0  0  0           0  0  0
    4.0917   -3.5042    0.0000 C   0  0  3  0  0  0           0  0  0
    5.3292   -2.7917    0.0000 O   0  0  0  0  0  0           0  0  0
    1.6125   -3.5042    0.0000 C   0  0  0  0  0  0           0  0  0
   -2.3125   -4.6417    0.0000 O   0  0  0  0  0  0           0  0  0
   -1.6000   -5.0542    0.0000 C   0  0  0  0  0  0           0  0  0
   -1.6083   -3.4042    0.0000 C   0  0  0  0  0  0           0  0  0
    6.1542   -4.2167    0.0000 C   0  0  0  0  0  0           0  0  0
    4.9167   -4.9292    0.0000 C   0  0  0  0  0  0           0  0  0
    3.6792   -4.2167    0.0000 C   0  0  0  0  0  0           0  0  0
    3.6792   -2.7917    0.0000 C   0  0  0  0  0  0           0  0  0
    2.8542   -4.2167    0.0000 C   0  0  0  0  0  0           0  0  0
    2.8542   -2.7917    0.0000 C   0  0  0  0  0  0           0  0  0
    6.1542   -5.6417    0.0000 C   0  0  0  0  0  0           0  0  0
    5.3292   -5.6417    0.0000 C   0  0  0  0  0  0           0  0  0
    6.5667   -4.9250    0.0000 C   0  0  0  0  0  0           0  0  0
    6.5625   -6.3625    0.0000 F   0  0  0  0  0  0           0  0  0
   -2.3208   -3.8167    0.0000 C   0  0  0  0  0  0           0  0  0
  2  1  1  0     0  0
  3  1  1  0     0  0
  4  2  1  0     0  0
  5  3  2  0     0  0
  6 11  1  0     0  0
  7  4  1  0     0  0
  8 13  1  0     0  0
  9  2  2  0     0  0
 10  6  1  0     0  0
 11 20  1  0     0  0
 12  6  2  0     0  0
 13  7  1  0     0  0
 14 27  1  0     0  0
 15  3  1  0     0  0
 16  1  1  0     0  0
 17 10  1  0     0  0
 18 10  2  0     0  0
 19 21  1  0     0  0
 20 22  1  0     0  0
 21  8  1  0     0  0
 22  8  1  0     0  0
 23 24  2  0     0  0
 24 18  1  0     0  0
 25 17  2  0     0  0
 26 23  1  0     0  0
 27 16  1  0     0  0
 14 15  1  0     0  0
  5  4  1  0     0  0
 19 11  1  0     0  0
 25 23  1  0     0  0
M  END