
  SciTegic09081514192D

 38 41  0  0  0  0            999 V2000
    6.5818    7.5643    0.0000 O   0  0
    7.4092    6.6952    0.0000 S   0  0
    6.2428    6.4133    0.0000 O   0  0
    4.2010   -3.2956    0.0000 C   0  0
    4.9531   -1.9978    0.0000 C   0  0
    3.9511   -0.8815    0.0000 C   0  0
    2.5987   -1.5004    0.0000 N   0  0
    2.7343   -2.9815    0.0000 N   0  0
    4.8054   -4.6666    0.0000 C   0  0
    5.9984   -4.7960    0.0000 O   0  0
    4.0971   -5.6353    0.0000 O   0  0
    4.2567    0.5878    0.0000 C   0  0
    1.2990   -0.7500    0.0000 C   0  0
    1.2990    0.7500    0.0000 C   0  0
    0.0000    1.5000    0.0000 C   0  0
   -1.2990    0.7500    0.0000 C   0  0
   -1.2990   -0.7500    0.0000 C   0  0
    0.0000   -1.5000    0.0000 C   0  0
    0.0000    2.7000    0.0000 Cl  0  0
   -2.3383    1.3500    0.0000 Cl  0  0
    3.2235    1.6679    0.0000 C   0  0
    3.6446    3.1076    0.0000 C   0  0
    5.1019    3.4627    0.0000 C   0  0
    6.1382    2.3782    0.0000 C   0  0
    5.7171    0.9385    0.0000 C   0  0
    5.5263    4.9023    0.0000 C   0  0
    6.9849    5.2556    0.0000 N   0  0
    8.8679    7.0484    0.0000 C   0  0
    9.9026    5.9624    0.0000 C   0  0
   11.3604    6.3155    0.0000 C   0  0
   11.7836    7.7546    0.0000 C   0  0
   10.7489    8.8406    0.0000 C   0  0
    9.2911    8.4875    0.0000 C   0  0
   13.2415    8.1108    0.0000 O   0  0
   13.6629    9.5513    0.0000 C   0  0
   14.8286    9.8361    0.0000 F   0  0
   12.8336   10.4186    0.0000 F   0  0
   13.9992   10.7032    0.0000 F   0  0
  2  1  2  0
  3  2  2  0
  4  5  1  0
  5  6  2  0
  6  7  1  0
  7  8  1  0
  8  4  2  0
  9 10  1  0
  9 11  2  0
  4  9  1  0
  6 12  1  0
 13 14  2  0
 14 15  1  0
 15 16  2  0
 16 17  1  0
 17 18  2  0
 18 13  1  0
  7 13  1  0
 15 19  1  0
 16 20  1  0
 12 21  2  0
 21 22  1  0
 22 23  2  0
 23 24  1  0
 24 25  2  0
 25 12  1  0
 23 26  1  0
 26 27  1  0
 27  2  1  0
  2 28  1  0
 28 29  2  0
 29 30  1  0
 30 31  2  0
 31 32  1  0
 32 33  2  0
 33 28  1  0
 31 34  1  0
 34 35  1  0
 35 36  1  0
 35 37  1  0
 35 38  1  0
M  END