
  SciTegic06051313522D

 37 39  0  0  0  0            999 V2000
   11.7522   -6.3476    0.0000 C   0  0
   12.8405  -11.4135    0.0000 N   0  0
   13.6632  -11.4272    0.0000 C   0  0
   15.3104  -11.4641    0.0000 O   0  0
    9.1405   -9.8634    0.0000 O   0  0
   11.3367   -7.0641    0.0000 C   0  0
   11.3678   -9.9541    0.0000 C   0  0  2  0  0  0
   11.3334   -5.6330    0.0000 C   0  0
   14.0579  -12.1480    0.0000 C   0  0
   10.9616  -11.2218    0.0000 N   0  0
   12.1928   -9.9541    0.0000 H   0  0
   12.0338  -11.4563    0.0000 C   0  0
   12.4417  -10.6927    0.0000 C   0  0
   15.2823  -12.8877    0.0000 O   0  0
    8.8672  -10.6939    0.0000 C   0  0
   10.5443   -9.9612    0.0000 C   0  0  2  0  0  0
   14.8835  -12.1670    0.0000 C   0  0
   13.3668   -9.4042    0.0000 C   0  0
    9.5362  -11.9467    0.0000 C   0  0
   11.7396   -9.2151    0.0000 C   0  0  1  0  0  0
    8.8100  -12.3378    0.0000 C   0  0
   10.5122   -7.0715    0.0000 C   0  0
    9.9078   -8.6560    0.0000 O   0  5
   11.6231  -10.7389    0.0000 C   0  0  1  0  0  0
   13.7918   -8.4405    0.0000 C   0  0
   10.5041   -5.6363    0.0000 C   0  0
   11.3212   -8.4883    0.0000 O   0  0
    8.1430  -11.0768    0.0000 C   0  0
    9.8701   -9.4810    0.0000 N   0  3
   12.8452   -9.9686    0.0000 O   0  0
   12.9638   -8.4595    0.0000 C   0  0
   10.2936  -10.7419    0.0000 C   0  0  2  0  0  0
   11.7561   -7.7791    0.0000 C   0  0
   12.5678   -9.1919    0.0000 C   0  0  2  0  0  0
   10.0953   -6.3600    0.0000 C   0  0
    8.1134  -11.9007    0.0000 C   0  0
    9.5638  -11.1267    0.0000 C   0  0
  8 26  2  0
 24 12  1  0
 24 13  1  1
 20 34  1  0
  7 20  1  0
 33  6  1  0
 26 35  1  0
  6  1  2  0
 21 19  1  0
 17  4  1  0
 35 22  2  0
 20 27  1  1
  2 13  1  0
 34 18  1  6
 24 10  1  0
  7 16  1  0
 37 19  2  0
 37 15  1  0
  7 24  1  0
 17 14  2  0
 13 30  2  0
  1  8  1  0
 15 28  2  0
 28 36  1  0
 36 21  2  0
 16 32  1  0
 17  9  1  0
  7 11  1  1
  3  9  1  0
 34 31  1  0
 27 33  1  0
 29 23  1  0
  2  3  1  0
 16 29  1  1
 22  6  1  0
 32 10  1  0
 29  5  2  0
 32 37  1  1
 31 25  1  0
M  CHG  2  23  -1  29   1
M  END