
  SciTegic12231509382D

 32 33  0  0  1  0            999 V2000
    1.8033   -4.7831    0.0000 C   0  0
    1.3263   -4.4591    0.0000 C   0  0
    2.4023   -4.3708    0.0000 C   0  0
    2.0384   -5.4951    0.0000 N   0  0
    1.3263   -3.7470    0.0000 C   0  0
    0.6824   -4.8272    0.0000 C   0  0
    2.9303   -4.7796    0.0000 C   0  0  1  0  0  0
    2.7600   -5.4951    0.0000 O   0  0
    0.6824   -3.3685    0.0000 C   0  0
    0.0414   -4.4591    0.0000 C   0  0
    3.5404   -4.4288    0.0000 C   0  0
    0.0414   -3.7504    0.0000 C   0  0
    4.1539   -4.8030    0.0000 C   0  0
   -0.5273   -3.4540    0.0000 C   0  0
    4.7605   -4.4288    0.0000 N   0  0
    4.1539   -5.5289    0.0000 O   0  0
   -1.1918   -3.7807    0.0000 N   0  0
   -0.5273   -2.7247    0.0000 N   0  0
    5.3767   -4.7831    0.0000 C   0  0
    5.9867   -4.4522    0.0000 C   0  0  2  0  0  0
    6.5727   -4.8030    0.0000 N   0  0
    5.9867   -3.7470    0.0000 C   0  0
    7.1958   -4.4288    0.0000 C   0  0
    6.5727   -3.3961    0.0000 O   0  0
    5.3430   -3.3996    0.0000 O   0  0
    7.8094   -4.7831    0.0000 O   0  0
    7.1958   -3.7470    0.0000 O   0  0
    6.5796   -2.6668    0.0000 C   0  0
    8.4255   -4.4288    0.0000 C   0  0
    9.0391   -4.7831    0.0000 C   0  0
    9.6457   -4.4150    0.0000 C   0  0
   10.2758   -4.7831    0.0000 C   0  0
  9 12  2  0
 11 13  1  0
 12 14  1  0
 13 15  1  0
 13 16  2  0
 14 17  1  0
 14 18  2  0
 15 19  1  0
 19 20  1  0
 20 21  1  0
 20 22  1  1
 21 23  1  0
 22 24  1  0
 22 25  2  0
 23 26  1  0
 23 27  2  0
 24 28  1  0
 26 29  1  0
 29 30  1  0
 30 31  1  0
 31 32  1  0
  7  8  1  0
 10 12  1  0
  1  2  1  0
  1  3  1  0
  1  4  2  0
  2  5  2  0
  2  6  1  0
  3  7  1  0
  4  8  1  0
  5  9  1  0
  6 10  2  0
  7 11  1  6
M  END