
  SciTegic09171211542D

 93 91  0  0  0  0            999 V2000
   -4.5004   -0.3542    0.0000 O   0  0
   -4.0836   -1.0709    0.0000 S   0  0
   -3.6713   -0.3517    0.0000 O   0  0
    2.3528   -1.5519    0.0000 O   0  0
    3.0322   -0.2940    0.0000 C   0  0
    3.0550   -1.1188    0.0000 C   0  0  1  0  0  0
    3.7781   -1.5073    0.0000 C   0  0
    3.7325    0.1422    0.0000 C   0  0
    4.4558   -0.2546    0.0000 C   0  0  1  0  0  0
    4.4752   -1.0795    0.0000 C   0  0  1  0  0  0
    5.1951   -1.4729    0.0000 C   0  0
    5.9005   -1.0461    0.0000 C   0  0
    5.1565    0.1767    0.0000 C   0  0  2  0  0  0
    5.8773   -0.2238    0.0000 C   0  0  2  0  0  0
    5.8487    1.4223    0.0000 C   0  0
    5.1390    0.9989    0.0000 C   0  0
    6.5694    1.0218    0.0000 C   0  0  1  0  0  0
    6.5832    0.2002    0.0000 C   0  0  1  0  0  0
    7.3689   -0.0406    0.0000 C   0  0
    7.8406    0.6323    0.0000 C   0  0
    7.3466    1.2887    0.0000 C   0  0  2  0  0  0
    4.4257    0.5699    0.0000 C   0  0
    5.1721   -0.6475    0.0000 H   0  0
    5.8463    0.6009    0.0000 H   0  0
    6.6013   -0.6246    0.0000 H   0  0
    6.5411    1.8498    0.0000 C   0  0
    7.5883    2.0776    0.0000 C   0  0  1  0  0  0
    8.3923    2.2627    0.0000 C   0  0
    7.0260    2.6813    0.0000 C   0  0
    8.9546    1.6588    0.0000 C   0  0
    9.7587    1.8439    0.0000 C   0  0
   10.3209    1.2402    0.0000 C   0  0
   11.1250    1.4252    0.0000 C   0  0
   10.0792    0.4513    0.0000 C   0  0
    8.1692    1.3155    0.0000 H   0  0
    4.4899   -1.9003    0.0000 H   0  0
    1.6247   -1.1638    0.0000 C   0  0  1  0  0  0
    2.3362   -2.3816    0.0000 O   0  0
    1.6214   -2.7944    0.0000 S   0  0
    2.3364   -3.2071    0.0000 O   0  0
    0.4048   -2.7545    0.0000 S   0  0
   -1.1338   -2.9421    0.0000 O   0  0
   -0.5431   -2.3619    0.0000 S   0  0
   -1.3410   -2.1405    0.0000 O   0  0
   -3.4860   -2.5170    0.0000 O   0  0
   -2.6870   -2.7379    0.0000 S   0  0
   -2.8951   -1.9356    0.0000 O   0  0
   -3.0485    2.1020    0.0000 O   0  0
   -2.6357    1.3830    0.0000 S   0  0
   -2.2196    2.1000    0.0000 O   0  0
    2.7791    0.1788    0.0000 O   0  0
    2.3746    0.8936    0.0000 S   0  0
    1.9579    0.1858    0.0000 O   0  0
   -3.3738   -1.4953    0.0000 O   0  0
   -2.6540   -1.0920    0.0000 C   0  0  1  0  0  0
   -1.9506   -1.5164    0.0000 C   0  0  1  0  0  0
   -1.2330   -1.1165    0.0000 C   0  0  2  0  0  0
   -1.2182   -0.2912    0.0000 C   0  0  2  0  0  0
   -1.9272    0.1326    0.0000 O   0  0
   -2.6510   -0.2688    0.0000 C   0  0  2  0  0  0
   -3.3612    0.1512    0.0000 C   0  0
   -3.3525    0.9762    0.0000 O   0  0
   -1.9649   -2.3413    0.0000 O   0  0
   -0.5254   -1.5409    0.0000 O   0  0
   -0.4968    0.1093    0.0000 O   0  0
    0.2107   -0.3150    0.0000 C   0  0  1  0  0  0
    0.1976   -1.1367    0.0000 C   0  0  1  0  0  0
    0.9011   -1.5608    0.0000 C   0  0  1  0  0  0
    1.6404   -0.3379    0.0000 O   0  0
    0.9325    0.0909    0.0000 C   0  0  2  0  0  0
    0.1976   -1.9615    0.0000 O   0  0
    1.6199   -1.9734    0.0000 O   0  0
    0.9459    0.9159    0.0000 C   0  0
    1.6669    1.3168    0.0000 O   0  0
   -0.4998   -0.7033    0.0000 H   0  0
    0.2247    0.5094    0.0000 H   0  0
    3.0958    1.2937    0.0000 O   0  5
    1.2004   -2.9730    0.0000 O   0  5
   -1.9236    0.9613    0.0000 O   0  5
   -2.7006   -3.5664    0.0000 O   0  5
   -0.3349   -3.1590    0.0000 O   0  5
   -0.3096   -2.3382    0.0000 O   0  0
    0.1839   -3.5493    0.0000 O   0  0
    1.4004   -3.5892    0.0000 O   0  5
    2.3185   -0.7250    0.0000 H   0  0
   -4.8028   -1.4769    0.0000 O   0  5
    7.1875   -2.0937    0.0000 Na  0  3
    8.0938   -2.0625    0.0000 Na  0  3
    8.8750   -2.0625    0.0000 Na  0  3
    7.7812   -2.6563    0.0000 Na  0  3
    8.5313   -2.6563    0.0000 Na  0  3
    8.1875   -3.2187    0.0000 Na  0  3
    7.0000   -3.1563    0.0000 Na  0  3
 20 21  1  0
 21 17  1  0
 46 45  2  0
 47 46  2  0
  6  4  1  1
  9 13  1  0
  9 22  1  1
 49 48  2  0
 50 49  2  0
 10 11  1  0
 13 23  1  6
 11 12  1  0
 52 51  2  0
 53 52  2  0
 14 24  1  1
 12 14  1  0
 18 25  1  6
 13 14  1  0
 17 26  1  1
 55 54  1  6
 55 56  1  0
  5  8  1  0
 21 27  1  0
  6  7  1  0
 27 28  1  0
  7 10  1  0
 55 60  1  0
 56 57  1  0
 57 58  1  0
 58 59  1  0
 59 60  1  0
 27 29  1  6
 60 61  1  1
  9  8  1  0
 61 62  1  0
 28 30  1  0
 56 63  1  1
 13 16  1  0
 57 64  1  6
 30 31  1  0
 58 65  1  0
 14 18  1  0
 65 66  1  0
 66 67  1  0
 31 32  1  0
 17 15  1  0
 32 33  1  0
 15 16  1  0
 66 70  1  0
 67 68  1  0
 68 37  1  0
 37 69  1  0
 69 70  1  0
 32 34  1  0
 67 71  1  1
 17 18  1  0
 68 72  1  6
 21 35  1  6
 70 73  1  1
  9 10  1  0
 73 74  1  0
 10 36  1  6
 58 75  1  1
  2  1  2  0
 66 76  1  1
 74 52  1  0
 37  4  1  0
 52 77  1  0
 64 43  1  0
 71 41  1  0
 39 38  2  0
 41 78  1  0
 62 49  1  0
 40 39  2  0
 49 79  1  0
 63 46  1  0
  3  2  2  0
 46 80  1  0
 43 81  1  0
  5  6  1  0
 41 82  2  0
 18 19  1  0
 41 83  2  0
 72 39  1  0
 43 42  2  0
 39 84  1  0
 44 43  2  0
 37 85  1  6
 54  2  1  0
 19 20  1  0
  2 86  1  0
M  CHG  8  77  -1  78  -1  79  -1  80  -1  81  -1  84  -1  86  -1  87   1
M  CHG  6  88   1  89   1  90   1  91   1  92   1  93   1
M  END