
          11280714492D 1   1.00000     0.00000     0

 35 38  0     0  0            999 V2000
    1.5292   -5.6375    0.0000 C   0  0  3  0  0  0           0  0  0
    4.0125   -5.6375    0.0000 N   0  0  3  0  0  0           0  0  0
    0.7042   -5.6375    0.0000 C   0  0  0  0  0  0           0  0  0
    9.8000   -4.2125    0.0000 C   0  0  3  0  0  0           0  0  0
    2.3542   -5.6375    0.0000 C   0  0  3  0  0  0           0  0  0
    8.9750   -4.2125    0.0000 C   0  0  0  0  0  0           0  0  0
    1.5292   -6.4625    0.0000 C   0  0  0  0  0  0           0  0  0
    0.2917   -6.3542    0.0000 C   0  0  0  0  0  0           0  0  0
    0.2917   -4.9250    0.0000 C   0  0  0  0  0  0           0  0  0
    8.5625   -3.4917    0.0000 C   0  0  0  0  0  0           0  0  0
    8.5625   -4.9250    0.0000 C   0  0  0  0  0  0           0  0  0
    2.7667   -6.3500    0.0000 C   0  0  0  0  0  0           0  0  0
    2.7667   -4.9167    0.0000 C   0  0  0  0  0  0           0  0  0
    3.6000   -4.9167    0.0000 C   0  0  0  0  0  0           0  0  0
    3.6000   -6.3500    0.0000 C   0  0  0  0  0  0           0  0  0
    1.5292   -4.8125    0.0000 O   0  0  0  0  0  0           0  0  0
   -0.9458   -5.6375    0.0000 C   0  0  0  0  0  0           0  0  0
   -0.5333   -4.9250    0.0000 C   0  0  0  0  0  0           0  0  0
   -0.5333   -6.3542    0.0000 C   0  0  0  0  0  0           0  0  0
    7.7292   -3.4917    0.0000 C   0  0  0  0  0  0           0  0  0
    7.7292   -4.9250    0.0000 C   0  0  0  0  0  0           0  0  0
    7.3167   -4.2125    0.0000 C   0  0  0  0  0  0           0  0  0
   -1.7708   -5.6375    0.0000 Cl  0  0  0  0  0  0           0  0  0
    4.8375   -5.6375    0.0000 C   0  0  0  0  0  0           0  0  0
    9.8000   -3.3875    0.0000 C   0  0  0  0  0  0           0  0  0
   10.6250   -4.2125    0.0000 C   0  0  0  0  0  0           0  0  0
    9.8000   -5.0375    0.0000 C   0  0  0  0  0  0           0  0  0
    2.2500   -6.8750    0.0000 C   0  0  0  0  0  0           0  0  0
    0.8167   -6.8750    0.0000 C   0  0  0  0  0  0           0  0  0
    6.4917   -4.2125    0.0000 C   0  0  0  0  0  0           0  0  0
    5.2500   -4.9250    0.0000 C   0  0  0  0  0  0           0  0  0
    6.0792   -4.9250    0.0000 C   0  0  0  0  0  0           0  0  0
    2.2500   -7.7042    0.0000 C   0  0  0  0  0  0           0  0  0
    0.8167   -7.7042    0.0000 C   0  0  0  0  0  0           0  0  0
    1.5292   -8.1167    0.0000 C   0  0  0  0  0  0           0  0  0
  2 14  1  0     0  0
  3  1  1  0     0  0
  4  6  1  0     0  0
  5  1  1  0     0  0
  6 11  2  0     0  0
  7  1  1  0     0  0
  8  3  1  0     0  0
  9  3  2  0     0  0
 10 20  2  0     0  0
 11 21  1  0     0  0
 12  5  1  0     0  0
 13  5  1  0     0  0
 14 13  1  0     0  0
 15 12  1  0     0  0
 16  1  1  0     0  0
 17 18  2  0     0  0
 18  9  1  0     0  0
 19  8  2  0     0  0
 20 22  1  0     0  0
 21 22  2  0     0  0
 22 30  1  0     0  0
 23 17  1  0     0  0
 24  2  1  0     0  0
 25  4  1  0     0  0
 26  4  1  0     0  0
 27  4  1  0     0  0
 28  7  1  0     0  0
 29  7  2  0     0  0
 30 32  1  0     0  0
 31 24  1  0     0  0
 32 31  1  0     0  0
 33 28  2  0     0  0
 34 29  1  0     0  0
 35 34  2  0     0  0
  2 15  1  0     0  0
 19 17  1  0     0  0
 35 33  1  0     0  0
  6 10  1  0     0  0
M  END