
  CDK    9/16/09,9:50

 42 45  0  0  0  0  0  0  0  0999 V2000
    3.8006  -11.3899    0.0000 C   0  0  0  0  0  0  0  0  0  0  0  0
    4.5172  -11.7985    0.0000 C   0  0  0  0  0  0  0  0  0  0  0  0
   -1.2226   -9.3576    0.0000 C   0  0  0  0  0  0  0  0  0  0  0  0
   -0.5078   -8.9409    0.0000 C   0  0  0  0  0  0  0  0  0  0  0  0
   -0.5122   -8.1154    0.0000 C   0  0  0  0  0  0  0  0  0  0  0  0
   -1.2307   -7.7056    0.0000 C   0  0  0  0  0  0  0  0  0  0  0  0
   -1.9462   -8.1274    0.0000 C   0  0  0  0  0  0  0  0  0  0  0  0
   -1.9382   -8.9515    0.0000 C   0  0  0  0  0  0  0  0  0  0  0  0
   -2.6645   -7.7216    0.0000 O   0  0  0  0  0  0  0  0  0  0  0  0
    0.2123   -9.3556    0.0000 C   0  0  0  0  0  0  0  0  0  0  0  0
   -1.2178  -10.1826    0.0000 C   0  0  0  0  0  0  0  0  0  0  0  0
    0.2000   -7.6991    0.0000 C   0  0  0  0  0  0  0  0  0  0  0  0
    0.2194  -10.1805    0.0000 C   0  0  0  0  0  0  0  0  0  0  0  0
   -0.4915  -10.5992    0.0000 N   0  0  0  0  0  0  0  0  0  0  0  0
    0.9374  -10.5869    0.0000 C   0  0  0  0  0  0  0  0  0  0  0  0
    1.6516  -10.1684    0.0000 O   0  0  0  0  0  0  0  0  0  0  0  0
    0.9436  -11.4118    0.0000 N   0  0  0  0  0  0  0  0  0  0  0  0
    0.2260  -11.8281    0.0000 C   0  0  0  0  0  0  0  0  0  0  0  0
    1.6591  -12.6438    0.0000 C   0  0  0  0  0  0  0  0  0  0  0  0
    1.6565  -11.8162    0.0000 C   0  0  0  0  0  0  0  0  0  0  0  0
    0.9459  -13.0605    0.0000 C   0  0  0  0  0  0  0  0  0  0  0  0
    0.2349  -12.6475    0.0000 C   0  0  0  0  0  0  0  0  0  0  0  0
   -0.4761  -13.0567    0.0000 C   0  0  0  0  0  0  0  0  0  0  0  0
   -0.4773  -13.8787    0.0000 C   0  0  0  0  0  0  0  0  0  0  0  0
    0.2384  -14.2897    0.0000 C   0  0  0  0  0  0  0  0  0  0  0  0
    0.9465  -13.8782    0.0000 C   0  0  0  0  0  0  0  0  0  0  0  0
    2.3716  -11.3975    0.0000 C   0  0  0  0  0  0  0  0  0  0  0  0
    3.0883  -11.8062    0.0000 N   0  0  0  0  0  0  0  0  0  0  0  0
    2.3672  -10.5726    0.0000 O   0  0  0  0  0  0  0  0  0  0  0  0
    4.5253  -12.6238    0.0000 N   0  0  0  0  0  0  0  0  0  0  0  0
    5.2331  -11.3825    0.0000 O   0  0  0  0  0  0  0  0  0  0  0  0
    5.2438  -13.0293    0.0000 C   0  0  0  0  0  0  0  0  0  0  0  0
    5.2470  -13.8553    0.0000 C   0  0  0  0  0  0  0  0  0  0  0  0
    5.9646  -14.2607    0.0000 C   0  0  0  0  0  0  0  0  0  0  0  0
    6.6760  -13.8411    0.0000 C   0  0  0  0  0  0  0  0  0  0  0  0
    6.6652  -13.0119    0.0000 C   0  0  0  0  0  0  0  0  0  0  0  0
    5.9470  -12.6102    0.0000 C   0  0  0  0  0  0  0  0  0  0  0  0
    3.7961  -10.5649    0.0000 C   0  0  0  0  0  0  0  0  0  0  0  0
    4.5084  -10.1485    0.0000 C   0  0  0  0  0  0  0  0  0  0  0  0
    5.2272  -10.5546    0.0000 O   0  0  0  0  0  0  0  0  0  0  0  0
    4.5061   -9.3210    0.0000 O   0  0  0  0  0  0  0  0  0  0  0  0
    3.8149  -13.0433    0.0000 C   0  0  0  0  0  0  0  0  0  0  0  0
  5  6  2  0  0  0  0 
  3 11  1  0  0  0  0 
 21 22  2  0  0  0  0 
  3  4  2  0  0  0  0 
 22 23  1  0  0  0  0 
  5 12  1  0  0  0  0 
 23 24  2  0  0  0  0 
  6  7  1  0  0  0  0 
 24 25  1  0  0  0  0 
 13 10  1  1  0  0  0 
 25 26  2  0  0  0  0 
 26 21  1  0  0  0  0 
 13 14  1  0  0  0  0 
  7  8  2  0  0  0  0 
 27 28  1  0  0  0  0 
 27 29  2  0  0  0  0 
 20 27  1  6  0  0  0 
 28  1  1  0  0  0  0 
 13 15  1  0  0  0  0 
  8  3  1  0  0  0  0 
  2 30  1  0  0  0  0 
  2 31  2  0  0  0  0 
 15 16  2  0  0  0  0 
 30 32  1  0  0  0  0 
  4  5  1  0  0  0  0 
 32 33  2  0  0  0  0 
 15 17  1  0  0  0  0 
 33 34  1  0  0  0  0 
 17 18  1  0  0  0  0 
 34 35  2  0  0  0  0 
  7  9  1  0  0  0  0 
 35 36  1  0  0  0  0 
  1  2  1  0  0  0  0 
 36 37  2  0  0  0  0 
 37 32  1  0  0  0  0 
  4 10  1  0  0  0  0 
  1 38  1  6  0  0  0 
 17 20  1  0  0  0  0 
 38 39  1  0  0  0  0 
 18 22  1  0  0  0  0 
 21 19  1  0  0  0  0 
 39 40  1  0  0  0  0 
 39 41  2  0  0  0  0 
 19 20  1  0  0  0  0 
 30 42  1  0  0  0  0 
M  END