
  SciTegic01161211252D

 32 36  0  0  0  0            999 V2000
   -2.2168   -0.8056    0.0000 C   0  0
   -1.5018   -1.2172    0.0000 C   0  0
   -0.7879   -0.8037    0.0000 C   0  0
   -0.0728   -1.2152    0.0000 C   0  0
   -0.0717   -2.0402    0.0000 C   0  0
   -0.7856   -2.4537    0.0000 C   0  0
   -1.5007   -2.0422    0.0000 C   0  0
   -2.2179    0.0194    0.0000 O   0  0
   -2.9307   -1.2191    0.0000 N   0  0
    0.6433   -2.4517    0.0000 C   0  0
    2.0689    0.0252    0.0000 C   0  0
    2.0700   -0.7998    0.0000 C   0  0
    1.3561   -1.2133    0.0000 C   0  0
    0.6411   -0.8017    0.0000 C   0  0
    0.6400    0.0233    0.0000 C   0  0
    1.3539    0.4367    0.0000 N   0  0
    3.3390   -0.3856    0.0000 N   0  0
    2.8406    0.2882    0.0000 N   0  0
    2.8550   -1.0537    0.0000 C   0  0
   -0.0751    0.4348    0.0000 O   0  0
    1.3527    1.2617    0.0000 C   0  0
    3.2521    1.0032    0.0000 C   0  0
    2.8327    1.7274    0.0000 C   0  0
    3.1874    2.4526    0.0000 C   0  0
    4.0124    2.4537    0.0000 C   0  0
    4.4629    1.7621    0.0000 C   0  0
    4.0513    1.0470    0.0000 C   0  0
    4.4707    0.3229    0.0000 F   0  0
    1.9842    1.8229    0.0000 F   0  0
   -3.6457   -0.8076    0.0000 C   0  0
   -4.4707   -0.8087    0.0000 C   0  0
   -4.0592   -0.0937    0.0000 C   0  0
  1  2  1  0
  2  3  1  0
  3  4  2  0
  4  5  1  0
  5  6  2  0
  6  7  1  0
  2  7  2  0
  1  8  2  0
  1  9  1  0
  5 10  1  0
 11 12  2  0
 12 13  1  0
 13 14  2  0
 14 15  1  0
 15 16  1  0
 11 16  1  0
 17 18  1  0
 17 19  2  0
 11 18  1  0
 12 19  1  0
 15 20  2  0
 16 21  1  0
 22 23  1  0
 23 24  2  0
 24 25  1  0
 25 26  2  0
 26 27  1  0
 22 27  2  0
 27 28  1  0
 23 29  1  0
 18 22  1  0
  4 14  1  0
 30 31  1  0
 31 32  1  0
 30 32  1  0
  9 30  1  0
M  END