
          11280715162D 1   1.00000     0.00000     0

 44 49  0     0  0            999 V2000
    1.5375   -9.6417    0.0000 C   0  0  0  0  0  0           0  0  0
    3.1875   -9.6417    0.0000 C   0  0  0  0  0  0           0  0  0
    2.7792  -10.3542    0.0000 C   0  0  0  0  0  0           0  0  0
    1.9542  -10.3542    0.0000 C   0  0  0  0  0  0           0  0  0
   -2.3583   -7.9125    0.0000 N   0  0  0  0  0  0           0  0  0
    6.6500   -7.3167    0.0000 N   0  0  0  0  0  0           0  0  0
   -1.1958   -8.5792    0.0000 C   0  0  0  0  0  0           0  0  0
    5.6625   -8.2042    0.0000 C   0  0  0  0  0  0           0  0  0
    6.4792   -8.1250    0.0000 C   0  0  0  0  0  0           0  0  0
   -2.0208   -8.6667    0.0000 C   0  0  0  0  0  0           0  0  0
   -1.0208   -7.7750    0.0000 C   0  0  0  0  0  0           0  0  0
    5.3250   -7.4542    0.0000 C   0  0  0  0  0  0           0  0  0
    4.0125   -9.6417    0.0000 N   0  0  3  0  0  0           0  0  0
    0.7167   -9.6417    0.0000 N   0  0  3  0  0  0           0  0  0
   -1.7333   -7.3542    0.0000 C   0  0  0  0  0  0           0  0  0
    5.9375   -6.9042    0.0000 C   0  0  0  0  0  0           0  0  0
    6.4917  -11.0667    0.0000 N   0  0  3  0  0  0           0  0  0
    1.9500   -8.9292    0.0000 O   0  0  0  0  0  0           0  0  0
    2.7750   -8.9292    0.0000 O   0  0  0  0  0  0           0  0  0
   -0.6458   -9.2000    0.0000 C   0  0  0  0  0  0           0  0  0
    5.2500   -8.9250    0.0000 C   0  0  0  0  0  0           0  0  0
    8.1375  -11.0667    0.0000 S   0  0  0  0  0  0           0  0  0
    0.1625   -9.0292    0.0000 C   0  0  0  0  0  0           0  0  0
    4.4250   -8.9250    0.0000 C   0  0  0  0  0  0           0  0  0
    5.2542  -10.3542    0.0000 C   0  0  0  0  0  0           0  0  0
    5.6667  -11.0667    0.0000 C   0  0  0  0  0  0           0  0  0
    3.1875  -11.0625    0.0000 C   0  0  0  0  0  0           0  0  0
    1.5417  -11.0625    0.0000 C   0  0  0  0  0  0           0  0  0
    4.4292  -10.3542    0.0000 C   0  0  0  0  0  0           0  0  0
    6.9000  -11.7792    0.0000 C   0  0  0  0  0  0           0  0  0
    6.9000  -10.3500    0.0000 C   0  0  0  0  0  0           0  0  0
    4.5417   -7.2042    0.0000 C   0  0  0  0  0  0           0  0  0
   -0.3083   -7.3625    0.0000 C   0  0  0  0  0  0           0  0  0
    7.7250  -10.3542    0.0000 C   0  0  0  0  0  0           0  0  0
    7.7250  -11.7792    0.0000 C   0  0  0  0  0  0           0  0  0
    0.3792  -10.4000    0.0000 C   0  0  0  0  0  0           0  0  0
    5.7667   -6.1042    0.0000 C   0  0  0  0  0  0           0  0  0
   -1.7333   -6.5375    0.0000 C   0  0  0  0  0  0           0  0  0
    1.9542  -11.7750    0.0000 C   0  0  0  0  0  0           0  0  0
    2.7792  -11.7750    0.0000 C   0  0  0  0  0  0           0  0  0
    4.3667   -6.4042    0.0000 C   0  0  0  0  0  0           0  0  0
   -0.3083   -6.5292    0.0000 C   0  0  0  0  0  0           0  0  0
   -1.0208   -6.1167    0.0000 C   0  0  0  0  0  0           0  0  0
    4.9792   -5.8417    0.0000 C   0  0  0  0  0  0           0  0  0
  2  3  1  0     0  0
  3  4  2  0     0  0
  4  1  1  0     0  0
  5 10  1  0     0  0
  6  9  1  0     0  0
  7 20  1  0     0  0
  8 21  1  0     0  0
  9  8  2  0     0  0
 10  7  2  0     0  0
 11  7  1  0     0  0
 12  8  1  0     0  0
 13  2  1  0     0  0
 14  1  1  0     0  0
 15 11  1  0     0  0
 16 12  2  0     0  0
 17 26  1  0     0  0
 18  1  2  0     0  0
 19  2  2  0     0  0
 20 23  1  0     0  0
 21 24  1  0     0  0
 22 34  1  0     0  0
 23 14  1  0     0  0
 24 13  1  0     0  0
 25 29  1  0     0  0
 26 25  1  0     0  0
 27  3  1  0     0  0
 28  4  1  0     0  0
 29 13  1  0     0  0
 30 17  1  0     0  0
 31 17  1  0     0  0
 32 12  1  0     0  0
 33 11  2  0     0  0
 34 31  1  0     0  0
 35 30  1  0     0  0
 36 14  1  0     0  0
 37 16  1  0     0  0
 38 15  2  0     0  0
 39 28  2  0     0  0
 40 39  1  0     0  0
 41 32  2  0     0  0
 42 33  1  0     0  0
 43 42  2  0     0  0
 44 41  1  0     0  0
 40 27  2  0     0  0
 15  5  1  0     0  0
 43 38  1  0     0  0
  6 16  1  0     0  0
 35 22  1  0     0  0
 37 44  2  0     0  0
M  END