
  SciTegic06051313522D

 31 33  0  0  0  0            999 V2000
   10.4652   -8.4967    0.0000 C   0  0
   10.4640   -9.3241    0.0000 C   0  0
   11.1788   -9.7370    0.0000 C   0  0
   11.8953   -9.3236    0.0000 C   0  0
   11.8924   -8.4931    0.0000 C   0  0
   11.1770   -8.0840    0.0000 C   0  0
   12.6053   -8.0779    0.0000 C   0  0
   13.3213   -8.4877    0.0000 C   0  0
   13.3211   -9.3104    0.0000 C   0  0
   14.0363   -9.7201    0.0000 C   0  0
   14.7502   -9.3048    0.0000 C   0  0
   14.7444   -8.4756    0.0000 C   0  0
   14.0286   -8.0696    0.0000 N   0  0
   12.6104   -9.7350    0.0000 O   0  0
   12.6117  -10.5600    0.0000 C   0  0
   13.3268  -10.9714    0.0000 C   0  0
   13.3234  -11.7937    0.0000 C   0  0
   14.0377  -12.2050    0.0000 C   0  0
   14.7525  -11.7913    0.0000 C   0  0
   14.7486  -10.9621    0.0000 C   0  0
   14.0337  -10.5545    0.0000 C   0  0
   12.6084  -12.2051    0.0000 F   0  0
   15.4682  -12.2017    0.0000 Cl  0  0
    9.7506   -8.0844    0.0000 Cl  0  0
   15.4580   -8.0572    0.0000 C   0  0
   16.1755   -8.4645    0.0000 N   0  0
   15.4520   -7.2323    0.0000 O   0  0
   16.1815   -9.2895    0.0000 C   0  0
   16.8989   -9.6968    0.0000 C   0  0
   16.9050  -10.5217    0.0000 C   0  0
   17.6104   -9.2791    0.0000 C   0  0
  1  2  2  0
  2  3  1  0
  3  4  2  0
  4  5  1  0
  5  6  2  0
  6  1  1  0
  5  7  1  0
  7  8  1  0
  8  9  2  0
  9 10  1  0
 10 11  2  0
 11 12  1  0
 12 13  2  0
 13  8  1  0
  4 14  1  0
 14 15  1  0
 15 16  1  0
 16 17  2  0
 17 18  1  0
 18 19  2  0
 19 20  1  0
 20 21  2  0
 21 16  1  0
 17 22  1  0
 19 23  1  0
  1 24  1  0
 25 26  1  0
 25 27  2  0
 12 25  1  0
 26 28  1  0
 28 29  1  0
 29 30  1  0
 29 31  1  0
M  END