
          11280715122D 1   1.00000     0.00000     0

 31 33  0     0  0            999 V2000
    7.5917   -3.7000    0.0000 C   0  0  0  0  0  0           0  0  0
    8.3042   -4.1125    0.0000 C   0  0  0  0  0  0           0  0  0
    3.6417   -3.5125    0.0000 N   0  0  3  0  0  0           0  0  0
    8.3042   -4.9375    0.0000 C   0  0  0  0  0  0           0  0  0
    7.5917   -2.8750    0.0000 N   0  0  0  0  0  0           0  0  0
    2.9292   -3.1000    0.0000 C   0  0  0  0  0  0           0  0  0
    5.2167   -4.0042    0.0000 N   0  0  3  0  0  0           0  0  0
    9.0167   -5.3500    0.0000 N   0  0  0  0  0  0           0  0  0
    6.8750   -4.1125    0.0000 O   0  0  0  0  0  0           0  0  0
    3.8167   -4.3167    0.0000 C   0  0  0  0  0  0           0  0  0
    4.2500   -2.9542    0.0000 C   0  0  0  0  0  0           0  0  0
    8.3042   -2.4625    0.0000 C   0  0  3  0  0  0           0  0  0
    2.9292   -2.2667    0.0000 C   0  0  0  0  0  0           0  0  0
    7.5875   -5.3500    0.0000 N   0  0  0  0  0  0           0  0  0
    5.0292   -3.2042    0.0000 C   0  0  0  0  0  0           0  0  0
    4.6042   -4.5625    0.0000 C   0  0  0  0  0  0           0  0  0
    9.0167   -3.6917    0.0000 C   0  0  0  0  0  0           0  0  0
    3.6417   -1.8542    0.0000 O   0  0  0  0  0  0           0  0  0
    6.0250   -4.4250    0.0000 C   0  0  0  0  0  0           0  0  0
    6.0167   -5.3375    0.0000 C   0  0  0  0  0  0           0  0  0
    2.2125   -3.5125    0.0000 C   0  0  0  0  0  0           0  0  0
    9.7292   -4.9375    0.0000 C   0  0  0  0  0  0           0  0  0
    6.8042   -5.7917    0.0000 C   0  0  0  0  0  0           0  0  0
    8.3042   -1.6375    0.0000 C   0  0  0  0  0  0           0  0  0
    9.0167   -2.8667    0.0000 C   0  0  0  0  0  0           0  0  0
    7.5042   -2.2417    0.0000 C   0  0  0  0  0  0           0  0  0
    2.2125   -1.8542    0.0000 C   0  0  0  0  0  0           0  0  0
    4.3542   -2.2625    0.0000 C   0  0  0  0  0  0           0  0  0
    9.7292   -4.1042    0.0000 C   0  0  0  0  0  0           0  0  0
    1.5000   -3.1000    0.0000 C   0  0  0  0  0  0           0  0  0
    1.5000   -2.2750    0.0000 C   0  0  0  0  0  0           0  0  0
  2  1  1  0     0  0
  3 10  1  0     0  0
  4  2  2  0     0  0
  5  1  1  0     0  0
  6  3  1  0     0  0
  7 19  1  0     0  0
  8  4  1  0     0  0
  9  1  2  0     0  0
 10 16  1  0     0  0
 11 15  1  0     0  0
 12  5  1  0     0  0
 13  6  1  0     0  0
 14  4  1  0     0  0
 15  7  1  0     0  0
 16  7  1  0     0  0
 17  2  1  0     0  0
 18 13  1  0     0  0
 19 20  1  0     0  0
 20 23  1  0     0  0
 21  6  2  0     0  0
 22 29  1  0     0  0
 23 14  1  0     0  0
 24 12  1  0     0  0
 25 12  1  0     0  0
 26 12  1  0     0  0
 27 13  2  0     0  0
 28 18  1  0     0  0
 29 17  2  0     0  0
 30 21  1  0     0  0
 31 30  2  0     0  0
 22  8  2  0     0  0
  3 11  1  0     0  0
 31 27  1  0     0  0
M  END