
  SciTegic11201309402D

 51 53  0  0  0  0            999 V2000
   -0.0638   -0.1092    0.0000 C   0  0
   -0.4763   -0.8237    0.0000 C   0  0
   -1.3013   -0.8237    0.0000 C   0  0
   -1.7138   -0.1092    0.0000 C   0  0
   -1.3013    0.6052    0.0000 C   0  0
   -0.4763    0.6052    0.0000 C   0  0
    1.1665   -1.9123    0.0000 C   0  0
    1.2611   -1.0927    0.0000 C   0  0  2  0  0  0
    0.5040   -1.4205    0.0000 C   0  0
    0.4094   -2.2401    0.0000 O   0  0
    1.8289   -2.4040    0.0000 C   0  0
    2.5860   -2.0762    0.0000 C   0  0
    3.2484   -2.5679    0.0000 C   0  0
    3.1538   -3.3875    0.0000 C   0  0
    2.3967   -3.7153    0.0000 C   0  0
    1.7343   -3.2235    0.0000 C   0  0
    3.8162   -3.8792    0.0000 O   0  0
   -0.7262    0.3825    0.0000 C   0  0
   -1.4833    0.0547    0.0000 O   0  0
    0.1255    1.5299    0.0000 C   0  0  1  0  0  0
    0.7879    1.0381    0.0000 C   0  0
    0.2201    2.3494    0.0000 C   0  0
    0.6933    0.2186    0.0000 O   0  0
   -0.4423    2.8412    0.0000 C   0  0
   -1.1994    2.5133    0.0000 O   0  0
    2.2074    0.8742    0.0000 C   0  0  2  0  0  0
    2.3021    1.6938    0.0000 C   0  0
    2.6806   -1.2566    0.0000 C   0  0
    3.3430   -1.7483    0.0000 C   0  0
    2.7752   -0.4371    0.0000 O   0  0
    3.0591    2.0216    0.0000 C   0  0
    1.6396    2.1855    0.0000 C   0  0
    2.9645    1.2020    0.0000 C   0  0
    3.5228    1.8095    0.0000 O   0  0
    3.5323   -0.1092    0.0000 C   0  0  2  0  0  0
    4.1947   -0.6010    0.0000 C   0  0
    4.1001   -1.4205    0.0000 S   0  3
    4.2894    0.2186    0.0000 C   0  0
    4.3840    1.0381    0.0000 O   0  0
    4.7626   -1.9123    0.0000 O   0  5
    4.5733   -3.5514    0.0000 P   0  0
    5.3304   -3.2235    0.0000 O   0  0
    4.9011   -4.3084    0.0000 O   0  0
    4.2455   -2.7943    0.0000 O   0  0
    1.9235   -1.5844    0.0000 N   0  0
   -0.1584   -0.9288    0.0000 N   0  0
   -0.6316    1.2020    0.0000 N   0  0
    1.5450    1.3660    0.0000 N   0  0
   -0.3477    3.6607    0.0000 N   0  0
    3.6269    0.7103    0.0000 N   0  0
    4.9518   -0.2732    0.0000 N   0  0
  8  7  1  1
  8  9  1  0
  9 10  2  0
  7 11  1  0
 11 12  2  0
 12 13  1  0
 13 14  2  0
 14 15  1  0
 15 16  2  0
 16 11  1  0
 14 17  1  0
  1 18  1  0
 18 19  2  0
 20 21  1  0
 20 22  1  6
 21 23  2  0
 22 24  1  0
 24 25  2  0
 26 27  1  1
 28 29  1  0
 28 30  2  0
 27 31  1  0
 27 32  1  0
 26 33  1  0
 33 34  2  0
 35 36  1  0
 37 36  1  0
 35 38  1  6
 38 39  2  0
 37 29  1  0
 37 40  1  6
 17 41  1  0
 41 42  1  0
 41 43  2  0
 41 44  1  0
  1  2  1  0
  1  6  1  0
  2  3  1  0
  3  4  1  0
  4  5  1  0
  5  6  1  0
 21 48  1  0
 48 26  1  0
  9 46  1  0
 46  1  1  0
 24 49  1  0
  8 45  1  0
 45 28  1  0
 33 50  1  0
 50 35  1  0
 18 47  1  0
 47 20  1  0
 38 51  1  0
M  CHG  2  37   1  40  -1
M  END