
          11280715042D 1   1.00000     0.00000     0

 50 54  0     1  0            999 V2000
   -1.2583    0.8375    0.0000 C   0  0  0  0  0  0           0  0  0
   -1.2583    0.0125    0.0000 N   0  0  3  0  0  0           0  0  0
    5.8792   -1.6667    0.0000 C   0  0  0  0  0  0           0  0  0
    3.7375   -1.2500    0.0000 C   0  0  0  0  0  0           0  0  0
    6.5917   -1.2625    0.0000 C   0  0  0  0  0  0           0  0  0
   -1.2583    2.4958    0.0000 C   0  0  0  0  0  0           0  0  0
    5.1667   -1.2542    0.0000 N   0  0  3  0  0  0           0  0  0
   -0.4333    2.4958    0.0000 N   0  0  3  0  0  0           0  0  0
   -1.9708    1.2583    0.0000 C   0  0  3  0  0  0           0  0  0
    3.0167   -2.4792    0.0000 C   0  0  0  0  0  0           0  0  0
    4.4500   -1.6667    0.0000 C   0  0  0  0  0  0           0  0  0
    3.0167   -1.6542    0.0000 C   0  0  2  0  0  0           0  0  0
   -1.9708    2.0833    0.0000 C   0  0  0  0  0  0           0  0  0
   -0.5458   -0.4000    0.0000 C   0  0  3  0  0  0           0  0  0
    0.8792   -1.2292    0.0000 N   0  0  3  0  0  0           0  0  0
    3.7250   -2.8917    0.0000 C   0  0  0  0  0  0           0  0  0
    3.7250   -3.7167    0.0000 C   0  0  0  0  0  0           0  0  0
    3.7417   -0.4250    0.0000 N   0  0  0  0  0  0           0  0  0
    2.3042   -1.2417    0.0000 C   0  0  0  0  0  0           0  0  0
    6.5917   -0.4417    0.0000 C   0  0  0  0  0  0           0  0  0
    7.3042   -1.6792    0.0000 C   0  0  0  0  0  0           0  0  0
   -0.5458    1.2500    0.0000 O   0  0  0  0  0  0           0  0  0
    0.1667    0.0083    0.0000 C   0  0  0  0  0  0           0  0  0
   -0.5458   -1.2292    0.0000 C   0  0  0  0  0  0           0  0  0
    3.0042   -4.1292    0.0000 C   0  0  0  0  0  0           0  0  0
    5.8750   -2.4917    0.0000 O   0  0  0  0  0  0           0  0  0
    7.3042   -0.0292    0.0000 C   0  0  0  0  0  0           0  0  0
    8.0167   -1.2750    0.0000 C   0  0  0  0  0  0           0  0  0
   -1.2583    3.3208    0.0000 O   0  0  0  0  0  0           0  0  0
    8.0250   -0.4500    0.0000 C   0  0  0  0  0  0           0  0  0
    2.3000   -2.8875    0.0000 C   0  0  0  0  0  0           0  0  0
    1.5917   -1.6500    0.0000 C   0  0  0  0  0  0           0  0  0
    2.2917   -3.7125    0.0000 C   0  0  0  0  0  0           0  0  0
    0.8792   -0.4042    0.0000 C   0  0  0  0  0  0           0  0  0
    0.1625   -1.6417    0.0000 C   0  0  0  0  0  0           0  0  0
    1.2167    2.4875    0.0000 O   0  0  0  0  0  0           0  0  0
   -1.9708   -0.3917    0.0000 C   0  0  0  0  0  0           0  0  0
    4.4375   -4.1292    0.0000 Cl  0  0  0  0  0  0           0  0  0
    3.0042   -4.9542    0.0000 Cl  0  0  0  0  0  0           0  0  0
    8.7292   -1.6917    0.0000 Cl  0  0  0  0  0  0           0  0  0
    7.3042    0.7958    0.0000 Cl  0  0  0  0  0  0           0  0  0
    4.4542   -0.0167    0.0000 O   0  0  0  0  0  0           0  0  0
   -0.0208    1.7833    0.0000 C   0  0  0  0  0  0           0  0  0
   -0.0208    3.2083    0.0000 C   0  0  0  0  0  0           0  0  0
    5.1667   -0.4292    0.0000 C   0  0  0  0  0  0           0  0  0
   -2.6833    0.8375    0.0000 C   0  0  0  0  0  0           0  0  0
   -2.6833    0.0125    0.0000 C   0  0  0  0  0  0           0  0  0
    0.8042    3.2083    0.0000 C   0  0  0  0  0  0           0  0  0
    0.8000    1.7750    0.0000 C   0  0  0  0  0  0           0  0  0
    5.1750    0.3875    0.0000 C   0  0  0  0  0  0           0  0  0
  2  1  1  0     0  0
  3  7  1  0     0  0
  4 12  1  0     0  0
  5  3  1  0     0  0
  6 13  1  0     0  0
  7 11  1  0     0  0
  8  6  1  0     0  0
  9  1  1  0     0  0
 12 10  1  6     0  0
 11  4  1  0     0  0
 12 19  1  0     0  0
  9 13  1  0     0  0
 14  2  1  0     0  0
 15 35  1  0     0  0
 16 10  1  0     0  0
 17 16  2  0     0  0
 18  4  2  0     0  0
 19 32  1  0     0  0
 20  5  1  0     0  0
 21  5  2  0     0  0
 22  1  2  0     0  0
 23 14  1  0     0  0
 24 14  1  0     0  0
 25 33  2  0     0  0
 26  3  2  0     0  0
 27 20  2  0     0  0
 28 21  1  0     0  0
 29  6  2  0     0  0
 30 28  2  0     0  0
 31 10  2  0     0  0
 32 15  1  0     0  0
 33 31  1  0     0  0
 34 23  1  0     0  0
 35 24  1  0     0  0
 36 48  1  0     0  0
 37  2  1  0     0  0
 38 17  1  0     0  0
 39 25  1  0     0  0
 40 28  1  0     0  0
 41 27  1  0     0  0
 42 18  1  0     0  0
 43  8  1  0     0  0
 44  8  1  0     0  0
 45  7  1  0     0  0
 46  9  1  0     0  0
 47 46  1  0     0  0
 48 44  1  0     0  0
 49 43  1  0     0  0
 50 42  1  0     0  0
 37 47  1  0     0  0
 34 15  1  0     0  0
 49 36  1  0     0  0
 17 25  1  0     0  0
 30 27  1  0     0  0
M  END