
          11280714582D 1   1.00000     0.00000     0

 30 33  0     0  0            999 V2000
    2.2542   -2.6542    0.0000 C   0  0  3  0  0  0           0  0  0
    2.8000   -2.9042    0.0000 N   0  0  3  0  0  0           0  0  0
    2.9042   -1.9417    0.0000 N   0  0  0  0  0  0           0  0  0
    2.3167   -2.0625    0.0000 C   0  0  0  0  0  0           0  0  0
    3.2042   -2.4625    0.0000 C   0  0  0  0  0  0           0  0  0
   -1.3833   -3.5542    0.0000 C   0  0  0  0  0  0           0  0  0
   -1.3833   -4.1542    0.0000 C   0  0  0  0  0  0           0  0  0
    2.2500   -3.2542    0.0000 C   0  0  0  0  0  0           0  0  0
    1.7292   -2.3542    0.0000 C   0  0  0  0  0  0           0  0  0
    1.2167   -3.2542    0.0000 N   0  0  3  0  0  0           0  0  0
   -1.8958   -4.4542    0.0000 C   0  0  0  0  0  0           0  0  0
   -1.9083   -3.2542    0.0000 C   0  0  0  0  0  0           0  0  0
   -0.8625   -3.2542    0.0000 C   0  0  0  0  0  0           0  0  0
    2.9250   -3.4917    0.0000 C   0  0  0  0  0  0           0  0  0
    1.8750   -1.6625    0.0000 O   0  0  0  0  0  0           0  0  0
    1.7292   -3.5542    0.0000 C   0  0  0  0  0  0           0  0  0
    1.2125   -2.6542    0.0000 C   0  0  0  0  0  0           0  0  0
   -0.8625   -2.6542    0.0000 O   0  0  0  0  0  0           0  0  0
   -2.4208   -4.1542    0.0000 C   0  0  0  0  0  0           0  0  0
   -0.8583   -4.4417    0.0000 I   0  0  0  0  0  0           0  0  0
   -2.4208   -3.5542    0.0000 C   0  0  0  0  0  0           0  0  0
   -2.9375   -4.4542    0.0000 F   0  0  0  0  0  0           0  0  0
    0.6917   -3.5542    0.0000 C   0  0  0  0  0  0           0  0  0
    0.1792   -3.2542    0.0000 C   0  0  0  0  0  0           0  0  0
   -0.3458   -3.5542    0.0000 C   0  0  0  0  0  0           0  0  0
    3.4917   -3.6750    0.0000 C   0  0  0  0  0  0           0  0  0
    2.4750   -3.8917    0.0000 C   0  0  0  0  0  0           0  0  0
    2.6000   -4.4750    0.0000 C   0  0  0  0  0  0           0  0  0
    3.6167   -4.2542    0.0000 C   0  0  0  0  0  0           0  0  0
    3.1667   -4.6667    0.0000 C   0  0  0  0  0  0           0  0  0
  2  1  1  0     0  0
  3  4  1  0     0  0
  4  1  1  0     0  0
  5  2  1  0     0  0
  6 13  1  0     0  0
  7  6  1  0     0  0
  8  1  1  0     0  0
  9  1  1  0     0  0
 10 17  1  0     0  0
 11  7  2  0     0  0
 12  6  2  0     0  0
 13 25  1  0     0  0
 14  2  1  0     0  0
 15  4  2  0     0  0
 16  8  1  0     0  0
 17  9  1  0     0  0
 18 13  2  0     0  0
 19 21  2  0     0  0
 20  7  1  0     0  0
 21 12  1  0     0  0
 22 19  1  0     0  0
 23 10  1  0     0  0
 24 23  1  0     0  0
 25 24  1  0     0  0
 26 14  1  0     0  0
 27 14  2  0     0  0
 28 27  1  0     0  0
 29 26  2  0     0  0
 30 28  2  0     0  0
 16 10  1  0     0  0
  3  5  1  0     0  0
 30 29  1  0     0  0
 11 19  1  0     0  0
M  END