
  SciTegic12171313052D

 39 44  0  0  0  0            999 V2000
   19.9872   -3.8991    0.0000 C   0  0
   20.6997   -4.3117    0.0000 C   0  0
   21.4093   -3.9031    0.0000 C   0  0
   21.4125   -3.0804    0.0000 N   0  0
   20.7000   -2.6679    0.0000 C   0  0
   19.9842   -3.0781    0.0000 C   0  0
   22.1281   -2.6697    0.0000 C   0  0
   22.8415   -3.0841    0.0000 C   0  0
   22.8374   -3.9083    0.0000 C   0  0
   23.5467   -4.3225    0.0000 C   0  0
   24.2647   -3.9154    0.0000 N   0  0
   24.2688   -3.0894    0.0000 C   0  0
   23.5549   -2.6705    0.0000 C   0  0
   19.3060   -4.3647    0.0000 N   0  0
   18.4932   -5.4236    0.0000 N   0  0
   19.2848   -5.1912    0.0000 C   0  0
   18.0276   -4.7424    0.0000 C   0  0
   18.5324   -4.0900    0.0000 C   0  0
   18.2196   -3.3288    0.0000 C   0  0
   17.4023   -3.2188    0.0000 C   0  0
   16.8988   -3.8761    0.0000 C   0  0
   17.2143   -4.6347    0.0000 C   0  0
   24.9765   -4.3324    0.0000 C   0  0
   25.6937   -3.9245    0.0000 C   0  0
   26.4037   -4.3461    0.0000 C   0  0
   27.1204   -3.9388    0.0000 C   0  0
   27.1261   -3.1129    0.0000 N   0  0
   26.4092   -2.6960    0.0000 C   0  0
   25.6955   -3.1056    0.0000 C   0  0
   19.9388   -5.6941    0.0000 O   0  0
   22.1302   -1.8447    0.0000 O   0  0
   27.8320   -4.3562    0.0000 N   0  0
   16.0849   -3.7693    0.0000 F   0  0
   18.2170   -6.1994    0.0000 C   0  0
   17.4041   -6.3466    0.0000 C   0  0
   17.1267   -7.1228    0.0000 C   0  0
   17.6611   -7.7524    0.0000 C   0  0
   18.4765   -7.6007    0.0000 C   0  0
   18.7501   -6.8247    0.0000 N   0  0
  1  2  1  0
  1  6  1  0
  2  3  1  0
  3  4  1  0
  4  5  1  0
  5  6  1  0
  4  7  1  0
  7  8  1  0
  8  9  1  0
  8 13  1  0
  9 10  1  0
 10 11  1  0
 11 12  1  0
 12 13  1  0
  1 14  1  0
 14 18  1  0
 17 15  1  0
 15 16  1  0
 16 14  1  0
 17 18  2  0
 18 19  1  0
 19 20  2  0
 20 21  1  0
 21 22  2  0
 22 17  1  0
 11 23  1  0
 23 24  1  0
 24 25  2  0
 25 26  1  0
 26 27  2  0
 27 28  1  0
 28 29  2  0
 29 24  1  0
 16 30  2  0
  7 31  2  0
 26 32  1  0
 21 33  1  0
 34 35  2  0
 35 36  1  0
 36 37  2  0
 37 38  1  0
 38 39  2  0
 39 34  1  0
 15 34  1  0
M  END