
  SciTegic05061116452D

 34 38  0  0  0  0            999 V2000
   -2.1487   -7.9974    0.0000 N   0  0
   -1.4370   -7.5888    0.0000 C   0  0
   -1.4370   -6.7638    0.0000 N   0  0
   -2.1487   -6.3473    0.0000 C   0  0
   -2.8604   -7.5888    0.0000 C   0  0
   -2.8604   -6.7592    0.0000 C   0  0
   -3.6493   -6.5027    0.0000 N   0  0
   -4.1371   -7.1739    0.0000 C   0  0
   -3.6494   -7.8451    0.0000 N   0  0
   -3.9044   -8.6297    0.0000 C   0  0
   -4.7114   -8.8012    0.0000 C   0  0
   -4.9664   -9.5859    0.0000 O   0  0
   -5.2634   -8.1881    0.0000 O   0  0
   -2.1467   -5.5223    0.0000 O   0  0
   -0.7229   -8.0022    0.0000 N   0  0
   -0.0079   -7.5905    0.0000 C   0  0
    0.7061   -8.0039    0.0000 C   0  0
   -1.4312   -5.1115    0.0000 C   0  0
    0.7005   -8.8273    0.0000 C   0  0
    1.4137   -9.2406    0.0000 C   0  0
    2.1296   -8.8289    0.0000 C   0  0
    2.1280   -7.9996    0.0000 C   0  0
    1.4143   -7.5899    0.0000 C   0  0
    2.8404   -9.2384    0.0000 C   0  0
    2.8385  -10.0645    0.0000 C   0  0
    3.5489  -10.4767    0.0000 C   0  0
    4.2658  -10.0677    0.0000 C   0  0
    4.2677   -9.2417    0.0000 C   0  0
    3.5527   -8.8248    0.0000 C   0  0
   -0.7202   -5.5287    0.0000 C   0  0
   -0.0052   -5.1185    0.0000 C   0  0
   -0.0028   -4.2926    0.0000 C   0  0
   -0.7213   -3.8785    0.0000 C   0  0
   -1.4334   -4.2910    0.0000 C   0  0
  6  7  1  0
 16 17  1  0
  7  8  2  0
 14 18  1  0
  8  9  1  0
 17 19  2  0
  9  5  1  0
 19 20  1  0
  3  4  2  0
 20 21  2  0
  9 10  1  0
 21 22  1  0
  5  6  2  0
 22 23  2  0
 23 17  1  0
 24 25  1  0
 10 11  1  0
 11 12  1  0
  6  4  1  0
 11 13  2  0
  5  1  1  0
 24 29  1  0
 25 26  1  0
 26 27  1  0
 27 28  1  0
 28 29  1  0
 21 24  1  0
  4 14  1  0
 18 30  2  0
  1  2  2  0
 30 31  1  0
  2 15  1  0
 31 32  2  0
  2  3  1  0
 32 33  1  0
 15 16  1  0
 33 34  2  0
 34 18  1  0
M  END