
          11280715122D 1   1.00000     0.00000     0

 22 21  0     0  0            999 V2000
   -1.2083    1.1958    0.0000 N   0  0  0  0  0  0           0  0  0
    5.2875    0.9708    0.0000 C   0  0  0  0  0  0           0  0  0
    6.0000    0.5583    0.0000 C   0  0  0  0  0  0           0  0  0
   -1.1958   -0.1417    0.0000 N   0  0  0  0  0  0           0  0  0
   -1.6875    0.5250    0.0000 C   0  0  0  0  0  0           0  0  0
   -0.4208    0.9458    0.0000 C   0  0  0  0  0  0           0  0  0
    4.0667   -1.9792    0.0000 C   0  0  0  0  0  0           0  0  0
    2.4292   -1.9375    0.0000 C   0  0  0  0  0  0           0  0  0
    2.8500   -1.2250    0.0000 C   0  0  0  0  0  0           0  0  0
    3.6750   -1.2500    0.0000 C   0  0  0  0  0  0           0  0  0
   -0.4125    0.1208    0.0000 C   0  0  0  0  0  0           0  0  0
    2.8375   -2.6542    0.0000 O   0  0  0  0  0  0           0  0  0
    4.8917   -2.0042    0.0000 O   0  0  0  0  0  0           0  0  0
    3.6292   -2.6792    0.0000 O   0  0  0  0  0  0           0  0  0
    1.6042   -1.9292    0.0000 O   0  0  0  0  0  0           0  0  0
    4.5667    1.3708    0.0000 C   0  0  0  0  0  0           0  0  0
    2.4292    0.9583    0.0000 O   0  0  0  0  0  0           0  0  0
    0.2917    1.3625    0.0000 C   0  0  0  0  0  0           0  0  0
    3.1417    1.3708    0.0000 C   0  0  0  0  0  0           0  0  0
    1.7167    1.3708    0.0000 C   0  0  0  0  0  0           0  0  0
    3.8542    0.9583    0.0000 C   0  0  0  0  0  0           0  0  0
    1.0042    0.9500    0.0000 C   0  0  0  0  0  0           0  0  0
  2 16  1  0     0  0
  3  2  3  0     0  0
  4  5  1  0     0  0
  5  1  2  0     0  0
  6  1  1  0     0  0
  8  9  1  0     0  0
  9 10  2  0     0  0
 10  7  1  0     0  0
 11  6  2  0     0  0
 12  8  2  0     0  0
 13  7  2  0     0  0
 14  7  1  0     0  0
 15  8  1  0     0  0
 16 21  1  0     0  0
 17 20  1  0     0  0
 18  6  1  0     0  0
 19 17  1  0     0  0
 20 22  1  0     0  0
 21 19  1  0     0  0
 22 18  1  0     0  0
 11  4  1  0     0  0
M  END