
          11280715202D 1   1.00000     0.00000     0

 44 45  0     0  0            999 V2000
   -2.6708   -2.5542    0.0000 C   0  0  0  0  0  0           0  0  0
   16.6167   -2.0667    0.0000 C   0  0  0  0  0  0           0  0  0
   -2.6708   -3.3875    0.0000 C   0  0  0  0  0  0           0  0  0
   17.3292   -2.4792    0.0000 C   0  0  0  0  0  0           0  0  0
    3.7542   -2.1167    0.0000 N   0  0  3  0  0  0           0  0  0
   10.1875   -2.5042    0.0000 N   0  0  3  0  0  0           0  0  0
   -1.2458   -2.5500    0.0000 N   0  0  0  0  0  0           0  0  0
   15.1875   -2.0750    0.0000 N   0  0  0  0  0  0           0  0  0
   -1.9583   -3.8000    0.0000 O   0  0  0  0  0  0           0  0  0
   17.3292   -3.3042    0.0000 O   0  0  0  0  0  0           0  0  0
   -1.9583   -2.1417    0.0000 C   0  0  0  0  0  0           0  0  0
   15.9042   -2.4875    0.0000 C   0  0  0  0  0  0           0  0  0
   -3.3875   -2.1417    0.0000 C   0  0  0  0  0  0           0  0  0
   16.6042   -1.2500    0.0000 C   0  0  0  0  0  0           0  0  0
   18.0417   -2.0667    0.0000 C   0  0  0  0  0  0           0  0  0
   -3.3875   -3.8000    0.0000 C   0  0  0  0  0  0           0  0  0
    4.4667   -2.5292    0.0000 C   0  0  0  0  0  0           0  0  0
    9.4667   -2.1000    0.0000 C   0  0  0  0  0  0           0  0  0
    3.0417   -2.5292    0.0000 C   0  0  0  0  0  0           0  0  0
   10.8917   -2.0917    0.0000 C   0  0  0  0  0  0           0  0  0
   -0.5333   -2.1375    0.0000 C   0  0  0  0  0  0           0  0  0
   14.4750   -2.4917    0.0000 C   0  0  0  0  0  0           0  0  0
   10.1917   -3.3292    0.0000 C   0  0  0  0  0  0           0  0  0
    3.7542   -1.2917    0.0000 C   0  0  0  0  0  0           0  0  0
   -1.9583   -4.6250    0.0000 C   0  0  0  0  0  0           0  0  0
   18.0417   -3.7167    0.0000 C   0  0  0  0  0  0           0  0  0
   11.6167   -2.5042    0.0000 C   0  0  0  0  0  0           0  0  0
    5.1875   -2.1167    0.0000 C   0  0  0  0  0  0           0  0  0
    8.7542   -2.5125    0.0000 C   0  0  0  0  0  0           0  0  0
    2.3292   -2.1250    0.0000 C   0  0  0  0  0  0           0  0  0
   13.7542   -2.0792    0.0000 C   0  0  0  0  0  0           0  0  0
    0.1875   -2.5417    0.0000 C   0  0  0  0  0  0           0  0  0
    7.3292   -2.5167    0.0000 C   0  0  0  0  0  0           0  0  0
    8.0417   -2.1042    0.0000 C   0  0  0  0  0  0           0  0  0
   12.3292   -2.0875    0.0000 C   0  0  0  0  0  0           0  0  0
   13.0417   -2.4917    0.0000 C   0  0  0  0  0  0           0  0  0
    0.9000   -2.1292    0.0000 C   0  0  0  0  0  0           0  0  0
    1.6167   -2.5417    0.0000 C   0  0  0  0  0  0           0  0  0
    5.9000   -2.5250    0.0000 C   0  0  0  0  0  0           0  0  0
    6.6125   -2.1042    0.0000 C   0  0  0  0  0  0           0  0  0
   17.3167   -0.8292    0.0000 C   0  0  0  0  0  0           0  0  0
   -4.1000   -2.5625    0.0000 C   0  0  0  0  0  0           0  0  0
   -4.1000   -3.3875    0.0000 C   0  0  0  0  0  0           0  0  0
   18.0375   -1.2417    0.0000 C   0  0  0  0  0  0           0  0  0
  2 12  1  0     0  0
  3  1  1  0     0  0
  4  2  2  0     0  0
  5 19  1  0     0  0
  6 18  1  0     0  0
  7 11  1  0     0  0
  8 22  1  0     0  0
  9  3  1  0     0  0
 10  4  1  0     0  0
 11  1  1  0     0  0
 12  8  1  0     0  0
 13  1  2  0     0  0
 14  2  1  0     0  0
 15  4  1  0     0  0
 16  3  2  0     0  0
 17  5  1  0     0  0
 18 29  1  0     0  0
 19 30  1  0     0  0
 20  6  1  0     0  0
 21  7  1  0     0  0
 22 31  1  0     0  0
 23  6  1  0     0  0
 24  5  1  0     0  0
 25  9  1  0     0  0
 26 10  1  0     0  0
 27 20  1  0     0  0
 28 17  1  0     0  0
 29 34  1  0     0  0
 30 38  1  0     0  0
 31 36  1  0     0  0
 32 21  1  0     0  0
 33 40  1  0     0  0
 34 33  1  0     0  0
 35 27  1  0     0  0
 36 35  1  0     0  0
 37 32  1  0     0  0
 38 37  1  0     0  0
 39 28  1  0     0  0
 40 39  1  0     0  0
 41 14  2  0     0  0
 42 13  1  0     0  0
 43 42  2  0     0  0
 44 41  1  0     0  0
 43 16  1  0     0  0
 44 15  2  0     0  0
M  END