
  SciTegic05281310212D

 94 98  0  0  0  0            999 V2000
    4.4500   -6.0542    0.0000 C   0  0  2  0  0  0
   11.2875   -8.9542    0.0000 C   0  0  2  0  0  0
    6.4875   -7.2917    0.0000 C   0  0  1  0  0  0
    7.1875   -6.4917    0.0000 C   0  0  1  0  0  0
    5.3750   -5.7292    0.0000 C   0  0  1  0  0  0
   12.2125   -8.6292    0.0000 C   0  0  1  0  0  0
    9.2750   -7.2917    0.0000 C   0  0  2  0  0  0
    6.0000   -5.9542    0.0000 C   0  0  1  0  0  0
    2.6375   -5.0792    0.0000 C   0  0  2  0  0  0
    0.6875   -4.4667    0.0000 C   0  0  2  0  0  0
    3.3625   -7.0417    0.0000 S   0  0
   10.1875   -9.8667    0.0000 S   0  0
    5.1500   -7.3542    0.0000 S   0  0
   12.4250  -10.2417    0.0000 S   0  0
   10.8875   -8.2292    0.0000 C   0  0  1  0  0  0
    4.0500   -5.3417    0.0000 C   0  0  1  0  0  0
    8.5750   -6.4917    0.0000 O   0  0
   -1.3250   -1.6917    0.0000 S   0  0
    5.4250   -3.4917    0.0000 S   0  0
   12.2625   -6.3917    0.0000 S   0  0
    2.2375   -4.3542    0.0000 O   0  0
    8.5875   -8.0917    0.0000 C   0  0  1  0  0  0
    7.1875   -8.0917    0.0000 C   0  0  1  0  0  0
    1.3500   -4.6917    0.0000 C   0  0  1  0  0  0
    2.0042   -4.8542    0.0000 C   0  0  2  0  0  0
    6.6375   -6.4917    0.0000 O   0  0
   -0.7375   -4.1542    0.0000 C   0  0  1  0  0  0
   -2.3000   -4.2542    0.0000 C   0  0  2  0  0  0
    5.6000   -5.2292    0.0000 O   0  0
    4.7250   -5.5667    0.0000 C   0  0  1  0  0  0
    1.0875   -5.1917    0.0000 C   0  0  1  0  0  0
   11.5625   -8.4542    0.0000 C   0  0  1  0  0  0
   10.3500   -7.3042    0.0000 O   0  0
    3.2750   -5.6167    0.0000 O   0  0
   12.8500   -8.8542    0.0000 C   0  0  2  0  0  0
   12.4375   -8.1292    0.0000 O   0  0
   -1.1500   -3.4292    0.0000 O   0  0
   -2.0250   -3.7667    0.0000 C   0  0  2  0  0  0
   -1.3750   -3.9167    0.0000 C   0  0  2  0  0  0
   -2.7000   -3.5417    0.0000 C   0  0  1  0  0  0
   -0.1125   -4.6792    0.0000 C   0  0
   11.0000   -9.7292    0.0000 O   0  0
    4.1625   -6.8292    0.0000 O   0  0
    5.3750   -6.5542    0.0000 O   0  0
   12.4250   -9.4167    0.0000 O   0  0
    7.4625   -6.9917    0.0000 C   0  0
    1.3500   -3.8542    0.0000 C   0  0
   11.5625   -7.6292    0.0000 C   0  0
    4.7125   -4.7417    0.0000 C   0  0
   -2.0250   -2.9417    0.0000 C   0  0
   -1.3250   -2.5167    0.0000 O   0  0
   12.2625   -7.2167    0.0000 O   0  0
    5.4250   -4.3167    0.0000 O   0  0
   12.4250  -11.0667    0.0000 O   0  0
    9.3875  -10.0792    0.0000 O   0  0
    2.4250   -7.3042    0.0000 O   0  0
    5.1500   -8.1792    0.0000 O   0  0
   -1.3250   -0.8667    0.0000 O   0  0
    5.4125   -2.6667    0.0000 O   0  0
   12.2625   -5.5667    0.0000 O   0  0
    5.9500   -7.5542    0.0000 O   0  0
    4.3500   -7.5542    0.0000 O   0  0
   13.2500  -10.2417    0.0000 O   0  0
   11.6000  -10.2417    0.0000 O   0  0
    3.3500   -7.8667    0.0000 O   0  0
   10.3917  -10.6542    0.0000 O   0  0
    9.9875   -9.0667    0.0000 O   0  0
    3.3500   -6.2167    0.0000 O   0  0
   -0.5000   -1.6917    0.0000 O   0  0
   -2.1500   -1.6917    0.0000 O   0  0
    6.2500   -3.4917    0.0000 O   0  0
    4.6000   -3.4917    0.0000 O   0  0
   13.0875   -6.3917    0.0000 O   0  0
   11.4375   -6.3917    0.0000 O   0  0
    8.0250   -7.0542    0.0000 O   0  0
    2.0625   -3.4542    0.0000 O   0  0
    7.0000   -7.2667    0.0000 O   0  0
    0.6375   -3.4542    0.0000 O   0  0
    8.9250   -8.8417    0.0000 O   0  0
    2.0042   -5.6792    0.0000 O   0  0
    7.7000   -7.6167    0.0000 O   0  0
   -2.5875   -5.0292    0.0000 O   0  0
   -1.3750   -4.7542    0.0000 O   0  0
   -3.3375   -3.0042    0.0000 O   0  0
   13.6375   -9.0667    0.0000 O   0  0
    0.8000   -5.9542    0.0000 O   0  0
    8.4375   -9.5167    0.0000 C   0  0
    1.2875   -6.0917    0.0000 C   0  0
    8.4500   -7.5917    0.0000 C   0  0
   -3.4000   -5.1667    0.0000 C   0  0
   -3.2000   -2.1917    0.0000 C   0  0
   -2.0875   -5.1667    0.0000 C   0  0
   14.2250   -8.4792    0.0000 C   0  0
   -0.0125   -6.0917    0.0000 C   0  0
  2 15  1  0
  3 26  1  1
  4  3  1  0
  5  1  1  0
  6  2  1  0
  7 22  1  0
  8  5  1  0
  9 34  1  1
 10 31  1  0
 11 43  1  0
 12 42  1  0
 13 44  1  0
 14 45  1  0
 15 33  1  6
 16  1  1  0
 17  4  1  0
 18 51  1  0
 19 53  1  0
 20 52  1  0
 21  9  1  0
 22 23  1  0
 23  3  1  0
 24 21  1  0
 25  9  1  0
  8 26  1  6
 27 41  1  6
 28 39  1  0
 29 30  1  0
 30 16  1  0
 31 25  1  0
 32 15  1  0
  7 33  1  1
 16 34  1  6
 35 36  1  0
 36 32  1  0
 37 27  1  0
 38 37  1  0
 39 27  1  0
 40 28  1  0
 10 41  1  6
  2 42  1  1
  1 43  1  1
  5 44  1  6
  6 45  1  6
  4 46  1  6
 24 47  1  1
 32 48  1  1
 30 49  1  1
 38 50  1  1
 51 50  1  0
 52 48  1  0
 53 49  1  0
 54 14  1  0
 55 12  1  0
 56 11  1  0
 57 13  1  0
 58 18  1  0
 59 19  1  0
 60 20  1  0
 61 13  2  0
 62 13  2  0
 63 14  2  0
 64 14  2  0
 65 11  2  0
 66 12  2  0
 67 12  2  0
 68 11  2  0
 69 18  2  0
 70 18  2  0
 71 19  2  0
 72 19  2  0
 73 20  2  0
 74 20  2  0
 75 46  1  0
 76 47  1  0
 77 46  2  0
 78 47  2  0
 22 79  1  6
 25 80  1  6
 23 81  1  1
 28 82  1  1
 39 83  1  6
 40 84  1  6
 35 85  1  6
 31 86  1  1
 87 79  1  0
 88 80  1  0
 89 81  1  0
 90 82  1  0
 91 84  1  0
 92 83  1  0
 93 85  1  0
 94 86  1  0
  8 29  1  0
 24 10  1  0
 17  7  1  0
 40 38  1  0
 35  6  1  0
M  END