
          11280715282D 1   1.00000     0.00000     0

 16 17  0     0  0            999 V2000
    3.1500   -1.0292    0.0000 C   0  0  0  0  0  0           0  0  0
    3.1542   -0.2042    0.0000 C   0  0  0  0  0  0           0  0  0
    2.4417   -1.4417    0.0000 N   0  0  0  0  0  0           0  0  0
    3.8625   -1.4417    0.0000 N   0  0  3  0  0  0           0  0  0
    2.4417    0.2083    0.0000 C   0  0  0  0  0  0           0  0  0
    1.7292   -0.2042    0.0000 N   0  0  0  0  0  0           0  0  0
    1.7292   -1.0292    0.0000 C   0  0  3  0  0  0           0  0  0
    3.8667    0.2083    0.0000 C   0  0  0  0  0  0           0  0  0
    4.5792   -1.0375    0.0000 C   0  0  0  0  0  0           0  0  0
    4.5792   -0.2125    0.0000 C   0  0  0  0  0  0           0  0  0
    2.4417    1.0333    0.0000 O   0  0  0  0  0  0           0  0  0
    3.8542   -2.2667    0.0000 C   0  0  3  0  0  0           0  0  0
    1.0167   -1.4417    0.0000 N   0  0  0  0  0  0           0  0  0
    5.2917    0.1958    0.0000 C   0  0  0  0  0  0           0  0  0
    4.5667   -2.6875    0.0000 C   0  0  0  0  0  0           0  0  0
    3.1375   -2.6792    0.0000 C   0  0  0  0  0  0           0  0  0
  2  1  1  0     0  0
  3  1  2  0     0  0
  4  1  1  0     0  0
  5  2  1  0     0  0
  6  7  1  0     0  0
  7  3  1  0     0  0
  8  2  2  0     0  0
  9  4  1  0     0  0
 10  9  2  0     0  0
 11  5  2  0     0  0
 12  4  1  0     0  0
 13  7  1  0     0  0
 14 10  1  0     0  0
 15 12  1  0     0  0
 16 12  1  0     0  0
  8 10  1  0     0  0
  5  6  1  0     0  0
M  END