
  SciTegic12231509382D

 29 32  0  0  0  0            999 V2000
   -2.3935  -12.3702    0.0000 N   0  0
   -2.5649  -11.5632    0.0000 C   0  0
   -1.8532  -11.1507    0.0000 N   0  0
   -1.2368  -11.7038    0.0000 C   0  0
   -1.5744  -12.4583    0.0000 C   0  0
   -0.7494  -12.4583    0.0000 C   0  0
   -0.3369  -13.1700    0.0000 C   0  0
   -0.7494  -13.8858    0.0000 N   0  0
   -1.5744  -13.8858    0.0000 C   0  0
   -1.9869  -13.1700    0.0000 C   0  0
   -0.4307  -11.5314    0.0000 O   0  0
   -3.1155  -12.7759    0.0000 C   0  0
   -3.1284  -13.6002    0.0000 C   0  0
   -3.8491  -14.0020    0.0000 C   0  0
   -4.5568  -13.5795    0.0000 C   0  0
   -4.5439  -12.7552    0.0000 C   0  0
   -3.8232  -12.3534    0.0000 C   0  0
   -0.3369  -14.6017    0.0000 C   0  0
    0.4881  -14.6017    0.0000 C   0  0
    0.9006  -13.8858    0.0000 C   0  0
    1.7256  -13.8858    0.0000 C   0  0
    2.1381  -14.6017    0.0000 O   0  0
    2.1381  -13.1700    0.0000 C   0  0
    1.7256  -12.4583    0.0000 C   0  0
    2.1381  -11.7424    0.0000 C   0  0
    2.9631  -11.7424    0.0000 C   0  0
    3.3756  -12.4583    0.0000 C   0  0
    2.9631  -13.1700    0.0000 C   0  0
    3.3756  -11.0265    0.0000 F   0  0
  1  2  1  0
  2  3  1  0
  3  4  1  0
  4  5  1  0
  5  6  1  0
  6  7  1  0
  7  8  1  0
  8  9  1  0
  9 10  1  0
  1  5  1  0
  5 10  1  0
  4 11  2  0
 12 13  1  0
 13 14  2  0
 14 15  1  0
 15 16  2  0
 16 17  1  0
 12 17  2  0
  1 12  1  0
 18 19  1  0
 19 20  1  0
 20 21  1  0
 21 22  2  0
 23 24  1  0
 24 25  2  0
 25 26  1  0
 26 27  2  0
 27 28  1  0
 23 28  2  0
 26 29  1  0
 21 23  1  0
  8 18  1  0
M  END