
  SciTegic01161211252D

 25 25  0  0  0  0            999 V2000
    0.4500   -4.7667    0.0000 N   0  0
    1.1667   -3.5292    0.0000 P   0  0
   -1.6875   -4.3542    0.0000 C   0  0  1  0  0  0
   -0.2708   -4.3542    0.0000 C   0  0  2  0  0  0
   -3.1208   -5.1792    0.0000 P   0  0
   -0.9833   -3.1125    0.0000 C   0  0
   -0.9833   -4.7625    0.0000 C   0  0  2  0  0  0
   -1.6875   -3.5292    0.0000 C   0  0
    1.1625   -4.3542    0.0000 C   0  0
   -0.2708   -3.5292    0.0000 C   0  0
   -0.9833   -2.2875    0.0000 C   0  0
   -2.4083   -4.7667    0.0000 O   0  0
    0.4417   -5.5917    0.0000 C   0  0
    1.1625   -6.0042    0.0000 C   0  0
    1.9875   -3.5417    0.0000 O   0  0
    0.3375   -3.5167    0.0000 O   0  0
   -3.5333   -4.4750    0.0000 O   0  0
   -2.7083   -5.9000    0.0000 O   0  0
    1.1667   -2.7042    0.0000 O   0  0
   -3.8333   -5.5917    0.0000 O   0  0
   -1.6958   -1.8750    0.0000 O   0  0
    1.1542   -6.8292    0.0000 O   0  0
   -0.2625   -1.8750    0.0000 O   0  0
    1.8750   -5.5917    0.0000 O   0  0
   -0.9833   -5.5875    0.0000 O   0  0
  2  9  1  0
  3  7  1  0
  4  1  1  1
  5 12  1  0
  6 10  1  0
  7  4  1  0
  8  6  2  0
  9  1  1  0
 10  4  1  0
 11  6  1  0
  3 12  1  6
 13  1  1  0
 14 13  1  0
 15  2  1  0
 16  2  1  0
 17  5  1  0
 18  5  1  0
 19  2  2  0
 20  5  2  0
 21 11  1  0
 22 14  1  0
 23 11  2  0
 24 14  2  0
  7 25  1  6
  3  8  1  0
M  END