
  CDK    9/16/09,10:4

 23 24  0  0  0  0  0  0  0  0999 V2000
    1.5583    2.0750    0.0000 C   0  0  0  0  0  0  0  0  0  0  0  0
    2.2728    2.4875    0.0000 C   0  0  0  0  0  0  0  0  0  0  0  0
    2.9873    2.0750    0.0000 C   0  0  0  0  0  0  0  0  0  0  0  0
    3.7017    2.4875    0.0000 C   0  0  0  0  0  0  0  0  0  0  0  0
    4.4162    2.0750    0.0000 N   0  0  0  0  0  0  0  0  0  0  0  0
    5.1307    2.4875    0.0000 C   0  0  0  0  0  0  0  0  0  0  0  0
    5.8452    2.0750    0.0000 N   0  0  0  0  0  0  0  0  0  0  0  0
    5.1307    3.3125    0.0000 N   0  0  0  0  0  0  0  0  0  0  0  0
    6.5596    2.4875    0.0000 C   0  0  0  0  0  0  0  0  0  0  0  0
    7.2741    2.0750    0.0000 C   0  0  0  0  0  0  0  0  0  0  0  0
    6.5596    3.3125    0.0000 O   0  0  0  0  0  0  0  0  0  0  0  0
    7.9886    2.4875    0.0000 C   0  0  0  0  0  0  0  0  0  0  0  0
    8.7030    2.0750    0.0000 C   0  0  0  0  0  0  0  0  0  0  0  0
    7.9886    3.3125    0.0000 C   0  0  0  0  0  0  0  0  0  0  0  0
    8.7014    1.2489    0.0000 C   0  0  0  0  0  0  0  0  0  0  0  0
    9.4150    0.8365    0.0000 C   0  0  0  0  0  0  0  0  0  0  0  0
   10.1305    1.2491    0.0000 C   0  0  0  0  0  0  0  0  0  0  0  0
   10.1278    2.0783    0.0000 C   0  0  0  0  0  0  0  0  0  0  0  0
    9.4136    2.4870    0.0000 C   0  0  0  0  0  0  0  0  0  0  0  0
    0.7716    2.3231    0.0000 N   0  0  0  0  0  0  0  0  0  0  0  0
    0.2925    1.6514    0.0000 C   0  0  0  0  0  0  0  0  0  0  0  0
    0.7832    0.9882    0.0000 N   0  0  0  0  0  0  0  0  0  0  0  0
    1.5655    1.2501    0.0000 C   0  0  0  0  0  0  0  0  0  0  0  0
 10 12  1  0  0  0  0 
  1  2  1  0  0  0  0 
 12 13  1  0  0  0  0 
  6  7  2  0  0  0  0 
 12 14  1  0  0  0  0 
  3  4  1  0  0  0  0 
 13 15  2  0  0  0  0 
  6  8  1  0  0  0  0 
 15 16  1  0  0  0  0 
 16 17  2  0  0  0  0 
  7  9  1  0  0  0  0 
 17 18  1  0  0  0  0 
  4  5  1  0  0  0  0 
 18 19  2  0  0  0  0 
 19 13  1  0  0  0  0 
  1 20  1  0  0  0  0 
  9 10  1  0  0  0  0 
  2  3  1  0  0  0  0 
  9 11  2  0  0  0  0 
  5  6  1  0  0  0  0 
 20 21  2  0  0  0  0 
 21 22  1  0  0  0  0 
 22 23  1  0  0  0  0 
 23  1  2  0  0  0  0 
M  END