
  SciTegic01061414252D

 23 24  0  0  0  0            999 V2000
   10.5113   -3.3682    0.0000 S   0  0
   10.0982   -4.0823    0.0000 O   0  0
   10.9231   -4.0830    0.0000 O   0  0
   11.2272   -2.1290    0.0000 C   0  0
   11.2260   -2.9563    0.0000 C   0  0
   11.9408   -3.3692    0.0000 C   0  0
   12.6572   -2.9558    0.0000 C   0  0
   12.6543   -2.1254    0.0000 C   0  0
   11.9390   -1.7163    0.0000 C   0  0
   13.3672   -1.7102    0.0000 C   0  0
   14.0832   -2.1200    0.0000 C   0  0
   13.3641   -0.8852    0.0000 O   0  0
   14.7961   -1.7049    0.0000 S   0  0
   15.5120   -2.1146    0.0000 C   0  0
   15.5120   -2.9385    0.0000 N   0  0
   16.2272   -3.3481    0.0000 C   0  0
   16.9410   -2.9329    0.0000 C   0  0
   16.9352   -2.1037    0.0000 C   0  0
   16.2195   -1.6978    0.0000 N   0  0
    9.7971   -2.9552    0.0000 N   0  0
   11.9406   -4.1942    0.0000 Cl  0  0
   17.6466   -1.6861    0.0000 O   0  0
   16.2299   -4.1731    0.0000 C   0  0
  2  1  2  0
  1  3  2  0
  4  5  2  0
  5  6  1  0
  6  7  2  0
  7  8  1  0
  8  9  2  0
  9  4  1  0
  8 10  1  0
 10 11  1  0
 10 12  2  0
 11 13  1  0
 13 14  1  0
 14 15  2  0
 15 16  1  0
 16 17  2  0
 17 18  1  0
 18 19  1  0
 19 14  1  0
  5  1  1  0
  1 20  1  0
  6 21  1  0
 18 22  2  0
 16 23  1  0
M  END