
  SciTegic01161211252D

 27 30  0  0  0  0            999 V2000
   -1.5343   -3.1500    0.0000 N   0  0
   -0.8204   -3.5635    0.0000 C   0  0
   -0.8216   -4.3885    0.0000 O   0  0
   -0.1054   -3.1521    0.0000 C   0  0
    0.6069   -3.5665    0.0000 N   0  0
    1.3214   -3.1557    0.0000 C   0  0
    1.3231   -2.3298    0.0000 C   0  0
    0.6042   -1.9165    0.0000 C   0  0
   -0.1075   -2.3296    0.0000 C   0  0
    2.0376   -1.9174    0.0000 O   0  0
    2.7520   -2.3300    0.0000 C   0  0
    2.7471   -3.1552    0.0000 C   0  0
    3.4607   -3.5678    0.0000 C   0  0
    4.1762   -3.1553    0.0000 C   0  0
    4.1737   -2.3260    0.0000 C   0  0
    3.4595   -1.9172    0.0000 C   0  0
   -2.2172   -3.6129    0.0000 C   0  0
   -3.0076   -3.3697    0.0000 C   0  0
   -1.4755   -2.3275    0.0000 C   0  0
   -3.3120   -2.6042    0.0000 N   0  0
   -2.0818   -1.7659    0.0000 C   0  0
   -2.8981   -1.8919    0.0000 C   0  0
   -4.1367   -2.6044    0.0000 C   0  0
   -4.7185   -2.0195    0.0000 C   0  0
   -5.3034   -2.6013    0.0000 C   0  0
   -4.7216   -3.1862    0.0000 C   0  0
    3.4561   -1.0922    0.0000 F   0  0
  6  7  2  0
 13 14  2  0
  2  4  1  0
 14 15  1  0
  7  8  1  0
 15 16  2  0
 16 11  1  0
  1 17  1  0
  8  9  2  0
 17 18  1  0
  9  4  1  0
  1 19  1  0
  4  5  2  0
 18 20  1  0
  7 10  1  0
 19 21  1  0
  2  3  2  0
 20 22  1  0
 21 22  1  0
 23 24  1  0
 10 11  1  0
  5  6  1  0
 11 12  2  0
  1  2  1  0
 24 25  1  0
 25 26  1  0
 26 23  1  0
 20 23  1  0
 12 13  1  0
 16 27  1  0
M  END