
          11280715112D 1   1.00000     0.00000     0

 28 31  0     0  0            999 V2000
    0.0000   -1.9500    0.0000 C   0  0  0  0  0  0           0  0  0
   -0.7208   -2.3625    0.0000 C   0  0  0  0  0  0           0  0  0
    5.0042   -0.7417    0.0000 C   0  0  0  0  0  0           0  0  0
    2.8625   -1.9667    0.0000 N   0  0  3  0  0  0           0  0  0
    0.7167   -2.3667    0.0000 C   0  0  3  0  0  0           0  0  0
    5.7167   -1.1625    0.0000 C   0  0  0  0  0  0           0  0  0
   -0.7208   -3.1917    0.0000 C   0  0  0  0  0  0           0  0  0
    4.2917   -1.1500    0.0000 C   0  0  3  0  0  0           0  0  0
    0.0000   -1.1292    0.0000 O   0  0  0  0  0  0           0  0  0
    5.0167    0.0833    0.0000 O   0  0  0  0  0  0           0  0  0
   -0.0125   -3.6042    0.0000 C   0  0  0  0  0  0           0  0  0
    0.7042   -3.2000    0.0000 C   0  0  0  0  0  0           0  0  0
    1.4292   -1.9625    0.0000 C   0  0  0  0  0  0           0  0  0
    6.4292   -0.7542    0.0000 C   0  0  0  0  0  0           0  0  0
    5.7042   -1.9875    0.0000 C   0  0  0  0  0  0           0  0  0
    4.2792   -1.9750    0.0000 C   0  0  0  0  0  0           0  0  0
    3.5792   -0.7292    0.0000 C   0  0  0  0  0  0           0  0  0
    2.1417   -2.3792    0.0000 C   0  0  0  0  0  0           0  0  0
    3.5667   -2.3792    0.0000 C   0  0  0  0  0  0           0  0  0
    2.8542   -1.1417    0.0000 C   0  0  0  0  0  0           0  0  0
    7.1375   -1.9917    0.0000 C   0  0  0  0  0  0           0  0  0
    6.4167   -2.4042    0.0000 C   0  0  0  0  0  0           0  0  0
    7.1417   -1.1667    0.0000 C   0  0  0  0  0  0           0  0  0
    7.8500   -2.4125    0.0000 F   0  0  0  0  0  0           0  0  0
   -1.4333   -1.9542    0.0000 C   0  0  0  0  0  0           0  0  0
   -1.4333   -3.6125    0.0000 C   0  0  0  0  0  0           0  0  0
   -2.1458   -2.3750    0.0000 C   0  0  0  0  0  0           0  0  0
   -2.1458   -3.2000    0.0000 C   0  0  0  0  0  0           0  0  0
  2  1  1  0     0  0
  3  8  1  0     0  0
  4 18  1  0     0  0
  5  1  1  0     0  0
  6  3  1  0     0  0
  7  2  1  0     0  0
  8 17  1  0     0  0
  9  1  2  0     0  0
 10  3  2  0     0  0
 11 12  1  0     0  0
 12  5  1  0     0  0
 13  5  1  0     0  0
 14  6  1  0     0  0
 15  6  2  0     0  0
 16 19  1  0     0  0
 17 20  1  0     0  0
 18 13  1  0     0  0
 19  4  1  0     0  0
 20  4  1  0     0  0
 21 22  2  0     0  0
 22 15  1  0     0  0
 23 14  2  0     0  0
 24 21  1  0     0  0
 25  2  2  0     0  0
 26  7  2  0     0  0
 27 25  1  0     0  0
 28 27  2  0     0  0
  7 11  1  0     0  0
 26 28  1  0     0  0
 16  8  1  0     0  0
 23 21  1  0     0  0
M  END