
  CDK    9/16/09,10:4

 27 29  0  0  0  0  0  0  0  0999 V2000
   10.0167   -2.2042    0.0000 C   0  0  0  0  0  0  0  0  0  0  0  0
   10.7311   -1.7917    0.0000 N   0  0  0  0  0  0  0  0  0  0  0  0
    9.3022   -1.7917    0.0000 N   0  0  0  0  0  0  0  0  0  0  0  0
   10.0167   -3.0292    0.0000 S   0  0  0  0  0  0  0  0  0  0  0  0
    8.5877   -2.2042    0.0000 C   0  0  0  0  0  0  0  0  0  0  0  0
    7.8738   -1.7885    0.0000 C   0  0  0  0  0  0  0  0  0  0  0  0
    7.1598   -2.2003    0.0000 C   0  0  0  0  0  0  0  0  0  0  0  0
    7.1594   -3.0262    0.0000 C   0  0  0  0  0  0  0  0  0  0  0  0
    7.8789   -3.4386    0.0000 C   0  0  0  0  0  0  0  0  0  0  0  0
    8.5899   -3.0244    0.0000 C   0  0  0  0  0  0  0  0  0  0  0  0
   11.4456   -2.2042    0.0000 C   0  0  0  0  0  0  0  0  0  0  0  0
   11.4431   -3.0302    0.0000 C   0  0  0  0  0  0  0  0  0  0  0  0
   12.1567   -3.4427    0.0000 C   0  0  0  0  0  0  0  0  0  0  0  0
   12.1553   -1.7922    0.0000 C   0  0  0  0  0  0  0  0  0  0  0  0
   12.8695   -2.2008    0.0000 C   0  0  0  0  0  0  0  0  0  0  0  0
   12.8731   -3.0286    0.0000 C   0  0  0  0  0  0  0  0  0  0  0  0
   13.5886   -3.4394    0.0000 S   0  0  0  0  0  0  0  0  0  0  0  0
   14.3000   -3.8500    0.0000 N   0  0  0  0  0  0  0  0  0  0  0  0
   14.0002   -2.7244    0.0000 O   0  0  0  0  0  0  0  0  0  0  0  0
   13.1802   -4.1562    0.0000 O   0  0  0  0  0  0  0  0  0  0  0  0
   14.3001   -4.6750    0.0000 C   0  0  0  0  0  0  0  0  0  0  0  0
   13.6356   -5.1636    0.0000 N   0  0  0  0  0  0  0  0  0  0  0  0
   13.8906   -5.9482    0.0000 O   0  0  0  0  0  0  0  0  0  0  0  0
   14.7157   -5.9481    0.0000 C   0  0  0  0  0  0  0  0  0  0  0  0
   14.9704   -5.1634    0.0000 C   0  0  0  0  0  0  0  0  0  0  0  0
   15.2007   -6.6154    0.0000 C   0  0  0  0  0  0  0  0  0  0  0  0
    6.4455   -3.4397    0.0000 Cl  0  0  0  0  0  0  0  0  0  0  0  0
 13 16  2  0  0  0  0 
  6  7  1  0  0  0  0 
 15 14  2  0  0  0  0 
 14 11  1  0  0  0  0 
 15 16  1  0  0  0  0 
  1  4  2  0  0  0  0 
  7  8  2  0  0  0  0 
 16 17  1  0  0  0  0 
  8  9  1  0  0  0  0 
 17 18  1  0  0  0  0 
  3  5  1  0  0  0  0 
 17 19  2  0  0  0  0 
  9 10  2  0  0  0  0 
 17 20  2  0  0  0  0 
 10  5  1  0  0  0  0 
 18 21  1  0  0  0  0 
 21 22  2  0  0  0  0 
  1  3  1  0  0  0  0 
  2 11  1  0  0  0  0 
  5  6  2  0  0  0  0 
 11 12  2  0  0  0  0 
 22 23  1  0  0  0  0 
 23 24  1  0  0  0  0 
 24 25  2  0  0  0  0 
 25 21  1  0  0  0  0 
  1  2  1  0  0  0  0 
 24 26  1  0  0  0  0 
 12 13  1  0  0  0  0 
  8 27  1  0  0  0  0 
M  END