
  SciTegic01231714202D

 27 26  0  0  0  0            999 V2000
    1.2990   -0.7500    0.0000 C   0  0
    1.2990    0.7500    0.0000 C   0  0
    0.0000    1.5000    0.0000 N   0  3
   -1.2990    0.7500    0.0000 C   0  0
   -1.2990   -0.7500    0.0000 C   0  0
    0.0000   -1.5000    0.0000 C   0  0
    2.5973   -1.5031    0.0000 N   0  0
    2.5951   -3.0039    0.0000 C   0  0
    1.5548   -3.6021    0.0000 O   0  0
    3.8933   -3.7570    0.0000 C   0  0
    3.8912   -5.2578    0.0000 N   0  0
    2.8515   -5.8570    0.0000 O   0  0
   -0.0031    3.0008    0.0000 C   0  0
   -1.3039    3.7494    0.0000 C   0  0
   -1.3070    5.2502    0.0000 C   0  0
   -2.6078    5.9988    0.0000 C   0  0
   -2.6109    7.4996    0.0000 N   0  3
   -3.9100    8.2496    0.0000 C   0  0
   -3.9100    9.7496    0.0000 C   0  0
   -2.6110   10.4997    0.0000 C   0  0
   -1.3119    9.7497    0.0000 C   0  0
   -1.3119    8.2497    0.0000 C   0  0
   -2.6080   12.0005    0.0000 C   0  0
   -3.6462   12.6023    0.0000 N   0  0
   -1.5679   12.5991    0.0000 O   0  0
   10.1894    3.3711    0.0000 Br  0  5
    7.6894    3.3711    0.0000 Br  0  5
  1  2  2  0
  2  3  1  0
  3  4  2  0
  4  5  1  0
  5  6  2  0
  6  1  1  0
  1  7  1  0
  7  8  1  0
  8  9  2  0
  8 10  1  0
 10 11  2  0
 11 12  1  0
  3 13  1  0
 13 14  1  0
 14 15  1  0
 15 16  1  0
 16 17  1  0
 17 18  2  0
 18 19  1  0
 19 20  2  0
 20 21  1  0
 21 22  2  0
 22 17  1  0
 20 23  1  0
 23 24  1  0
 23 25  2  0
M  CHG  4   3   1  17   1  26  -1  27  -1
M  END