
  SciTegic09261414532D

 52 55  0  0  0  0            999 V2000
    5.6931  -28.5218    0.0000 C   0  0
    6.3340  -29.0260    0.0000 N   0  0
    7.0116  -28.5723    0.0000 C   0  0
    6.7895  -27.7875    0.0000 C   0  0
    5.9746  -27.7564    0.0000 C   0  0
    5.5215  -27.0814    0.0000 C   0  0
    5.8839  -26.3477    0.0000 C   0  0
    5.4299  -25.6692    0.0000 C   0  0
    4.6136  -25.7231    0.0000 C   0  0
    4.2534  -26.4613    0.0000 C   0  0
    4.7096  -27.1368    0.0000 C   0  0
    4.9091  -28.7454    0.0000 C   0  0
    4.3233  -28.1740    0.0000 C   0  0
    3.5377  -28.3960    0.0000 C   0  0
    3.3367  -29.1890    0.0000 C   0  0
    3.9274  -29.7597    0.0000 C   0  0
    4.7108  -29.5347    0.0000 C   0  0
    7.2947  -27.1453    0.0000 C   0  0
    8.1036  -27.2617    0.0000 N   0  0
    6.9911  -26.3866    0.0000 O   0  0
    8.6088  -26.6194    0.0000 C   0  0
    9.4156  -26.7377    0.0000 C   0  0
    9.9206  -26.0962    0.0000 C   0  0
    9.6171  -25.3366    0.0000 C   0  0
    8.8037  -25.2222    0.0000 C   0  0
    8.3022  -25.8647    0.0000 C   0  0
    7.7786  -28.8544    0.0000 C   0  0
    7.9178  -29.6596    0.0000 C   0  0
    8.4064  -28.3312    0.0000 C   0  0
    6.3027  -29.8426    0.0000 C   0  0
    6.9943  -30.2780    0.0000 C   0  0
    6.9630  -31.0946    0.0000 C   0  0  2  0  0  0
    7.6546  -31.5300    0.0000 C   0  0
    6.2402  -31.4758    0.0000 O   0  0
    8.3774  -31.1488    0.0000 C   0  0  2  0  0  0
    9.0689  -31.5841    0.0000 C   0  0
    8.4087  -30.3322    0.0000 O   0  0
    9.7918  -31.2029    0.0000 C   0  0
   10.4833  -31.6383    0.0000 N   0  0
    9.8230  -30.3863    0.0000 O   0  0
    2.5507  -29.4126    0.0000 F   0  0
   11.8959  -31.6924    0.0000 C   0  0
   11.2040  -31.2526    0.0000 C   0  0
   12.6204  -31.3144    0.0000 C   0  0
   13.3100  -31.7528    0.0000 O   0  0
   14.0345  -31.3748    0.0000 C   0  0
   14.7241  -31.8132    0.0000 C   0  0
   15.4486  -31.4352    0.0000 O   0  0
   16.1383  -31.8737    0.0000 C   0  0
   16.8628  -31.4956    0.0000 C   0  0
   17.5524  -31.9341    0.0000 O   0  0
   18.2769  -31.5561    0.0000 C   0  0
  1  2  1  0
  2  3  1  0
  3  4  2  0
  4  5  1  0
  5  1  2  0
  6  7  2  0
  7  8  1  0
  8  9  2  0
  9 10  1  0
 10 11  2  0
 11  6  1  0
  5  6  1  0
 12 13  2  0
 13 14  1  0
 14 15  2  0
 15 16  1  0
 16 17  2  0
 17 12  1  0
  1 12  1  0
  4 18  1  0
 18 19  1  0
 18 20  2  0
 19 21  1  0
 21 22  2  0
 22 23  1  0
 23 24  2  0
 24 25  1  0
 25 26  2  0
 26 21  1  0
  3 27  1  0
 27 28  1  0
 27 29  1  0
  2 30  1  0
 30 31  1  0
 31 32  1  0
 32 33  1  0
 32 34  1  6
 33 35  1  0
 35 36  1  0
 35 37  1  1
 36 38  1  0
 38 39  1  0
 38 40  2  0
 15 41  1  0
 39 43  1  0
 42 43  1  0
 42 44  1  0
 44 45  1  0
 45 46  1  0
 46 47  1  0
 47 48  1  0
 48 49  1  0
 49 50  1  0
 50 51  1  0
 51 52  1  0
M  END