
  SciTegic12171313022D

 12 12  0  0  0  0            999 V2000
    9.6306   -7.8133    0.0000 C   0  0
   10.4556   -7.8133    0.0000 C   0  0
   10.7124   -7.0292    0.0000 S   0  0
   10.0431   -6.5424    0.0000 C   0  0
    9.3780   -7.0292    0.0000 C   0  0
   10.0418   -5.7174    0.0000 N   0  0
   10.7557   -5.3038    0.0000 C   0  0
   10.7544   -4.4788    0.0000 O   0  0
   11.4708   -5.7153    0.0000 C   0  0
    8.5933   -6.7746    0.0000 C   0  0
    8.4214   -5.9677    0.0000 O   0  0
    7.9805   -7.3269    0.0000 N   0  0
  1  2  2  0
  2  3  1  0
  3  4  1  0
  4  5  2  0
  5  1  1  0
  4  6  1  0
  6  7  1  0
  7  8  2  0
  7  9  1  0
  5 10  1  0
 10 11  2  0
 10 12  1  0
M  END