
          11280715142D 1   1.00000     0.00000     0

 29 32  0     0  0            999 V2000
    1.2667   -2.2417    0.0000 C   0  0  0  0  0  0           0  0  0
    1.0125   -3.0292    0.0000 C   0  0  0  0  0  0           0  0  0
    2.0917   -2.2417    0.0000 C   0  0  0  0  0  0           0  0  0
    2.3417   -3.0292    0.0000 C   0  0  3  0  0  0           0  0  0
    0.1875   -3.0292    0.0000 S   0  0  0  0  0  0           0  0  0
    1.6750   -3.5125    0.0000 C   0  0  0  0  0  0           0  0  0
    4.0792   -4.3500    0.0000 N   0  0  3  0  0  0           0  0  0
    5.6875   -4.6917    0.0000 N   0  0  3  0  0  0           0  0  0
    0.6000   -1.7542    0.0000 C   0  0  0  0  0  0           0  0  0
   -0.0708   -2.2417    0.0000 C   0  0  0  0  0  0           0  0  0
    2.5792   -1.5792    0.0000 O   0  0  0  0  0  0           0  0  0
    8.4042   -3.8250    0.0000 C   0  0  0  0  0  0           0  0  0
    9.2167   -3.9917    0.0000 C   0  0  0  0  0  0           0  0  0
    3.1292   -3.2875    0.0000 C   0  0  0  0  0  0           0  0  0
    8.1542   -3.0375    0.0000 O   0  0  0  0  0  0           0  0  0
    9.4625   -4.7792    0.0000 C   0  0  0  0  0  0           0  0  0
    9.7625   -3.3792    0.0000 C   0  0  0  0  0  0           0  0  0
    3.3000   -4.0917    0.0000 C   0  0  0  0  0  0           0  0  0
    4.3292   -5.1292    0.0000 C   0  0  0  0  0  0           0  0  0
    4.6250   -3.7375    0.0000 C   0  0  0  0  0  0           0  0  0
    5.4292   -3.9125    0.0000 C   0  0  0  0  0  0           0  0  0
    5.1292   -5.3042    0.0000 C   0  0  0  0  0  0           0  0  0
   10.8250   -4.3417    0.0000 C   0  0  0  0  0  0           0  0  0
   10.2667   -4.9542    0.0000 C   0  0  0  0  0  0           0  0  0
   10.5667   -3.5542    0.0000 C   0  0  0  0  0  0           0  0  0
   11.6292   -4.5167    0.0000 F   0  0  0  0  0  0           0  0  0
    6.4917   -4.8667    0.0000 C   0  0  0  0  0  0           0  0  0
    7.0500   -4.2542    0.0000 C   0  0  0  0  0  0           0  0  0
    7.8542   -4.4292    0.0000 C   0  0  0  0  0  0           0  0  0
  2  1  2  0     0  0
  3  1  1  0     0  0
  4  3  1  0     0  0
  5  2  1  0     0  0
  6  2  1  0     0  0
  7 18  1  0     0  0
  8 21  1  0     0  0
  9  1  1  0     0  0
 10  9  2  0     0  0
 11  3  2  0     0  0
 12 29  1  0     0  0
 13 12  1  0     0  0
 14  4  1  0     0  0
 15 12  2  0     0  0
 16 13  2  0     0  0
 17 13  1  0     0  0
 18 14  1  0     0  0
 19  7  1  0     0  0
 20  7  1  0     0  0
 21 20  1  0     0  0
 22 19  1  0     0  0
 23 25  1  0     0  0
 24 16  1  0     0  0
 25 17  2  0     0  0
 26 23  1  0     0  0
 27  8  1  0     0  0
 28 27  1  0     0  0
 29 28  1  0     0  0
 10  5  1  0     0  0
  6  4  1  0     0  0
 22  8  1  0     0  0
 24 23  2  0     0  0
M  END