
  SciTegic11201309402D

 55 57  0  0  1  0            999 V2000
    1.7242   -7.7839    0.0000 N   0  0
    8.6003   -5.1102    0.0000 C   0  0
    0.6622   -6.7886    0.0000 C   0  0
    9.2749   -4.6354    0.0000 N   0  0
    4.3272   -5.4975    0.0000 C   0  0
    2.1657   -5.2768    0.0000 C   0  0
    0.9371   -7.5590    0.0000 C   0  0  1  0  0  0
    1.3786   -6.3763    0.0000 N   0  0
    2.9112   -5.6266    0.0000 N   0  0
    5.0019   -5.0227    0.0000 N   0  0
    3.5859   -5.1518    0.0000 C   0  0  1  0  0  0
    2.5488   -7.7839    0.0000 C   0  0
    7.8506   -4.7645    0.0000 C   0  0  1  0  0  0
   10.0121   -4.9769    0.0000 C   0  0  2  0  0  0
    1.3786   -5.5517    0.0000 C   0  0  1  0  0  0
    5.3517   -3.1278    0.0000 N   0  0
    7.1759   -5.2393    0.0000 C   0  0
   10.6951   -4.5021    0.0000 C   0  0
    5.7516   -5.3642    0.0000 C   0  0  2  0  0  0
    4.1648   -3.7400    0.0000 C   0  0
    3.5776   -4.3272    0.0000 C   0  0
    4.0274   -2.9237    0.0000 N   0  0
    4.7645   -2.5405    0.0000 C   0  0
    6.4263   -4.8895    0.0000 C   0  0  1  0  0  0
    4.9769   -3.8649    0.0000 C   0  0
    8.6752   -5.9265    0.0000 O   0  0
   -0.1749   -6.6220    0.0000 O   0  0
    4.4022   -6.3138    0.0000 O   0  0
    2.1740   -4.5271    0.0000 O   0  0
    0.7414   -5.0144    0.0000 C   0  0
    2.9528   -7.0635    0.0000 O   0  0
   10.6201   -3.6858    0.0000 O   0  0
    5.8265   -6.1889    0.0000 C   0  0
   11.4447   -4.8520    0.0000 N   0  0
    7.7756   -3.9399    0.0000 C   0  0
   10.0954   -5.8015    0.0000 C   0  0  2  0  0  0
    1.7409   -8.6003    0.0000 C   0  0
    0.8996   -4.2023    0.0000 C   0  0
    6.3513   -4.0648    0.0000 O   0  0
    0.4665   -8.2379    0.0000 C   0  0
    2.9611   -8.4961    0.0000 C   0  0
    0.9538   -8.8626    0.0000 C   0  0
    6.5762   -6.5345    0.0000 C   0  0
    9.4207   -6.2763    0.0000 C   0  0
    8.4503   -3.4651    0.0000 C   0  0
    7.0260   -3.5901    0.0000 C   0  0
   10.8450   -6.1472    0.0000 C   0  0
    0.2666   -3.6733    0.0000 C   0  0
    1.6742   -3.9357    0.0000 C   0  0
    6.6511   -7.3508    0.0000 C   0  0
    7.2509   -6.0597    0.0000 C   0  0
    9.4124   -7.1009    0.0000 C   0  0
    1.8242   -3.1236    0.0000 C   0  0
    0.4165   -2.8654    0.0000 C   0  0
    1.1994   -2.5863    0.0000 C   0  0
  2 13  1  0
  7  3  1  6
  4  2  1  0
  5 11  1  0
  6 15  1  0
  7  1  1  0
  8  3  1  0
  9  6  1  0
 10  5  1  0
 11  9  1  1
 12  1  1  0
 13 17  1  1
 14  4  1  6
 15  8  1  1
 16 25  1  0
 17 24  1  0
 18 14  1  0
 19 10  1  6
 20 21  1  0
 11 21  1  0
 22 20  1  0
 23 22  2  0
 24 19  1  0
 25 20  2  0
 26  2  2  0
 27  3  2  0
 28  5  2  0
 29  6  2  0
 15 30  1  0
 31 12  2  0
 32 18  2  0
 19 33  1  0
 34 18  1  0
 13 35  1  0
 14 36  1  0
 37  1  1  0
 38 30  1  0
 24 39  1  1
  7 40  1  0
 41 12  1  0
 42 37  1  0
 43 33  1  0
 44 36  1  0
 45 35  1  0
 46 35  1  0
 36 47  1  1
 48 38  1  0
 49 38  2  0
 50 43  1  0
 51 43  1  0
 52 44  1  0
 53 49  1  0
 54 48  2  0
 55 53  2  0
 40 42  1  0
 54 55  1  0
 16 23  1  0
M  END