
  SciTegic12211612372D

 22 24  0  0  0  0            999 V2000
   -4.9153    0.7304    0.0000 C   0  0
   -4.9101   -0.7696    0.0000 C   0  0
   -6.2064   -1.5242    0.0000 C   0  0
   -7.5081   -0.7788    0.0000 C   0  0
   -7.5134    0.7212    0.0000 C   0  0
   -6.2171    1.4758    0.0000 C   0  0
   -3.6204    1.4891    0.0000 C   0  0
   -3.6273    2.9899    0.0000 C   0  0
   -2.3315    3.7471    0.0000 C   0  0
   -2.3370    4.9471    0.0000 O   0  0
   -1.2893    3.1522    0.0000 O   0  0
   -8.5452   -1.3825    0.0000 Cl  0  0
   -2.3155    0.7475    0.0000 C   0  0
   -2.3155   -0.7475    0.0000 C   0  0
   -1.0028   -1.5132    0.0000 C   0  0
   -1.0028    1.5132    0.0000 C   0  0
    0.2917    0.7475    0.0000 C   0  0
    0.2917   -0.7475    0.0000 C   0  0
    1.7138   -1.2033    0.0000 N   0  0
    2.5889    0.0182    0.0000 N   0  0
    1.7138    1.2033    0.0000 N   0  0
    2.0907   -2.3426    0.0000 C   0  0
  1  2  2  0
  2  3  1  0
  3  4  2  0
  4  5  1  0
  5  6  2  0
  6  1  1  0
  1  7  1  0
  7  8  1  0
  8  9  1  0
  9 10  2  0
  9 11  1  0
  4 12  1  0
  7 13  1  0
 13 14  2  0
 14 15  1  0
 15 18  2  0
 17 16  2  0
 16 13  1  0
 17 18  1  0
 18 19  1  0
 19 20  1  0
 20 21  2  0
 21 17  1  0
 19 22  1  0
M  END