
  SciTegic12231509382D

 28 30  0  0  0  0            999 V2000
   -2.5976   -2.4851    0.0000 C   0  0
   -1.8831   -2.8976    0.0000 C   0  0
   -1.8831   -3.7226    0.0000 C   0  0
   -2.5976   -4.1351    0.0000 C   0  0
   -3.3121   -3.7226    0.0000 C   0  0
   -3.3121   -2.8976    0.0000 N   0  0
   -2.5976   -1.6601    0.0000 N   0  0
   -1.8831   -1.2476    0.0000 S   0  0
   -1.4706   -1.9621    0.0000 O   0  0
   -2.2956   -0.5331    0.0000 O   0  0
   -1.1687   -0.8351    0.0000 C   0  0
   -1.1687   -0.0101    0.0000 C   0  0
   -0.4542    0.4024    0.0000 C   0  0
    0.2603   -0.0101    0.0000 C   0  0
    0.2603   -0.8351    0.0000 C   0  0
   -0.4542   -1.2476    0.0000 C   0  0
    0.9748    0.4024    0.0000 N   0  0
    0.9748    1.2274    0.0000 N   0  0
    1.6892    1.6399    0.0000 C   0  0
    1.6892    2.4649    0.0000 C   0  0
    2.4037    2.8774    0.0000 C   0  0
    3.1182    2.4649    0.0000 C   0  0
    3.1182    1.6399    0.0000 C   0  0
    2.4037    1.2274    0.0000 C   0  0
    2.4037    3.7024    0.0000 C   0  0
    3.8326    2.8774    0.0000 O   0  0
    3.1182    4.1149    0.0000 O   0  0
    1.6892    4.1149    0.0000 O   0  0
  1  2  1  0
  1  6  2  0
  1  7  1  0
  2  3  2  0
  3  4  1  0
  4  5  2  0
  5  6  1  0
  7  8  1  0
  9  8  2  0
 10  8  2  0
 11  8  1  0
 11 12  2  0
 16 11  1  0
 12 13  1  0
 13 14  2  0
 15 14  1  0
 14 17  1  0
 15 16  2  0
 17 18  2  0
 19 18  1  0
 19 20  1  0
 19 24  2  0
 20 21  2  0
 21 22  1  0
 21 25  1  0
 22 23  2  0
 22 26  1  0
 23 24  1  0
 25 27  2  0
 25 28  1  0
M  END