
  SciTegic04191613082D

 26 27  0  0  0  0            999 V2000
    3.8912   -5.2578    0.0000 C   0  0
    5.1894   -6.0109    0.0000 C   0  0
    5.1873   -7.5117    0.0000 N   0  0
    6.4855   -8.2648    0.0000 C   0  0
    6.4833   -9.7656    0.0000 C   0  0
    4.1470   -8.1099    0.0000 C   0  0
    3.8933   -3.7570    0.0000 C   0  0
    2.5951   -3.0039    0.0000 C   0  0
    2.5973   -1.5031    0.0000 O   0  0
    1.2990   -0.7500    0.0000 C   0  0
    1.2990    0.7500    0.0000 C   0  0
    0.0000    1.5000    0.0000 C   0  0
   -1.2990    0.7500    0.0000 C   0  0
   -1.2990   -0.7500    0.0000 C   0  0
    0.0000   -1.5000    0.0000 C   0  0
   -2.6003    1.4977    0.0000 N   0  3
   -3.6387    0.8962    0.0000 O   0  0
   -2.6024    2.6977    0.0000 O   0  5
    7.7798  -10.5202    0.0000 C   0  0
    7.7746  -12.0202    0.0000 C   0  0
    6.4729  -12.7657    0.0000 C   0  0
    5.1765  -12.0112    0.0000 C   0  0
    5.1817  -10.5112    0.0000 C   0  0
    6.4647  -14.2665    0.0000 N   0  3
    5.4225  -14.8614    0.0000 O   0  0
    7.5008  -14.8719    0.0000 O   0  5
  1  2  1  0
  2  3  1  0
  3  4  1  0
  4  5  1  0
  3  6  1  0
  1  7  1  0
  7  8  1  0
  8  9  1  0
  9 10  1  0
 10 11  2  0
 11 12  1  0
 12 13  2  0
 13 14  1  0
 14 15  2  0
 15 10  1  0
 16 17  2  0
 16 18  1  0
 13 16  1  0
  5 19  2  0
 19 20  1  0
 20 21  2  0
 21 22  1  0
 22 23  2  0
 23  5  1  0
 24 25  2  0
 24 26  1  0
 21 24  1  0
M  CHG  4  16   1  18  -1  24   1  26  -1
M  END