
          11280714582D 1   1.00000     0.00000     0

 27 29  0     0  0            999 V2000
    3.6875   -2.9667    0.0000 C   0  0  0  0  0  0           0  0  0
    5.0125   -2.8042    0.0000 C   0  0  0  0  0  0           0  0  0
    4.2875   -2.4042    0.0000 C   0  0  0  0  0  0           0  0  0
    4.0292   -3.7167    0.0000 N   0  0  3  0  0  0           0  0  0
    4.8542   -3.6125    0.0000 N   0  0  0  0  0  0           0  0  0
    2.8917   -2.7292    0.0000 C   0  0  0  0  0  0           0  0  0
    2.2042   -3.1917    0.0000 N   0  0  3  0  0  0           0  0  0
    5.6292   -2.2667    0.0000 C   0  0  0  0  0  0           0  0  0
    8.4417   -1.7167    0.0000 C   0  0  0  0  0  0           0  0  0
    2.7750   -1.9125    0.0000 O   0  0  0  0  0  0           0  0  0
    1.5042   -2.7792    0.0000 C   0  0  0  0  0  0           0  0  0
   -1.3500   -1.9542    0.0000 N   0  0  0  0  0  0           0  0  0
    7.8125   -2.2542    0.0000 C   0  0  0  0  0  0           0  0  0
    5.4750   -1.4417    0.0000 O   0  0  0  0  0  0           0  0  0
    8.2750   -0.9042    0.0000 O   0  0  0  0  0  0           0  0  0
    6.4125   -2.5292    0.0000 N   0  0  0  0  0  0           0  0  0
    3.5792   -4.4542    0.0000 C   0  0  0  0  0  0           0  0  0
    2.7542   -4.5750    0.0000 C   0  0  0  0  0  0           0  0  0
    7.0375   -1.9917    0.0000 C   0  0  0  0  0  0           0  0  0
    2.1542   -4.0167    0.0000 C   0  0  0  0  0  0           0  0  0
    9.2167   -1.9792    0.0000 O   0  0  0  0  0  0           0  0  0
    0.7792   -3.1917    0.0000 C   0  0  0  0  0  0           0  0  0
    0.0667   -2.7792    0.0000 C   0  0  3  0  0  0           0  0  0
   -1.3500   -2.7792    0.0000 C   0  0  0  0  0  0           0  0  0
   -0.6458   -1.5417    0.0000 C   0  0  0  0  0  0           0  0  0
    0.0667   -1.9542    0.0000 C   0  0  0  0  0  0           0  0  0
   -0.6458   -3.1917    0.0000 C   0  0  0  0  0  0           0  0  0
  2  3  1  0     0  0
  3  1  2  0     0  0
  4  1  1  0     0  0
  5  4  1  0     0  0
  6  1  1  0     0  0
  7  6  1  0     0  0
  8  2  1  0     0  0
  9 13  1  0     0  0
 10  6  2  0     0  0
 11  7  1  0     0  0
 12 24  1  0     0  0
 13 19  1  0     0  0
 14  8  2  0     0  0
 15  9  2  0     0  0
 16  8  1  0     0  0
 17  4  1  0     0  0
 18 17  1  0     0  0
 19 16  1  0     0  0
 20  7  1  0     0  0
 21  9  1  0     0  0
 22 11  1  0     0  0
 23 22  1  0     0  0
 24 27  1  0     0  0
 25 26  1  0     0  0
 26 23  1  0     0  0
 27 23  1  0     0  0
  2  5  2  0     0  0
 18 20  1  0     0  0
 12 25  1  0     0  0
M  END