
  SciTegic09291413392D

 18 20  0  0  0  0            999 V2000
   10.5725   -7.6766    0.0000 C   0  0
   10.5714   -8.4961    0.0000 C   0  0
   11.2794   -8.9051    0.0000 C   0  0
   11.9891   -8.4957    0.0000 C   0  0
   11.9863   -7.6730    0.0000 C   0  0
   11.2777   -7.2677    0.0000 C   0  0
   12.6924   -7.2617    0.0000 N   0  0
    9.8687   -7.2640    0.0000 C   0  0
    9.8775   -6.4471    0.0000 C   0  0
    8.4614   -7.2579    0.0000 C   0  0
    9.1650   -7.6667    0.0000 C   0  0
    8.4643   -6.4378    0.0000 C   0  0
    9.1736   -6.0377    0.0000 C   0  0
    9.1808   -5.2252    0.0000 C   0  0
    8.4794   -4.8119    0.0000 N   0  0
    7.7693   -5.2169    0.0000 C   0  0
    7.7656   -6.0281    0.0000 N   0  0
    9.8921   -4.8229    0.0000 N   0  0
  1  2  2  0
  2  3  1  0
  3  4  2  0
  4  5  1  0
  5  6  2  0
  6  1  1  0
  5  7  1  0
  1  8  1  0
  8  9  2  0
  9 13  1  0
 12 10  1  0
 10 11  2  0
 11  8  1  0
 12 13  1  0
 13 14  2  0
 14 15  1  0
 15 16  2  0
 16 17  1  0
 17 12  2  0
 14 18  1  0
M  END