
          11280715462D 1   1.00000     0.00000     0

 34 37  0     1  0            999 V2000
   -0.1333    0.0500    0.0000 N   0  0  3  0  0  0           0  0  0
   -0.3708    0.7875    0.0000 C   0  0  0  0  0  0           0  0  0
    0.2417    1.2500    0.0000 N   0  0  3  0  0  0           0  0  0
   -0.7458   -0.4042    0.0000 C   0  0  0  0  0  0           0  0  0
    0.8417    0.7958    0.0000 C   0  0  0  0  0  0           0  0  0
    0.6167    0.0500    0.0000 C   0  0  1  0  0  0           0  0  0
   -1.1208    0.7958    0.0000 N   0  0  0  0  0  0           0  0  0
   -0.7458   -1.1792    0.0000 S   0  0  3  0  0  0           0  0  0
   -1.3458    0.0625    0.0000 C   0  0  0  0  0  0           0  0  0
    0.2417    2.0333    0.0000 C   0  0  0  0  0  0           0  0  0
    0.8917    2.4208    0.0000 C   0  0  0  0  0  0           0  0  0
   -0.4083    2.4208    0.0000 C   0  0  0  0  0  0           0  0  0
    1.3292   -0.1500    0.0000 C   0  0  0  0  0  0           0  0  0
    1.5542    1.0333    0.0000 O   0  0  0  0  0  0           0  0  0
   -0.0083   -1.1875    0.0000 O   0  0  0  0  0  0           0  0  0
   -1.4958   -1.1792    0.0000 O   0  0  0  0  0  0           0  0  0
    0.8917    3.1958    0.0000 C   0  0  0  0  0  0           0  0  0
   -0.4083    3.1958    0.0000 C   0  0  0  0  0  0           0  0  0
    0.2417    3.5833    0.0000 C   0  0  0  0  0  0           0  0  0
    0.6042   -0.7292    0.0000 C   0  0  0  0  0  0           0  0  0
    1.3292   -0.9292    0.0000 C   0  0  0  0  0  0           0  0  0
   -0.7458   -1.9542    0.0000 C   0  0  0  0  0  0           0  0  0
    1.3167   -2.4792    0.0000 C   0  0  0  0  0  0           0  0  0
   -1.0583    3.5833    0.0000 Cl  0  0  0  0  0  0           0  0  0
    1.5292    3.5833    0.0000 Cl  0  0  0  0  0  0           0  0  0
    1.3042   -3.2542    0.0000 Br  0  0  0  0  0  0           0  0  0
    1.9667   -1.3125    0.0000 C   0  0  0  0  0  0           0  0  0
    0.6667   -1.3042    0.0000 C   0  0  0  0  0  0           0  0  0
    1.9667   -2.0917    0.0000 C   0  0  0  0  0  0           0  0  0
    0.6667   -2.0875    0.0000 C   0  0  0  0  0  0           0  0  0
   -3.4458   -1.9292    0.0000 O   0  0  0  0  0  0           0  0  0
   -2.7833   -2.3292    0.0000 C   0  0  0  0  0  0           0  0  0
   -1.4333   -2.3375    0.0000 C   0  0  0  0  0  0           0  0  0
   -2.0958   -1.9500    0.0000 C   0  0  0  0  0  0           0  0  0
  2  1  1  0     0  0
  3  2  1  0     0  0
  4  1  1  0     0  0
  5  6  1  0     0  0
  6  1  1  0     0  0
  7  2  2  0     0  0
  8  4  1  0     0  0
  9  4  2  0     0  0
 10  3  1  0     0  0
 11 10  2  0     0  0
 12 10  1  0     0  0
  6 13  1  1     0  0
 14  5  2  0     0  0
 15  8  2  0     0  0
 16  8  2  0     0  0
 17 11  1  0     0  0
 18 12  2  0     0  0
 19 18  1  0     0  0
  6 20  1  6     0  0
 21 13  1  0     0  0
 22  8  1  0     0  0
 23 30  2  0     0  0
 24 18  1  0     0  0
 25 17  1  0     0  0
 26 23  1  0     0  0
 27 21  1  0     0  0
 28 21  2  0     0  0
 29 27  2  0     0  0
 30 28  1  0     0  0
 31 32  1  0     0  0
 32 34  1  0     0  0
 33 22  1  0     0  0
 34 33  1  0     0  0
  3  5  1  0     0  0
  7  9  1  0     0  0
 29 23  1  0     0  0
 17 19  2  0     0  0
M  END