
  SciTegic01111613442D

 16 17  0  0  0  0            999 V2000
    0.0000   -0.7486    0.0000 C   0  0
   -1.2964   -1.4973    0.0000 C   0  0
   -1.2907   -2.9981    0.0000 O   0  0
    0.0000    0.7486    0.0000 C   0  0
   -2.5870   -3.7544    0.0000 C   0  0
   -2.5812   -5.2552    0.0000 C   0  0
   -3.8729   -7.2115    0.0000 N   0  0
   -1.5395   -5.8509    0.0000 O   0  0
   -2.6111    0.7486    0.0000 C   0  0
   -2.6111   -0.7486    0.0000 C   0  0
   -3.8775   -6.0115    0.0000 C   0  0
    1.2964   -1.4973    0.0000 C   0  0
   -1.2964    1.4973    0.0000 C   0  0
    1.2964    1.4973    0.0000 C   0  0
    2.5929   -0.7486    0.0000 C   0  0
    2.5929    0.7486    0.0000 C   0  0
  2  1  1  0
  3  2  1  0
  4  1  1  0
  5  3  1  0
  6  5  1  0
  7 11  1  0
  8  6  1  0
  9 13  2  0
 10  2  2  0
 11  6  1  0
 12  1  2  0
 13  4  1  0
 14  4  2  0
 15 12  1  0
 16 15  2  0
 10  9  1  0
 16 14  1  0
M  END