
  SciTegic01181116592D

 17 18  0  0  0  0            999 V2000
   13.4186   -6.6244    0.0000 C   0  0
   12.5914   -6.6061    0.0000 C   0  0
   12.1639   -7.3123    0.0000 C   0  0
   12.5623   -8.0371    0.0000 C   0  0
   13.3927   -8.0514    0.0000 C   0  0
   13.8166   -7.3446    0.0000 C   0  0
   11.3412   -7.2970    0.0000 C   0  0
   10.9444   -6.5724    0.0000 C   0  0
   10.1203   -6.5548    0.0000 C   0  0
    9.6922   -7.2610    0.0000 C   0  0
   10.0940   -7.9864    0.0000 C   0  0
   10.9168   -8.0005    0.0000 C   0  0
    8.8636   -7.2462    0.0000 C   0  0
    8.4652   -6.5238    0.0000 O   0  0
    8.4372   -7.9524    0.0000 O   0  0
   13.8456   -5.9185    0.0000 C   0  0
   14.6704   -5.9354    0.0000 C   0  0
  8  9  1  0
  4  5  1  0
  9 10  2  0
  2  3  1  0
 10 11  1  0
  5  6  2  0
 11 12  2  0
 12  7  1  0
  3  7  1  0
  6  1  1  0
  1  2  2  0
  3  4  2  0
 13 14  1  0
 13 15  2  0
 10 13  1  0
  7  8  2  0
  1 16  1  0
 16 17  1  0
M  END