
          11280715502D 1   1.00000     0.00000     0

 45 49  0     1  0            999 V2000
   -1.7023    0.3446    0.0000 C   0  0  0  0  0  0           0  0  0
   -1.2826   -0.3683    0.0000 C   0  0  0  0  0  0           0  0  0
   -0.4571   -0.3603    0.0000 C   0  0  0  0  0  0           0  0  0
   -0.0504    0.3599    0.0000 C   0  0  0  0  0  0           0  0  0
   -0.4753    1.0736    0.0000 C   0  0  0  0  0  0           0  0  0
   -1.2993    1.0621    0.0000 C   0  0  0  0  0  0           0  0  0
   -0.0725    1.7936    0.0000 C   0  0  0  0  0  0           0  0  0
    0.7524    1.8049    0.0000 N   0  0  3  0  0  0           0  0  0
   -0.4948    2.5024    0.0000 O   0  0  0  0  0  0           0  0  0
    1.1732    1.0933    0.0000 C   0  0  1  0  0  0           0  0  0
    1.9946    1.1025    0.0000 C   0  0  0  0  0  0           0  0  0
    2.4012    1.8207    0.0000 N   0  0  3  0  0  0           0  0  0
    1.9802    2.5314    0.0000 C   0  0  0  0  0  0           0  0  0
    1.1526    2.5237    0.0000 C   0  0  0  0  0  0           0  0  0
    0.7685    0.3743    0.0000 C   0  0  0  0  0  0           0  0  0
    1.1804   -0.3385    0.0000 C   0  0  0  0  0  0           0  0  0
    0.8500   -1.0926    0.0000 C   0  0  0  0  0  0           0  0  0
    1.4621   -1.6433    0.0000 N   0  0  0  0  0  0           0  0  0
    2.0034   -0.4261    0.0000 C   0  0  0  0  0  0           0  0  0
    2.1740   -1.2302    0.0000 C   0  0  0  0  0  0           0  0  0
    2.9541   -1.4829    0.0000 C   0  0  0  0  0  0           0  0  0
    3.5644   -0.9327    0.0000 C   0  0  0  0  0  0           0  0  0
    3.3892   -0.1264    0.0000 C   0  0  0  0  0  0           0  0  0
    2.6093    0.1226    0.0000 C   0  0  0  0  0  0           0  0  0
   -0.0459   -1.0725    0.0000 C   0  0  3  0  0  0           0  0  0
    0.6645   -0.6529    0.0000 F   0  0  0  0  0  0           0  0  0
    0.3701   -1.7849    0.0000 F   0  0  0  0  0  0           0  0  0
   -0.7584   -1.4884    0.0000 F   0  0  0  0  0  0           0  0  0
   -2.5273    0.3363    0.0000 C   0  0  3  0  0  0           0  0  0
   -2.5244   -0.4893    0.0000 F   0  0  0  0  0  0           0  0  0
   -2.5408    1.1608    0.0000 F   0  0  0  0  0  0           0  0  0
   -3.3548    0.3268    0.0000 F   0  0  0  0  0  0           0  0  0
    3.2261    1.8289    0.0000 C   0  0  0  0  0  0           0  0  0
    3.6316    2.5474    0.0000 C   0  0  0  0  0  0           0  0  0
    4.4565    2.5555    0.0000 N   0  0  0  0  0  0           0  0  0
    3.2120    3.2578    0.0000 C   0  0  0  0  0  0           0  0  0
    4.8761    1.8452    0.0000 O   0  0  0  0  0  0           0  0  0
    5.7010    1.8533    0.0000 C   0  0  0  0  0  0           0  0  0
    6.1206    1.1430    0.0000 C   0  0  0  0  0  0           0  0  0
    6.9455    1.1511    0.0000 N   0  0  3  0  0  0           0  0  0
    7.3585    0.4397    0.0000 C   0  0  0  0  0  0           0  0  0
    8.1799    0.4458    0.0000 C   0  0  0  0  0  0           0  0  0
    8.5892    1.1625    0.0000 S   0  0  0  0  0  0           0  0  0
    8.1709    1.8747    0.0000 C   0  0  0  0  0  0           0  0  0
    7.3432    1.8702    0.0000 C   0  0  0  0  0  0           0  0  0
  2  3  1  0     0  0
 21 22  2  0     0  0
  5  6  2  0     0  0
 22 23  1  0     0  0
  6  1  1  0     0  0
 23 24  2  0     0  0
 24 19  1  0     0  0
  1  2  2  0     0  0
  3 25  1  0     0  0
  8 14  1  0     0  0
 25 26  1  0     0  0
 10 11  1  0     0  0
 25 27  1  0     0  0
 11 12  1  0     0  0
 25 28  1  0     0  0
 12 13  1  0     0  0
  1 29  1  0     0  0
 13 14  1  0     0  0
 29 30  1  0     0  0
  5  7  1  0     0  0
 29 31  1  0     0  0
 10 15  1  1     0  0
 29 32  1  0     0  0
  3  4  2  0     0  0
 12 33  1  0     0  0
 15 16  1  0     0  0
 33 34  1  0     0  0
 16 17  2  0     0  0
 34 35  2  0     0  0
  7  8  1  0     0  0
 34 36  1  0     0  0
 35 37  1  0     0  0
 17 18  1  0     0  0
 37 38  1  0     0  0
 18 20  1  0     0  0
 38 39  1  0     0  0
 19 16  1  0     0  0
 39 40  1  0     0  0
 40 41  1  0     0  0
  7  9  2  0     0  0
  8 10  1  0     0  0
 19 20  2  0     0  0
  4  5  1  0     0  0
 20 21  1  0     0  0
 40 45  1  0     0  0
 41 42  1  0     0  0
 42 43  1  0     0  0
 43 44  1  0     0  0
 44 45  1  0     0  0
M  END