
  SciTegic10191216002D

 26 28  0  0  0  0            999 V2000
    0.7819  -11.8291    0.0000 C   0  0
    0.7807  -12.6565    0.0000 C   0  0
    1.4956  -13.0694    0.0000 C   0  0
    2.2120  -12.6560    0.0000 C   0  0
    2.2091  -11.8255    0.0000 C   0  0
    1.4938  -11.4164    0.0000 C   0  0
    1.4982  -13.8934    0.0000 C   0  0
    1.4922  -15.5424    0.0000 C   0  0
    2.2085  -15.1313    0.0000 N   0  0
    2.2124  -14.3037    0.0000 C   0  0
    0.7796  -15.1258    0.0000 C   0  0
    0.7828  -14.3065    0.0000 C   0  0
    0.0760  -13.8959    0.0000 C   0  0
   -0.6345  -14.3034    0.0000 N   0  0
   -0.6337  -15.1259    0.0000 C   0  0
    0.0737  -15.5328    0.0000 C   0  0
   -1.3477  -15.5393    0.0000 O   0  0
    2.9215  -15.5464    0.0000 C   0  0
   -2.0627  -15.1277    0.0000 C   0  0
   -2.7766  -15.5411    0.0000 C   0  0
   -3.4916  -15.1295    0.0000 C   0  0
   -4.2056  -15.5429    0.0000 N   0  0
   -4.9206  -15.1313    0.0000 C   0  0
   -5.6345  -15.5447    0.0000 C   0  0
   -4.2045  -16.3679    0.0000 C   0  0
   -4.9185  -16.7813    0.0000 C   0  0
  6  1  1  0
 12 13  1  0
  7 12  1  0
 13 14  2  0
  1  2  2  0
 14 15  1  0
  3  4  2  0
 15 16  2  0
 16 11  1  0
 15 17  1  0
  4  5  1  0
  9 18  1  0
  7 10  1  0
 17 19  1  0
 11  8  1  0
 19 20  1  0
  8  9  1  0
 20 21  1  0
  9 10  1  0
 21 22  1  0
  7  3  1  0
 22 23  1  0
  2  3  1  0
 23 24  1  0
  5  6  2  0
 22 25  1  0
 11 12  2  0
 25 26  1  0
M  END