
  CDK    9/16/09,9:56

 98100  0  0  0  0  0  0  0  0999 V2000
    4.6802   -5.5374    0.0000 C   0  0  0  0  0  0  0  0  0  0  0  0
    5.3215   -4.8538    0.0000 C   0  0  0  0  0  0  0  0  0  0  0  0
    5.4847   -5.3124    0.0000 C   0  0  0  0  0  0  0  0  0  0  0  0
    6.0328   -5.1164    0.0000 C   0  0  0  0  0  0  0  0  0  0  0  0
    6.2374   -5.6151    0.0000 C   0  0  0  0  0  0  0  0  0  0  0  0
    6.7807   -4.9309    0.0000 C   0  0  0  0  0  0  0  0  0  0  0  0
    5.4820   -4.4640    0.0000 C   0  0  0  0  0  0  0  0  0  0  0  0
    6.0386   -3.8020    0.0000 C   0  0  0  0  0  0  0  0  0  0  0  0
    5.3170   -4.0583    0.0000 C   0  0  0  0  0  0  0  0  0  0  0  0
    6.7865   -4.1120    0.0000 C   0  0  0  0  0  0  0  0  0  0  0  0
    6.0552   -2.9875    0.0000 N   0  0  0  0  0  0  0  0  0  0  0  0
    7.4917   -5.3416    0.0000 C   0  0  0  0  0  0  0  0  0  0  0  0
    8.2062   -4.9293    0.0000 C   0  0  0  0  0  0  0  0  0  0  0  0
    8.9206   -5.3420    0.0000 C   0  0  0  0  0  0  0  0  0  0  0  0
    9.6352   -4.9297    0.0000 N   0  0  0  0  0  0  0  0  0  0  0  0
    4.6042   -4.4375    0.0000 C   0  0  0  0  0  0  0  0  0  0  0  0
    3.8888   -4.8483    0.0000 C   0  0  0  0  0  0  0  0  0  0  0  0
    3.1752   -4.4342    0.0000 C   0  0  0  0  0  0  0  0  0  0  0  0
    2.4598   -4.8451    0.0000 N   0  0  0  0  0  0  0  0  0  0  0  0
    3.1771   -3.6092    0.0000 O   0  0  0  0  0  0  0  0  0  0  0  0
    5.4792   -6.1333    0.0000 C   0  0  0  0  0  0  0  0  0  0  0  0
    6.1909   -6.5506    0.0000 C   0  0  0  0  0  0  0  0  0  0  0  0
    6.1853   -7.3756    0.0000 C   0  0  0  0  0  0  0  0  0  0  0  0
    6.8970   -7.7928    0.0000 O   0  0  0  0  0  0  0  0  0  0  0  0
    5.4681   -7.7833    0.0000 N   0  0  0  0  0  0  0  0  0  0  0  0
    8.9204   -6.1670    0.0000 O   0  0  0  0  0  0  0  0  0  0  0  0
    2.4580   -5.6701    0.0000 C   0  0  0  0  0  0  0  0  0  0  0  0
    1.7426   -6.0810    0.0000 C   0  0  0  0  0  0  0  0  0  0  0  0
    3.1715   -6.0842    0.0000 C   0  0  0  0  0  0  0  0  0  0  0  0
    1.0290   -5.6669    0.0000 C   0  0  0  0  0  0  0  0  0  0  0  0
    0.3136   -6.0778    0.0000 P   0  0  0  0  0  0  0  0  0  0  0  0
   -0.4042   -6.4833    0.0000 C   0  0  0  0  0  0  0  0  0  0  0  0
    0.7220   -6.7947    0.0000 O   0  0  0  0  0  0  0  0  0  0  0  0
   -0.0952   -5.3613    0.0000 O   0  0  0  0  0  0  0  0  0  0  0  0
   -1.1147   -6.0642    0.0000 C   0  0  0  0  0  0  0  0  0  0  0  0
   -1.8330   -6.4700    0.0000 C   0  0  0  0  0  0  0  0  0  0  0  0
   -1.1070   -5.2392    0.0000 C   0  0  0  0  0  0  0  0  0  0  0  0
   -1.8176   -4.8200    0.0000 C   0  0  0  0  0  0  0  0  0  0  0  0
   -1.8099   -3.9951    0.0000 C   0  0  0  0  0  0  0  0  0  0  0  0
   -1.0914   -3.5863    0.0000 O   0  0  0  0  0  0  0  0  0  0  0  0
   -2.5203   -3.5729    0.0000 O   0  0  0  0  0  0  0  0  0  0  0  0
   -2.5462   -6.0536    0.0000 O   0  0  0  0  0  0  0  0  0  0  0  0
   -1.8434   -7.2977    0.0000 O   0  0  0  0  0  0  0  0  0  0  0  0
    5.4626   -8.6083    0.0000 C   0  0  0  0  0  0  0  0  0  0  0  0
    4.7454   -9.0160    0.0000 C   0  0  0  0  0  0  0  0  0  0  0  0
    6.1743   -9.0256    0.0000 C   0  0  0  0  0  0  0  0  0  0  0  0
    6.8915   -8.6179    0.0000 C   0  0  0  0  0  0  0  0  0  0  0  0
    7.6032   -9.0352    0.0000 P   0  0  0  0  0  0  0  0  0  0  0  0
    8.3125   -9.4458    0.0000 C   0  0  0  0  0  0  0  0  0  0  0  0
    7.1879   -9.7480    0.0000 O   0  0  0  0  0  0  0  0  0  0  0  0
    8.0232   -8.3251    0.0000 O   0  0  0  0  0  0  0  0  0  0  0  0
    9.0275   -9.0342    0.0000 C   0  0  0  0  0  0  0  0  0  0  0  0
    9.7414   -9.4476    0.0000 C   0  0  0  0  0  0  0  0  0  0  0  0
    9.0285   -8.2092    0.0000 C   0  0  0  0  0  0  0  0  0  0  0  0
    9.7404  -10.2726    0.0000 C   0  0  0  0  0  0  0  0  0  0  0  0
   10.4544  -10.6860    0.0000 C   0  0  0  0  0  0  0  0  0  0  0  0
   10.4568  -11.5114    0.0000 O   0  0  0  0  0  0  0  0  0  0  0  0
   11.1728  -10.2747    0.0000 O   0  0  0  0  0  0  0  0  0  0  0  0
    9.7421   -7.7960    0.0000 O   0  0  0  0  0  0  0  0  0  0  0  0
    8.3131   -7.7942    0.0000 O   0  0  0  0  0  0  0  0  0  0  0  0
    4.0309   -8.6009    0.0000 O   0  0  0  0  0  0  0  0  0  0  0  0
    4.7371   -9.8432    0.0000 O   0  0  0  0  0  0  0  0  0  0  0  0
   10.3496   -5.3424    0.0000 C   0  0  0  0  0  0  0  0  0  0  0  0
   11.0641   -4.9301    0.0000 C   0  0  0  0  0  0  0  0  0  0  0  0
   10.3493   -6.1674    0.0000 C   0  0  0  0  0  0  0  0  0  0  0  0
   11.7785   -5.3429    0.0000 C   0  0  0  0  0  0  0  0  0  0  0  0
   12.4931   -4.9306    0.0000 P   0  0  0  0  0  0  0  0  0  0  0  0
   13.2042   -4.5125    0.0000 C   0  0  0  0  0  0  0  0  0  0  0  0
   12.9083   -5.6435    0.0000 O   0  0  0  0  0  0  0  0  0  0  0  0
   12.0780   -4.2176    0.0000 O   0  0  0  0  0  0  0  0  0  0  0  0
   13.9219   -4.9194    0.0000 C   0  0  0  0  0  0  0  0  0  0  0  0
   14.6331   -4.5012    0.0000 C   0  0  0  0  0  0  0  0  0  0  0  0
   13.9284   -5.7443    0.0000 C   0  0  0  0  0  0  0  0  0  0  0  0
   14.6266   -3.6763    0.0000 C   0  0  0  0  0  0  0  0  0  0  0  0
   15.3378   -3.2581    0.0000 C   0  0  0  0  0  0  0  0  0  0  0  0
   16.0585   -3.6622    0.0000 O   0  0  0  0  0  0  0  0  0  0  0  0
   15.3343   -2.4304    0.0000 O   0  0  0  0  0  0  0  0  0  0  0  0
   13.2178   -6.1652    0.0000 O   0  0  0  0  0  0  0  0  0  0  0  0
   14.6467   -6.1539    0.0000 O   0  0  0  0  0  0  0  0  0  0  0  0
    9.6362   -6.5813    0.0000 O   0  0  0  0  0  0  0  0  0  0  0  0
   11.0651   -6.5817    0.0000 O   0  0  0  0  0  0  0  0  0  0  0  0
    5.3493   -2.5606    0.0000 C   0  0  0  0  0  0  0  0  0  0  0  0
    5.3661   -1.7357    0.0000 C   0  0  0  0  0  0  0  0  0  0  0  0
    4.6266   -2.9584    0.0000 O   0  0  0  0  0  0  0  0  0  0  0  0
    6.0888   -1.3379    0.0000 C   0  0  0  0  0  0  0  0  0  0  0  0
    6.1056   -0.5130    0.0000 C   0  0  0  0  0  0  0  0  0  0  0  0
    6.8284   -0.1152    0.0000 C   0  0  0  0  0  0  0  0  0  0  0  0
    7.5343   -0.5422    0.0000 C   0  0  0  0  0  0  0  0  0  0  0  0
    8.2570   -0.1443    0.0000 N   0  0  0  0  0  0  0  0  0  0  0  0
    8.9629   -0.5713    0.0000 C   0  0  0  0  0  0  0  0  0  0  0  0
    9.6857   -0.1734    0.0000 O   0  0  0  0  0  0  0  0  0  0  0  0
    8.9461   -1.3961    0.0000 O   0  0  0  0  0  0  0  0  0  0  0  0
   10.3916   -0.6004    0.0000 C   0  0  0  0  0  0  0  0  0  0  0  0
   11.1000   -1.0125    0.0000 C   0  0  0  0  0  0  0  0  0  0  0  0
    9.9707   -1.3099    0.0000 C   0  0  0  0  0  0  0  0  0  0  0  0
   10.8172    0.1063    0.0000 C   0  0  0  0  0  0  0  0  0  0  0  0
    3.1727   -6.9083    0.0000 O   0  0  0  0  0  0  0  0  0  0  0  0
    3.8899   -5.6724    0.0000 O   0  0  0  0  0  0  0  0  0  0  0  0
 47 48  1  0  0  0  0 
  3  5  1  0  0  0  0 
 48 49  1  0  0  0  0 
  4  6  1  0  0  0  0 
 48 50  1  0  0  0  0 
  5  6  1  0  0  0  0 
 48 51  2  0  0  0  0 
  7  8  1  0  0  0  0 
 49 52  1  0  0  0  0 
  6 12  1  0  0  0  0 
 52 53  1  0  0  0  0 
  3  7  1  0  0  0  0 
 52 54  1  0  0  0  0 
 12 13  1  0  0  0  0 
 53 55  1  0  0  0  0 
 55 56  1  0  0  0  0 
 27 19  1  0  0  0  0 
  2  9  1  0  0  0  0 
 56 57  1  0  0  0  0 
 56 58  2  0  0  0  0 
 27 28  1  0  0  0  0 
 13 14  1  0  0  0  0 
 54 59  1  0  0  0  0 
 54 60  2  0  0  0  0 
 27 29  1  6  0  0  0 
  6 10  1  0  0  0  0 
 45 61  1  0  0  0  0 
 45 62  2  0  0  0  0 
 28 30  1  0  0  0  0 
 63 15  1  1  0  0  0 
 14 15  1  0  0  0  0 
 63 64  1  0  0  0  0 
 30 31  1  0  0  0  0 
 63 65  1  0  0  0  0 
 10  8  1  0  0  0  0 
 64 66  1  0  0  0  0 
 31 32  1  0  0  0  0 
 66 67  1  0  0  0  0 
  2 16  1  0  0  0  0 
 67 68  1  0  0  0  0 
 31 33  1  0  0  0  0 
 67 69  1  0  0  0  0 
  8  9  1  0  0  0  0 
 67 70  2  0  0  0  0 
 31 34  2  0  0  0  0 
 68 71  1  0  0  0  0 
 16 17  1  0  0  0  0 
 71 72  1  0  0  0  0 
 32 35  1  0  0  0  0 
 71 73  1  0  0  0  0 
  8 11  1  0  0  0  0 
 72 74  1  0  0  0  0 
 35 36  1  0  0  0  0 
 74 75  1  0  0  0  0 
 17 18  1  0  0  0  0 
 35 37  1  0  0  0  0 
 75 76  1  0  0  0  0 
 75 77  2  0  0  0  0 
 18 19  1  0  0  0  0 
 37 38  1  0  0  0  0 
 73 78  1  0  0  0  0 
 73 79  2  0  0  0  0 
 18 20  2  0  0  0  0 
 38 39  1  0  0  0  0 
 65 80  1  0  0  0  0 
 65 81  2  0  0  0  0 
  1  2  1  0  0  0  0 
 11 82  1  0  0  0  0 
  3 21  1  0  0  0  0 
 82 83  1  0  0  0  0 
 39 40  1  0  0  0  0 
 82 84  2  0  0  0  0 
 39 41  2  0  0  0  0 
 83 85  1  0  0  0  0 
 21 22  1  0  0  0  0 
 85 86  1  0  0  0  0 
  1  3  1  0  0  0  0 
 86 87  1  0  0  0  0 
 36 42  1  0  0  0  0 
 87 88  1  0  0  0  0 
 36 43  2  0  0  0  0 
 88 89  1  0  0  0  0 
 22 23  1  0  0  0  0 
 89 90  1  0  0  0  0 
 44 25  1  1  0  0  0 
 90 91  1  0  0  0  0 
 23 24  2  0  0  0  0 
 90 92  2  0  0  0  0 
 44 45  1  0  0  0  0 
 91 93  1  0  0  0  0 
  2  4  1  0  0  0  0 
 93 94  1  0  0  0  0 
 44 46  1  0  0  0  0 
 93 95  1  0  0  0  0 
 23 25  1  0  0  0  0 
 93 96  1  0  0  0  0 
 46 47  1  0  0  0  0 
 14 26  2  0  0  0  0 
 29 97  1  0  0  0  0 
 29 98  2  0  0  0  0 
M  END