
  SciTegic11261411042D

 33 36  0  0  0  0            999 V2000
   -3.0847    2.2000    0.0000 S   0  0
   -3.7991    2.6125    0.0000 O   0  0
   -2.6722    2.9145    0.0000 O   0  0
   -0.9413    0.9625    0.0000 O   0  0
   -4.7347   -2.0868    0.0000 O   0  0
    1.9558    1.8645    0.0000 O   0  0
   -2.3702    1.7875    0.0000 N   0  0
   -4.7347   -0.6579    0.0000 N   0  0
   -0.2268    2.2000    0.0000 N   0  0
   -3.4972    1.4855    0.0000 C   0  0
   -3.4972    0.0566    0.0000 C   0  0
   -4.3222    0.0566    0.0000 C   0  0
   -3.0847    0.7711    0.0000 C   0  0
   -1.6557    2.2000    0.0000 C   0  0
   -4.3222    1.4855    0.0000 C   0  0
   -4.7347    0.7711    0.0000 C   0  0
   -0.9413    1.7875    0.0000 C   0  0
   -3.0847   -0.6579    0.0000 C   0  0
   -1.6557    3.0250    0.0000 C   0  0
   -4.3222   -1.3723    0.0000 C   0  0
   -3.4972   -1.3723    0.0000 C   0  0
   -2.3702    3.4375    0.0000 C   0  0
    0.4877    1.7875    0.0000 C   0  0
    1.2022    2.2000    0.0000 C   0  0
   -3.0847    3.0250    0.0000 C   0  0
   -2.3702    4.2625    0.0000 C   0  0
   -0.2268    3.0250    0.0000 C   0  0
    1.2884    3.0205    0.0000 C   0  0
   -3.7991    3.4375    0.0000 C   0  0
   -3.0847    4.6750    0.0000 C   0  0
    2.5079    2.4776    0.0000 C   0  0
    2.0954    3.1920    0.0000 C   0  0
   -3.7991    4.2625    0.0000 C   0  0
  1  2  2  0
  1  3  2  0
  1  7  1  0
  1 10  1  0
  4 17  2  0
  5 20  2  0
  6 24  1  0
  6 31  1  0
  7 14  1  0
  8 12  1  0
  8 20  1  0
  9 17  1  0
  9 23  1  0
  9 27  1  0
 10 13  1  0
 10 15  2  0
 11 12  1  0
 11 13  2  0
 11 18  1  0
 12 16  2  0
 14 17  1  0
 14 19  1  0
 15 16  1  0
 18 21  1  0
 19 22  1  0
 20 21  1  0
 22 25  2  0
 22 26  1  0
 23 24  1  0
 24 28  2  0
 25 29  1  0
 26 30  2  0
 28 32  1  0
 29 33  2  0
 30 33  1  0
 31 32  2  0
M  END