
  SciTegic10261210422D

 45 50  0  0  1  0            999 V2000
    5.9175   -2.5490    0.0000 C   0  0
    6.5705   -2.0494    0.0000 N   0  0
    5.2354   -2.0774    0.0000 C   0  0
    5.4738   -1.2873    0.0000 C   0  0
    6.2975   -1.2728    0.0000 C   0  0
    6.6945   -0.5562    0.0000 C   0  0
    6.2725    0.1505    0.0000 C   0  0
    5.4488    0.1360    0.0000 C   0  0
    5.0473   -0.5852    0.0000 C   0  0
    5.1242   -3.8986    0.0000 C   0  0
    5.1415   -4.7238    0.0000 N   0  0
    5.8648   -5.1215    0.0000 C   0  0  1  0  0  0
    5.8821   -5.9467    0.0000 C   0  0
    6.5707   -4.6939    0.0000 C   0  0
    7.2941   -5.0915    0.0000 C   0  0
    7.3095   -5.9161    0.0000 C   0  0
    8.0319   -6.3136    0.0000 C   0  0
    8.7389   -5.8860    0.0000 C   0  0
    8.7188   -5.0566    0.0000 C   0  0
    7.9959   -4.6628    0.0000 C   0  0
    9.4233   -4.6265    0.0000 I   0  0
    5.1777   -6.3772    0.0000 C   0  0
    5.9486   -3.8976    0.0000 O   0  0
    4.5341   -3.3216    0.0000 C   0  0  1  0  0  0
    3.1217   -4.1772    0.0000 O   0  0
    3.8450   -4.5747    0.0000 C   0  0
    4.5509   -4.1472    0.0000 N   0  0
    3.8104   -2.9244    0.0000 C   0  0
    0.3304   -6.0568    0.0000 C   0  0
    0.9719   -5.3729    0.0000 C   0  0
    1.1352   -5.8317    0.0000 C   0  0
    1.6837   -5.6356    0.0000 C   0  0
    1.8882   -6.1346    0.0000 C   0  0
    2.4318   -5.4500    0.0000 C   0  0
    1.1325   -4.9788    0.0000 C   0  0
    1.6894   -4.3206    0.0000 C   0  0
    0.9674   -4.5771    0.0000 C   0  0
    2.4376   -4.6308    0.0000 C   0  0
    3.8623   -5.4000    0.0000 O   0  0
    5.2440   -2.9013    0.0000 C   0  0
    9.4622   -6.2821    0.0000 N   0  0
   10.1676   -5.8536    0.0000 N   0  3
   10.8731   -5.4250    0.0000 N   0  5
    5.1983   -7.2022    0.0000 O   0  0
    4.4528   -5.9824    0.0000 O   0  0
  4  3  1  0
 10 23  2  0
 11 12  1  0
 10 24  1  0
  3  1  2  0
 12 13  1  6
 25 26  1  0
  4  5  2  0
 26 27  1  0
 27 24  1  0
 12 14  1  0
 24 28  1  1
  4  9  1  0
 14 15  1  0
  5  6  1  0
 15 16  2  0
  6  7  2  0
 16 17  1  0
  7  8  1  0
 17 18  2  0
  8  9  2  0
 18 19  1  0
 29 30  1  0
 29 31  1  0
 30 32  1  0
 31 33  1  0
 32 34  1  0
 33 34  1  0
 35 36  1  0
 31 35  1  0
 30 37  1  0
 34 38  1  0
 38 36  1  0
 36 37  1  0
 38 25  1  0
 26 39  2  0
 19 20  2  0
 20 15  1  0
 24 40  1  6
 40  3  1  0
  1  2  1  0
 19 21  1  0
 10 11  1  0
  2  5  1  0
 41 42  2  0
 42 43  2  0
 18 41  1  0
 22 44  1  0
 13 22  1  0
 22 45  2  0
M  CHG  2  42   1  43  -1
M  ISO  1  21 125
M  END