
  SciTegic11201309402D

 18 19  0  0  0  0            999 V2000
   -3.0323   -0.1166    0.0000 C   0  0
   -3.7467    0.2959    0.0000 O   0  0
   -3.0323   -0.9416    0.0000 O   0  0
   -2.3178    0.2959    0.0000 C   0  0
   -1.6033   -0.1166    0.0000 C   0  0
   -0.8889    0.2959    0.0000 C   0  0
   -0.1744   -0.1166    0.0000 C   0  0
    0.5401    0.2959    0.0000 C   0  0  2  0  0  0
    0.6263    1.1164    0.0000 S   0  0
    1.4333    1.2879    0.0000 C   0  0
    1.8458    0.5735    0.0000 C   0  0  2  0  0  0
    2.5995    0.2379    0.0000 N   0  0
    2.5132   -0.5826    0.0000 C   0  0
    3.1263   -1.1346    0.0000 O   0  0
    1.7063   -0.7541    0.0000 N   0  0
    1.2938   -0.0396    0.0000 C   0  0  2  0  0  0
    0.6247   -0.7828    0.0000 H   0  0
    2.5149    1.3166    0.0000 H   0  0
  1  2  2  0
  1  3  1  0
  4  1  1  0
  4  5  1  0
  6  5  1  0
  7  6  1  0
  8  7  1  6
  8  9  1  0
  8 16  1  0
 10  9  1  0
 11 10  1  0
 11 12  1  0
 16 11  1  0
 13 12  1  0
 13 14  2  0
 13 15  1  0
 16 15  1  0
 16 17  1  1
 11 18  1  1
M  END