
          11280715442D 1   1.00000     0.00000     0

 34 36  0     1  0            999 V2000
    2.5167    1.0333    0.0000 C   0  0  0  0  0  0           0  0  0
   -2.4833   -0.2167    0.0000 C   0  0  0  0  0  0           0  0  0
   -1.7708    0.1958    0.0000 C   0  0  1  0  0  0           0  0  0
   -2.4833   -1.0542    0.0000 C   0  0  0  0  0  0           0  0  0
   -1.7583   -1.4667    0.0000 N   0  0  3  0  0  0           0  0  0
    3.2292    1.4458    0.0000 C   0  0  0  0  0  0           0  0  0
    2.5167    0.2083    0.0000 C   0  0  0  0  0  0           0  0  0
   -1.0458   -0.2167    0.0000 N   0  0  0  0  0  0           0  0  0
   -0.3333    0.1958    0.0000 C   0  0  0  0  0  0           0  0  0
    1.7917    1.4458    0.0000 C   0  0  0  0  0  0           0  0  0
    1.8042   -0.2042    0.0000 C   0  0  0  0  0  0           0  0  0
   -1.7708    1.0208    0.0000 C   0  0  0  0  0  0           0  0  0
    3.2167    2.2708    0.0000 O   0  0  0  0  0  0           0  0  0
   -0.3458    1.0208    0.0000 O   0  0  0  0  0  0           0  0  0
    1.0917    0.2083    0.0000 C   0  0  0  0  0  0           0  0  0
    0.3792   -0.2125    0.0000 C   0  0  0  0  0  0           0  0  0
    1.0792    1.0250    0.0000 C   0  0  0  0  0  0           0  0  0
    3.9417    1.0375    0.0000 O   0  0  0  0  0  0           0  0  0
    3.2292   -0.2042    0.0000 O   0  0  0  0  0  0           0  0  0
   -3.1958    0.1875    0.0000 C   0  0  0  0  0  0           0  0  0
   -1.0583   -1.0542    0.0000 C   0  0  0  0  0  0           0  0  0
   -1.7708   -2.2917    0.0000 C   0  0  0  0  0  0           0  0  0
    5.3667    0.2208    0.0000 F   0  0  0  0  0  0           0  0  0
   -3.1958   -1.4667    0.0000 C   0  0  0  0  0  0           0  0  0
   -2.4833    1.4250    0.0000 C   0  0  3  0  0  0           0  0  0
    4.6542   -0.2000    0.0000 C   0  0  0  0  0  0           0  0  0
    3.9417    0.2083    0.0000 C   0  0  0  0  0  0           0  0  0
   -3.1958    1.0125    0.0000 C   0  0  0  0  0  0           0  0  0
   -2.4958    2.2458    0.0000 C   0  0  0  0  0  0           0  0  0
   -3.9083   -0.2167    0.0000 C   0  0  0  0  0  0           0  0  0
   -0.3333   -1.4667    0.0000 C   0  0  0  0  0  0           0  0  0
   -1.0583   -2.7042    0.0000 C   0  0  0  0  0  0           0  0  0
   -3.9083   -1.0542    0.0000 C   0  0  0  0  0  0           0  0  0
   -0.3333   -2.2917    0.0000 C   0  0  0  0  0  0           0  0  0
  2  3  1  0     0  0
  3  8  1  0     0  0
  4  2  1  0     0  0
  5  4  1  0     0  0
  6  1  1  0     0  0
  7  1  2  0     0  0
  8  9  1  0     0  0
  9 16  1  0     0  0
 10  1  1  0     0  0
 11  7  1  0     0  0
  3 12  1  6     0  0
 13  6  2  0     0  0
 14  9  2  0     0  0
 15 17  1  0     0  0
 16 15  1  0     0  0
 17 10  2  0     0  0
 18  6  1  0     0  0
 19  7  1  0     0  0
 20  2  2  0     0  0
 21  5  1  0     0  0
 22  5  1  0     0  0
 23 26  1  0     0  0
 24  4  2  0     0  0
 25 12  1  0     0  0
 26 27  1  0     0  0
 27 19  1  0     0  0
 28 25  1  0     0  0
 29 25  1  0     0  0
 30 20  1  0     0  0
 31 21  1  0     0  0
 32 22  1  0     0  0
 33 30  2  0     0  0
 34 32  1  0     0  0
 15 11  2  0     0  0
 24 33  1  0     0  0
 31 34  1  0     0  0
M  END