
  SciTegic07061118172D

 47 52  0  0  0  0            999 V2000
   17.7937  -16.3170    0.0000 C   0  0
   18.5101  -16.7276    0.0000 C   0  0
   18.5094  -17.5513    0.0000 C   0  0
   19.2250  -17.9618    0.0000 C   0  0
   19.9398  -17.5466    0.0000 C   0  0
   19.9345  -16.7165    0.0000 C   0  0
   19.2183  -16.3097    0.0000 C   0  0
   20.6569  -17.9562    0.0000 O   0  0
   21.3702  -17.5400    0.0000 C   0  0
   22.0872  -17.9497    0.0000 C   0  0
   22.8005  -17.5335    0.0000 C   0  0
   23.5175  -17.9431    0.0000 N   0  0
   23.4632  -18.7973    0.0000 C   0  0
   24.0703  -19.3297    0.0000 C   0  0
   24.2050  -17.4808    0.0000 C   0  0
   24.9876  -17.7386    0.0000 C   0  0
   25.2863  -18.5448    0.0000 C   0  0
   24.8756  -19.2216    0.0000 C   0  0
   15.2397  -18.8349    0.0000 C   0  0
   16.0655  -18.8349    0.0000 C   0  0
   16.3225  -18.0500    0.0000 C   0  0
   15.6526  -17.5627    0.0000 N   0  0
   14.9868  -18.0500    0.0000 C   0  0  1  0  0  0
   10.6097  -20.5197    0.0000 C   0  0
   10.6021  -21.3479    0.0000 C   0  0
   11.3144  -21.7667    0.0000 C   0  0
   12.0347  -21.3585    0.0000 C   0  0
   12.0383  -20.5272    0.0000 C   0  0
   11.3255  -20.1121    0.0000 C   0  0
   12.7516  -20.1153    0.0000 C   0  0
   12.7521  -19.2914    0.0000 C   0  0
   13.4675  -18.8806    0.0000 N   0  0
   13.4647  -18.0556    0.0000 N   0  0
   12.7474  -17.6446    0.0000 C   0  0
   12.7432  -16.8188    0.0000 O   0  0
   12.0377  -18.8883    0.0000 C   0  0
   12.0331  -18.0678    0.0000 C   0  0
   11.3214  -17.6634    0.0000 C   0  0
   10.6138  -18.0783    0.0000 C   0  0
   10.6224  -18.9018    0.0000 C   0  0
   11.3347  -19.3026    0.0000 C   0  0
   14.1784  -17.6405    0.0000 C   0  0
    9.8834  -21.7546    0.0000 O   0  0
   15.6513  -16.7369    0.0000 C   0  0
   16.3659  -16.3229    0.0000 C   0  0
   17.0817  -16.7348    0.0000 C   0  0
    9.1718  -21.3356    0.0000 C   0  0
 23 19  1  0
  5  6  1  0
 11 12  1  0
 24 25  2  0
  1  2  1  0
 25 26  1  0
  6  7  2  0
 26 27  2  0
  7  2  1  0
 27 28  1  0
  3  4  1  0
 28 29  2  0
 29 24  1  0
  5  8  1  0
 28 30  1  0
 30 31  1  0
 12 13  1  0
 31 32  2  0
 13 14  1  0
 32 33  1  0
 12 15  1  0
 33 34  1  0
 34 37  1  0
 36 31  1  0
 16 17  1  0
 34 35  2  0
 17 18  1  0
 18 14  1  0
 36 37  2  0
 15 16  1  0
 37 38  1  0
 19 20  1  0
 38 39  2  0
  8  9  1  0
 39 40  1  0
  4  5  2  0
 40 41  2  0
 41 36  1  0
  9 10  1  0
 33 42  1  0
  2  3  2  0
 25 43  1  0
 23 42  1  6
 10 11  1  0
 22 44  1  0
 20 21  1  0
 44 45  1  0
 21 22  1  0
 45 46  1  0
 46  1  1  0
 22 23  1  0
 43 47  1  0
M  END