
  SciTegic01161211242D

 41 44  0  0  0  0            999 V2000
   -0.0083   -2.9875    0.0000 N   0  3
    6.4167   -5.8458    0.0000 C   0  0
    2.8500   -5.4542    0.0000 C   0  0
    9.2792   -6.6500    0.0000 N   0  0
    7.1250   -5.4292    0.0000 C   0  0
   -0.0125   -4.6333    0.0000 N   0  0
    3.5667   -5.8625    0.0000 N   0  0
    2.1375   -5.8667    0.0000 C   0  0
    6.4250   -6.6750    0.0000 C   0  0
    9.3083   -8.3000    0.0000 N   0  0
    7.8417   -5.8375    0.0000 C   0  0
    5.7000   -5.4417    0.0000 C   0  0
    1.4208   -5.4583    0.0000 C   0  0
    2.8458   -4.6292    0.0000 O   0  0
    9.2708   -5.8292    0.0000 C   0  0
    8.5542   -5.4208    0.0000 C   0  0
    0.7042   -5.8708    0.0000 C   0  0
   -0.0083   -5.4583    0.0000 C   0  0
    8.5708   -7.0750    0.0000 C   0  0
    0.7042   -3.4000    0.0000 C   0  0
   -0.7250   -3.3958    0.0000 C   0  0
    5.7083   -7.0917    0.0000 C   0  0
    0.7000   -4.2208    0.0000 C   0  0
   -0.7292   -4.2250    0.0000 C   0  0
    4.9958   -5.8583    0.0000 C   0  0
    4.2792   -5.4458    0.0000 C   0  0
    8.5875   -7.8958    0.0000 C   0  0  2  0  0  0
    7.1375   -7.0833    0.0000 F   0  0
   10.0167   -7.8750    0.0000 C   0  0
    4.9958   -6.6833    0.0000 C   0  0
   -0.5958   -2.3958    0.0000 C   0  0
    0.5750   -2.3958    0.0000 C   0  0
   10.0000   -7.0458    0.0000 C   0  0
    7.1167   -4.6083    0.0000 C   0  0
    2.1375   -6.7000    0.0000 C   0  0
    7.8250   -4.1875    0.0000 C   0  0
    1.4208   -7.1125    0.0000 C   0  0
    8.5458   -4.5958    0.0000 C   0  0
    0.7083   -6.7000    0.0000 C   0  0
    7.8792   -8.3208    0.0000 C   0  0
    2.6167   -3.4625    0.0000 I   0  5
  2 12  2  0
  3  8  1  0
  4 15  1  0
  5  2  1  0
  6 24  1  0
  7  3  1  0
  8 13  2  0
  9  2  1  0
 10 29  1  0
 11  5  2  0
 12 25  1  0
 13 17  1  0
 14  3  2  0
 15 16  1  0
 16 11  1  0
 17 18  1  0
 18  6  1  0
 19  4  1  0
 20  1  1  0
 21  1  1  0
 22 30  1  0
 23 20  1  0
 24 21  1  0
 25 26  1  0
 26  7  1  0
 27 19  1  0
 28  9  1  0
 29 33  1  0
 30 25  2  0
 31  1  1  0
 32  1  1  0
 33  4  1  0
 34  5  1  0
 35  8  1  0
 36 34  2  0
 37 39  1  0
 38 16  2  0
 39 17  2  0
 27 40  1  1
 23  6  1  0
 35 37  2  0
  9 22  2  0
 36 38  1  0
 10 27  1  0
M  CHG  2   1   1  41  -1
M  END