
  SciTegic12171312552D

 58 65  0  0  0  0            999 V2000
   15.1652   -2.7785    0.0000 F   0  0
   15.3966   -1.9866    0.0000 B   0  5
   14.5945   -2.1801    0.0000 F   0  0
    8.6675   -2.3885    0.0000 C   0  0
    9.3914   -1.9931    0.0000 C   0  0
    8.6499   -3.2136    0.0000 O   0  0
   10.0979   -2.4189    0.0000 O   0  0
   10.8218   -2.0237    0.0000 C   0  0
   11.5201   -2.4520    0.0000 C   0  0
   12.2436   -2.0573    0.0000 C   0  0
   12.2617   -1.2313    0.0000 C   0  0
   11.5503   -0.8015    0.0000 C   0  0
   10.8338   -1.2027    0.0000 C   0  0
   12.9851   -0.8310    0.0000 C   0  0
   13.6919   -1.2600    0.0000 C   0  0
   14.4154   -0.8595    0.0000 C   0  0
   15.3296    0.1222    0.0000 C   0  0
   14.5191   -0.0364    0.0000 C   0  0
   15.7260   -0.6052    0.0000 C   0  0
   15.1649   -1.2058    0.0000 N   0  3
   16.5259   -0.7884    0.0000 C   0  0
   16.7650   -1.5787    0.0000 C   0  0
   16.2037   -2.1794    0.0000 N   0  0
   16.6030   -2.8979    0.0000 C   0  0
   17.4087   -2.7428    0.0000 C   0  0
   17.5087   -1.9284    0.0000 C   0  0
   16.2564   -3.6494    0.0000 C   0  0
   15.4460   -3.8055    0.0000 S   0  0
   15.3453   -4.6247    0.0000 C   0  0
   16.0935   -4.9724    0.0000 C   0  0
   16.6580   -4.3721    0.0000 C   0  0
    3.6466   -3.5244    0.0000 C   0  0
    3.6303   -4.3503    0.0000 C   0  0
    4.3338   -4.7767    0.0000 N   0  0
    5.0516   -4.3785    0.0000 C   0  0
    5.0720   -3.5525    0.0000 N   0  0
    4.3663   -3.1261    0.0000 C   0  0
    2.8614   -3.2515    0.0000 N   0  0
    2.3649   -3.9128    0.0000 C   0  0
    2.8349   -4.5879    0.0000 N   0  0
    4.3828   -2.2959    0.0000 N   0  0
    5.1046   -1.9018    0.0000 C   0  0
    2.5621   -5.3668    0.0000 C   0  0  2  0  0  0
    1.7708   -5.6098    0.0000 O   0  0
    1.7547   -6.4304    0.0000 C   0  0  1  0  0  0
    2.5357   -6.7023    0.0000 C   0  0  2  0  0  0
    3.0362   -6.0473    0.0000 C   0  0  1  0  0  0
    3.8622   -6.0637    0.0000 O   0  0
    2.7775   -7.4935    0.0000 O   0  0
    1.0805   -6.9036    0.0000 C   0  0
    0.3334   -6.5532    0.0000 N   0  0
    1.1531   -7.7302    0.0000 O   0  0
   -0.3475   -7.0326    0.0000 C   0  0
   -1.0973   -6.6779    0.0000 C   0  0
    5.8068   -2.3276    0.0000 C   0  0
    6.5308   -1.9322    0.0000 C   0  0
    7.2372   -2.3580    0.0000 C   0  0
    7.9612   -1.9627    0.0000 N   0  0
  2  1  1  0
  3  2  1  0
  4  5  1  0
  4  6  2  0
  5  7  1  0
  7  8  1  0
  8  9  2  0
  9 10  1  0
 10 11  2  0
 11 12  1  0
 12 13  2  0
 13  8  1  0
 11 14  1  0
 14 15  2  0
 15 16  1  0
 16 20  2  0
 19 17  1  0
 17 18  2  0
 18 16  1  0
 19 20  1  0
 19 21  2  0
 20  2  1  0
  2 23  1  0
 22 21  1  0
 22 23  1  0
 23 24  1  0
 24 25  2  0
 25 26  1  0
 26 22  2  0
 27 28  1  0
 28 29  1  0
 29 30  2  0
 30 31  1  0
 31 27  2  0
 24 27  1  0
 32 33  2  0
 33 34  1  0
 34 35  2  0
 35 36  1  0
 36 37  2  0
 37 32  1  0
 32 38  1  0
 38 39  2  0
 39 40  1  0
 40 33  1  0
 37 41  1  0
 41 42  1  0
 43 40  1  1
 43 44  1  0
 44 45  1  0
 45 46  1  0
 46 47  1  0
 47 43  1  0
 47 48  1  6
 46 49  1  6
 45 50  1  1
 50 51  1  0
 50 52  2  0
 51 53  1  0
 53 54  1  0
 42 55  1  0
 55 56  1  0
 56 57  1  0
 57 58  1  0
 58  4  1  0
M  CHG  2   2  -1  20   1
M  END