
  SciTegic11041415542D

 42 46  0  0  0  0            999 V2000
    1.1379    2.1713    0.0000 C   0  0
    1.8524    1.7588    0.0000 C   0  0
    1.8524    0.9338    0.0000 N   0  0
    1.1379    0.5213    0.0000 C   0  0
    0.4234    0.9338    0.0000 N   0  0
    0.4234    1.7588    0.0000 C   0  0
    1.1379   -0.3037    0.0000 N   0  0
    0.4234   -0.7162    0.0000 C   0  0
    0.4234   -1.5412    0.0000 C   0  0
   -0.2910   -1.9537    0.0000 C   0  0
   -1.0055   -1.5412    0.0000 C   0  0
   -1.0055   -0.7162    0.0000 C   0  0
   -0.2910   -0.3037    0.0000 C   0  0
   -0.2910    0.5213    0.0000 O   0  0
   -1.0055    0.9338    0.0000 C   0  0
   -1.7200   -1.9537    0.0000 N   0  0
   -2.4345   -1.5412    0.0000 C   0  0
   -3.1489   -1.9537    0.0000 C   0  0
   -3.1489   -2.7787    0.0000 C   0  0
   -2.4345   -3.1912    0.0000 C   0  0
   -1.7200   -2.7787    0.0000 C   0  0
   -3.8634   -3.1912    0.0000 N   0  0
   -4.5779   -2.7787    0.0000 C   0  0
   -5.2923   -3.1912    0.0000 C   0  0
   -5.2923   -4.0162    0.0000 N   0  0
   -4.5779   -4.4287    0.0000 C   0  0
   -3.8634   -4.0162    0.0000 C   0  0
   -6.0068   -4.4287    0.0000 C   0  0
    2.5668    2.1713    0.0000 N   0  0
    3.2813    1.7588    0.0000 C   0  0
    3.9958    2.1713    0.0000 C   0  0
    4.7103    1.7588    0.0000 C   0  0
    4.7103    0.9338    0.0000 C   0  0
    3.9958    0.5213    0.0000 C   0  0
    3.2813    0.9338    0.0000 C   0  0
    3.9958    2.9963    0.0000 S   0  0
    3.9958    3.8213    0.0000 C   0  0
    3.2813    4.2338    0.0000 C   0  0
    4.7103    4.2338    0.0000 C   0  0
    4.8208    2.9963    0.0000 O   0  0
    3.1708    2.9963    0.0000 O   0  0
    1.1379    2.9963    0.0000 Cl  0  0
  1  2  1  0
  1  6  2  0
  1 42  1  0
  2  3  2  0
  2 29  1  0
  4  3  1  0
  4  5  2  0
  4  7  1  0
  6  5  1  0
  8  7  1  0
  8  9  1  0
 13  8  2  0
 10  9  2  0
 10 11  1  0
 11 12  2  0
 11 16  1  0
 12 13  1  0
 13 14  1  0
 15 14  1  0
 17 16  1  0
 21 16  1  0
 17 18  1  0
 18 19  1  0
 19 20  1  0
 19 22  1  0
 20 21  1  0
 23 22  1  0
 27 22  1  0
 23 24  1  0
 24 25  1  0
 26 25  1  0
 28 25  1  0
 26 27  1  0
 30 29  1  0
 30 31  1  0
 30 35  2  0
 31 32  2  0
 31 36  1  0
 32 33  1  0
 33 34  2  0
 34 35  1  0
 37 36  1  0
 40 36  2  0
 41 36  2  0
 37 38  1  0
 37 39  1  0
M  END