
  SciTegic04091414152D

 37 41  0  0  0  0            999 V2000
   27.1482   -1.6858    0.0000 C   0  0
   26.3234   -1.6728    0.0000 C   0  0
   26.0541   -2.4527    0.0000 C   0  0
   26.7157   -2.9500    0.0000 N   0  0
   27.3884   -2.4739    0.0000 N   0  0
   26.7072   -3.7726    0.0000 C   0  0
   25.9853   -4.1742    0.0000 C   0  0
   25.9731   -4.9983    0.0000 C   0  0
   26.6822   -5.4219    0.0000 C   0  0
   27.4049   -5.0153    0.0000 C   0  0
   27.4135   -4.1924    0.0000 C   0  0
   27.6454   -1.0253    0.0000 C   0  0
   28.4643   -1.1256    0.0000 O   0  0
   27.3227   -0.2660    0.0000 O   0  0
   25.2694   -2.6933    0.0000 C   0  0
   24.6659   -2.1290    0.0000 C   0  0
   23.8776   -2.3698    0.0000 C   0  0
   23.6917   -3.1745    0.0000 C   0  0
   24.3001   -3.7380    0.0000 C   0  0
   25.0860   -3.4942    0.0000 C   0  0
   25.2526   -5.4003    0.0000 C   0  0
   22.9031   -3.4169    0.0000 O   0  0
   22.2988   -2.8553    0.0000 C   0  0
   21.5102   -3.0977    0.0000 C   0  0
   20.9092   -2.5335    0.0000 C   0  0
   20.1212   -2.7754    0.0000 C   0  0
   19.9362   -3.5804    0.0000 C   0  0
   20.5455   -4.1430    0.0000 C   0  0
   21.3311   -3.8982    0.0000 C   0  0
   19.1439   -3.8247    0.0000 C   0  0
   18.4835   -3.3302    0.0000 C   0  0
   17.8091   -3.8053    0.0000 C   0  0
   18.0527   -4.5937    0.0000 C   0  0
   18.8776   -4.6055    0.0000 O   0  0
   17.5561   -5.2571    0.0000 C   0  0
   16.7370   -5.1590    0.0000 O   0  0
   17.8807   -6.0156    0.0000 O   0  0
  1  2  1  0
  2  3  2  0
  3  4  1  0
  4  5  1  0
  5  1  2  0
  6  7  2  0
  7  8  1  0
  8  9  2  0
  9 10  1  0
 10 11  2  0
 11  6  1  0
  4  6  1  0
 12 13  1  0
 12 14  2  0
  1 12  1  0
 15 16  2  0
 16 17  1  0
 17 18  2  0
 18 19  1  0
 19 20  2  0
 20 15  1  0
  3 15  1  0
  8 21  1  0
 18 22  1  0
 22 23  1  0
 23 24  1  0
 24 25  2  0
 25 26  1  0
 26 27  2  0
 27 28  1  0
 28 29  2  0
 29 24  1  0
 30 31  2  0
 31 32  1  0
 32 33  2  0
 33 34  1  0
 34 30  1  0
 27 30  1  0
 35 36  1  0
 35 37  2  0
 33 35  1  0
M  END