
  SciTegic10041313212D

 25 27  0  0  0  0            999 V2000
    0.2321  -15.3781    0.0000 C   0  0
    0.9446  -15.7949    0.0000 C   0  0
    1.6583  -15.3825    0.0000 C   0  0
    1.6580  -14.5566    0.0000 C   0  0
    0.9381  -14.1448    0.0000 C   0  0
    0.2274  -14.5597    0.0000 C   0  0
   -0.4893  -14.1510    0.0000 O   0  0
   -1.2016  -14.5673    0.0000 C   0  0
   -1.9172  -14.1567    0.0000 C   0  0
   -2.6291  -14.5723    0.0000 C   0  0
   -2.6251  -15.3982    0.0000 C   0  0
   -1.9034  -15.8068    0.0000 C   0  0
   -1.1945  -15.3888    0.0000 C   0  0
   -3.3368  -15.8155    0.0000 O   0  0
    2.3729  -15.7947    0.0000 C   0  0
    3.0872  -15.3818    0.0000 C   0  0
    3.8405  -15.7119    0.0000 C   0  0
    4.3923  -15.0986    0.0000 N   0  0
    3.9794  -14.3842    0.0000 C   0  0
    3.1726  -14.5563    0.0000 N   0  0
    4.3146  -13.6304    0.0000 O   0  0
    4.0145  -16.5184    0.0000 O   0  0
    0.9344  -13.3198    0.0000 I   0  0
   -0.4824  -15.7907    0.0000 I   0  0
   -3.3455  -14.1632    0.0000 I   0  0
  6  1  1  0
 12 13  2  0
 13  8  1  0
  1  2  2  0
 11 14  1  0
  6  7  1  0
  3 15  1  0
  3  4  2  0
 16 15  1  0
 16 17  1  0
  7  8  1  0
  8  9  2  0
  4  5  1  0
 17 18  1  0
 18 19  1  0
 19 20  1  0
 20 16  1  0
  9 10  1  0
 19 21  2  0
  2  3  1  0
 17 22  2  0
 10 11  2  0
  5 23  1  0
  5  6  2  0
  1 24  1  0
 11 12  1  0
 10 25  1  0
M  END