
  SciTegic11301210262D

 42 43  0  0  0  0            999 V2000
    1.9507    1.7511    0.0000 P   0  0
    1.9507    0.9261    0.0000 O   0  0
    2.6651    0.5136    0.0000 C   0  0
    2.6651   -0.3114    0.0000 N   0  0
    1.9507   -0.7239    0.0000 C   0  0
    1.9507   -1.5489    0.0000 C   0  0
    2.6651   -1.9614    0.0000 O   0  0
    3.3796   -1.5489    0.0000 C   0  0
    3.3796   -0.7239    0.0000 C   0  0
    4.0941   -1.9614    0.0000 C   0  0
    4.8086   -1.5489    0.0000 C   0  0
    4.8086   -0.7239    0.0000 C   0  0
    4.0941   -0.3114    0.0000 N   0  0
    1.2362   -0.3114    0.0000 O   0  0
    1.1257   -1.5489    0.0000 C   0  0
    1.7371   -2.3458    0.0000 C   0  0
    5.5230   -0.3114    0.0000 N   0  0
    6.2375   -0.7239    0.0000 C   0  0
    6.2375   -1.5489    0.0000 N   0  0
    6.9520   -1.9614    0.0000 C   0  0
    7.6664   -1.5489    0.0000 N   0  0
    7.6664   -0.7239    0.0000 C   0  0
    6.9520   -0.3114    0.0000 C   0  0
    6.9520    0.5136    0.0000 F   0  0
    6.9520   -2.7864    0.0000 N   0  0
    7.6664   -3.1989    0.0000 C   0  0
    7.6664   -4.0239    0.0000 C   0  0
    8.3809   -4.4364    0.0000 C   0  0
    9.0954   -4.0239    0.0000 C   0  0
    9.0954   -3.1989    0.0000 C   0  0
    8.3809   -2.7864    0.0000 C   0  0
    9.8099   -2.7864    0.0000 O   0  0
   10.5243   -3.1989    0.0000 C   0  0
    9.8099   -4.4364    0.0000 O   0  0
    9.8099   -5.2614    0.0000 C   0  0
    8.3809   -5.2614    0.0000 O   0  0
    7.6664   -5.6739    0.0000 C   0  0
    1.2362    2.1636    0.0000 O   0  0
    2.6652    2.1636    0.0000 O   0  5
    1.9458    2.5792    0.0000 O   0  5
    3.1667    3.1667    0.0000 Na  0  3
    3.9125    2.3208    0.0000 Na  0  3
  8  9  2  0
  9  4  1  0
  8 10  1  0
 10 11  2  0
 11 12  1  0
 12 13  2  0
 13  9  1  0
  5 14  2  0
  6 15  1  0
  6 16  1  0
 12 17  1  0
 17 18  1  0
 18 19  2  0
 19 20  1  0
 20 21  2  0
 21 22  1  0
 22 23  2  0
 23 18  1  0
 23 24  1  0
 20 25  1  0
 25 26  1  0
 26 27  1  0
 27 28  2  0
 28 29  1  0
 29 30  2  0
 30 31  1  0
 31 26  2  0
 30 32  1  0
 32 33  1  0
 29 34  1  0
 34 35  1  0
  1  2  1  0
 28 36  1  0
  2  3  1  0
 36 37  1  0
  3  4  1  0
  1 38  2  0
  4  5  1  0
  1 39  1  0
  5  6  1  0
  1 40  1  0
  6  7  1  0
  7  8  1  0
M  CHG  4  39  -1  40  -1  41   1  42   1
M  END