
          11280715012D 1   1.00000     0.00000     0

 51 55  0     1  0            999 V2000
    8.2542   -3.5917    0.0000 C   0  0  0  0  0  0           0  0  0
    6.8250   -2.7750    0.0000 C   0  0  0  0  0  0           0  0  0
    8.2542   -2.7667    0.0000 N   0  0  0  0  0  0           0  0  0
    7.5417   -4.0042    0.0000 N   0  0  0  0  0  0           0  0  0
    7.5375   -2.3625    0.0000 C   0  0  2  0  0  0           0  0  0
    6.1125   -2.3625    0.0000 N   0  0  0  0  0  0           0  0  0
    8.9750   -4.0000    0.0000 N   0  0  0  0  0  0           0  0  0
    3.2500   -4.8500    0.0000 N   0  3  3  0  0  0           0  0  0
    7.5375   -1.5375    0.0000 C   0  0  0  0  0  0           0  0  0
    6.8250   -3.6000    0.0000 O   0  0  0  0  0  0           0  0  0
    9.6750   -1.1125    0.0000 C   0  0  0  0  0  0           0  0  0
    8.2500   -1.1167    0.0000 C   0  0  0  0  0  0           0  0  0
    8.9625   -1.5292    0.0000 C   0  0  0  0  0  0           0  0  0
    9.6667   -0.2917    0.0000 C   0  0  0  0  0  0           0  0  0
    5.4000   -2.7792    0.0000 C   0  0  0  0  0  0           0  0  0
    3.2500   -4.0250    0.0000 C   0  0  0  0  0  0           0  0  0
    8.9500    0.1208    0.0000 C   0  0  0  0  0  0           0  0  0
    3.9667   -3.6125    0.0000 C   0  0  0  0  0  0           0  0  0
    8.2375   -0.3000    0.0000 C   0  0  0  0  0  0           0  0  0
    7.5500   -4.8375    0.0000 C   0  0  3  0  0  0           0  0  0
    9.6875   -3.5875    0.0000 C   0  0  3  0  0  0           0  0  0
    4.6792   -2.3667    0.0000 C   0  0  0  0  0  0           0  0  0
    5.4000   -3.6125    0.0000 C   0  0  0  0  0  0           0  0  0
    3.9667   -2.7875    0.0000 C   0  0  0  0  0  0           0  0  0
    4.6792   -4.0250    0.0000 C   0  0  0  0  0  0           0  0  0
    2.5375   -5.2625    0.0000 C   0  0  0  0  0  0           0  0  0
    3.9667   -5.2625    0.0000 C   0  0  0  0  0  0           0  0  0
    3.2417   -5.6750    0.0000 C   0  0  0  0  0  0           0  0  0
   10.3875   -1.5250    0.0000 C   0  0  0  0  0  0           0  0  0
   10.3750    0.1208    0.0000 C   0  0  0  0  0  0           0  0  0
    8.2625   -5.2375    0.0000 C   0  0  0  0  0  0           0  0  0
    6.8292   -5.2417    0.0000 C   0  0  0  0  0  0           0  0  0
    9.6750   -2.7667    0.0000 C   0  0  0  0  0  0           0  0  0
   10.3917   -4.0000    0.0000 C   0  0  0  0  0  0           0  0  0
    1.8250   -4.8500    0.0000 C   0  0  0  0  0  0           0  0  0
    3.9625   -6.0875    0.0000 C   0  0  0  0  0  0           0  0  0
    2.5250   -6.0750    0.0000 C   0  0  0  0  0  0           0  0  0
    4.6792   -6.5000    0.0000 C   0  0  0  0  0  0           0  0  0
    1.1125   -5.2625    0.0000 C   0  0  0  0  0  0           0  0  0
    2.5250   -6.9000    0.0000 C   0  0  0  0  0  0           0  0  0
    1.8000   -7.3125    0.0000 C   0  0  0  0  0  0           0  0  0
    4.6792   -7.3250    0.0000 C   0  0  0  0  0  0           0  0  0
    0.3917   -4.8417    0.0000 C   0  0  0  0  0  0           0  0  0
   11.0875   -1.1125    0.0000 C   0  0  0  0  0  0           0  0  0
   11.0875   -0.2875    0.0000 C   0  0  0  0  0  0           0  0  0
    8.2625   -6.0667    0.0000 C   0  0  0  0  0  0           0  0  0
   11.1125   -3.5875    0.0000 C   0  0  0  0  0  0           0  0  0
   10.3917   -2.3500    0.0000 C   0  0  0  0  0  0           0  0  0
    6.8375   -6.0667    0.0000 C   0  0  0  0  0  0           0  0  0
    7.5500   -6.4792    0.0000 C   0  0  0  0  0  0           0  0  0
   11.1125   -2.7625    0.0000 C   0  0  0  0  0  0           0  0  0
  2  5  1  0     0  0
  3  1  2  0     0  0
  4  1  1  0     0  0
  5  3  1  0     0  0
  6  2  1  0     0  0
  7  1  1  0     0  0
  8 16  1  0     0  0
  5  9  1  1     0  0
 10  2  2  0     0  0
 11 13  1  0     0  0
 12  9  1  0     0  0
 13 12  2  0     0  0
 14 17  1  0     0  0
 15  6  1  0     0  0
 16 18  1  0     0  0
 17 19  2  0     0  0
 18 25  1  0     0  0
 19 12  1  0     0  0
 20  4  1  0     0  0
 21  7  1  0     0  0
 22 15  2  0     0  0
 23 15  1  0     0  0
 24 22  1  0     0  0
 25 23  2  0     0  0
 26  8  1  0     0  0
 27  8  1  0     0  0
 28  8  1  0     0  0
 29 11  2  0     0  0
 30 14  2  0     0  0
 31 20  1  0     0  0
 32 20  1  0     0  0
 33 21  1  0     0  0
 34 21  1  0     0  0
 35 26  1  0     0  0
 36 27  1  0     0  0
 37 28  1  0     0  0
 38 36  1  0     0  0
 39 35  1  0     0  0
 40 37  1  0     0  0
 41 40  1  0     0  0
 42 38  1  0     0  0
 43 39  1  0     0  0
 44 29  1  0     0  0
 45 30  1  0     0  0
 46 31  1  0     0  0
 47 34  1  0     0  0
 48 33  1  0     0  0
 49 32  1  0     0  0
 50 49  1  0     0  0
 51 47  1  0     0  0
 48 51  1  0     0  0
 50 46  1  0     0  0
 11 14  1  0     0  0
 18 24  2  0     0  0
 45 44  2  0     0  0
M  CHG  1   8   1
M  END