
  CDK    9/16/09,9:55

 34 37  0  0  0  0  0  0  0  0999 V2000
    5.2146    0.6219    0.0000 C   0  0  0  0  0  0  0  0  0  0  0  0
    5.2132   -0.2058    0.0000 C   0  0  0  0  0  0  0  0  0  0  0  0
    5.9287   -0.6142    0.0000 C   0  0  0  0  0  0  0  0  0  0  0  0
    5.9266    1.0349    0.0000 C   0  0  0  0  0  0  0  0  0  0  0  0
    6.6433    0.6265    0.0000 C   0  0  0  0  0  0  0  0  0  0  0  0
    6.6438   -0.2058    0.0000 C   0  0  0  0  0  0  0  0  0  0  0  0
    7.4361   -0.4605    0.0000 N   0  0  0  0  0  0  0  0  0  0  0  0
    7.9228    0.2112    0.0000 C   0  0  0  0  0  0  0  0  0  0  0  0
    7.4351    0.8866    0.0000 N   0  0  0  0  0  0  0  0  0  0  0  0
    7.6818   -1.2429    0.0000 C   0  0  0  0  0  0  0  0  0  0  0  0
    7.0991   -1.8246    0.0000 C   0  0  0  0  0  0  0  0  0  0  0  0
    6.3045   -1.6101    0.0000 C   0  0  0  0  0  0  0  0  0  0  0  0
    5.7177   -2.1908    0.0000 C   0  0  0  0  0  0  0  0  0  0  0  0
    5.9335   -2.9907    0.0000 C   0  0  0  0  0  0  0  0  0  0  0  0
    6.7327   -3.2017    0.0000 C   0  0  0  0  0  0  0  0  0  0  0  0
    7.3111   -2.6191    0.0000 C   0  0  0  0  0  0  0  0  0  0  0  0
    5.3475   -3.5727    0.0000 C   0  0  0  0  0  0  0  0  0  0  0  0
    4.5524   -3.3594    0.0000 C   0  0  0  0  0  0  0  0  0  0  0  0
    3.9665   -3.9412    0.0000 C   0  0  0  0  0  0  0  0  0  0  0  0
    4.1833   -4.7407    0.0000 C   0  0  0  0  0  0  0  0  0  0  0  0
    4.9828   -4.9506    0.0000 C   0  0  0  0  0  0  0  0  0  0  0  0
    5.5651   -4.3673    0.0000 C   0  0  0  0  0  0  0  0  0  0  0  0
    4.3362   -2.5608    0.0000 C   0  0  0  0  0  0  0  0  0  0  0  0
    4.9231   -1.9788    0.0000 O   0  0  0  0  0  0  0  0  0  0  0  0
    3.5421   -2.3485    0.0000 O   0  0  0  0  0  0  0  0  0  0  0  0
    3.7850    1.4470    0.0000 N   0  0  0  0  0  0  0  0  0  0  0  0
    4.9132    1.7517    0.0000 O   0  0  0  0  0  0  0  0  0  0  0  0
    4.0934    0.3187    0.0000 O   0  0  0  0  0  0  0  0  0  0  0  0
    4.4982    1.0344    0.0000 S   0  0  0  0  0  0  0  0  0  0  0  0
    8.7478    0.2104    0.0000 C   0  0  0  0  0  0  0  0  0  0  0  0
    9.1598   -0.5044    0.0000 C   0  0  0  0  0  0  0  0  0  0  0  0
    9.9848   -0.5051    0.0000 C   0  0  0  0  0  0  0  0  0  0  0  0
   10.3966   -1.2199    0.0000 C   0  0  0  0  0  0  0  0  0  0  0  0
    3.0702    1.0350    0.0000 C   0  0  0  0  0  0  0  0  0  0  0  0
 17 18  2  0  0  0  0 
  9  5  1  0  0  0  0 
 18 19  1  0  0  0  0 
  4  1  1  0  0  0  0 
 19 20  2  0  0  0  0 
 20 21  1  0  0  0  0 
  5  6  1  0  0  0  0 
 21 22  2  0  0  0  0 
 22 17  1  0  0  0  0 
 14 17  1  0  0  0  0 
  7 10  1  0  0  0  0 
 18 23  1  0  0  0  0 
 23 24  2  0  0  0  0 
 10 11  1  0  0  0  0 
 23 25  1  0  0  0  0 
  2  3  1  0  0  0  0 
 11 12  2  0  0  0  0 
  3  6  2  0  0  0  0 
 12 13  1  0  0  0  0 
  1  2  2  0  0  0  0 
  1 29  1  0  0  0  0 
 13 14  2  0  0  0  0 
 29 26  1  0  0  0  0 
  5  4  2  0  0  0  0 
 29 27  2  0  0  0  0 
 14 15  1  0  0  0  0 
  6  7  1  0  0  0  0 
 28 29  2  0  0  0  0 
  8 30  1  0  0  0  0 
 15 16  2  0  0  0  0 
 30 31  1  0  0  0  0 
 16 11  1  0  0  0  0 
 31 32  1  0  0  0  0 
  7  8  1  0  0  0  0 
 32 33  1  0  0  0  0 
  8  9  2  0  0  0  0 
 26 34  1  0  0  0  0 
M  END