
  SciTegic09081514172D

 31 35  0  0  0  0            999 V2000
    6.3600    0.4000    0.0000 C   0  0
    6.3600    1.8600    0.0000 C   0  0
    5.0500    2.5700    0.0000 C   0  0
    5.0500   -0.3600    0.0000 C   0  0
    3.8000    0.4000    0.0000 C   0  0
    3.8000    1.8600    0.0000 C   0  0
    2.5200    2.6000    0.0000 N   0  0
    2.5200   -0.3300    0.0000 N   0  0
    1.2600    0.4000    0.0000 C   0  0
    1.2600    1.8600    0.0000 C   0  0
    0.0000   -0.3300    0.0000 C   0  0
   -1.2800    0.4000    0.0000 C   0  0
   -1.2800    1.8600    0.0000 C   0  0
   -2.5200    2.6000    0.0000 C   0  0
   -3.7800    1.8600    0.0000 C   0  0
   -3.7800    0.4000    0.0000 C   0  0
   -2.5200   -0.3300    0.0000 C   0  0
    0.0130   -1.8312    0.0000 N   0  0
    1.3188   -2.5710    0.0000 O   0  0
    1.3319   -4.0718    0.0000 C   0  0
    0.2978   -4.6805    0.0000 O   0  0
    2.6377   -4.8116    0.0000 C   0  0
    2.6530   -6.3116    0.0000 C   0  0
    3.9596   -7.0484    0.0000 C   0  0
    5.2510   -6.2852    0.0000 C   0  0
    5.2358   -4.7853    0.0000 C   0  0
    3.9292   -4.0485    0.0000 C   0  0
    6.5598   -7.0197    0.0000 O   0  0
    7.5920   -6.4078    0.0000 C   0  0
    3.9718   -8.5492    0.0000 O   0  0
    2.9378   -9.1582    0.0000 C   0  0
  1  2  2  0
  2  3  1  0
  3  6  2  0
  5  4  2  0
  4  1  1  0
  5  6  1  0
  6  7  1  0
  7 10  2  0
  9  8  2  0
  8  5  1  0
  9 10  1  0
 10 13  1  0
 12 11  1  0
 11  9  1  0
 12 13  2  0
 13 14  1  0
 14 15  2  0
 15 16  1  0
 16 17  2  0
 17 12  1  0
 11 18  2  0
 18 19  1  0
 19 20  1  0
 20 21  2  0
 20 22  1  0
 22 23  2  0
 23 24  1  0
 24 25  2  0
 25 26  1  0
 26 27  2  0
 27 22  1  0
 25 28  1  0
 28 29  1  0
 24 30  1  0
 30 31  1  0
M  END