
          03140815512D 1   1.00000     0.00000     0

 28 32  0     0  0            999 V2000
    8.2348  -10.8559    0.0000 C   0  0  0  0  0  0           0  0  0
    8.8764  -10.1719    0.0000 C   0  0  3  0  0  0           0  0  0
    9.0397  -10.6308    0.0000 C   0  0  3  0  0  0           0  0  0
    9.5881  -10.4347    0.0000 C   0  0  0  0  0  0           0  0  0
    9.7928  -10.9338    0.0000 C   0  0  0  0  0  0           0  0  0
   10.3364  -10.2491    0.0000 C   0  0  3  0  0  0           0  0  0
    9.0328   -9.7820    0.0000 C   0  0  0  0  0  0           0  0  0
    9.5939   -9.1196    0.0000 C   0  0  3  0  0  0           0  0  0
    8.8719   -9.3761    0.0000 C   0  0  0  0  0  0           0  0  0
   10.3422   -9.4297    0.0000 C   0  0  0  0  0  0           0  0  0
    9.5886   -8.2921    0.0000 C   0  0  0  0  0  0           0  0  0
   10.3009   -7.8749    0.0000 N   0  0  0  0  0  0           0  0  0
   11.0183   -8.2831    0.0000 C   0  0  0  0  0  0           0  0  0
   11.7306   -7.8658    0.0000 C   0  0  0  0  0  0           0  0  0
   11.0236   -9.1084    0.0000 O   0  0  0  0  0  0           0  0  0
   12.4454   -8.2746    0.0000 C   0  0  0  0  0  0           0  0  0
   13.1571   -7.8581    0.0000 C   0  0  0  0  0  0           0  0  0
   13.1524   -7.0318    0.0000 C   0  0  0  0  0  0           0  0  0
   12.4299   -6.6238    0.0000 C   0  0  0  0  0  0           0  0  0
   11.7211   -7.0426    0.0000 C   0  0  0  0  0  0           0  0  0
   12.4495   -9.1000    0.0000 Cl  0  0  0  0  0  0           0  0  0
   12.4217   -5.7983    0.0000 N   0  0  0  0  0  0           0  0  0
   13.1325   -5.3786    0.0000 C   0  0  3  0  0  0           0  0  0
   13.8546   -5.7886    0.0000 C   0  0  0  0  0  0           0  0  0
   14.5632   -5.3724    0.0000 C   0  0  0  0  0  0           0  0  0
   14.5594   -4.5465    0.0000 N   0  0  0  0  0  0           0  0  0
   13.8406   -4.1387    0.0000 C   0  0  0  0  0  0           0  0  0
   13.1257   -4.5566    0.0000 C   0  0  0  0  0  0           0  0  0
 12 13  1  0     0  0
  2  4  1  0     0  0
 13 14  1  0     0  0
  3  5  1  0     0  0
 13 15  2  0     0  0
  4  6  1  0     0  0
 14 16  2  0     0  0
  5  6  1  0     0  0
 16 17  1  0     0  0
  7  8  1  0     0  0
 17 18  2  0     0  0
  3  7  1  0     0  0
 18 19  1  0     0  0
  2  9  1  0     0  0
 19 20  2  0     0  0
 20 14  1  0     0  0
  6 10  1  0     0  0
 16 21  1  0     0  0
 10  8  1  0     0  0
 19 22  1  0     0  0
  8  9  1  0     0  0
 22 23  1  0     0  0
 23 24  1  0     0  0
  8 11  1  0     0  0
  1  2  1  0     0  0
 11 12  1  0     0  0
  1  3  1  0     0  0
 23 28  1  0     0  0
 24 25  1  0     0  0
 25 26  1  0     0  0
 26 27  1  0     0  0
 27 28  1  0     0  0
M  END