
  SciTegic05221516342D

 26 27  0  0  0  0            999 V2000
    6.0829   -6.8132    0.0000 C   0  0
    6.0830   -5.9936    0.0000 C   0  0
    6.6622   -5.4144    0.0000 C   0  0
    6.6623   -7.3884    0.0000 C   0  0
    7.4818   -7.3884    0.0000 C   0  0
    8.0570   -6.8132    0.0000 C   0  0
    8.0569   -5.9936    0.0000 C   0  0
    7.4818   -5.4143    0.0000 C   0  0
    3.1326   -4.7752    0.0000 O   0  0
    3.9498   -4.7752    0.0000 S   0  0
    3.5412   -4.0675    0.0000 O   0  0
    3.2508   -6.0051    0.0000 C   0  0
    3.2497   -6.8246    0.0000 C   0  0
    3.9577   -7.2336    0.0000 C   0  0
    4.6674   -6.8241    0.0000 C   0  0
    4.6646   -6.0015    0.0000 C   0  0
    3.9559   -5.5962    0.0000 C   0  0
    4.6600   -4.3683    0.0000 N   0  0
    2.5430   -5.5967    0.0000 F   0  0
    2.5417   -7.2327    0.0000 F   0  0
    3.9575   -8.0508    0.0000 S   0  0
    5.3757   -7.2316    0.0000 F   0  0
    3.2497   -8.4592    0.0000 C   0  0
    3.2495   -9.2764    0.0000 C   0  0
    2.5417   -9.6848    0.0000 O   0  0
    5.3707   -5.5902    0.0000 N   0  0
  1  2  1  0
  2  3  1  0
  1  4  1  0
  4  5  1  0
  5  6  1  0
  6  7  1  0
  7  8  1  0
  8  3  1  0
 10  9  2  0
 11 10  2  0
 12 13  2  0
 13 14  1  0
 14 15  2  0
 15 16  1  0
 16 17  2  0
 17 12  1  0
 17 10  1  0
 10 18  1  0
 12 19  1  0
 13 20  1  0
 14 21  1  0
 15 22  1  0
 21 23  1  0
 23 24  1  0
 24 25  1  0
 16 26  1  0
 26  2  1  0
M  END