
  SciTegic04091416292D

 19 21  0  0  0  0            999 V2000
   24.3583  -24.0136    0.0000 C   0  0
   24.5894  -24.7998    0.0000 C   0  0
   25.3843  -24.9914    0.0000 C   0  0
   24.9186  -23.4217    0.0000 C   0  0
   25.7130  -23.6095    0.0000 C   0  0
   25.9509  -24.3976    0.0000 C   0  0
   26.3890  -23.1398    0.0000 N   0  0
   27.0447  -23.6375    0.0000 C   0  0
   26.7766  -24.4154    0.0000 C   0  0
   27.3132  -25.0331    0.0000 C   0  0
   28.1208  -24.8787    0.0000 N   0  0
   28.3889  -24.1008    0.0000 C   0  0
   27.8495  -23.4773    0.0000 C   0  0
   28.6559  -25.4964    0.0000 C   0  0
   28.3885  -26.2686    0.0000 C   0  0
   29.4583  -25.3418    0.0000 O   0  0
   24.0253  -25.3936    0.0000 N   0  3
   24.2563  -26.1775    0.0000 O   0  0
   23.2310  -25.2017    0.0000 O   0  5
  1  2  2  0
  2  3  1  0
  3  6  2  0
  5  4  2  0
  4  1  1  0
  5  6  1  0
  6  9  1  0
  8  7  1  0
  7  5  1  0
  8  9  2  0
  8 13  1  0
  9 10  1  0
 10 11  1  0
 11 12  1  0
 12 13  1  0
 11 14  1  0
 14 15  1  0
 14 16  2  0
 17 18  2  0
 17 19  1  0
  2 17  1  0
M  CHG  2  17   1  19  -1
M  END