
          11280714582D 1   1.00000     0.00000     0

 35 38  0     0  0            999 V2000
    3.8917   -6.2792    0.0000 N   0  0  3  0  0  0           0  0  0
    4.6042   -5.8750    0.0000 C   0  0  0  0  0  0           0  0  0
    6.0417  -10.0167    0.0000 C   0  0  0  0  0  0           0  0  0
    3.1792   -5.8750    0.0000 C   0  0  0  0  0  0           0  0  0
    5.3292   -6.2875    0.0000 C   0  0  0  0  0  0           0  0  0
    4.7292  -10.2917    0.0000 N   0  0  0  0  0  0           0  0  0
    5.2875   -9.6792    0.0000 N   0  0  0  0  0  0           0  0  0
    5.1417  -11.0125    0.0000 N   0  0  0  0  0  0           0  0  0
    5.9542  -10.8417    0.0000 N   0  0  0  0  0  0           0  0  0
    6.7625   -9.6000    0.0000 C   0  0  0  0  0  0           0  0  0
    6.7625   -8.7667    0.0000 C   0  0  0  0  0  0           0  0  0
    6.0417   -5.8750    0.0000 C   0  0  0  0  0  0           0  0  0
    4.6042   -5.0417    0.0000 C   0  0  0  0  0  0           0  0  0
    3.8917   -4.6250    0.0000 C   0  0  3  0  0  0           0  0  0
    3.1792   -5.0417    0.0000 C   0  0  0  0  0  0           0  0  0
    3.8917   -7.1125    0.0000 C   0  0  0  0  0  0           0  0  0
    6.0417   -8.3542    0.0000 C   0  0  0  0  0  0           0  0  0
    2.4625   -6.2875    0.0000 O   0  0  0  0  0  0           0  0  0
    6.0500   -5.0417    0.0000 O   0  0  0  0  0  0           0  0  0
    6.0417   -7.5250    0.0000 C   0  0  0  0  0  0           0  0  0
    5.3250   -8.7667    0.0000 C   0  0  0  0  0  0           0  0  0
    4.6125   -7.5292    0.0000 C   0  0  0  0  0  0           0  0  0
    6.7667   -6.2875    0.0000 O   0  0  0  0  0  0           0  0  0
    5.3250   -7.1125    0.0000 C   0  0  0  0  0  0           0  0  0
    4.6042   -8.3542    0.0000 C   0  0  0  0  0  0           0  0  0
    7.4792  -10.0167    0.0000 C   0  0  0  0  0  0           0  0  0
    7.4792   -8.3542    0.0000 C   0  0  0  0  0  0           0  0  0
    4.3000   -3.9042    0.0000 C   0  0  0  0  0  0           0  0  0
    3.4667   -3.9292    0.0000 C   0  0  0  0  0  0           0  0  0
    7.4792   -5.8750    0.0000 C   0  0  0  0  0  0           0  0  0
    3.8625   -3.2042    0.0000 C   0  0  0  0  0  0           0  0  0
    8.1917   -9.5917    0.0000 C   0  0  0  0  0  0           0  0  0
    8.1917   -8.7625    0.0000 C   0  0  0  0  0  0           0  0  0
    8.2000   -6.2917    0.0000 C   0  0  0  0  0  0           0  0  0
    4.2792   -2.4792    0.0000 C   0  0  0  0  0  0           0  0  0
  2  1  1  0     0  0
  3 10  1  0     0  0
  4  1  1  0     0  0
  5  2  2  0     0  0
  6  7  2  0     0  0
  7  3  1  0     0  0
  8  9  1  0     0  0
  9  3  2  0     0  0
 10 11  2  0     0  0
 11 17  1  0     0  0
 12  5  1  0     0  0
 13  2  1  0     0  0
 14 15  1  0     0  0
 15  4  1  0     0  0
 16  1  1  0     0  0
 17 21  2  0     0  0
 18  4  2  0     0  0
 19 12  2  0     0  0
 20 24  2  0     0  0
 21 25  1  0     0  0
 22 16  1  0     0  0
 23 12  1  0     0  0
 24 22  1  0     0  0
 25 22  2  0     0  0
 26 10  1  0     0  0
 27 11  1  0     0  0
 28 14  1  0     0  0
 29 14  1  0     0  0
 30 23  1  0     0  0
 31 28  1  0     0  0
 32 33  1  0     0  0
 33 27  2  0     0  0
 34 30  1  0     0  0
 35 31  1  0     0  0
 14 13  1  0     0  0
 20 17  1  0     0  0
 32 26  2  0     0  0
  8  6  1  0     0  0
M  END