
          11280715432D 1   1.00000     0.00000     0

 18 19  0     1  0            999 V2000
   -0.5250   -0.6500    0.0000 C   0  0  0  0  0  0           0  0  0
    0.3000   -0.6500    0.0000 N   0  0  0  0  0  0           0  0  0
    0.5542    0.1333    0.0000 C   0  0  0  0  0  0           0  0  0
   -1.0208   -1.3167    0.0000 N   0  0  0  0  0  0           0  0  0
   -0.7833    0.1458    0.0000 S   0  0  0  0  0  0           0  0  0
   -0.1000    0.6208    0.0000 C   0  0  0  0  0  0           0  0  0
   -1.8458   -1.2250    0.0000 C   0  0  0  0  0  0           0  0  0
    1.3542    0.3500    0.0000 C   0  0  0  0  0  0           0  0  0
   -2.3250   -1.9000    0.0000 O   0  0  0  0  0  0           0  0  0
   -2.1833   -0.4750    0.0000 C   0  0  1  0  0  0           0  0  0
   -2.9958   -0.3875    0.0000 N   0  0  0  0  0  0           0  0  0
   -0.1000    1.4458    0.0000 C   0  0  0  0  0  0           0  0  0
    1.4417    1.1708    0.0000 C   0  0  0  0  0  0           0  0  0
    2.0167   -0.1375    0.0000 C   0  0  0  0  0  0           0  0  0
   -1.6875    0.1958    0.0000 C   0  0  0  0  0  0           0  0  0
    2.1917    1.5083    0.0000 C   0  0  0  0  0  0           0  0  0
    2.7750    0.2000    0.0000 C   0  0  0  0  0  0           0  0  0
    2.8542    1.0250    0.0000 C   0  0  0  0  0  0           0  0  0
  2  1  2  0     0  0
  3  2  1  0     0  0
  4  1  1  0     0  0
  5  1  1  0     0  0
  6  5  1  0     0  0
  7  4  1  0     0  0
  8  3  1  0     0  0
  9  7  2  0     0  0
 10  7  1  0     0  0
 11 10  1  0     0  0
 12  6  1  0     0  0
 13  8  2  0     0  0
 14  8  1  0     0  0
 10 15  1  1     0  0
 16 13  1  0     0  0
 17 14  2  0     0  0
 18 17  1  0     0  0
  6  3  2  0     0  0
 18 16  2  0     0  0
M  END