
  SciTegic10041313232D

 30 31  0  0  1  0            999 V2000
    4.2375   -8.9000    0.0000 C   0  0
    4.9500   -9.3167    0.0000 N   0  0
    6.3792   -9.3250    0.0000 C   0  0
    3.5167   -9.3125    0.0000 N   0  0
    9.3454   -8.4369    0.0000 N   0  0
    7.0917   -8.9167    0.0000 N   0  0
    5.6667   -8.9042    0.0000 C   0  0  2  0  0  0
    8.5167   -8.9167    0.0000 C   0  0
    4.2292   -8.0750    0.0000 O   0  0
    6.3750  -10.1500    0.0000 O   0  0
    5.6667   -8.0792    0.0000 C   0  0
    2.1000  -10.1375    0.0000 O   0  0
    7.8042   -9.3292    0.0000 C   0  0  1  0  0  0
    5.2542   -7.3625    0.0000 C   0  0
    7.8000  -10.7542    0.0000 C   0  0
    3.5167  -10.1375    0.0000 C   0  0
    2.8042   -8.8917    0.0000 C   0  0
    7.3917  -10.0417    0.0000 C   0  0
    7.3792  -11.4667    0.0000 C   0  0
    2.8042  -10.5417    0.0000 C   0  0
    2.1000   -9.3125    0.0000 C   0  0
    5.6625   -6.6417    0.0000 C   0  0
    6.5542  -11.4542    0.0000 C   0  0
    7.7917  -12.1750    0.0000 C   0  0
    6.4875   -6.6417    0.0000 C   0  0
    5.2417   -5.9292    0.0000 C   0  0
    7.3792  -12.8875    0.0000 C   0  0
    6.1417  -12.1667    0.0000 C   0  0
    6.5542  -12.8875    0.0000 C   0  0
    8.2167  -10.0417    0.0000 H   0  0
  2  1  1  0
  3  7  1  0
  4  1  1  0
  5  8  3  0
  6  3  1  0
  7  2  1  0
  8 13  1  0
  9  1  2  0
 10  3  2  0
  7 11  1  1
 12 21  1  0
 13  6  1  0
 14 11  1  0
 15 18  1  0
 16  4  1  0
 17  4  1  0
 13 18  1  1
 19 15  1  0
 20 16  1  0
 21 17  1  0
 22 14  1  0
 23 19  2  0
 24 19  1  0
 25 22  1  0
 26 22  1  0
 27 24  2  0
 28 23  1  0
 29 27  1  0
 13 30  1  6
 12 20  1  0
 29 28  2  0
M  END