
  Mrv0541 12291417512D          

 23 26  0  0  0  0            999 V2000
   13.0132   -8.6300    0.0000 N   0  0  0  0  0  0  0  0  0  0  0  0
   12.3652   -9.9631    0.0000 C   0  0  0  0  0  0  0  0  0  0  0  0
   12.3652   -9.1418    0.0000 C   0  0  0  0  0  0  0  0  0  0  0  0
   13.0132  -10.4790    0.0000 C   0  0  0  0  0  0  0  0  0  0  0  0
   13.8097   -8.8158    0.0000 C   0  0  0  0  0  0  0  0  0  0  0  0
   13.8097  -10.2933    0.0000 N   0  0  0  0  0  0  0  0  0  0  0  0
   14.2224   -8.1017    0.0000 N   0  0  0  0  0  0  0  0  0  0  0  0
   13.6941   -7.4868    0.0000 N   0  0  0  0  0  0  0  0  0  0  0  0
   12.9389   -7.8087    0.0000 C   0  0  0  0  0  0  0  0  0  0  0  0
   12.8357  -11.2673    0.0000 C   0  0  0  0  0  0  0  0  0  0  0  0
   14.1646   -9.5504    0.0000 C   0  0  0  0  0  0  0  0  0  0  0  0
   11.6553   -8.7291    0.0000 C   0  0  0  0  0  0  0  0  0  0  0  0
   11.6553  -10.3717    0.0000 C   0  0  0  0  0  0  0  0  0  0  0  0
   13.4217  -11.8534    0.0000 C   0  0  0  0  0  0  0  0  0  0  0  0
   10.9454   -9.9631    0.0000 C   0  0  0  0  0  0  0  0  0  0  0  0
   10.9454   -9.1418    0.0000 C   0  0  0  0  0  0  0  0  0  0  0  0
   14.2100  -11.6181    0.0000 Cl  0  0  0  0  0  0  0  0  0  0  0  0
   10.2273  -10.3717    0.0000 Cl  0  0  0  0  0  0  0  0  0  0  0  0
   12.0309  -11.5315    0.0000 C   0  0  0  0  0  0  0  0  0  0  0  0
   12.2290   -7.4001    0.0000 C   0  0  0  0  0  0  0  0  0  0  0  0
   13.2443  -12.6376    0.0000 C   0  0  0  0  0  0  0  0  0  0  0  0
   11.8699  -12.3157    0.0000 C   0  0  0  0  0  0  0  0  0  0  0  0
   12.4477  -12.8935    0.0000 C   0  0  0  0  0  0  0  0  0  0  0  0
  2  3  1  0  0  0  0
  3  1  1  0  0  0  0
  4  2  1  0  0  0  0
  5  1  1  0  0  0  0
  6 11  1  0  0  0  0
  7  5  2  0  0  0  0
  8  9  2  0  0  0  0
  9  1  1  0  0  0  0
 10  4  1  0  0  0  0
 11  5  1  0  0  0  0
 12  3  2  0  0  0  0
 13  2  2  0  0  0  0
 14 10  2  0  0  0  0
 15 16  2  0  0  0  0
 16 12  1  0  0  0  0
 17 14  1  0  0  0  0
 18 15  1  0  0  0  0
 19 10  1  0  0  0  0
 20  9  1  0  0  0  0
 21 14  1  0  0  0  0
 22 19  2  0  0  0  0
 23 22  1  0  0  0  0
  8  7  1  0  0  0  0
  6  4  2  0  0  0  0
 13 15  1  0  0  0  0
 21 23  2  0  0  0  0
M  END