
  SciTegic04091511462D

 82 86  0  0  1  0            999 V2000
    5.1106   -1.0111    0.0000 N   0  0
    3.4641   -7.0001    0.0000 N   0  0
    2.8177   -0.3868    0.0000 N   0  0
    0.9779   -1.9061    0.0000 N   0  0
    4.0774   -6.4310    0.0000 C   0  0
    5.6188   -1.6630    0.0000 C   0  0  2  0  0  0
    5.9172   -2.4531    0.0000 C   0  0
    2.0608   -0.6851    0.0000 C   0  0
    4.4254   -0.5635    0.0000 C   0  0
    0.7680   -2.7238    0.0000 C   0  0
    3.9006   -5.6244    0.0000 C   0  0  1  0  0  0
    4.6741   -5.3095    0.0000 N   0  0
    5.9669   -3.2874    0.0000 N   0  0
    1.4254   -1.2100    0.0000 C   0  0  2  0  0  0
    5.3039   -4.7901    0.0000 C   0  0
    4.2597   -8.2542    0.0000 C   0  0
    3.6464   -0.3371    0.0000 C   0  0  2  0  0  0
    5.7514   -4.0940    0.0000 C   0  0  2  0  0  0
    3.5526   -7.8398    0.0000 C   0  0  2  0  0  0
    4.9614  -10.3426    0.0000 C   0  0
    0.8122   -3.5636    0.0000 C   0  0
    4.2597   -9.0995    0.0000 N   0  0
    5.6686  -10.7736    0.0000 N   0  0
    6.4973   -4.4420    0.0000 C   0  0
    5.6686  -11.6023    0.0000 C   0  0  2  0  0  0
    6.3813  -12.0222    0.0000 C   0  0
    2.3039   -5.4531    0.0000 S   0  0
    1.6133   -4.9946    0.0000 S   0  0
    6.5802   -5.2708    0.0000 C   0  0
    1.0995   -4.3426    0.0000 C   0  0
    4.9614   -9.5139    0.0000 C   0  0  1  0  0  0
    4.8564   -6.6962    0.0000 O   0  0
    6.7128   -2.2707    0.0000 O   0  0
    1.7403    0.0000    0.0000 O   0  0
    0.8177   -0.6520    0.0000 C   0  0
   -0.0497   -2.6354    0.0000 O   0  0
    4.7569    0.2099    0.0000 O   0  0
    3.0885   -5.6686    0.0000 C   0  0
    4.9614   -7.8398    0.0000 O   0  0
    5.9172   -5.3592    0.0000 O   0  0
    4.2597  -10.7736    0.0000 O   0  0
    4.9614  -12.0167    0.0000 C   0  0
    6.3315   -1.2431    0.0000 C   0  0  2  0  0  0
    7.0940  -11.6023    0.0000 O   0  0
    5.9172   -5.7680    0.0000 O   0  0
    6.3813  -12.8510    0.0000 N   0  0
    3.7183    0.4917    0.0000 C   0  0  2  0  0  0
    2.6575   -6.8288    0.0000 C   0  0
    7.3260   -5.6078    0.0000 N   0  0
    0.9945    0.1657    0.0000 C   0  0
    4.1492  -12.0167    0.0000 C   0  0
    2.5194  -12.0057    0.0000 C   0  0
    1.3260    1.8066    0.0000 C   0  0
    3.7459  -11.2874    0.0000 C   0  0
    0.3812    0.7293    0.0000 C   0  0
    3.7459  -12.7294    0.0000 C   0  0
    1.7625    0.4309    0.0000 C   0  0
    7.8067   -9.5139    0.0000 N   0  0
    0.5470    1.5414    0.0000 C   0  0
    2.9337  -12.7294    0.0000 C   0  0
    1.9282    1.2431    0.0000 C   0  0
    2.9337  -11.2874    0.0000 C   0  0
    6.3315   -0.4144    0.0000 O   0  0
    2.8011   -8.1713    0.0000 C   0  0
    1.7072  -12.0057    0.0000 O   0  0
    1.4917    2.6188    0.0000 O   0  0
    2.2597   -7.5581    0.0000 C   0  0
    1.1989   -5.1216    0.0000 C   0  0
    0.4972   -3.8675    0.0000 C   0  0
    5.6686   -9.0995    0.0000 C   0  0
    7.0940   -9.0995    0.0000 C   0  0
    4.4586    0.8287    0.0000 C   0  0
    7.0443   -1.6630    0.0000 C   0  0
    3.0663    0.9779    0.0000 C   0  0
    6.3813   -9.5139    0.0000 C   0  0
    4.5580    1.6575    0.0000 C   0  0
   -0.2155   -4.2928    0.0000 C   0  0
    0.4972   -5.5360    0.0000 C   0  0
   -0.2155   -5.1216    0.0000 C   0  0
    2.7214    0.6129    0.0000 H   0  0
    5.8668   -0.3604    0.0000 H   0  0
    0.8742    3.1658    0.0000 C   0  0
  2  5  1  0
  3 17  1  0
  4 14  1  0
 11  5  1  6
  6  1  1  0
  7  6  1  0
  8  3  1  0
  9  1  1  0
 10  4  1  0
 11 12  1  0
 12 15  1  0
 13  7  1  0
 14  8  1  0
 15 18  1  0
 19 16  1  6
 17  9  1  0
 18 13  1  0
 19  2  1  0
 20 31  1  0
 21 10  1  0
 22 16  1  0
 23 20  1  0
 18 24  1  1
 25 23  1  6
 26 25  1  0
 27 38  1  0
 28 30  1  0
 29 24  1  0
 30 21  1  0
 31 22  1  1
 32  5  2  0
 33  7  2  0
 34  8  2  0
 14 35  1  1
 36 10  2  0
 37  9  2  0
 11 38  1  0
 39 16  2  0
 40 15  2  0
 41 20  2  0
 25 42  1  0
  6 43  1  0
 44 26  2  0
 45 29  2  0
 46 26  1  0
 17 47  1  0
 48  2  1  0
 49 29  1  0
 50 35  1  0
 51 42  1  0
 52 60  1  0
 53 61  2  0
 54 51  2  0
 55 50  1  0
 56 51  1  0
 57 50  2  0
 58 71  1  0
 59 55  2  0
 60 56  2  0
 61 57  1  0
 62 54  1  0
 43 63  1  6
 19 64  1  0
 65 52  1  0
 66 53  1  0
 67 48  1  0
 68 30  1  0
 69 30  1  0
 31 70  1  0
 71 75  1  0
 72 47  1  0
 43 73  1  0
 47 74  1  1
 75 70  1  0
 76 72  1  0
 77 69  1  0
 78 68  1  0
 79 77  1  0
 53 59  1  0
 28 27  1  0
 64 67  1  0
 79 78  1  0
 52 62  2  0
 17 80  1  6
  6 81  1  6
 66 82  1  0
M  END