
  SciTegic02011310462D

 29 32  0  0  0  0            999 V2000
   10.5764   -6.2586    0.0000 C   0  0
   10.0915   -6.9260    0.0000 N   0  0
    9.3068   -6.6711    0.0000 C   0  0
    9.3068   -5.8461    0.0000 C   0  0
   10.0915   -5.5912    0.0000 C   0  0
    8.5924   -5.4336    0.0000 C   0  0
    7.8779   -5.8461    0.0000 C   0  0
    7.8779   -6.6711    0.0000 C   0  0
    8.5924   -7.0836    0.0000 C   0  0
   11.4014   -6.2586    0.0000 O   0  0
    7.1634   -5.4336    0.0000 S   0  0
    6.4489   -5.8461    0.0000 N   0  0
    6.4489   -6.6711    0.0000 C   0  0
    5.7345   -7.0836    0.0000 C   0  0
    5.0200   -6.6711    0.0000 N   0  0
    5.0200   -5.8461    0.0000 C   0  0
    5.7345   -5.4336    0.0000 C   0  0
    4.3055   -7.0836    0.0000 C   0  0
    4.3055   -7.9086    0.0000 C   0  0
    3.5911   -8.3211    0.0000 C   0  0
    2.8766   -7.9086    0.0000 C   0  0
    2.8766   -7.0836    0.0000 C   0  0
    3.5911   -6.6711    0.0000 C   0  0
    2.1621   -8.3211    0.0000 C   0  0
    2.1621   -9.1461    0.0000 O   0  0
    1.4477   -7.9086    0.0000 C   0  0
    6.7509   -4.7191    0.0000 O   0  0
    7.5759   -4.7191    0.0000 O   0  0
    7.1634   -7.0836    0.0000 Cl  0  0
  1  2  1  0
  2  3  1  0
  3  4  1  0
  4  5  1  0
  1  5  1  0
  6  7  1  0
  7  8  2  0
  8  9  1  0
  3  9  2  0
  4  6  2  0
  1 10  2  0
 12 13  1  0
 13 14  1  0
 14 15  1  0
 15 16  1  0
 16 17  1  0
 12 17  1  0
 11 12  1  0
 18 19  1  0
 19 20  2  0
 20 21  1  0
 21 22  2  0
 22 23  1  0
 18 23  2  0
 24 25  2  0
 24 26  1  0
 21 24  1  0
 15 18  1  0
  7 11  1  0
 11 27  2  0
 11 28  2  0
  8 29  1  0
M  END