
  SciTegic03291108492D

 27 31  0  0  0  0            999 V2000
    1.2431   -2.2068    0.0000 S   0  0
    0.8065    0.5184    0.0000 S   0  0
   -2.5079   -1.2148    0.0000 O   0  0
   -2.5079    1.2602    0.0000 O   0  0
    2.4626   -1.3208    0.0000 N   0  0
    2.1655    0.0769    0.0000 N   0  0
    0.5765    1.9705    0.0000 N   0  0
    1.8461    1.5580    0.0000 N   0  0
    1.0615    2.6379    0.0000 N   0  0
    1.8461    2.3830    0.0000 N   0  0
    1.1036   -0.8793    0.0000 C   0  0
    0.3499   -1.2148    0.0000 C   0  0
    1.6556   -1.4924    0.0000 C   0  0
    1.3586   -0.0947    0.0000 C   0  0
   -0.3645   -0.8023    0.0000 C   0  0
    0.4362   -2.0353    0.0000 C   0  0
   -1.7935   -0.8023    0.0000 C   0  0
   -1.0790   -1.2148    0.0000 C   0  0
   -1.7935    0.0227    0.0000 C   0  0
    1.0615    1.3031    0.0000 C   0  0
   -0.3645    0.0227    0.0000 C   0  0
    2.7176   -0.5362    0.0000 C   0  0
   -1.0790    0.4352    0.0000 C   0  0
   -2.5079    0.4352    0.0000 C   0  0
   -3.2224    0.0227    0.0000 C   0  0
   -3.2224   -0.8023    0.0000 C   0  0
   -0.2485    1.9705    0.0000 C   0  0
  1 13  1  0
  1 16  1  0
  2 14  1  0
  2 20  1  0
  3 17  1  0
  3 26  1  0
  4 24  2  0
  5 13  2  0
  5 22  1  0
  6 14  1  0
  6 22  2  0
  7  9  1  0
  7 20  1  0
  7 27  1  0
  8 10  1  0
  8 20  2  0
  9 10  2  0
 11 12  1  0
 11 13  1  0
 11 14  2  0
 12 15  1  0
 12 16  2  0
 15 18  2  0
 15 21  1  0
 17 18  1  0
 17 19  2  0
 19 23  1  0
 19 24  1  0
 21 23  2  0
 24 25  1  0
 25 26  2  0
M  END