
          11280715262D 1   1.00000     0.00000     0

 33 36  0     0  0            999 V2000
    0.8375    0.7500    0.0000 N   0  0  3  0  0  0           0  0  0
    5.8500   -3.7667    0.0000 N   0  3  0  0  0  0           0  0  0
    0.1667    1.2333    0.0000 C   0  0  0  0  0  0           0  0  0
    1.5042    1.2333    0.0000 C   0  0  0  0  0  0           0  0  0
    5.8500   -2.9417    0.0000 C   0  0  0  0  0  0           0  0  0
    5.1292   -2.5292    0.0000 C   0  0  0  0  0  0           0  0  0
    5.1375   -4.1792    0.0000 O   0  5  0  0  0  0           0  0  0
    5.1292   -1.7042    0.0000 C   0  0  0  0  0  0           0  0  0
    0.8417   -0.0750    0.0000 C   0  0  3  0  0  0           0  0  0
    6.5667   -4.1750    0.0000 O   0  0  0  0  0  0           0  0  0
    4.4167   -1.2917    0.0000 C   0  0  0  0  0  0           0  0  0
    1.2417    2.0208    0.0000 C   0  0  0  0  0  0           0  0  0
    0.4167    2.0208    0.0000 C   0  0  0  0  0  0           0  0  0
    2.2875    0.9833    0.0000 O   0  0  0  0  0  0           0  0  0
   -0.6125    0.9708    0.0000 O   0  0  0  0  0  0           0  0  0
   -2.7333   -1.3250    0.0000 N   0  0  0  0  0  0           0  0  0
    1.5542   -0.4792    0.0000 C   0  0  0  0  0  0           0  0  0
    4.4042   -0.4667    0.0000 C   0  0  0  0  0  0           0  0  0
    3.7000   -1.7125    0.0000 C   0  0  0  0  0  0           0  0  0
    2.2667   -0.0667    0.0000 O   0  0  0  0  0  0           0  0  0
    0.1292   -0.4875    0.0000 C   0  0  0  0  0  0           0  0  0
    2.9875   -0.4792    0.0000 C   0  0  0  0  0  0           0  0  0
   -0.5875   -0.0792    0.0000 C   0  0  0  0  0  0           0  0  0
    2.9875   -1.3042    0.0000 C   0  0  0  0  0  0           0  0  0
    3.6917   -0.0625    0.0000 C   0  0  0  0  0  0           0  0  0
   -1.3000   -0.4917    0.0000 C   0  0  0  0  0  0           0  0  0
    6.5625   -2.5250    0.0000 C   0  0  0  0  0  0           0  0  0
    5.8375   -1.2917    0.0000 C   0  0  0  0  0  0           0  0  0
    6.5542   -1.6917    0.0000 C   0  0  0  0  0  0           0  0  0
   -2.7333   -0.5000    0.0000 C   0  0  0  0  0  0           0  0  0
   -2.0208   -1.7375    0.0000 C   0  0  0  0  0  0           0  0  0
   -2.0208   -0.0792    0.0000 C   0  0  0  0  0  0           0  0  0
   -1.3000   -1.3250    0.0000 C   0  0  0  0  0  0           0  0  0
  2  5  1  0     0  0
  3  1  1  0     0  0
  4  1  1  0     0  0
  5  6  1  0     0  0
  6  8  2  0     0  0
  7  2  1  0     0  0
  8 11  1  0     0  0
  9  1  1  0     0  0
 10  2  2  0     0  0
 11 18  1  0     0  0
 12  4  1  0     0  0
 13  3  1  0     0  0
 14  4  2  0     0  0
 15  3  2  0     0  0
 16 31  1  0     0  0
 17  9  1  0     0  0
 18 25  2  0     0  0
 19 24  1  0     0  0
 20 17  1  0     0  0
 21  9  1  0     0  0
 22 20  1  0     0  0
 23 21  1  0     0  0
 24 22  2  0     0  0
 25 22  1  0     0  0
 26 23  1  0     0  0
 27 29  1  0     0  0
 28  8  1  0     0  0
 29 28  2  0     0  0
 30 32  1  0     0  0
 31 33  2  0     0  0
 32 26  2  0     0  0
 33 26  1  0     0  0
 12 13  1  0     0  0
 30 16  2  0     0  0
 19 11  2  0     0  0
  5 27  2  0     0  0
M  CHG  2   2   1   7  -1
M  END