
  SciTegic09081514162D

 26 29  0  0  0  0            999 V2000
    2.1852   -2.6281    0.0000 N   0  0
    0.2917   -0.7475    0.0000 C   0  0
    0.2917    0.7475    0.0000 C   0  0
   -1.0028    1.5132    0.0000 C   0  0
   -2.3155    0.7475    0.0000 C   0  0
   -2.3155   -0.7475    0.0000 C   0  0
   -1.0028   -1.5132    0.0000 N   0  0
    2.5889    0.0182    0.0000 S   0  0
    1.7138    1.2033    0.0000 N   0  0
    1.7138   -1.2033    0.0000 C   0  0
   -3.6168    1.4950    0.0000 C   0  0
   -4.9144    0.7421    0.0000 C   0  0
   -6.2151    1.4892    0.0000 C   0  0
   -6.2185    2.9892    0.0000 C   0  0
   -4.9211    3.7421    0.0000 C   0  0
   -3.6204    2.9950    0.0000 C   0  0
   -7.5214    3.7340    0.0000 O   0  0
   -8.5585    3.1302    0.0000 C   0  0
   -4.9214    5.2429    0.0000 O   0  0
   -3.8826    5.8438    0.0000 C   0  0
    1.2781   -3.8165    0.0000 C   0  0
    1.8565   -5.2005    0.0000 C   0  0
    3.3443   -5.3916    0.0000 C   0  0
    4.2537   -4.1987    0.0000 C   0  0
    3.6753   -2.8147    0.0000 C   0  0
    3.8070   -6.4988    0.0000 O   0  0
  2  3  1  0
  3  4  1  0
  4  5  2  0
  5  6  1  0
  6  7  2  0
  2  7  1  0
  8  9  1  0
  8 10  1  0
  2 10  2  0
  3  9  2  0
  5 11  1  0
  1 10  1  0
 11 12  2  0
 12 13  1  0
 13 14  2  0
 14 15  1  0
 15 16  2  0
 16 11  1  0
 14 17  1  0
 17 18  1  0
 15 19  1  0
 19 20  1  0
  1 21  1  0
  1 25  1  0
 21 22  1  0
 22 23  1  0
 23 24  1  0
 24 25  1  0
 23 26  1  0
M  END