
  SciTegic09261414532D

 46 53  0  0  0  0            999 V2000
    0.2113  -13.3200    0.0000 C   0  0
    0.2101  -14.1482    0.0000 C   0  0
    0.9256  -14.5613    0.0000 C   0  0
    0.9237  -12.9069    0.0000 C   0  0
    1.6398  -13.3164    0.0000 C   0  0
    1.6401  -14.1482    0.0000 C   0  0
    2.4311  -14.4050    0.0000 N   0  0
    2.9199  -13.7319    0.0000 C   0  0
    2.4307  -13.0592    0.0000 N   0  0
    2.6866  -15.1902    0.0000 C   0  0
    3.7424  -13.7301    0.0000 C   0  0
    4.1549  -14.4467    0.0000 C   0  0
    4.9799  -14.4468    0.0000 C   0  0
    5.3933  -13.7310    0.0000 C   0  0
    4.9757  -13.0137    0.0000 C   0  0
    4.1521  -13.0172    0.0000 C   0  0
    6.2190  -13.7296    0.0000 O   0  0
    6.6331  -14.4441    0.0000 C   0  0
    7.4588  -14.4427    0.0000 C   0  0
    7.8729  -15.1571    0.0000 N   0  0
    7.5382  -15.9069    0.0000 C   0  0
    8.1523  -16.4591    0.0000 N   0  0
    8.6936  -15.2376    0.0000 C   0  0
    8.8629  -16.0422    0.0000 C   0  0
    9.6429  -16.2964    0.0000 C   0  0
   10.2542  -15.7469    0.0000 C   0  0
   10.0803  -14.9400    0.0000 C   0  0
    9.3005  -14.6897    0.0000 C   0  0
    6.8245  -16.3183    0.0000 C   0  0
    6.1105  -15.9013    0.0000 C   0  0
    5.3945  -16.3111    0.0000 C   0  0
    5.3913  -17.1377    0.0000 C   0  0
    6.1101  -17.5529    0.0000 C   0  0
    6.8231  -17.1406    0.0000 C   0  0
    2.1342  -15.8040    0.0000 C   0  0
    1.3283  -15.6312    0.0000 C   0  0
    0.7762  -16.2441    0.0000 C   0  0
    1.0315  -17.0304    0.0000 C   0  0
    1.8439  -17.2001    0.0000 C   0  0
    2.3924  -16.5858    0.0000 C   0  0
    7.8705  -13.7269    0.0000 C   0  0
    8.6946  -13.7286    0.0000 C   0  0
    9.1062  -13.0170    0.0000 C   0  0
    8.6957  -12.3001    0.0000 C   0  0
    7.8689  -12.2996    0.0000 N   0  0
    7.4528  -13.0158    0.0000 C   0  0
  1  2  2  0
  2  3  1  0
  3  6  2  0
  5  4  2  0
  4  1  1  0
  5  6  1  0
  6  7  1  0
  7  8  1  0
  8  9  2  0
  9  5  1  0
  7 10  1  0
 11 12  2  0
 12 13  1  0
 13 14  2  0
 14 15  1  0
 15 16  2  0
 16 11  1  0
  8 11  1  0
 14 17  1  0
 17 18  1  0
 18 19  1  0
 19 20  1  0
 20 21  1  0
 21 22  2  0
 22 24  1  0
 23 20  1  0
 23 24  2  0
 24 25  1  0
 25 26  2  0
 26 27  1  0
 27 28  2  0
 28 23  1  0
 29 30  2  0
 30 31  1  0
 31 32  2  0
 32 33  1  0
 33 34  2  0
 34 29  1  0
 21 29  1  0
 10 35  1  0
 35 36  2  0
 36 37  1  0
 37 38  2  0
 38 39  1  0
 39 40  2  0
 40 35  1  0
 19 41  1  0
 41 42  1  0
 41 46  1  0
 42 43  1  0
 43 44  1  0
 44 45  1  0
 45 46  1  0
M  END