
  SciTegic05061116452D

 34 38  0  0  0  0            999 V2000
    2.7188   -0.0249    0.0000 C   0  0
    2.7177   -0.8495    0.0000 C   0  0
    3.4301   -1.2611    0.0000 C   0  0
    4.1442   -0.8491    0.0000 C   0  0
    4.1414   -0.0212    0.0000 C   0  0
    3.4283    0.3865    0.0000 C   0  0
    2.0066    0.3861    0.0000 O   0  0
    1.2945   -0.0252    0.0000 C   0  0
    3.4258    1.2088    0.0000 N   0  0
    4.1368    1.6221    0.0000 C   0  0
    4.8480    1.2107    0.0000 N   0  0
    4.8380    2.8553    0.0000 C   0  0
    4.1305    2.4404    0.0000 N   0  0
    3.4304   -2.0784    0.0000 N   0  0
    2.7165   -2.4881    0.0000 C   0  0
    2.7143   -3.3068    0.0000 C   0  0
    3.4245   -3.7220    0.0000 N   0  0
    4.1385   -3.3123    0.0000 C   0  0
    4.1424   -2.4873    0.0000 C   0  0
    7.0400    2.8366    0.0000 C   0  0
    6.2123    2.9795    0.0000 N   0  0
    6.2619    1.0696    0.0000 N   0  0
    5.5592    1.6230    0.0000 C   0  0
    5.5565    2.4465    0.0000 C   0  0
    6.0683    0.1965    0.0000 C   0  0
    7.5222    3.5027    0.0000 O   0  0
    7.4544    2.0569    0.0000 C   0  0
    7.0963    1.2655    0.0000 C   0  0
    7.6023    0.5619    0.0000 C   0  0
    8.4664    0.6484    0.0000 C   0  0
    8.8221    1.4445    0.0000 C   0  0
    8.3139    2.1449    0.0000 C   0  0
    3.4212   -4.5443    0.0000 C   0  0
    6.0043    3.7751    0.0000 C   0  0
  6  9  1  0
 14 19  1  0
 15 16  1  0
 16 17  1  0
 17 18  1  0
 18 19  1  0
  3 14  1  0
  4  5  1  0
  9 10  1  0
  2  3  1  0
 10 11  2  0
 11 23  1  0
 27 20  1  0
 20 21  1  0
 22 23  1  0
 23 24  2  0
 24 21  1  0
 28 22  1  0
  5  6  2  0
 22 25  1  0
 24 12  1  0
 20 26  2  0
  6  1  1  0
 12 13  2  0
 27 28  2  0
 13 10  1  0
 28 29  1  0
 14 15  1  0
 29 30  2  0
  1  2  2  0
 30 31  1  0
  1  7  1  0
 31 32  2  0
 32 27  1  0
  3  4  2  0
 17 33  1  0
  7  8  1  0
 21 34  1  0
M  END