
          11290714372D 1   1.00000     0.00000     0

 57 59  0     1  0            999 V2000
   10.8385  -11.8164    0.0000 C   0  0  0  0  0  0           0  0  0
   11.2355  -11.0931    0.0000 C   0  0  2  0  0  0           0  0  0
   12.0603  -11.0753    0.0000 C   0  0  2  0  0  0           0  0  0
   10.8076  -10.3877    0.0000 O   0  0  0  0  0  0           0  0  0
   10.0137  -11.8342    0.0000 O   0  0  0  0  0  0           0  0  0
   12.4572  -10.3521    0.0000 C   0  0  1  0  0  0           0  0  0
   12.4880  -11.7807    0.0000 O   0  0  0  0  0  0           0  0  0
   13.2785  -10.3393    0.0000 C   0  0  1  0  0  0           0  0  0
   13.6755   -9.6203    0.0000 C   0  0  2  0  0  0           0  0  0
   13.2511   -8.9123    0.0000 C   0  0  0  0  0  0           0  0  0
   12.4252   -8.9281    0.0000 C   0  0  1  0  0  0           0  0  0
   12.0238   -9.6519    0.0000 O   0  0  0  0  0  0           0  0  0
   11.6270  -10.3678    0.0000 H   0  0  0  0  0  0           0  0  0
   13.7033  -11.0465    0.0000 N   0  0  0  0  0  0           0  0  0
   14.5282  -11.0322    0.0000 C   0  0  0  0  0  0           0  0  0
   14.9531  -11.7394    0.0000 C   0  0  0  0  0  0           0  0  0
   14.9282  -10.3106    0.0000 O   0  0  0  0  0  0           0  0  0
   14.5004   -9.6055    0.0000 O   0  0  0  0  0  0           0  0  0
   11.5951   -8.9464    0.0000 C   0  0  0  0  0  0           0  0  0
   11.1671   -8.2412    0.0000 O   0  0  0  0  0  0           0  0  0
   11.1983   -9.6698    0.0000 O   0  0  0  0  0  0           0  0  0
   12.4213   -8.1033    0.0000 O   0  0  0  0  0  0           0  0  0
   13.1357   -6.8565    0.0000 C   0  0  2  0  0  0           0  0  0
   13.1357   -7.6862    0.0000 C   0  0  2  0  0  0           0  0  0
   13.8482   -8.0952    0.0000 C   0  0  2  0  0  0           0  0  0
   14.5692   -7.6862    0.0000 C   0  0  2  0  0  0           0  0  0
   14.5692   -6.8565    0.0000 O   0  0  0  0  0  0           0  0  0
   13.8501   -6.4395    0.0000 C   0  0  1  0  0  0           0  0  0
   13.8489   -5.6146    0.0000 O   0  0  0  0  0  0           0  0  0
   12.4202   -6.4458    0.0000 O   0  0  0  0  0  0           0  0  0
   14.5478   -8.5325    0.0000 O   0  0  0  0  0  0           0  0  0
   15.2831   -8.0996    0.0000 C   0  0  0  0  0  0           0  0  0
   15.2819   -8.9246    0.0000 O   0  0  0  0  0  0           0  0  0
   14.5628   -5.2011    0.0000 C   0  0  1  0  0  0           0  0  0
   14.5617   -4.3761    0.0000 C   0  0  2  0  0  0           0  0  0
   15.2779   -5.6126    0.0000 C   0  0  2  0  0  0           0  0  0
   15.2756   -3.9626    0.0000 O   0  0  0  0  0  0           0  0  0
   13.8467   -3.9646    0.0000 C   0  0  2  0  0  0           0  0  0
   13.8391   -3.1363    0.0000 C   0  0  0  0  0  0           0  0  0
   13.1328   -4.3781    0.0000 N   0  0  0  0  0  0           0  0  0
   12.4177   -3.9666    0.0000 C   0  0  0  0  0  0           0  0  0
   11.7039   -4.3800    0.0000 C   0  0  0  0  0  0           0  0  0
   12.4166   -3.1416    0.0000 O   0  0  0  0  0  0           0  0  0
   13.0844   -2.8031    0.0000 O   0  0  0  0  0  0           0  0  0
   15.2745   -3.1376    0.0000 C   0  0  1  0  0  0           0  0  0
   15.9894   -2.7292    0.0000 C   0  0  2  0  0  0           0  0  0
   15.9903   -1.9078    0.0000 C   0  0  1  0  0  0           0  0  0
   15.2771   -1.4925    0.0000 C   0  0  1  0  0  0           0  0  0
   14.5613   -1.9046    0.0000 C   0  0  1  0  0  0           0  0  0
   14.5589   -2.7323    0.0000 O   0  0  0  0  0  0           0  0  0
   13.8477   -1.4907    0.0000 C   0  0  0  0  0  0           0  0  0
   15.2790   -0.6675    0.0000 O   0  0  0  0  0  0           0  0  0
   16.7057   -1.4970    0.0000 O   0  0  0  0  0  0           0  0  0
   16.7027   -3.1437    0.0000 O   0  0  0  0  0  0           0  0  0
   15.2790   -6.4376    0.0000 O   0  0  0  0  0  0           0  0  0
   15.9918   -5.1991    0.0000 C   0  0  0  0  0  0           0  0  0
   16.7068   -5.6106    0.0000 O   0  0  0  0  0  0           0  0  0
  2  3  1  0     0  0
 28 29  1  6     0  0
  8 14  1  1     0  0
 23 30  1  1     0  0
 24 22  1  6     0  0
  3  7  1  6     0  0
 25 31  1  6     0  0
 14 15  1  0     0  0
 26 32  1  6     0  0
  6  8  1  0     0  0
 32 33  1  0     0  0
 15 16  1  0     0  0
 34 29  1  1     0  0
 34 35  1  0     0  0
 15 17  2  0     0  0
 34 36  1  0     0  0
  2  4  1  1     0  0
 35 37  1  1     0  0
  9 18  1  6     0  0
 35 38  1  0     0  0
  1  2  1  0     0  0
 38 39  1  0     0  0
 11 19  1  0     0  0
 38 40  1  1     0  0
  1  5  1  0     0  0
 40 41  1  0     0  0
 19 20  2  0     0  0
 41 42  1  0     0  0
 41 43  2  0     0  0
 19 21  1  0     0  0
 39 44  2  0     0  0
  6 12  1  0     0  0
 45 37  1  6     0  0
 45 46  1  0     0  0
 23 24  1  0     0  0
  8  9  1  0     0  0
  9 10  1  0     0  0
 10 11  1  0     0  0
 11 12  1  0     0  0
 45 50  1  0     0  0
 46 47  1  0     0  0
 47 48  1  0     0  0
 48 49  1  0     0  0
 49 50  1  0     0  0
  3  6  1  0     0  0
 49 51  1  1     0  0
  6 13  1  1     0  0
 48 52  1  1     0  0
 23 28  1  0     0  0
 47 53  1  1     0  0
 24 25  1  0     0  0
 46 54  1  6     0  0
 25 26  1  0     0  0
 36 55  1  1     0  0
 26 27  1  0     0  0
 36 56  1  0     0  0
 27 28  1  0     0  0
 56 57  1  0     0  0
 11 22  1  6     0  0
M  END