
  SciTegic04091511462D

 70 73  0  0  1  0            999 V2000
    3.9311   -0.4031    0.0000 N   0  0
    2.2781   -6.3386    0.0000 N   0  0
    1.6235    0.2182    0.0000 N   0  0
   -0.2219   -1.2980    0.0000 N   0  0
    2.8882   -5.7801    0.0000 C   0  0
    4.4488   -1.0466    0.0000 C   0  0  2  0  0  0
    4.7410   -1.8232    0.0000 C   0  0
    0.8580   -0.0777    0.0000 C   0  0
    3.2433    0.0517    0.0000 C   0  0
   -0.4400   -2.0968    0.0000 C   0  0
    2.7218   -4.9702    0.0000 C   0  0  2  0  0  0
    3.4873   -4.6707    0.0000 N   0  0
    4.7854   -2.6515    0.0000 N   0  0
    0.2256   -0.6028    0.0000 C   0  0  2  0  0  0
    4.1197   -4.1530    0.0000 C   0  0
    3.0768   -7.5700    0.0000 C   0  0
    2.4518    0.2663    0.0000 C   0  0  2  0  0  0
    4.5746   -3.4540    0.0000 C   0  0  2  0  0  0
    2.3668   -7.1669    0.0000 C   0  0  2  0  0  0
   -0.3957   -2.9215    0.0000 C   0  0
    3.0768   -8.4095    0.0000 N   0  0
    5.3252   -3.7942    0.0000 C   0  0
    1.1094   -4.7965    0.0000 S   0  0
    3.7869   -9.6520    0.0000 C   0  0
    0.4142   -4.3490    0.0000 S   0  0
    5.4066   -4.6189    0.0000 C   0  0
   -0.0998   -3.7055    0.0000 C   0  0
    3.7869   -8.8237    0.0000 C   0  0  2  0  0  0
    3.6648   -6.0390    0.0000 O   0  0
    5.5398   -1.6457    0.0000 O   0  0
    0.4475    0.6397    0.0000 O   0  0
   -0.3883   -0.0370    0.0000 C   0  0
   -1.2499   -2.0081    0.0000 O   0  0
    3.5761    0.8062    0.0000 O   0  0
    1.9008   -5.0072    0.0000 C   0  0
    3.7869   -7.1669    0.0000 O   0  0
    4.7373   -4.7077    0.0000 O   0  0
    5.1588   -0.6324    0.0000 C   0  0  2  0  0  0
    3.0768  -10.0662    0.0000 O   0  0
    4.7410   -5.1071    0.0000 O   0  0
    2.5332    1.0872    0.0000 C   0  0  2  0  0  0
    1.4793   -6.1610    0.0000 C   0  0
    6.1573   -4.9591    0.0000 N   0  0
   -0.2182    0.7655    0.0000 C   0  0
   -0.9726   -0.9578    0.0000 C   0  0
    4.4969  -10.0662    0.0000 O   0  0
    0.1258    2.3926    0.0000 C   0  0
    0.5658    1.0280    0.0000 C   0  0
   -0.8283    1.3276    0.0000 C   0  0
    6.6381   -8.8237    0.0000 N   0  0
   -0.6546    2.1375    0.0000 C   0  0
    0.7359    1.8379    0.0000 C   0  0
    5.1588    0.1960    0.0000 O   0  0
    1.6124   -7.5035    0.0000 C   0  0
    0.2922    3.2025    0.0000 O   0  0
    1.0688   -6.8822    0.0000 C   0  0
   -0.0074   -4.4747    0.0000 C   0  0
   -0.7174   -3.2322    0.0000 C   0  0
    4.4969   -8.4095    0.0000 C   0  0
    5.9170   -8.4095    0.0000 C   0  0
    3.2839    1.4274    0.0000 C   0  0
    5.8689   -1.0466    0.0000 C   0  0
    1.8676    1.5754    0.0000 C   0  0
    5.2069   -8.8237    0.0000 C   0  0
    3.3727    2.2521    0.0000 C   0  0
   -1.4274   -3.6426    0.0000 C   0  0
   -0.7174   -4.8926    0.0000 C   0  0
   -1.4274   -4.4747    0.0000 C   0  0
    1.8372    0.9065    0.0000 H   0  0
    4.6100   -0.1738    0.0000 H   0  0
  2  5  1  0
  3 17  1  0
  4 14  1  0
 11  5  1  1
  6  1  1  0
  7  6  1  0
  8  3  1  0
  9  1  1  0
 10  4  1  0
 11 12  1  0
 12 15  1  0
 13  7  1  0
 14  8  1  0
 15 18  1  0
 19 16  1  6
 17  9  1  0
 18 13  1  0
 19  2  1  0
 20 10  1  0
 21 16  1  0
 18 22  1  1
 23 35  1  0
 24 28  1  0
 25 27  1  0
 26 22  1  0
 27 20  1  0
 28 21  1  1
 29  5  2  0
 30  7  2  0
 31  8  2  0
 14 32  1  1
 33 10  2  0
 34  9  2  0
 11 35  1  0
 36 16  2  0
 37 15  2  0
  6 38  1  0
 39 24  2  0
 40 26  2  0
 17 41  1  0
 42  2  1  0
 43 26  1  0
 44 32  1  0
 45  4  1  0
 46 24  1  0
 47 51  1  0
 48 44  2  0
 49 44  1  0
 50 60  1  0
 51 49  2  0
 52 48  1  0
 38 53  1  6
 19 54  1  0
 55 47  1  0
 56 42  1  0
 57 27  1  0
 58 27  1  0
 28 59  1  0
 60 64  1  0
 61 41  1  0
 38 62  1  0
 41 63  1  1
 64 59  1  0
 65 61  1  0
 66 58  1  0
 67 57  1  0
 68 66  1  0
 52 47  2  0
 25 23  1  0
 54 56  1  0
 68 67  1  0
 17 69  1  6
  6 70  1  6
M  END