
  SciTegic05061116452D

 26 28  0  0  0  0            999 V2000
    2.7620  -15.6843    0.0000 N   0  0
    3.4737  -15.2757    0.0000 C   0  0
    3.4737  -14.4508    0.0000 N   0  0
    2.7620  -14.0343    0.0000 C   0  0
    2.0502  -15.2757    0.0000 C   0  0
    2.0503  -14.4462    0.0000 C   0  0
    1.2613  -14.1897    0.0000 N   0  0
    0.7736  -14.8608    0.0000 C   0  0
    1.2613  -15.5320    0.0000 N   0  0
    0.8267  -16.2343    0.0000 C   0  0
    0.0019  -16.2094    0.0000 C   0  0
   -0.4319  -16.9110    0.0000 O   0  0
   -0.3887  -15.4827    0.0000 O   0  0
    2.7640  -13.2093    0.0000 N   0  0
    4.1876  -15.6891    0.0000 N   0  0
    4.9025  -15.2774    0.0000 C   0  0
    5.6165  -15.6908    0.0000 C   0  0
    6.3315  -15.2792    0.0000 C   0  0
    7.0455  -15.6925    0.0000 C   0  0
    7.7604  -15.2808    0.0000 C   0  0
    3.4794  -12.7986    0.0000 C   0  0
    4.1939  -13.2177    0.0000 C   0  0
    4.9089  -12.8077    0.0000 C   0  0
    4.9113  -11.9818    0.0000 C   0  0
    4.1928  -11.5677    0.0000 C   0  0
    3.4808  -11.9802    0.0000 C   0  0
  6  4  1  0
 11 13  2  0
  5  1  1  0
  4 14  1  0
  1  2  2  0
  2 15  1  0
  2  3  1  0
 15 16  1  0
  6  7  1  0
 16 17  1  0
  7  8  2  0
 17 18  1  0
  8  9  1  0
 18 19  1  0
  9  5  1  0
 19 20  1  0
  3  4  2  0
 14 21  1  0
  9 10  1  0
 21 22  2  0
  5  6  2  0
 22 23  1  0
 10 11  1  0
 23 24  2  0
 24 25  1  0
 11 12  1  0
 25 26  2  0
 26 21  1  0
M  END