
  CDK    9/16/09,10:6

 45 46  0  0  0  0  0  0  0  0999 V2000
    7.3113  -14.8275    0.0000 C   0  0  0  0  0  0  0  0  0  0  0  0
    7.3113  -15.6560    0.0000 C   0  0  0  0  0  0  0  0  0  0  0  0
    8.0275  -16.0701    0.0000 C   0  0  0  0  0  0  0  0  0  0  0  0
    8.7437  -15.6560    0.0000 C   0  0  0  0  0  0  0  0  0  0  0  0
    8.7437  -14.8275    0.0000 C   0  0  0  0  0  0  0  0  0  0  0  0
    8.0275  -14.4134    0.0000 C   0  0  0  0  0  0  0  0  0  0  0  0
    8.0264  -13.5896    0.0000 O   0  0  0  0  0  0  0  0  0  0  0  0
    8.0264  -16.8939    0.0000 O   0  0  0  0  0  0  0  0  0  0  0  0
    6.5988  -14.4197    0.0000 C   0  0  0  0  0  0  0  0  0  0  0  0
    6.5968  -13.5960    0.0000 C   0  0  0  0  0  0  0  0  0  0  0  0
    5.8796  -13.1835    0.0000 C   0  0  0  0  0  0  0  0  0  0  0  0
    7.3073  -13.1800    0.0000 C   0  0  0  0  0  0  0  0  0  0  0  0
    7.3053  -12.3563    0.0000 C   0  0  0  0  0  0  0  0  0  0  0  0
    8.0205  -11.9450    0.0000 C   0  0  0  0  0  0  0  0  0  0  0  0
    6.5928  -11.9485    0.0000 O   0  0  0  0  0  0  0  0  0  0  0  0
    6.5908  -11.1247    0.0000 C   0  0  0  0  0  0  0  0  0  0  0  0
    8.0185  -11.1213    0.0000 C   0  0  0  0  0  0  0  0  0  0  0  0
    8.7330  -12.3528    0.0000 O   0  0  0  0  0  0  0  0  0  0  0  0
    8.7290  -10.7053    0.0000 C   0  0  0  0  0  0  0  0  0  0  0  0
    7.3013  -10.7088    0.0000 C   0  0  0  0  0  0  0  0  0  0  0  0
    9.4462  -11.1178    0.0000 C   0  0  0  0  0  0  0  0  0  0  0  0
   10.1567  -10.7019    0.0000 C   0  0  0  0  0  0  0  0  0  0  0  0
    9.4482  -11.9416    0.0000 C   0  0  0  0  0  0  0  0  0  0  0  0
   10.9787  -10.6995    0.0000 C   0  0  0  0  0  0  0  0  0  0  0  0
   11.6908  -11.1137    0.0000 C   0  0  0  0  0  0  0  0  0  0  0  0
   11.1907   -9.9042    0.0000 O   0  0  0  0  0  0  0  0  0  0  0  0
   10.0386   -9.8875    0.0000 O   0  0  0  0  0  0  0  0  0  0  0  0
    9.2737   -9.5838    0.0000 C   0  0  0  0  0  0  0  0  0  0  0  0
    9.1519   -8.7641    0.0000 O   0  0  0  0  0  0  0  0  0  0  0  0
    8.6264  -10.0948    0.0000 N   0  0  0  0  0  0  0  0  0  0  0  0
   11.9906   -9.6919    0.0000 C   0  0  0  0  0  0  0  0  0  0  0  0
   11.6887  -11.9374    0.0000 C   0  0  0  0  0  0  0  0  0  0  0  0
   10.9715  -12.3452    0.0000 C   0  0  0  0  0  0  0  0  0  0  0  0
   10.9695  -13.1690    0.0000 C   0  0  0  0  0  0  0  0  0  0  0  0
   11.6845  -13.5849    0.0000 C   0  0  0  0  0  0  0  0  0  0  0  0
    9.4604  -14.4187    0.0000 N   0  0  0  0  0  0  0  0  0  0  0  0
    9.4611  -13.5950    0.0000 C   0  0  0  0  0  0  0  0  0  0  0  0
    8.7454  -13.1800    0.0000 O   0  0  0  0  0  0  0  0  0  0  0  0
    6.5998  -16.0701    0.0000 N   0  0  0  0  0  0  0  0  0  0  0  0
    5.8729  -15.6539    0.0000 C   0  0  0  0  0  0  0  0  0  0  0  0
    5.1489  -16.0754    0.0000 C   0  0  0  0  0  0  0  0  0  0  0  0
    4.4219  -15.6591    0.0000 N   0  0  0  0  0  0  0  0  0  0  0  0
    3.6980  -16.0805    0.0000 C   0  0  0  0  0  0  0  0  0  0  0  0
    4.4189  -14.8214    0.0000 C   0  0  0  0  0  0  0  0  0  0  0  0
    9.5686  -12.3516    0.0000 C   0  0  0  0  0  0  0  0  0  0  0  0
 10 11  1  1  0  0  0 
 21 23  1  0  0  0  0 
  4  5  2  0  0  0  0 
 22 24  1  0  0  0  0 
 10 12  1  0  0  0  0 
 24 25  1  0  0  0  0 
  5  6  1  0  0  0  0 
 24 26  1  1  0  0  0 
 12 13  1  0  0  0  0 
 22 27  1  6  0  0  0 
 27 28  1  0  0  0  0 
 13 14  1  0  0  0  0 
 28 29  2  0  0  0  0 
  6  7  2  0  0  0  0 
 28 30  1  0  0  0  0 
 13 15  1  6  0  0  0 
 26 31  1  0  0  0  0 
  1  2  2  0  0  0  0 
 25 32  2  0  0  0  0 
 15 16  1  0  0  0  0 
 32 33  1  0  0  0  0 
  3  8  2  0  0  0  0 
 33 34  2  0  0  0  0 
 14 17  1  0  0  0  0 
 34 35  1  0  0  0  0 
  1  6  1  0  0  0  0 
  5 36  1  0  0  0  0 
 14 18  1  1  0  0  0 
 36 37  1  0  0  0  0 
  1  9  1  0  0  0  0 
 37 38  2  0  0  0  0 
 37 34  1  0  0  0  0 
 17 19  1  0  0  0  0 
  2 39  1  0  0  0  0 
  2  3  1  0  0  0  0 
 39 40  1  0  0  0  0 
 17 20  1  1  0  0  0 
 40 41  1  0  0  0  0 
  9 10  1  0  0  0  0 
 41 42  1  0  0  0  0 
 19 21  2  0  0  0  0 
 42 43  1  0  0  0  0 
  3  4  1  0  0  0  0 
 42 44  1  0  0  0  0 
 21 22  1  0  0  0  0 
 18 45  1  0  0  0  0 
M  END