
  SciTegic01161211262D

 28 30  0  0  0  0            999 V2000
    3.3771  -21.8652    0.0000 C   0  0
   -0.1931  -22.2859    0.0000 C   0  0
   -0.1943  -23.1131    0.0000 C   0  0
    0.5205  -23.5259    0.0000 C   0  0
    1.2367  -23.1126    0.0000 C   0  0
    1.2338  -22.2823    0.0000 C   0  0
    0.5186  -21.8733    0.0000 C   0  0
   -0.9088  -23.5249    0.0000 N   0  0
   -1.6228  -23.1120    0.0000 C   0  0
   -2.3374  -23.5238    0.0000 N   0  0
   -1.6221  -22.2872    0.0000 O   0  0
   -3.0514  -23.1104    0.0000 C   0  0
   -3.3252  -22.3312    0.0000 C   0  0
   -4.1506  -22.3469    0.0000 C   0  0
   -4.3896  -23.1375    0.0000 O   0  0
   -3.7108  -23.6078    0.0000 N   0  0
   -4.6489  -21.6894    0.0000 C   0  0
   -4.2734  -20.9551    0.0000 C   0  0
   -5.4726  -21.7315    0.0000 C   0  0
   -5.1748  -21.0440    0.0000 C   0  0
    4.0912  -22.2802    0.0000 C   0  0
    4.8054  -21.8693    0.0000 C   0  0
    3.3764  -21.0440    0.0000 C   0  0
    4.0878  -20.6306    0.0000 N   0  0
    4.8049  -21.0450    0.0000 C   0  0
    1.9466  -21.8672    0.0000 C   0  0
    2.6624  -22.2769    0.0000 N   0  0
    1.9435  -21.0422    0.0000 O   0  0
  3  8  1  0
 12 13  1  0
 14 15  1  0
 15 16  1  0
 16 12  2  0
  4  5  2  0
 14 17  1  0
  8  9  1  0
 17 18  1  0
 17 19  1  0
  9 10  1  0
 17 20  1  0
  5  6  1  0
  6 26  1  0
  9 11  2  0
 26 27  1  0
  3  4  1  0
 27  1  1  0
 10 12  1  0
  1 21  2  0
 13 14  2  0
 21 22  1  0
 22 25  2  0
  6  7  2  0
 24 23  2  0
 23  1  1  0
  7  2  1  0
  2  3  2  0
 24 25  1  0
 26 28  2  0
M  END