
          11280714532D 1   1.00000     0.00000     0

 30 33  0     0  0            999 V2000
    7.8417   -3.1667    0.0000 C   0  0  0  0  0  0           0  0  0
    7.1250   -2.7417    0.0000 C   0  0  0  0  0  0           0  0  0
    7.8417   -4.0000    0.0000 C   0  0  0  0  0  0           0  0  0
    8.5625   -2.7542    0.0000 N   0  3  0  0  0  0           0  0  0
    6.4042   -3.1667    0.0000 C   0  0  0  0  0  0           0  0  0
    7.1167   -4.4125    0.0000 O   0  0  0  0  0  0           0  0  0
    6.4000   -4.0000    0.0000 C   0  0  0  0  0  0           0  0  0
    3.5500   -3.9917    0.0000 N   0  0  3  0  0  0           0  0  0
    2.1250   -3.1792    0.0000 N   0  0  3  0  0  0           0  0  0
    5.6875   -2.7542    0.0000 C   0  0  0  0  0  0           0  0  0
    9.2750   -3.1667    0.0000 O   0  5  0  0  0  0           0  0  0
    8.5542   -4.4167    0.0000 O   0  0  0  0  0  0           0  0  0
    8.5625   -1.9292    0.0000 O   0  0  0  0  0  0           0  0  0
    5.6875   -4.4042    0.0000 C   0  0  0  0  0  0           0  0  0
    4.9750   -3.9917    0.0000 C   0  0  0  0  0  0           0  0  0
    7.1250   -1.9167    0.0000 O   0  0  0  0  0  0           0  0  0
    4.2625   -4.4042    0.0000 C   0  0  0  0  0  0           0  0  0
    1.4042   -2.7667    0.0000 C   0  0  0  0  0  0           0  0  0
    3.5500   -3.1750    0.0000 C   0  0  0  0  0  0           0  0  0
    2.8375   -4.4125    0.0000 C   0  0  0  0  0  0           0  0  0
    2.1250   -4.0042    0.0000 C   0  0  0  0  0  0           0  0  0
    2.8375   -2.7625    0.0000 C   0  0  0  0  0  0           0  0  0
    4.9750   -3.1667    0.0000 C   0  0  0  0  0  0           0  0  0
    0.6917   -3.1875    0.0000 C   0  0  0  0  0  0           0  0  0
   -0.7333   -4.0167    0.0000 C   0  0  0  0  0  0           0  0  0
   -1.4458   -4.4292    0.0000 Cl  0  0  0  0  0  0           0  0  0
   -0.0125   -4.4250    0.0000 C   0  0  0  0  0  0           0  0  0
   -0.7333   -3.1875    0.0000 C   0  0  0  0  0  0           0  0  0
    0.7000   -4.0042    0.0000 C   0  0  0  0  0  0           0  0  0
   -0.0208   -2.7750    0.0000 C   0  0  0  0  0  0           0  0  0
  2  1  2  0     0  0
  3  1  1  0     0  0
  4  1  1  0     0  0
  5  2  1  0     0  0
  6  3  1  0     0  0
  7  6  1  0     0  0
  8 17  1  0     0  0
  9 21  1  0     0  0
 10  5  2  0     0  0
 11  4  1  0     0  0
 12  3  2  0     0  0
 13  4  2  0     0  0
 14  7  2  0     0  0
 15 14  1  0     0  0
 16  2  1  0     0  0
 17 15  1  0     0  0
 18  9  1  0     0  0
 19  8  1  0     0  0
 20  8  1  0     0  0
 21 20  1  0     0  0
 22 19  1  0     0  0
 23 10  1  0     0  0
 24 18  1  0     0  0
 25 28  1  0     0  0
 26 25  1  0     0  0
 27 29  1  0     0  0
 28 30  2  0     0  0
 29 24  2  0     0  0
 30 24  1  0     0  0
  5  7  1  0     0  0
 23 15  2  0     0  0
 22  9  1  0     0  0
 27 25  2  0     0  0
M  CHG  2   4   1  11  -1
M  END