
  Mrv0541 04051115152D          

 11 12  0  0  0  0            999 V2000
   -0.6607   -1.0692    0.0000 N   0  0  0  0  0  0  0  0  0  0  0  0
   -0.4058   -1.8539    0.0000 C   0  0  0  0  0  0  0  0  0  0  0  0
    0.4192   -1.8539    0.0000 N   0  0  0  0  0  0  0  0  0  0  0  0
    0.6742   -1.0692    0.0000 C   0  0  0  0  0  0  0  0  0  0  0  0
    0.0067   -0.5843    0.0000 C   0  0  0  0  0  0  0  0  0  0  0  0
    0.0067    0.2407    0.0000 C   0  0  0  0  0  0  0  0  0  0  0  0
   -0.7078    0.6532    0.0000 C   0  0  0  0  0  0  0  0  0  0  0  0
   -0.7078    1.4782    0.0000 C   0  0  0  0  0  0  0  0  0  0  0  0
    0.0067    1.8907    0.0000 C   0  0  0  0  0  0  0  0  0  0  0  0
    0.7212    1.4782    0.0000 C   0  0  0  0  0  0  0  0  0  0  0  0
    0.7212    0.6532    0.0000 C   0  0  0  0  0  0  0  0  0  0  0  0
  2  1  1  0  0  0  0
  5  1  1  0  0  0  0
  2  3  2  0  0  0  0
  4  3  1  0  0  0  0
  4  5  2  0  0  0  0
  5  6  1  0  0  0  0
  6  7  2  0  0  0  0
 11  6  1  0  0  0  0
  7  8  1  0  0  0  0
  8  9  2  0  0  0  0
 10  9  1  0  0  0  0
 10 11  2  0  0  0  0
M  END