
  SciTegic10301317112D

 34 37  0  0  1  0            999 V2000
   -0.1208   -0.0792    0.0000 N   0  0
   -0.8250    0.3333    0.0000 C   0  0
    0.8125    1.0583    0.0000 C   0  0
   -2.2583    0.3333    0.0000 N   0  0
   -1.5458   -0.0792    0.0000 C   0  0  1  0  0  0
    0.6417    0.2583    0.0000 C   0  0  2  0  0  0
   -2.9708   -0.0792    0.0000 C   0  0
    1.6000    1.3208    0.0000 N   0  0
    2.4167    1.3208    0.0000 C   0  0  1  0  0  0
    2.8375    0.6083    0.0000 C   0  0
   -0.8208    1.1583    0.0000 O   0  0
    0.2000    1.6083    0.0000 O   0  0
   -2.9708   -0.9042    0.0000 O   0  0
    3.6417    0.6083    0.0000 C   0  0
   -1.5458   -0.9042    0.0000 C   0  0
   -3.6833    0.3458    0.0000 C   0  0  1  0  0  0
   -0.0458   -0.9042    0.0000 C   0  0
   -4.3958   -0.0667    0.0000 N   0  0
    1.1917   -0.3542    0.0000 C   0  0
    2.8167    2.0333    0.0000 C   0  0
    0.7750   -1.0792    0.0000 C   0  0
    3.6417    2.0333    0.0000 C   0  0
    2.4167   -0.0917    0.0000 C   0  0
    4.0542    1.3208    0.0000 C   0  0
    4.0542   -0.0917    0.0000 C   0  0
   -2.2625   -1.3042    0.0000 C   0  0
   -0.8250   -1.3167    0.0000 C   0  0
   -5.1083    0.3458    0.0000 C   0  0
   -3.6833    1.1708    0.0000 C   0  0
    2.8375   -0.8042    0.0000 C   0  0
    3.6542   -0.8042    0.0000 C   0  0
   -0.8458   -2.1417    0.0000 C   0  0
   -2.2708   -2.1292    0.0000 C   0  0
   -1.5583   -2.5542    0.0000 C   0  0
  2  1  1  0
  6  3  1  6
  4  5  1  0
  5  2  1  0
  6  1  1  0
  7  4  1  0
  8  3  1  0
  9  8  1  6
 10  9  1  0
 11  2  2  0
 12  3  2  0
 13  7  2  0
 14 10  2  0
  5 15  1  6
 16  7  1  0
 17  1  1  0
 18 16  1  0
 19  6  1  0
 20  9  1  0
 21 17  1  0
 22 20  1  0
 23 10  1  0
 24 22  1  0
 25 14  1  0
 26 15  1  0
 27 15  1  0
 28 18  1  0
 16 29  1  1
 30 23  2  0
 31 30  1  0
 32 27  1  0
 33 26  1  0
 34 32  1  0
 19 21  1  0
 33 34  1  0
 14 24  1  0
 25 31  2  0
M  END