
  CDK    9/16/09,10:4

 32 35  0  0  0  0  0  0  0  0999 V2000
   10.1200   -7.7596    0.0000 Br  0  0  0  0  0  0  0  0  0  0  0  0
    8.0747  -12.5622    0.0000 C   0  0  0  0  0  0  0  0  0  0  0  0
    8.9041  -12.5433    0.0000 C   0  0  0  0  0  0  0  0  0  0  0  0
    9.3002  -11.8196    0.0000 C   0  0  0  0  0  0  0  0  0  0  0  0
    8.8715  -11.1101    0.0000 C   0  0  0  0  0  0  0  0  0  0  0  0
    8.0421  -11.1290    0.0000 C   0  0  0  0  0  0  0  0  0  0  0  0
    7.6414  -11.8574    0.0000 N   0  0  0  0  0  0  0  0  0  0  0  0
    8.2769  -12.1816    0.0000 C   0  0  0  0  0  0  0  0  0  0  0  0
    8.6003  -11.4866    0.0000 C   0  0  0  0  0  0  0  0  0  0  0  0
    6.8169  -11.8849    0.0000 C   0  0  0  0  0  0  0  0  0  0  0  0
   10.1252  -11.8093    0.0000 C   0  0  0  0  0  0  0  0  0  0  0  0
   10.9501  -11.7951    0.0000 C   0  0  0  0  0  0  0  0  0  0  0  0
   10.1375  -12.6342    0.0000 O   0  0  0  0  0  0  0  0  0  0  0  0
   10.1130  -10.9844    0.0000 C   0  0  0  0  0  0  0  0  0  0  0  0
   10.8221  -10.5642    0.0000 C   0  0  0  0  0  0  0  0  0  0  0  0
   10.8102   -9.7400    0.0000 C   0  0  0  0  0  0  0  0  0  0  0  0
   10.0892   -9.3373    0.0000 C   0  0  0  0  0  0  0  0  0  0  0  0
    9.3786   -9.7648    0.0000 C   0  0  0  0  0  0  0  0  0  0  0  0
    9.3940  -10.5876    0.0000 C   0  0  0  0  0  0  0  0  0  0  0  0
   11.3731  -12.5048    0.0000 C   0  0  0  0  0  0  0  0  0  0  0  0
   12.1972  -12.4909    0.0000 C   0  0  0  0  0  0  0  0  0  0  0  0
   12.5980  -11.7689    0.0000 C   0  0  0  0  0  0  0  0  0  0  0  0
   12.1688  -11.0592    0.0000 C   0  0  0  0  0  0  0  0  0  0  0  0
   11.3461  -11.0766    0.0000 C   0  0  0  0  0  0  0  0  0  0  0  0
    6.3809  -11.1845    0.0000 C   0  0  0  0  0  0  0  0  0  0  0  0
    5.5563  -11.2119    0.0000 O   0  0  0  0  0  0  0  0  0  0  0  0
    5.1203  -10.5117    0.0000 C   0  0  0  0  0  0  0  0  0  0  0  0
    5.5114   -9.7861    0.0000 C   0  0  0  0  0  0  0  0  0  0  0  0
    5.0760   -9.0863    0.0000 C   0  0  0  0  0  0  0  0  0  0  0  0
    4.2506   -9.1134    0.0000 C   0  0  0  0  0  0  0  0  0  0  0  0
    3.8624   -9.8461    0.0000 C   0  0  0  0  0  0  0  0  0  0  0  0
    4.3001  -10.5430    0.0000 C   0  0  0  0  0  0  0  0  0  0  0  0
 15 16  1  0  0  0  0 
  7  8  1  0  0  0  0 
 16 17  2  0  0  0  0 
 17 18  1  0  0  0  0 
  8  9  1  0  0  0  0 
 18 19  2  0  0  0  0 
 19 14  1  0  0  0  0 
  4  9  1  0  0  0  0 
 12 20  2  0  0  0  0 
  2  3  1  0  0  0  0 
 20 21  1  0  0  0  0 
  7 10  1  0  0  0  0 
 21 22  2  0  0  0  0 
  2  7  1  0  0  0  0 
 22 23  1  0  0  0  0 
  4 11  1  0  0  0  0 
 23 24  2  0  0  0  0 
 24 12  1  0  0  0  0 
  3  4  1  0  0  0  0 
 10 25  1  0  0  0  0 
 11 12  1  0  0  0  0 
 25 26  1  0  0  0  0 
  4  5  1  0  0  0  0 
 26 27  1  0  0  0  0 
 11 13  1  0  0  0  0 
 27 28  2  0  0  0  0 
  5  6  1  0  0  0  0 
 28 29  1  0  0  0  0 
 11 14  1  0  0  0  0 
 29 30  2  0  0  0  0 
  6  7  1  0  0  0  0 
 30 31  1  0  0  0  0 
 14 15  2  0  0  0  0 
 31 32  2  0  0  0  0 
 32 27  1  0  0  0  0 
M  CHG  1   1  -1
M  CHG  1   7   1
M  END