
  SciTegic06051315212D

 51 53  0  0  0  0            999 V2000
   13.8955  -24.1120    0.0000 C   0  0
   14.6099  -23.6995    0.0000 C   0  0
   13.8955  -24.9370    0.0000 C   0  0
   15.3244  -24.1120    0.0000 C   0  0
   14.6099  -22.8745    0.0000 C   0  0
   15.3244  -24.9370    0.0000 O   0  0
   16.0388  -23.6995    0.0000 O   0  0
   16.6836  -24.2135    0.0000 C   0  0  1  0  0  0
   16.6463  -25.0376    0.0000 C   0  0
   17.4758  -23.9924    0.0000 C   0  0  2  0  0  0
   15.9578  -25.4921    0.0000 C   0  0
   17.4243  -25.3294    0.0000 C   0  0
   17.9332  -24.6802    0.0000 C   0  0  1  0  0  0
   18.7637  -24.6704    0.0000 C   0  0  1  0  0  0
   19.2895  -25.3092    0.0000 C   0  0
   19.1122  -26.1170    0.0000 C   0  0  1  0  0  0
   18.2679  -27.3165    0.0000 C   0  0  2  0  0  0
   18.3700  -26.4882    0.0000 C   0  0  2  0  0  0
   17.6127  -26.1360    0.0000 C   0  0  1  0  0  0
   17.0445  -26.7485    0.0000 O   0  0
   17.4527  -27.4772    0.0000 C   0  0
   17.1066  -28.2261    0.0000 O   0  0
   18.2620  -28.1410    0.0000 C   0  0
   19.0621  -27.5285    0.0000 O   0  0
   19.1620  -26.6994    0.0000 O   0  0
   18.5454  -23.8703    0.0000 C   0  0
   19.4746  -24.2536    0.0000 O   0  0
   19.4689  -23.4286    0.0000 C   0  0
   20.1806  -23.0113    0.0000 O   0  0
   18.7518  -23.0210    0.0000 C   0  0
   19.9376  -26.1212    0.0000 O   0  0
   20.3539  -25.4089    0.0000 C   0  0
   21.1789  -25.4134    0.0000 C   0  0
   19.9452  -24.6923    0.0000 O   0  0
   21.5952  -24.7011    0.0000 C   0  0
   22.4202  -24.7056    0.0000 C   0  0
   17.7538  -23.2164    0.0000 O   0  0
   17.3377  -22.5040    0.0000 C   0  0
   17.7467  -21.7875    0.0000 O   0  0
   16.5128  -22.5081    0.0000 C   0  0
   18.1454  -25.4744    0.0000 H   0  0
   16.0967  -21.7957    0.0000 C   0  0
   15.2718  -21.7998    0.0000 C   0  0
   14.8557  -21.0875    0.0000 C   0  0
   14.0307  -21.0916    0.0000 C   0  0
   13.6147  -20.3792    0.0000 C   0  0
   12.7897  -20.3834    0.0000 C   0  0
   19.9013  -27.0645    0.0000 C   0  0
   19.8756  -27.8891    0.0000 O   0  0
   20.6245  -26.6667    0.0000 C   0  0
   16.7871  -26.1327    0.0000 H   0  0
  1  2  2  0
  1  3  1  0
  2  4  1  0
  2  5  1  0
  4  6  2  0
  4  7  1  0
  8  7  1  6
  9 12  2  0
  8  9  1  0
 13 10  1  0
 10  8  1  0
  9 11  1  0
 12 13  1  0
 13 14  1  0
 12 19  1  0
 14 15  1  0
 15 16  1  0
 18 16  1  0
 18 19  1  0
 17 18  1  0
 19 20  1  0
 20 21  1  0
 21 17  1  0
 21 22  2  0
 17 23  1  1
 17 24  1  0
 18 25  1  1
 14 26  1  0
 14 27  1  1
 27 28  1  0
 28 29  2  0
 28 30  1  0
 16 31  1  6
 31 32  1  0
 32 33  1  0
 32 34  2  0
 33 35  1  0
 35 36  1  0
 10 37  1  1
 37 38  1  0
 38 39  2  0
 38 40  1  0
 13 41  1  1
 40 42  1  0
 42 43  1  0
 43 44  1  0
 44 45  1  0
 45 46  1  0
 46 47  1  0
 25 48  1  0
 48 49  2  0
 48 50  1  0
 19 51  1  6
M  END