
  SciTegic03291108542D

 16 17  0  0  0  0            999 V2000
   -0.3754    2.3302    0.0000 S   0  0
   -0.3754    3.1552    0.0000 O   0  0
   -1.2004    2.3302    0.0000 O   0  0
   -0.3754   -0.9698    0.0000 N   0  0
    0.4496    2.3302    0.0000 N   0  0
   -0.3754   -2.6198    0.0000 N   0  0
   -0.3754    1.5052    0.0000 C   0  0
   -0.3754   -0.1448    0.0000 C   0  0
    0.3391    1.0927    0.0000 C   0  0
   -1.0899    1.0927    0.0000 C   0  0
    0.3391    0.2677    0.0000 C   0  0
   -1.0899    0.2677    0.0000 C   0  0
    0.3391   -1.3823    0.0000 C   0  0
   -1.0899   -1.3823    0.0000 C   0  0
    0.3391   -2.2073    0.0000 C   0  0
   -1.0899   -2.2073    0.0000 C   0  0
  1  2  2  0
  1  3  2  0
  1  5  1  0
  1  7  1  0
  4  8  1  0
  4 13  1  0
  4 14  1  0
  6 15  1  0
  6 16  1  0
  7  9  2  0
  7 10  1  0
  8 11  2  0
  8 12  1  0
  9 11  1  0
 10 12  2  0
 13 15  1  0
 14 16  1  0
M  END