
  SciTegic11201309402D

 62 73  0  0  1  0            999 V2000
    6.4000   -3.5917    0.0000 C   0  0  2  0  0  0
   -1.2833   -3.7667    0.0000 C   0  0  2  0  0  0
   -0.5625   -4.1917    0.0000 C   0  0  1  0  0  0
    5.6792   -4.0042    0.0000 C   0  0  1  0  0  0
    7.1167   -3.9917    0.0000 C   0  0  1  0  0  0
   -1.9958   -4.1792    0.0000 C   0  0  1  0  0  0
   -1.2708   -2.9417    0.0000 C   0  0
    6.3917   -2.7667    0.0000 C   0  0
    7.6667   -3.1792    0.0000 O   0  0
   -2.5458   -3.3542    0.0000 O   0  0
   -1.9833   -2.5292    0.0000 C   0  0
    7.1042   -2.3542    0.0000 C   0  0
    4.9625   -3.6042    0.0000 C   0  0  2  0  0  0
    0.1542   -3.7792    0.0000 C   0  0  2  0  0  0
    4.1417   -3.6042    0.0000 N   0  0
    0.9792   -3.7792    0.0000 N   0  0
   -0.5583   -2.5292    0.0000 C   0  0
    5.6750   -2.3542    0.0000 C   0  0
    0.1625   -2.9417    0.0000 C   0  0
    4.9542   -2.7667    0.0000 C   0  0
    0.1500   -4.6042    0.0000 N   0  0
    5.0917   -4.5917    0.0000 N   0  0
    7.1250   -4.8292    0.0000 C   0  0
   -2.0083   -5.0042    0.0000 C   0  0
   -0.7333   -3.0417    0.0000 C   0  0
    5.8542   -2.8667    0.0000 C   0  0
   -0.5708   -5.0167    0.0000 C   0  0
    5.6875   -4.8417    0.0000 C   0  0
    4.2667   -4.5917    0.0000 C   0  0
    0.9750   -4.6042    0.0000 C   0  0
    1.8042   -3.7792    0.0000 C   0  0
    3.3167   -3.6042    0.0000 C   0  0
   -1.9833   -1.7042    0.0000 C   0  0
    7.1042   -1.5292    0.0000 C   0  0
    0.5667   -3.0667    0.0000 C   0  0
    4.5542   -2.8792    0.0000 C   0  0
    1.8042   -2.9542    0.0000 C   0  0
    3.3125   -2.7792    0.0000 C   0  0
    2.2125   -2.2417    0.0000 C   0  0
    1.3875   -2.2417    0.0000 C   0  0
    3.7167   -2.0542    0.0000 C   0  0
    2.8917   -2.0667    0.0000 C   0  0
   -0.5583   -1.7042    0.0000 C   0  0
    5.6750   -1.5292    0.0000 C   0  0
    1.8000   -4.6042    0.0000 C   0  0
    3.8625   -5.3167    0.0000 C   0  0
   -1.2958   -5.4167    0.0000 C   0  0
    6.4125   -5.2417    0.0000 C   0  0
    7.8417   -5.2292    0.0000 O   0  0
   -2.7250   -5.4042    0.0000 O   0  0
    0.9667   -5.4292    0.0000 O   0  0
    3.4875   -4.5917    0.0000 O   0  0
   -1.2708   -1.2917    0.0000 C   0  0
    6.3917   -1.1167    0.0000 C   0  0
    2.2125   -5.3167    0.0000 S   0  0
    3.0375   -5.3167    0.0000 S   0  0
    7.9417   -3.9917    0.0000 C   0  0
   -2.8208   -4.1792    0.0000 C   0  0
   -2.7000   -1.2917    0.0000 O   0  0
    7.8167   -1.1167    0.0000 O   0  0
    0.8648   -3.0756    0.0000 H   0  0
    4.2519   -2.9006    0.0000 H   0  0
  2  3  1  0
  3 21  1  1
  4  1  1  0
  5  1  1  0
  6  2  1  0
  7  2  1  0
  8  1  1  0
  5  9  1  0
  6 10  1  0
 11  7  1  0
 12  8  1  0
 13  4  1  0
 14  3  1  0
 15 36  1  0
 14 16  1  0
 17 19  1  0
 18  8  2  0
 19 14  1  0
 20 18  1  0
 21 30  1  0
  4 22  1  6
 23  5  1  0
 24 47  1  0
  2 25  1  1
  1 26  1  6
 27  3  1  0
 28  4  1  0
 29 22  1  0
 30 45  1  0
 31 16  1  0
 32 15  1  0
 33 11  2  0
 34 12  2  0
 35 16  1  0
 36 26  1  0
 37 31  1  0
 38 32  1  0
 39 37  1  0
 40 37  1  0
 41 38  1  0
 42 38  1  0
 43 17  1  0
 44 18  1  0
 45 55  1  0
 46 29  1  0
 47 27  1  0
 48 23  1  0
 49 23  2  0
 50 24  2  0
 51 30  2  0
 52 29  2  0
 53 43  2  0
 54 44  2  0
 55 56  1  0
 56 46  1  0
  5 57  1  6
  6 58  1  1
 59 33  1  0
 60 34  1  0
  9 12  1  0
 13 15  1  0
 20 13  1  0
 28 48  1  0
 54 34  1  0
 41 42  1  0
 24  6  1  0
 17  7  2  0
 25 35  1  0
 10 11  1  0
 33 53  1  0
 39 40  1  0
 14 61  1  6
 13 62  1  1
M  END