
  CDK    9/16/09,10:7

 18 19  0  0  0  0  0  0  0  0999 V2000
    4.5586    0.4125    0.0000 C   0  0  0  0  0  0  0  0  0  0  0  0
    4.5573   -0.4150    0.0000 N   0  0  0  0  0  0  0  0  0  0  0  0
    5.2703   -0.8279    0.0000 C   0  0  0  0  0  0  0  0  0  0  0  0
    5.9896   -0.4146    0.0000 C   0  0  0  0  0  0  0  0  0  0  0  0
    5.9865    0.4166    0.0000 C   0  0  0  0  0  0  0  0  0  0  0  0
    5.2683    0.8253    0.0000 C   0  0  0  0  0  0  0  0  0  0  0  0
    6.6988    0.8326    0.0000 N   0  0  0  0  0  0  0  0  0  0  0  0
    7.4153    0.4236    0.0000 C   0  0  0  0  0  0  0  0  0  0  0  0
    8.1278    0.8396    0.0000 C   0  0  0  0  0  0  0  0  0  0  0  0
    7.4194   -0.4014    0.0000 O   0  0  0  0  0  0  0  0  0  0  0  0
    8.8442    0.4306    0.0000 C   0  0  0  0  0  0  0  0  0  0  0  0
    8.1236    1.6646    0.0000 C   0  0  0  0  0  0  0  0  0  0  0  0
    8.8360    2.0806    0.0000 C   0  0  0  0  0  0  0  0  0  0  0  0
    8.8467   -0.3952    0.0000 C   0  0  0  0  0  0  0  0  0  0  0  0
    9.5623   -0.8041    0.0000 C   0  0  0  0  0  0  0  0  0  0  0  0
   10.2756   -0.3881    0.0000 C   0  0  0  0  0  0  0  0  0  0  0  0
   10.2689    0.4412    0.0000 C   0  0  0  0  0  0  0  0  0  0  0  0
    9.5526    0.8463    0.0000 C   0  0  0  0  0  0  0  0  0  0  0  0
  8  9  1  0  0  0  0 
  4  5  1  0  0  0  0 
  8 10  2  0  0  0  0 
  2  3  1  0  0  0  0 
  9 11  1  0  0  0  0 
  5  6  2  0  0  0  0 
  9 12  1  0  0  0  0 
  6  1  1  0  0  0  0 
 12 13  1  0  0  0  0 
  1  2  2  0  0  0  0 
 11 14  2  0  0  0  0 
  5  7  1  0  0  0  0 
 14 15  1  0  0  0  0 
  3  4  2  0  0  0  0 
 15 16  2  0  0  0  0 
  7  8  1  0  0  0  0 
 16 17  1  0  0  0  0 
 17 18  2  0  0  0  0 
 18 11  1  0  0  0  0 
M  END