
  CDK    9/16/09,9:55

 33 36  0  0  0  0  0  0  0  0999 V2000
   15.9258  -18.1377    0.0000 C   0  0  0  0  0  0  0  0  0  0  0  0
   15.9244  -18.9654    0.0000 C   0  0  0  0  0  0  0  0  0  0  0  0
   16.6399  -19.3737    0.0000 C   0  0  0  0  0  0  0  0  0  0  0  0
   16.6378  -17.7247    0.0000 C   0  0  0  0  0  0  0  0  0  0  0  0
   17.3545  -18.1332    0.0000 C   0  0  0  0  0  0  0  0  0  0  0  0
   17.3550  -18.9654    0.0000 C   0  0  0  0  0  0  0  0  0  0  0  0
   18.1472  -19.2201    0.0000 N   0  0  0  0  0  0  0  0  0  0  0  0
   18.6340  -18.5484    0.0000 C   0  0  0  0  0  0  0  0  0  0  0  0
   18.1463  -17.8729    0.0000 N   0  0  0  0  0  0  0  0  0  0  0  0
   18.3930  -20.0025    0.0000 C   0  0  0  0  0  0  0  0  0  0  0  0
   17.8103  -20.5842    0.0000 C   0  0  0  0  0  0  0  0  0  0  0  0
   17.0157  -20.3696    0.0000 C   0  0  0  0  0  0  0  0  0  0  0  0
   16.4289  -20.9504    0.0000 C   0  0  0  0  0  0  0  0  0  0  0  0
   16.6446  -21.7502    0.0000 C   0  0  0  0  0  0  0  0  0  0  0  0
   17.4439  -21.9613    0.0000 C   0  0  0  0  0  0  0  0  0  0  0  0
   18.0223  -21.3787    0.0000 C   0  0  0  0  0  0  0  0  0  0  0  0
   16.0587  -22.3323    0.0000 C   0  0  0  0  0  0  0  0  0  0  0  0
   15.2636  -22.1190    0.0000 C   0  0  0  0  0  0  0  0  0  0  0  0
   14.6777  -22.7007    0.0000 C   0  0  0  0  0  0  0  0  0  0  0  0
   14.8945  -23.5003    0.0000 C   0  0  0  0  0  0  0  0  0  0  0  0
   15.6940  -23.7102    0.0000 C   0  0  0  0  0  0  0  0  0  0  0  0
   16.2763  -23.1267    0.0000 C   0  0  0  0  0  0  0  0  0  0  0  0
   15.0474  -21.3203    0.0000 C   0  0  0  0  0  0  0  0  0  0  0  0
   15.6343  -20.7384    0.0000 O   0  0  0  0  0  0  0  0  0  0  0  0
   14.2534  -21.1081    0.0000 O   0  0  0  0  0  0  0  0  0  0  0  0
   14.4962  -17.3127    0.0000 O   0  0  0  0  0  0  0  0  0  0  0  0
   15.6244  -17.0080    0.0000 O   0  0  0  0  0  0  0  0  0  0  0  0
   14.8046  -18.4408    0.0000 O   0  0  0  0  0  0  0  0  0  0  0  0
   15.2094  -17.7252    0.0000 S   0  0  0  0  0  0  0  0  0  0  0  0
   19.4590  -18.5491    0.0000 C   0  0  0  0  0  0  0  0  0  0  0  0
   19.8709  -19.2640    0.0000 C   0  0  0  0  0  0  0  0  0  0  0  0
   20.6959  -19.2646    0.0000 C   0  0  0  0  0  0  0  0  0  0  0  0
   21.1078  -19.9795    0.0000 C   0  0  0  0  0  0  0  0  0  0  0  0
  8  9  2  0  0  0  0 
 17 18  2  0  0  0  0 
  9  5  1  0  0  0  0 
 18 19  1  0  0  0  0 
  4  1  1  0  0  0  0 
 19 20  2  0  0  0  0 
 20 21  1  0  0  0  0 
  5  6  1  0  0  0  0 
 21 22  2  0  0  0  0 
 22 17  1  0  0  0  0 
 14 17  1  0  0  0  0 
  7 10  1  0  0  0  0 
 18 23  1  0  0  0  0 
 23 24  2  0  0  0  0 
 10 11  1  0  0  0  0 
 23 25  1  0  0  0  0 
  2  3  1  0  0  0  0 
 11 12  2  0  0  0  0 
  3  6  2  0  0  0  0 
 12 13  1  0  0  0  0 
  1  2  2  0  0  0  0 
  1 29  1  0  0  0  0 
 13 14  2  0  0  0  0 
 29 26  1  0  0  0  0 
  5  4  2  0  0  0  0 
 29 27  2  0  0  0  0 
 14 15  1  0  0  0  0 
  6  7  1  0  0  0  0 
 28 29  2  0  0  0  0 
  8 30  1  0  0  0  0 
 15 16  2  0  0  0  0 
 30 31  1  0  0  0  0 
 16 11  1  0  0  0  0 
 31 32  1  0  0  0  0 
  7  8  1  0  0  0  0 
 32 33  1  0  0  0  0 
M  END