
  CDK    9/16/09,9:46

 31 34  0  0  0  0  0  0  0  0999 V2000
   -5.0065   -1.6545    0.0000 C   0  0  0  0  0  0  0  0  0  0  0  0
   -5.0078   -2.4821    0.0000 C   0  0  0  0  0  0  0  0  0  0  0  0
   -4.2948   -2.8950    0.0000 C   0  0  0  0  0  0  0  0  0  0  0  0
   -3.5755   -2.4816    0.0000 C   0  0  0  0  0  0  0  0  0  0  0  0
   -3.5787   -1.6505    0.0000 C   0  0  0  0  0  0  0  0  0  0  0  0
   -4.2967   -1.2418    0.0000 C   0  0  0  0  0  0  0  0  0  0  0  0
   -2.8659   -1.2379    0.0000 C   0  0  0  0  0  0  0  0  0  0  0  0
   -2.1106   -1.5697    0.0000 N   0  0  0  0  0  0  0  0  0  0  0  0
   -1.5616   -0.9539    0.0000 N   0  0  0  0  0  0  0  0  0  0  0  0
   -1.9777   -0.2414    0.0000 C   0  0  0  0  0  0  0  0  0  0  0  0
   -2.7837   -0.4171    0.0000 C   0  0  0  0  0  0  0  0  0  0  0  0
   -3.3996    0.1319    0.0000 C   0  0  0  0  0  0  0  0  0  0  0  0
   -1.6459    0.5139    0.0000 C   0  0  0  0  0  0  0  0  0  0  0  0
   -0.8259    0.6042    0.0000 N   0  0  0  0  0  0  0  0  0  0  0  0
   -2.1342    1.1788    0.0000 O   0  0  0  0  0  0  0  0  0  0  0  0
   -0.4941    1.3596    0.0000 N   0  0  0  0  0  0  0  0  0  0  0  0
    0.3301    1.4476    0.0000 C   0  0  0  0  0  0  0  0  0  0  0  0
    0.6622    2.1919    0.0000 C   0  0  0  0  0  0  0  0  0  0  0  0
    0.1771    2.8625    0.0000 C   0  0  0  0  0  0  0  0  0  0  0  0
   -0.6440    2.7768    0.0000 C   0  0  0  0  0  0  0  0  0  0  0  0
   -0.9802    2.0219    0.0000 C   0  0  0  0  0  0  0  0  0  0  0  0
   -1.9343   -2.3743    0.0000 C   0  0  0  0  0  0  0  0  0  0  0  0
   -2.5463   -2.9291    0.0000 C   0  0  0  0  0  0  0  0  0  0  0  0
   -2.3713   -3.7345    0.0000 C   0  0  0  0  0  0  0  0  0  0  0  0
   -1.5847   -3.9863    0.0000 C   0  0  0  0  0  0  0  0  0  0  0  0
   -0.9730   -3.4264    0.0000 C   0  0  0  0  0  0  0  0  0  0  0  0
   -1.1512   -2.6230    0.0000 C   0  0  0  0  0  0  0  0  0  0  0  0
   -0.5424   -2.0663    0.0000 Cl  0  0  0  0  0  0  0  0  0  0  0  0
   -1.4082   -4.7922    0.0000 Cl  0  0  0  0  0  0  0  0  0  0  0  0
   -5.7228   -2.8936    0.0000 Cl  0  0  0  0  0  0  0  0  0  0  0  0
   -4.3007   -0.4168    0.0000 Cl  0  0  0  0  0  0  0  0  0  0  0  0
 13 15  2  0  0  0  0 
  3  4  2  0  0  0  0 
 14 16  1  0  0  0  0 
 16 17  1  0  0  0  0 
  4  5  1  0  0  0  0 
  2  3  1  0  0  0  0 
  8  9  1  0  0  0  0 
  9 10  2  0  0  0  0 
 16 21  1  0  0  0  0 
 17 18  1  0  0  0  0 
 18 19  1  0  0  0  0 
 19 20  1  0  0  0  0 
 20 21  1  0  0  0  0 
 10 11  1  0  0  0  0 
 11  7  2  0  0  0  0 
 22 23  2  0  0  0  0 
  5  7  1  0  0  0  0 
 23 24  1  0  0  0  0 
  5  6  2  0  0  0  0 
 24 25  2  0  0  0  0 
 11 12  1  0  0  0  0 
 25 26  1  0  0  0  0 
  6  1  1  0  0  0  0 
 26 27  2  0  0  0  0 
 27 22  1  0  0  0  0 
  8 22  1  0  0  0  0 
 10 13  1  0  0  0  0 
 27 28  1  0  0  0  0 
  7  8  1  0  0  0  0 
 25 29  1  0  0  0  0 
 13 14  1  0  0  0  0 
  2 30  1  0  0  0  0 
  1  2  2  0  0  0  0 
  6 31  1  0  0  0  0 
M  END