
          11280715152D 1   1.00000     0.00000     0

 30 33  0     0  0            999 V2000
    1.5792   -7.3625    0.0000 O   0  0  0  0  0  0           0  0  0
    2.7292   -5.6417    0.0000 C   0  0  3  0  0  0           0  0  0
    2.4917   -6.5250    0.0000 C   0  0  3  0  0  0           0  0  0
    1.1292   -6.5667    0.0000 C   0  0  3  0  0  0           0  0  0
    1.9375   -6.1042    0.0000 C   0  0  3  0  0  0           0  0  0
    4.3292   -7.1375    0.0000 C   0  0  0  0  0  0           0  0  0
    3.2875   -7.1375    0.0000 N   0  0  0  0  0  0           0  0  0
    4.8417   -7.4375    0.0000 N   0  0  0  0  0  0           0  0  0
    5.5500   -4.5542    0.0000 C   0  0  0  0  0  0           0  0  0
    3.3167   -5.5250    0.0000 C   0  0  0  0  0  0           0  0  0
    3.8042   -7.4375    0.0000 N   0  0  0  0  0  0           0  0  0
    2.7667   -7.4375    0.0000 C   0  0  0  0  0  0           0  0  0
    4.3292   -6.5375    0.0000 O   0  0  0  0  0  0           0  0  0
    0.9667   -5.9875    0.0000 C   0  0  0  0  0  0           0  0  0
    1.5042   -5.6792    0.0000 C   0  0  0  0  0  0           0  0  0
    5.4292   -3.9667    0.0000 O   0  0  0  0  0  0           0  0  0
    3.5125   -4.9542    0.0000 C   0  0  0  0  0  0           0  0  0
    4.5292   -4.7542    0.0000 C   0  0  0  0  0  0           0  0  0
    5.0917   -4.9500    0.0000 C   0  0  0  0  0  0           0  0  0
    4.0792   -5.1500    0.0000 C   0  0  0  0  0  0           0  0  0
    5.3667   -7.1375    0.0000 C   0  0  0  0  0  0           0  0  0
    6.1167   -4.7500    0.0000 O   0  0  0  0  0  0           0  0  0
    3.8417   -3.9750    0.0000 C   0  0  0  0  0  0           0  0  0
    3.3917   -4.3667    0.0000 C   0  0  0  0  0  0           0  0  0
    4.4125   -4.1667    0.0000 C   0  0  0  0  0  0           0  0  0
    5.8792   -7.4375    0.0000 C   0  0  0  0  0  0           0  0  0
    5.3625   -6.5417    0.0000 C   0  0  0  0  0  0           0  0  0
    5.8792   -6.2375    0.0000 C   0  0  0  0  0  0           0  0  0
    6.4042   -7.1375    0.0000 C   0  0  0  0  0  0           0  0  0
    6.4042   -6.5375    0.0000 C   0  0  0  0  0  0           0  0  0
  2  5  1  0     0  0
  3  4  1  0     0  0
  4  1  1  0     0  0
  5  1  1  0     0  0
  6 11  1  0     0  0
  7 12  2  0     0  0
  8  6  1  0     0  0
  9 19  1  0     0  0
 10  2  1  0     0  0
 11  7  1  0     0  0
 12  3  1  0     0  0
 13  6  2  0     0  0
 14  4  1  0     0  0
 15  5  1  0     0  0
 16  9  2  0     0  0
 17 10  1  0     0  0
 18 20  1  0     0  0
 19 18  1  0     0  0
 20 17  2  0     0  0
 21  8  1  0     0  0
 22  9  1  0     0  0
 23 24  2  0     0  0
 24 17  1  0     0  0
 25 23  1  0     0  0
 26 21  2  0     0  0
 27 21  1  0     0  0
 28 27  2  0     0  0
 29 26  1  0     0  0
 30 28  1  0     0  0
 14 15  1  0     0  0
  2  3  1  0     0  0
 18 25  2  0     0  0
 29 30  2  0     0  0
M  END