
          05080814042D 1   1.00000     0.00000     0

 41 45  0     1  0            999 V2000
   -2.4404   -0.0416    0.0000 C   0  0  0  0  0  0           0  0  0
   -2.4416   -0.8680    0.0000 C   0  0  0  0  0  0           0  0  0
   -1.7275   -1.2805    0.0000 C   0  0  0  0  0  0           0  0  0
   -1.7293    0.3707    0.0000 C   0  0  0  0  0  0           0  0  0
   -1.0148   -0.0380    0.0000 C   0  0  0  0  0  0           0  0  0
   -1.0113   -0.8701    0.0000 C   0  0  0  0  0  0           0  0  0
   -0.2930   -1.2810    0.0000 C   0  0  0  0  0  0           0  0  0
   -0.2998    0.3834    0.0000 C   0  0  0  0  0  0           0  0  0
    0.4232   -0.0321    0.0000 C   0  0  2  0  0  0           0  0  0
    0.4243   -0.8658    0.0000 C   0  0  2  0  0  0           0  0  0
    1.1429   -1.2796    0.0000 N   0  0  3  0  0  0           0  0  0
    1.8651   -0.8640    0.0000 C   0  0  0  0  0  0           0  0  0
    1.8640   -0.0302    0.0000 C   0  0  1  0  0  0           0  0  0
    1.1408    0.3881    0.0000 C   0  0  0  0  0  0           0  0  0
    1.1428   -2.1037    0.0000 C   0  0  0  0  0  0           0  0  0
    2.5777    0.3820    0.0000 C   0  0  0  0  0  0           0  0  0
    3.2915   -0.0299    0.0000 N   0  0  3  0  0  0           0  0  0
    2.5775    1.2061    0.0000 O   0  0  0  0  0  0           0  0  0
    3.2860   -0.8587    0.0000 C   0  0  0  0  0  0           0  0  0
    3.9956   -1.2704    0.0000 C   0  0  0  0  0  0           0  0  0
    4.7116   -0.8617    0.0000 N   0  0  3  0  0  0           0  0  0
    4.7134   -0.0367    0.0000 C   0  0  0  0  0  0           0  0  0
    3.9992    0.3797    0.0000 C   0  0  0  0  0  0           0  0  0
    0.4162   -1.6898    0.0000 H   0  0  0  0  0  0           0  0  0
    0.4162    0.7949    0.0000 H   0  0  0  0  0  0           0  0  0
   -1.7320    1.1953    0.0000 O   0  0  0  0  0  0           0  0  0
   -2.4469    1.6052    0.0000 C   0  0  0  0  0  0           0  0  0
    5.4239   -1.2763    0.0000 C   0  0  0  0  0  0           0  0  0
    5.4175   -2.0988    0.0000 C   0  0  0  0  0  0           0  0  0
    6.1289   -2.5132    0.0000 C   0  0  0  0  0  0           0  0  0
    6.8450   -2.1036    0.0000 C   0  0  0  0  0  0           0  0  0
    6.8452   -1.2753    0.0000 C   0  0  0  0  0  0           0  0  0
    6.1333   -0.8645    0.0000 C   0  0  0  0  0  0           0  0  0
    7.5632   -2.5184    0.0000 N   0  3  0  0  0  0           0  0  0
    8.2777   -2.1079    0.0000 O   0  0  0  0  0  0           0  0  0
    7.5614   -3.3425    0.0000 O   0  5  0  0  0  0           0  0  0
   -2.4494    2.4293    0.0000 O   0  0  0  0  0  0           0  0  0
   -3.1593    1.1911    0.0000 C   0  0  3  0  0  0           0  0  0
   -3.8790    0.7866    0.0000 C   0  0  0  0  0  0           0  0  0
   -2.7504    0.4756    0.0000 C   0  0  0  0  0  0           0  0  0
   -3.5671    1.9072    0.0000 C   0  0  0  0  0  0           0  0  0
  5  4  2  0     0  0
  4  1  1  0     0  0
  5  6  1  0     0  0
 17 23  1  0     0  0
 19 20  1  0     0  0
 20 21  1  0     0  0
 21 22  1  0     0  0
 22 23  1  0     0  0
 10 24  1  1     0  0
  2  3  1  0     0  0
  9 25  1  6     0  0
  3  6  2  0     0  0
  9 14  1  0     0  0
 10 11  1  0     0  0
 26 27  1  0     0  0
  4 26  1  0     0  0
 11 12  1  0     0  0
 21 28  1  0     0  0
 12 13  1  0     0  0
 28 29  2  0     0  0
 13 14  1  0     0  0
 29 30  1  0     0  0
  1  2  2  0     0  0
 30 31  2  0     0  0
 11 15  1  0     0  0
 31 32  1  0     0  0
  5  8  1  0     0  0
 32 33  2  0     0  0
 33 28  1  0     0  0
 13 16  1  1     0  0
  6  7  1  0     0  0
 16 17  1  0     0  0
 34 35  2  0     0  0
 34 36  1  0     0  0
 31 34  1  0     0  0
  7 10  1  0     0  0
 27 37  2  0     0  0
 16 18  2  0     0  0
 27 38  1  0     0  0
 17 19  1  0     0  0
 38 39  1  0     0  0
  9  8  1  0     0  0
 38 40  1  0     0  0
  9 10  1  0     0  0
 38 41  1  0     0  0
M  CHG  2  34   1  36  -1
M  END