
          01230816042D 1   1.00000     0.00000     0

 39 42  0     0  0            999 V2000
   -5.8598  -18.0708    0.0000 C   0  0  0  0  0  0           0  0  0
   -5.8609  -18.8982    0.0000 C   0  0  0  0  0  0           0  0  0
   -5.1461  -19.3110    0.0000 C   0  0  0  0  0  0           0  0  0
   -5.1479  -17.6580    0.0000 C   0  0  0  0  0  0           0  0  0
   -3.7667  -19.4141    0.0000 C   0  0  0  0  0  0           0  0  0
   -2.9337  -19.1950    0.0000 N   0  0  0  0  0  0           0  0  0
   -2.6150  -18.4438    0.0000 N   0  0  3  0  0  0           0  0  0
   -4.4323  -18.8999    0.0000 C   0  0  0  0  0  0           0  0  0
   -4.4325  -18.0672    0.0000 C   0  0  0  0  0  0           0  0  0
   -3.7534  -17.5255    0.0000 N   0  0  3  0  0  0           0  0  0
   -2.9737  -17.7052    0.0000 C   0  0  0  0  0  0           0  0  0
   -2.4596  -17.0600    0.0000 O   0  0  0  0  0  0           0  0  0
   -1.7902  -18.4228    0.0000 C   0  0  0  0  0  0           0  0  0
   -1.3597  -19.1266    0.0000 C   0  0  0  0  0  0           0  0  0
   -0.5350  -19.1056    0.0000 N   0  0  0  0  0  0           0  0  0
   -1.7539  -19.8513    0.0000 O   0  0  0  0  0  0           0  0  0
   -0.1044  -19.8093    0.0000 C   0  0  0  0  0  0           0  0  0
   -0.5009  -20.5329    0.0000 C   0  0  0  0  0  0           0  0  0
   -0.0710  -21.2362    0.0000 C   0  0  0  0  0  0           0  0  0
    0.7546  -21.2156    0.0000 C   0  0  0  0  0  0           0  0  0
    1.1485  -20.4859    0.0000 C   0  0  0  0  0  0           0  0  0
    0.7163  -19.7856    0.0000 C   0  0  0  0  0  0           0  0  0
   -3.7885  -16.7012    0.0000 C   0  0  0  0  0  0           0  0  0
    1.9731  -20.4620    0.0000 C   0  0  0  0  0  0           0  0  0
   -3.9309  -20.2226    0.0000 C   0  0  3  0  0  0           0  0  0
   -4.7137  -20.4800    0.0000 C   0  0  0  0  0  0           0  0  0
   -4.8791  -21.2845    0.0000 C   0  0  0  0  0  0           0  0  0
   -4.2636  -21.8344    0.0000 C   0  0  0  0  0  0           0  0  0
   -3.4798  -21.5739    0.0000 C   0  0  0  0  0  0           0  0  0
   -3.3115  -20.7636    0.0000 C   0  0  0  0  0  0           0  0  0
   -4.5198  -16.3195    0.0000 C   0  0  0  0  0  0           0  0  0
   -5.2161  -16.7620    0.0000 O   0  0  0  0  0  0           0  0  0
   -4.5549  -15.4953    0.0000 C   0  0  3  0  0  0           0  0  0
   -4.5625  -14.6667    0.0000 C   0  0  0  0  0  0           0  0  0
   -5.3796  -15.5166    0.0000 C   0  0  0  0  0  0           0  0  0
   -3.7301  -15.4777    0.0000 C   0  0  0  0  0  0           0  0  0
    2.4062  -21.1642    0.0000 C   0  0  0  0  0  0           0  0  0
    3.2308  -21.1403    0.0000 O   0  0  0  0  0  0           0  0  0
    2.0145  -21.8903    0.0000 O   0  0  0  0  0  0           0  0  0
 18 19  1  0     0  0
  5  8  1  0     0  0
 19 20  2  0     0  0
  9 10  1  0     0  0
 20 21  1  0     0  0
 10 11  1  0     0  0
 21 22  2  0     0  0
 22 17  1  0     0  0
 11  7  1  0     0  0
 10 23  1  0     0  0
  8  9  1  0     0  0
 21 24  1  0     0  0
  2  3  1  0     0  0
  5 25  1  0     0  0
 25 26  1  0     0  0
 11 12  2  0     0  0
  3  8  2  0     0  0
  7 13  1  0     0  0
  1  2  2  0     0  0
 13 14  1  0     0  0
 25 30  1  0     0  0
 26 27  1  0     0  0
 27 28  1  0     0  0
 28 29  1  0     0  0
 29 30  1  0     0  0
  9  4  2  0     0  0
 23 31  1  0     0  0
 14 15  1  0     0  0
 31 32  2  0     0  0
  4  1  1  0     0  0
 31 33  1  0     0  0
 14 16  2  0     0  0
 33 34  1  0     0  0
 33 35  1  0     0  0
 15 17  1  0     0  0
 33 36  1  0     0  0
  5  6  2  0     0  0
 24 37  1  0     0  0
 17 18  2  0     0  0
 37 38  1  0     0  0
  6  7  1  0     0  0
 37 39  2  0     0  0
M  END