
  SciTegic01161211222D

 15 16  0  0  0  0            999 V2000
   10.4444  -19.8916    0.0000 C   0  0
   10.4432  -20.7190    0.0000 C   0  0
   11.1581  -21.1319    0.0000 C   0  0
   11.8745  -20.7185    0.0000 C   0  0
   11.8716  -19.8880    0.0000 C   0  0
   11.1563  -19.4789    0.0000 C   0  0
   12.5846  -19.4728    0.0000 C   0  0
   13.3006  -19.8826    0.0000 C   0  0
   13.3003  -20.7053    0.0000 C   0  0
   14.0155  -21.1150    0.0000 C   0  0
   14.7294  -20.6997    0.0000 C   0  0
   14.7236  -19.8705    0.0000 C   0  0
   14.0079  -19.4645    0.0000 C   0  0
   12.5814  -18.6478    0.0000 O   0  0
   15.4351  -19.4528    0.0000 O   0  0
  3  4  2  0
  7  8  1  0
  8  9  2  0
  4  5  1  0
  9 10  1  0
  2  3  1  0
 10 11  2  0
  5  6  2  0
 11 12  1  0
  6  1  1  0
 12 13  2  0
 13  8  1  0
  1  2  2  0
  7 14  2  0
  5  7  1  0
 12 15  1  0
M  END