
  SciTegic12231509382D

 22 24  0  0  0  0            999 V2000
    3.4000   -9.4333    0.0000 C   0  0
    3.4000   -8.6000    0.0000 C   0  0
    2.6750   -9.8458    0.0000 N   0  0
    1.9625   -8.6000    0.0000 N   0  0
    1.9625   -9.4333    0.0000 C   0  0
    4.1958   -9.6875    0.0000 N   0  0
    2.6750   -8.1875    0.0000 C   0  0
    4.1875   -8.3375    0.0000 N   0  0
    4.6750   -9.0125    0.0000 C   0  0
    1.2500   -9.8458    0.0000 O   0  0
    2.6750   -7.3625    0.0000 O   0  0
    5.5000   -9.0083    0.0000 C   0  0
    2.6750  -10.6708    0.0000 C   0  0
    1.2500   -8.1875    0.0000 C   0  0
    5.9875   -9.6625    0.0000 C   0  0
    5.9833   -8.3375    0.0000 C   0  0
    1.9625  -11.0750    0.0000 C   0  0
    1.2500   -7.3625    0.0000 C   0  0
    1.9583  -11.9000    0.0000 C   0  0
    0.5333   -6.9583    0.0000 C   0  0
    6.7625   -8.5875    0.0000 C   0  0
    6.7708   -9.4083    0.0000 C   0  0
  2  1  2  0
  3  1  1  0
  4  5  1  0
  5  3  1  0
  6  1  1  0
  7  2  1  0
  8  2  1  0
  9  6  2  0
 10  5  2  0
 11  7  2  0
 12  9  1  0
 13  3  1  0
 14  4  1  0
 15 12  1  0
 16 12  1  0
 17 13  1  0
 18 14  1  0
 19 17  1  0
 20 18  1  0
 21 16  1  0
 22 15  1  0
  9  8  1  0
  4  7  1  0
 22 21  1  0
M  END