
  SciTegic02181312462D

 30 34  0  0  0  0            999 V2000
    8.1960   -8.9179    0.0000 N   0  0
    8.8638   -9.4024    0.0000 C   0  0
    3.4038   -8.0874    0.0000 C   0  0
    4.8357   -5.6139    0.0000 C   0  0
    4.1217   -5.2005    0.0000 N   0  0
    5.6150   -7.8337    0.0000 N   0  0
    4.1151   -4.3731    0.0000 C   0  0
    7.4104   -9.1730    0.0000 C   0  0
    4.8319   -8.9140    0.0000 C   0  0
    8.1947   -8.0917    0.0000 N   0  0
    5.6152   -9.1685    0.0000 N   0  0
    4.8323   -8.0899    0.0000 C   0  0
    4.1187   -6.8524    0.0000 N   0  0
    6.9263   -8.5046    0.0000 C   0  0
    4.1183   -7.6766    0.0000 C   0  0
    3.4034   -8.9115    0.0000 C   0  0
    4.8353   -6.4380    0.0000 C   0  0
    7.4083   -7.8390    0.0000 C   0  0
    4.1175   -9.3249    0.0000 N   0  0
    7.1515   -7.0550    0.0000 C   0  0
    6.1016   -8.5011    0.0000 C   0  0
    2.6898   -7.6741    0.0000 Cl  0  0
    3.4047   -6.4391    0.0000 C   0  0
    3.4072   -5.6113    0.0000 C   0  0
    4.8196   -3.9588    0.0000 C   0  0
    5.5299   -4.3634    0.0000 C   0  0
    6.2338   -3.9498    0.0000 N   0  0
    6.2277   -3.1318    0.0000 C   0  0
    5.5118   -2.7291    0.0000 N   0  0
    4.8108   -3.1449    0.0000 C   0  0
 16 19  1  0
 21 14  1  0
 21  6  2  0
 10 18  2  0
 17  4  1  0
  3 16  2  0
  4  5  1  0
  1  2  1  0
 13 17  1  0
 13 23  1  0
  1 10  1  0
 12  6  1  0
 14  8  2  0
  9 19  2  0
 18 14  1  0
 24 23  1  0
  5  7  1  0
 21 11  1  0
  8  1  1  0
 12 15  2  0
  3 22  1  0
  5 24  1  0
  9 11  1  0
 15 13  1  0
 18 20  1  0
 15  3  1  0
  9 12  1  0
  7 25  1  0
 25 26  2  0
 26 27  1  0
 27 28  2  0
 28 29  1  0
 29 30  2  0
 30 25  1  0
M  END