
  CDK    9/16/09,9:46

 25 26  0  0  0  0  0  0  0  0999 V2000
   14.8833    2.1333    0.0000 C   0  0  0  0  0  0  0  0  0  0  0  0
   14.8833    1.3083    0.0000 C   0  0  0  0  0  0  0  0  0  0  0  0
   15.5954    0.9000    0.0000 C   0  0  0  0  0  0  0  0  0  0  0  0
   16.3074    1.3083    0.0000 C   0  0  0  0  0  0  0  0  0  0  0  0
   16.3074    2.1333    0.0000 C   0  0  0  0  0  0  0  0  0  0  0  0
   15.5954    2.5500    0.0000 O   0  0  0  0  0  0  0  0  0  0  0  0
   17.0230    2.5437    0.0000 O   0  0  0  0  0  0  0  0  0  0  0  0
   17.0212    0.8948    0.0000 O   0  0  0  0  0  0  0  0  0  0  0  0
   15.5954    0.0750    0.0000 O   0  0  0  0  0  0  0  0  0  0  0  0
   14.1695    0.8948    0.0000 O   0  0  0  0  0  0  0  0  0  0  0  0
   14.1677    2.5437    0.0000 C   0  0  0  0  0  0  0  0  0  0  0  0
   14.1652    3.3687    0.0000 O   0  0  0  0  0  0  0  0  0  0  0  0
   17.0255    3.3687    0.0000 C   0  0  0  0  0  0  0  0  0  0  0  0
   14.8809   -0.3375    0.0000 C   0  0  0  0  0  0  0  0  0  0  0  0
   14.8809   -1.1625    0.0000 C   0  0  0  0  0  0  0  0  0  0  0  0
   14.1664    0.0750    0.0000 O   0  0  0  0  0  0  0  0  0  0  0  0
   14.1632   -1.5716    0.0000 C   0  0  0  0  0  0  0  0  0  0  0  0
   14.1629   -2.3959    0.0000 C   0  0  0  0  0  0  0  0  0  0  0  0
   14.8779   -2.8092    0.0000 C   0  0  0  0  0  0  0  0  0  0  0  0
   15.5947   -2.3923    0.0000 C   0  0  0  0  0  0  0  0  0  0  0  0
   15.5916   -1.5694    0.0000 C   0  0  0  0  0  0  0  0  0  0  0  0
   17.0200    0.0698    0.0000 C   0  0  0  0  0  0  0  0  0  0  0  0
   17.7339   -0.3437    0.0000 C   0  0  0  0  0  0  0  0  0  0  0  0
   16.3050   -0.3417    0.0000 O   0  0  0  0  0  0  0  0  0  0  0  0
   14.8790   -3.6342    0.0000 C   0  0  0  0  0  0  0  0  0  0  0  0
 11 12  1  0  0  0  0 
  5  6  1  0  0  0  0 
  7 13  1  0  0  0  0 
  9 14  1  0  0  0  0 
  5  7  1  1  0  0  0 
 14 15  1  0  0  0  0 
  1  2  1  0  0  0  0 
 14 16  2  0  0  0  0 
  4  8  1  1  0  0  0 
 15 17  2  0  0  0  0 
  1  6  1  0  0  0  0 
 17 18  1  0  0  0  0 
  3  9  1  1  0  0  0 
 18 19  2  0  0  0  0 
  2  3  1  0  0  0  0 
 19 20  1  0  0  0  0 
  2 10  1  1  0  0  0 
 20 21  2  0  0  0  0 
 21 15  1  0  0  0  0 
  3  4  1  0  0  0  0 
  8 22  1  0  0  0  0 
  1 11  1  1  0  0  0 
 22 23  1  0  0  0  0 
  4  5  1  0  0  0  0 
 22 24  2  0  0  0  0 
 19 25  1  0  0  0  0 
M  END