
  SciTegic10081512262D

 42 45  0  0  0  0            999 V2000
  -12.1982    3.7955    0.0000 N   0  0
  -12.8656    3.3106    0.0000 C   0  0  2  0  0  0
  -12.6107    2.5260    0.0000 C   0  0  1  0  0  0
  -11.7857    2.5260    0.0000 C   0  0  2  0  0  0
  -11.5308    3.3106    0.0000 C   0  0  2  0  0  0
  -10.7462    3.5655    0.0000 C   0  0
  -10.5746    4.3725    0.0000 N   0  0
  -10.1331    3.0135    0.0000 O   0  0
   -9.7900    4.6274    0.0000 C   0  0
   -9.1769    4.0754    0.0000 C   0  0
   -8.3923    4.3303    0.0000 C   0  0
   -8.2208    5.1373    0.0000 C   0  0
   -8.8338    5.6894    0.0000 C   0  0
   -9.6185    5.4344    0.0000 C   0  0
   -9.3484    3.2684    0.0000 O   0  0
   -8.7651    2.6850    0.0000 C   0  0
   -7.4361    5.3922    0.0000 C   0  0
   -7.2646    6.1992    0.0000 O   0  0
   -6.8230    4.8402    0.0000 O   0  0
  -13.6503    3.5655    0.0000 C   0  0
  -13.8638    4.3624    0.0000 C   0  0
  -14.6607    4.5759    0.0000 C   0  0
  -13.2804    4.9458    0.0000 C   0  0
  -14.0773    5.1593    0.0000 C   0  0
  -13.0956    1.8586    0.0000 C   0  0
  -13.4076    2.7395    0.0000 C   0  0
  -14.2045    2.9531    0.0000 N   0  0
  -13.9161    1.9448    0.0000 C   0  0
  -14.4011    1.2774    0.0000 C   0  0
  -14.0655    0.5237    0.0000 C   0  0
  -13.2450    0.4374    0.0000 C   0  0
  -12.7601    1.1049    0.0000 C   0  0
  -11.3008    1.8586    0.0000 C   0  0
  -11.6364    1.1049    0.0000 C   0  0
  -11.1514    0.4374    0.0000 C   0  0
  -10.3309    0.5237    0.0000 C   0  0
   -9.9954    1.2774    0.0000 C   0  0
  -10.4803    1.9448    0.0000 C   0  0
  -10.1447    2.6985    0.0000 F   0  0
   -9.1749    1.3636    0.0000 Cl  0  0
  -11.9396    1.0187    0.0000 F   0  0
  -14.5504   -0.1437    0.0000 Cl  0  0
  1  2  1  0
  1  5  1  0
  2  3  1  0
  3  4  1  0
  4  5  1  0
  5  6  1  1
  6  7  1  0
  6  8  2  0
  7  9  1  0
  9 10  1  0
  9 14  2  0
 10 11  2  0
 11 12  1  0
 12 13  2  0
 13 14  1  0
 10 15  1  0
 15 16  1  0
 12 17  1  0
 17 18  2  0
 17 19  1  0
  2 20  1  6
 20 21  1  0
 21 22  1  0
 21 23  1  0
 21 24  1  0
  3 25  1  0
  3 26  1  6
 26 27  3  0
 25 28  1  0
 25 32  2  0
 28 29  2  0
 29 30  1  0
 30 31  2  0
 31 32  1  0
  4 33  1  6
 33 34  1  0
 33 38  2  0
 34 35  2  0
 35 36  1  0
 36 37  2  0
 37 38  1  0
 38 39  1  0
 37 40  1  0
 32 41  1  0
 30 42  1  0
M  END