
  SciTegic12231509382D

 21 23  0  0  0  0            999 V2000
   13.9965   -6.7783    0.0000 N   0  0
   13.7651   -7.5559    0.0000 C   0  0
   14.2276   -8.2387    0.0000 C   0  0
   15.0406   -8.2909    0.0000 N   0  0
   15.6245   -7.7070    0.0000 C   0  0
   15.4880   -6.8798    0.0000 C   0  0
   14.7763   -6.4673    0.0000 C   0  0
   16.2039   -6.4673    0.0000 C   0  0
   16.2039   -5.6423    0.0000 C   0  0
   15.4880   -5.2298    0.0000 C   0  0
   14.7763   -5.6423    0.0000 C   0  0
   12.9499   -7.6797    0.0000 O   0  0
   16.4100   -7.9511    0.0000 C   0  0
   16.9939   -7.3672    0.0000 C   0  0
   17.7921   -7.6192    0.0000 C   0  0
   17.9665   -8.4126    0.0000 C   0  0
   17.3826   -8.9965    0.0000 C   0  0
   16.5844   -8.7446    0.0000 C   0  0
   18.7647   -8.6688    0.0000 Cl  0  0
   13.4126   -6.1986    0.0000 C   0  0
   16.9197   -5.2298    0.0000 Cl  0  0
  1  2  1  0
  2  3  1  0
  3  4  1  0
  4  5  2  0
  5  6  1  0
  6  7  1  0
  1  7  1  0
  8  9  1  0
  9 10  2  0
 10 11  1  0
  7 11  2  0
  6  8  2  0
  2 12  2  0
 13 14  1  0
 14 15  2  0
 15 16  1  0
 16 17  2  0
 17 18  1  0
 13 18  2  0
 16 19  1  0
  5 13  1  0
  1 20  1  0
  9 21  1  0
M  END