
          11280715222D 1   1.00000     0.00000     0

 20 22  0     0  0            999 V2000
   -3.8833    0.8500    0.0000 N   0  3  0  0  0  0           0  0  0
   -1.0208   -0.8000    0.0000 N   0  0  0  0  0  0           0  0  0
   -3.1583    0.4375    0.0000 C   0  0  0  0  0  0           0  0  0
   -0.3000   -0.3875    0.0000 C   0  0  0  0  0  0           0  0  0
   -2.4458    0.8500    0.0000 C   0  0  0  0  0  0           0  0  0
   -1.7333    0.4375    0.0000 C   0  0  0  0  0  0           0  0  0
   -1.7333   -0.3875    0.0000 C   0  0  0  0  0  0           0  0  0
    0.4125   -0.8000    0.0000 N   0  0  3  0  0  0           0  0  0
   -3.1583   -0.3875    0.0000 C   0  0  0  0  0  0           0  0  0
   -1.0208    0.8500    0.0000 C   0  0  0  0  0  0           0  0  0
   -3.8833    1.6750    0.0000 O   0  5  0  0  0  0           0  0  0
   -4.5958    0.4375    0.0000 O   0  0  0  0  0  0           0  0  0
   -0.3000    0.4375    0.0000 C   0  0  0  0  0  0           0  0  0
   -2.4458   -0.8000    0.0000 C   0  0  0  0  0  0           0  0  0
    1.8417   -1.6292    0.0000 N   0  0  0  0  0  0           0  0  0
   -2.4458    1.6750    0.0000 C   0  0  0  0  0  0           0  0  0
    0.4125   -1.6292    0.0000 C   0  0  0  0  0  0           0  0  0
    1.1292   -0.3875    0.0000 C   0  0  0  0  0  0           0  0  0
    1.8417   -0.8000    0.0000 C   0  0  0  0  0  0           0  0  0
    1.1250   -2.0417    0.0000 C   0  0  0  0  0  0           0  0  0
  2  7  1  0     0  0
  3  1  1  0     0  0
  4  2  2  0     0  0
  5  3  2  0     0  0
  6  5  1  0     0  0
  7 14  1  0     0  0
  8  4  1  0     0  0
  9  3  1  0     0  0
 10  6  1  0     0  0
 11  1  1  0     0  0
 12  1  2  0     0  0
 13 10  2  0     0  0
 14  9  2  0     0  0
 15 19  1  0     0  0
 16  5  1  0     0  0
 17  8  1  0     0  0
 18  8  1  0     0  0
 19 18  1  0     0  0
 20 17  1  0     0  0
  6  7  2  0     0  0
  4 13  1  0     0  0
 20 15  1  0     0  0
M  CHG  2   1   1  11  -1
M  END