
  SciTegic01181116592D

 27 30  0  0  0  0            999 V2000
    8.3628  -10.4437    0.0000 C   0  0
    8.3626  -11.2684    0.0000 O   0  0
    7.6487  -10.0312    0.0000 N   0  0
    6.9365  -10.4482    0.0000 C   0  0
    6.2246  -10.0392    0.0000 C   0  0
    6.2205   -9.2142    0.0000 N   0  0
    6.9346   -8.7999    0.0000 C   0  0
    7.6528   -9.2105    0.0000 C   0  0
    5.5048   -8.8044    0.0000 C   0  0
    4.7921   -9.2192    0.0000 C   0  0
    5.5020   -7.9797    0.0000 C   0  0
    9.0770  -10.0316    0.0000 C   0  0
    9.0782   -9.2045    0.0000 C   0  0
    9.7916  -10.4442    0.0000 C   0  0
    9.7898   -8.7919    0.0000 C   0  0
   10.5048   -9.2009    0.0000 C   0  0
   10.5097  -10.0270    0.0000 C   0  0
   11.2969  -10.2777    0.0000 N   0  0
   11.7786   -9.6065    0.0000 C   0  0
   11.2883   -8.9414    0.0000 C   0  0
   11.7083   -8.2317    0.0000 C   0  0
   12.5329   -8.2406    0.0000 N   0  0
   12.9306   -8.9601    0.0000 C   0  0
   13.7516   -8.9709    0.0000 C   0  0
   14.1754   -8.2631    0.0000 C   0  0
   13.7721   -7.5427    0.0000 C   0  0
   12.9449   -7.5301    0.0000 C   0  0
  4  5  1  0
 12 14  1  0
 14 17  2  0
  5  6  1  0
 16 15  2  0
 15 13  1  0
 16 17  1  0
  6  7  1  0
  7  8  1  0
  6  9  1  0
  1  3  1  0
 17 18  1  0
 18 19  1  0
 19 20  2  0
 20 16  1  0
  9 10  1  0
 20 21  1  0
  3  4  1  0
 21 22  1  0
 22 23  1  0
  9 11  1  0
  1  2  2  0
  1 12  1  0
  3  8  1  0
 13 12  2  0
 22 27  1  0
 23 24  1  0
 24 25  1  0
 25 26  1  0
 26 27  1  0
M  END