
  SciTegic06051313522D

 21 23  0  0  0  0            999 V2000
   15.1013   -3.0403    0.0000 C   0  0
   15.8109   -2.6309    0.0000 C   0  0
   15.8081   -1.8082    0.0000 C   0  0
   15.0995   -1.4030    0.0000 C   0  0
   16.5143   -1.3970    0.0000 N   0  0
   17.2235   -1.8029    0.0000 C   0  0
   14.3932   -2.6314    0.0000 C   0  0
   14.3944   -1.8103    0.0000 C   0  0
   13.6139   -1.5554    0.0000 N   0  0
   13.1303   -2.2189    0.0000 O   0  0
   13.6119   -2.8838    0.0000 N   0  0
   15.0995   -0.5820    0.0000 N   0  3
   14.3909   -0.1749    0.0000 O   0  0
   15.8063   -0.1718    0.0000 O   0  5
   17.2232   -2.6177    0.0000 C   0  0
   17.9317   -3.0236    0.0000 C   0  0
   18.6388   -2.6123    0.0000 C   0  0
   18.6331   -1.7909    0.0000 C   0  0
   17.9241   -1.3887    0.0000 C   0  0
   19.3378   -1.3771    0.0000 F   0  0
   17.9343   -3.8408    0.0000 Cl  0  0
  7  1  1  0
  1  2  2  0
  2  3  1  0
  3  4  2  0
  4  8  1  0
  3  5  1  0
  5  6  1  0
  7  8  1  0
  8  9  2  0
  9 10  1  0
 10 11  1  0
 11  7  2  0
 12 13  2  0
 12 14  1  0
  4 12  1  0
  6 15  2  0
 15 16  1  0
 16 17  2  0
 17 18  1  0
 18 19  2  0
 19  6  1  0
 18 20  1  0
 16 21  1  0
M  CHG  2  12   1  14  -1
M  END