
  SciTegic04091415222D

 35 38  0  0  0  0            999 V2000
   13.6703  -10.7622    0.0000 C   0  0  2  0  0  0
   14.5054  -10.7622    0.0000 C   0  0  2  0  0  0
   13.2569  -11.4802    0.0000 N   0  0
   14.9103  -11.4802    0.0000 C   0  0  2  0  0  0
   13.6703  -12.1942    0.0000 C   0  0  2  0  0  0
   16.1504  -12.1942    0.0000 C   0  0
   14.5054  -12.1942    0.0000 C   0  0
   15.7453  -11.4802    0.0000 O   0  0
   14.9103  -10.0523    0.0000 C   0  0
   14.2422  -11.1379    0.0000 C   0  0
   14.2422  -11.8184    0.0000 C   0  0
   15.7453  -12.9082    0.0000 O   0  0
   16.9771  -12.1942    0.0000 C   0  0
   15.7453  -10.0523    0.0000 O   0  0
   12.4386  -11.4802    0.0000 C   0  0
   14.5054   -9.3341    0.0000 O   0  0
   17.3904  -12.9082    0.0000 C   0  0
   17.3904  -11.4802    0.0000 C   0  0
   13.6703   -9.3341    0.0000 C   0  0
   18.2254  -12.9082    0.0000 C   0  0
   18.2254  -11.4802    0.0000 C   0  0
   18.6305  -12.1942    0.0000 C   0  0
   13.2569  -10.0523    0.0000 H   0  0
   13.2569  -12.9082    0.0000 H   0  0
   12.0253  -10.7643    0.0000 C   0  0
   11.1986  -10.7643    0.0000 C   0  0
   10.7786  -10.0542    0.0000 C   0  0
   10.7918  -11.4820    0.0000 C   0  0
    9.9436  -10.0618    0.0000 C   0  0
    9.9568  -11.4897    0.0000 C   0  0
    9.5453  -10.7795    0.0000 C   0  0
    9.5473  -12.2079    0.0000 I   0  0
    8.7186  -10.7870    0.0000 N   0  0
    7.8920  -10.7993    0.0000 N   0  3
    7.0695  -10.8106    0.0000 N   0  5
  2  1  1  0
  3  1  1  0
  4  2  1  0
  5  3  1  0
  6  8  1  0
  7  5  1  0
  4  8  1  1
  2  9  1  1
 10  1  1  0
 11 10  1  0
 12  6  2  0
 13  6  1  0
 14  9  2  0
 15  3  1  0
 16  9  1  0
 17 13  2  0
 18 13  1  0
 19 16  1  0
 20 17  1  0
 21 18  2  0
 22 21  1  0
  1 23  1  6
  5 24  1  6
 11  5  1  0
  7  4  1  0
 22 20  2  0
 15 25  1  0
 25 26  1  0
 27 26  2  0
 28 26  1  0
 29 27  1  0
 30 28  2  0
 31 30  1  0
 31 29  2  0
 30 32  1  0
 31 33  1  0
 33 34  2  0
 34 35  2  0
M  CHG  2  34   1  35  -1
M  ISO  1  32 125
M  END