
          11280715462D 1   1.00000     0.00000     0

 31 34  0     0  0            999 V2000
    4.4000    0.1375    0.0000 C   0  0  0  0  0  0           0  0  0
    4.4042    0.9625    0.0000 C   0  0  0  0  0  0           0  0  0
    5.1125   -0.2792    0.0000 C   0  0  0  0  0  0           0  0  0
    5.1167    1.3708    0.0000 O   0  0  0  0  0  0           0  0  0
   -0.6250   -1.1667    0.0000 N   0  0  3  0  0  0           0  0  0
    3.6792   -0.2667    0.0000 C   0  0  0  0  0  0           0  0  0
   -1.3333   -1.5792    0.0000 C   0  0  0  0  0  0           0  0  0
    5.8292    0.1333    0.0000 C   0  0  0  0  0  0           0  0  0
    5.8292    0.9583    0.0000 C   0  0  0  0  0  0           0  0  0
   -2.0583   -1.1667    0.0000 C   0  0  0  0  0  0           0  0  0
    0.8042   -0.3250    0.0000 N   0  0  3  0  0  0           0  0  0
    3.6917    1.3750    0.0000 O   0  0  0  0  0  0           0  0  0
   -1.3333   -2.4042    0.0000 C   0  0  0  0  0  0           0  0  0
    0.0875   -1.5625    0.0000 C   0  0  0  0  0  0           0  0  0
   -0.6250   -0.3250    0.0000 C   0  0  0  0  0  0           0  0  0
    3.7000   -1.1000    0.0000 O   0  0  0  0  0  0           0  0  0
    2.9542    0.1333    0.0000 N   0  0  0  0  0  0           0  0  0
   -2.0458   -2.8292    0.0000 C   0  0  0  0  0  0           0  0  0
   -2.7708   -1.5875    0.0000 C   0  0  0  0  0  0           0  0  0
    0.0875    0.0958    0.0000 C   0  0  0  0  0  0           0  0  0
    0.8042   -1.1667    0.0000 C   0  0  0  0  0  0           0  0  0
   -2.7708   -2.4167    0.0000 C   0  0  0  0  0  0           0  0  0
   -3.4875   -1.1750    0.0000 Cl  0  0  0  0  0  0           0  0  0
   -0.6125   -2.8167    0.0000 O   0  0  0  0  0  0           0  0  0
    2.2417   -0.2917    0.0000 C   0  0  0  0  0  0           0  0  0
    1.5375    0.1000    0.0000 C   0  0  0  0  0  0           0  0  0
    6.5417   -0.2875    0.0000 C   0  0  0  0  0  0           0  0  0
    6.5542    1.3708    0.0000 C   0  0  0  0  0  0           0  0  0
   -0.6083   -3.6417    0.0000 C   0  0  0  0  0  0           0  0  0
    7.2625    0.1250    0.0000 C   0  0  0  0  0  0           0  0  0
    7.2667    0.9500    0.0000 C   0  0  0  0  0  0           0  0  0
  2  1  1  0     0  0
  3  1  2  0     0  0
  4  2  1  0     0  0
  5 14  1  0     0  0
  6  1  1  0     0  0
  7  5  1  0     0  0
  8  3  1  0     0  0
  9  8  2  0     0  0
 10  7  2  0     0  0
 11 26  1  0     0  0
 12  2  2  0     0  0
 13  7  1  0     0  0
 14 21  1  0     0  0
 15 20  1  0     0  0
 16  6  2  0     0  0
 17  6  1  0     0  0
 18 13  2  0     0  0
 19 10  1  0     0  0
 20 11  1  0     0  0
 21 11  1  0     0  0
 22 18  1  0     0  0
 23 19  1  0     0  0
 24 13  1  0     0  0
 25 17  1  0     0  0
 26 25  1  0     0  0
 27  8  1  0     0  0
 28  9  1  0     0  0
 29 24  1  0     0  0
 30 27  2  0     0  0
 31 30  1  0     0  0
  4  9  1  0     0  0
 28 31  2  0     0  0
  5 15  1  0     0  0
 22 19  2  0     0  0
M  END