
          11280715462D 1   1.00000     0.00000     0

 27 30  0     0  0            999 V2000
   -0.8458    0.2958    0.0000 C   0  0  0  0  0  0           0  0  0
   -0.1708    0.7833    0.0000 N   0  0  3  0  0  0           0  0  0
   -0.5833   -0.4917    0.0000 N   0  0  3  0  0  0           0  0  0
    0.4917    0.2958    0.0000 C   0  0  0  0  0  0           0  0  0
    0.2375   -0.4917    0.0000 C   0  0  3  0  0  0           0  0  0
   -1.6708    0.3000    0.0000 N   0  0  0  0  0  0           0  0  0
   -0.1708    1.6083    0.0000 C   0  0  0  0  0  0           0  0  0
   -1.9208   -0.4875    0.0000 C   0  0  0  0  0  0           0  0  0
   -1.2583   -0.9667    0.0000 C   0  0  0  0  0  0           0  0  0
   -0.8833    2.0208    0.0000 C   0  0  0  0  0  0           0  0  0
    0.5417    2.0208    0.0000 C   0  0  0  0  0  0           0  0  0
    1.0292   -0.7042    0.0000 C   0  0  0  0  0  0           0  0  0
    1.2792    0.5500    0.0000 O   0  0  0  0  0  0           0  0  0
   -0.8833    2.8458    0.0000 C   0  0  0  0  0  0           0  0  0
    0.5417    2.8458    0.0000 C   0  0  0  0  0  0           0  0  0
   -0.1708    3.2583    0.0000 C   0  0  0  0  0  0           0  0  0
   -2.7083   -0.7375    0.0000 Br  0  0  0  0  0  0           0  0  0
    0.2292   -1.3167    0.0000 C   0  0  0  0  0  0           0  0  0
    1.0292   -1.5292    0.0000 C   0  0  0  0  0  0           0  0  0
    1.0167   -3.1750    0.0000 C   0  0  0  0  0  0           0  0  0
    1.2542    3.2583    0.0000 Cl  0  0  0  0  0  0           0  0  0
   -1.6083    3.2500    0.0000 Cl  0  0  0  0  0  0           0  0  0
    1.0167   -4.0000    0.0000 Br  0  0  0  0  0  0           0  0  0
    1.7375   -1.9375    0.0000 C   0  0  0  0  0  0           0  0  0
    0.3042   -1.9292    0.0000 C   0  0  0  0  0  0           0  0  0
    1.7375   -2.7542    0.0000 C   0  0  0  0  0  0           0  0  0
    0.3042   -2.7542    0.0000 C   0  0  0  0  0  0           0  0  0
  2  1  1  0     0  0
  3  1  1  0     0  0
  4  2  1  0     0  0
  5  3  1  0     0  0
  6  1  2  0     0  0
  7  2  1  0     0  0
  8  6  1  0     0  0
  9  3  1  0     0  0
 10  7  1  0     0  0
 11  7  2  0     0  0
 12  5  1  0     0  0
 13  4  2  0     0  0
 14 10  2  0     0  0
 15 11  1  0     0  0
 16 15  2  0     0  0
 17  8  1  0     0  0
 18  5  1  0     0  0
 19 12  1  0     0  0
 20 27  2  0     0  0
 21 15  1  0     0  0
 22 14  1  0     0  0
 23 20  1  0     0  0
 24 19  1  0     0  0
 25 19  2  0     0  0
 26 24  2  0     0  0
 27 25  1  0     0  0
  9  8  2  0     0  0
  4  5  1  0     0  0
 14 16  1  0     0  0
 26 20  1  0     0  0
M  END