
  SciTegic05171617262D

 40 45  0  0  1  0            999 V2000
   -7.7554   -3.6202    0.0000 C   0  0
   -8.7970   -3.0243    0.0000 C   0  0  2  0  0  0
   -9.8336   -3.6288    0.0000 O   0  0
   -8.8025   -1.5235    0.0000 C   0  0
   -7.5060   -0.7675    0.0000 N   0  0
   -7.5115    0.7333    0.0000 C   0  0
   -8.5531    1.3291    0.0000 O   0  0
   -6.2150    1.4893    0.0000 C   0  0
   -6.2184    2.9893    0.0000 C   0  0
   -4.9210    3.7422    0.0000 C   0  0
   -3.6203    2.9951    0.0000 C   0  0
   -3.6168    1.4950    0.0000 C   0  0
   -4.9143    0.7422    0.0000 C   0  0
   -2.3155    0.7475    0.0000 C   0  0
   -2.3155   -0.7475    0.0000 C   0  0
   -1.0028   -1.5132    0.0000 C   0  0
    0.2917   -0.7475    0.0000 C   0  0
    1.7138   -1.2033    0.0000 N   0  0
    2.5889    0.0182    0.0000 C   0  0
    4.0896    0.0290    0.0000 C   0  0
    4.7453   -1.3220    0.0000 C   0  0
    6.2418   -1.4248    0.0000 C   0  0
    7.0791   -0.1803    0.0000 C   0  0
    6.4199    1.1671    0.0000 N   0  0
    4.9234    1.2700    0.0000 C   0  0
    4.3957    2.3477    0.0000 N   0  0
    1.7138    1.2033    0.0000 N   0  0
    2.1749    2.6315    0.0000 C   0  0
    1.2517    3.8078    0.0000 C   0  0
    1.8114    5.1995    0.0000 C   0  0
    3.2965    5.4106    0.0000 C   0  0
    4.2218    4.2301    0.0000 C   0  0
    3.6621    2.8384    0.0000 C   0  0
    3.8566    6.8030    0.0000 C   0  0
    5.0450    6.9694    0.0000 N   0  0
    2.4252    6.9116    0.0000 C   0  0
    2.6073    8.4005    0.0000 C   0  0
    4.0962    8.2184    0.0000 C   0  0
    0.2917    0.7475    0.0000 C   0  0
   -1.0028    1.5132    0.0000 N   0  0
  1  2  1  0
  2  3  1  6
  2  4  1  0
  4  5  1  0
  5  6  1  0
  6  7  2  0
  6  8  1  0
  8  9  2  0
  9 10  1  0
 10 11  2  0
 11 12  1  0
 12 13  2  0
  8 13  1  0
 12 14  1  0
 14 15  2  0
 15 16  1  0
 16 17  2  0
 17 18  1  0
 18 19  2  0
 19 20  1  0
 20 21  2  0
 21 22  1  0
 22 23  2  0
 23 24  1  0
 24 25  2  0
 20 25  1  0
 25 26  1  0
 19 27  1  0
 27 28  1  0
 28 29  2  0
 29 30  1  0
 30 31  2  0
 31 32  1  0
 32 33  2  0
 28 33  1  0
 31 34  1  0
 34 35  1  0
 34 36  1  0
 36 37  1  0
 37 38  1  0
 34 38  1  0
 27 39  1  0
 17 39  1  0
 39 40  2  0
 14 40  1  0
M  END