
  SciTegic05071317012D

 35 38  0  0  0  0            999 V2000
    3.9112  -11.3292    0.0000 C   0  0
    3.9101  -12.1487    0.0000 C   0  0
    4.6181  -12.5577    0.0000 C   0  0
    4.6163  -10.9203    0.0000 C   0  0
    5.3249  -11.3256    0.0000 C   0  0
    5.3283  -12.1508    0.0000 C   0  0
    6.0407  -12.5582    0.0000 N   0  0
    6.7543  -12.1449    0.0000 C   0  0
    6.7509  -11.3198    0.0000 N   0  0
    6.0339  -10.9078    0.0000 C   0  0
    3.2034  -10.9208    0.0000 O   0  0
    3.2032  -10.1036    0.0000 C   0  0
    3.2020  -12.5568    0.0000 O   0  0
    2.4946  -12.1476    0.0000 C   0  0
    6.0294  -10.0906    0.0000 N   0  0
    7.4631  -12.5516    0.0000 N   0  0
    8.8760  -13.3730    0.0000 N   0  0
    8.8757  -12.5549    0.0000 C   0  0
    8.1664  -12.1438    0.0000 C   0  0
    8.1669  -13.7801    0.0000 C   0  0  2  0  0  0
    7.4596  -13.3718    0.0000 C   0  0  2  0  0  0
    6.7562  -13.7780    0.0000 C   0  0
    6.7540  -14.5941    0.0000 C   0  0
    7.4614  -15.0024    0.0000 C   0  0
    8.1709  -14.5946    0.0000 C   0  0
    9.5832  -13.7824    0.0000 C   0  0
    9.5824  -14.5996    0.0000 O   0  0
   10.2914  -13.3745    0.0000 C   0  0
   11.0345  -13.7085    0.0000 O   0  0
   11.5820  -13.1018    0.0000 C   0  0
   11.1741  -12.3936    0.0000 C   0  0
   10.3746  -12.5628    0.0000 C   0  0
   12.3946  -13.1881    0.0000 O   0  0
   12.7262  -13.9350    0.0000 C   0  0
   10.6327  -11.1964    0.0000 Cl  0  0
  1  2  2  0
  2  3  1  0
  3  6  2  0
  5  4  2  0
  4  1  1  0
  5  6  1  0
  5 10  1  0
  6  7  1  0
  7  8  2  0
  8  9  1  0
  9 10  2  0
  1 11  1  0
 11 12  1  0
  2 13  1  0
 13 14  1  0
 10 15  1  0
  8 16  1  0
 16 21  1  0
 16 19  1  0
 20 17  1  0
 17 18  1  0
 18 19  1  0
 20 21  1  0
 20 25  1  1
 21 22  1  6
 22 23  1  0
 23 24  1  0
 24 25  1  0
 17 26  1  0
 26 27  2  0
 26 28  1  0
 28 29  1  0
 29 30  1  0
 30 31  2  0
 31 32  1  0
 32 28  2  0
 30 33  1  0
 33 34  1  0
M  END