
          11280715412D 1   1.00000     0.00000     0

 33 36  0     0  0            999 V2000
    0.2292    1.1708    0.0000 C   0  0  0  0  0  0           0  0  0
   -0.7625    0.2750    0.0000 C   0  0  0  0  0  0           0  0  0
   -0.5875    1.0833    0.0000 N   0  0  0  0  0  0           0  0  0
   -0.0500   -0.1417    0.0000 N   0  0  3  0  0  0           0  0  0
    0.5625    0.4125    0.0000 C   0  0  0  0  0  0           0  0  0
    0.6417    1.8833    0.0000 C   0  0  0  0  0  0           0  0  0
   -1.4875    0.1958    0.0000 C   0  0  0  0  0  0           0  0  0
   -0.0750   -3.4292    0.0000 C   0  0  3  0  0  0           0  0  0
   -1.9083    0.9083    0.0000 C   0  0  0  0  0  0           0  0  0
    1.3750    1.4958    0.0000 N   0  0  0  0  0  0           0  0  0
   -0.0583   -0.9667    0.0000 C   0  0  0  0  0  0           0  0  0
    2.0667    1.9375    0.0000 N   0  0  3  0  0  0           0  0  0
   -1.9083   -0.5250    0.0000 C   0  0  0  0  0  0           0  0  0
   -2.7250    0.9083    0.0000 C   0  0  0  0  0  0           0  0  0
   -0.0708   -2.6042    0.0000 C   0  0  0  0  0  0           0  0  0
    0.6042    2.7083    0.0000 O   0  0  0  0  0  0           0  0  0
   -0.7708   -1.3667    0.0000 C   0  0  0  0  0  0           0  0  0
    0.6500   -1.3792    0.0000 C   0  0  0  0  0  0           0  0  0
   -0.7833   -2.1875    0.0000 C   0  0  0  0  0  0           0  0  0
    0.6417   -2.1917    0.0000 C   0  0  0  0  0  0           0  0  0
   -0.0833   -4.1792    0.0000 F   0  0  0  0  0  0           0  0  0
   -0.7458   -3.9667    0.0000 F   0  0  0  0  0  0           0  0  0
    0.5917   -3.9792    0.0000 F   0  0  0  0  0  0           0  0  0
   -3.1458    0.1958    0.0000 C   0  0  0  0  0  0           0  0  0
   -1.4875    1.6208    0.0000 Cl  0  0  0  0  0  0           0  0  0
    1.3667    0.2458    0.0000 C   0  0  0  0  0  0           0  0  0
   -2.7333   -0.5167    0.0000 C   0  0  0  0  0  0           0  0  0
   -3.9708    0.2000    0.0000 Cl  0  0  0  0  0  0           0  0  0
    2.0375    2.7583    0.0000 C   0  0  0  0  0  0           0  0  0
    2.8042    1.5458    0.0000 C   0  0  0  0  0  0           0  0  0
    3.5000    1.9833    0.0000 C   0  0  0  0  0  0           0  0  0
    2.7375    3.2083    0.0000 C   0  0  0  0  0  0           0  0  0
    3.4667    2.8125    0.0000 C   0  0  0  0  0  0           0  0  0
  2  3  2  0     0  0
  3  1  1  0     0  0
  4  5  1  0     0  0
  5  1  2  0     0  0
  6  1  1  0     0  0
  7  2  1  0     0  0
  8 15  1  0     0  0
  9  7  2  0     0  0
 10  6  1  0     0  0
 11  4  1  0     0  0
 12 10  1  0     0  0
 13  7  1  0     0  0
 14  9  1  0     0  0
 15 20  1  0     0  0
 16  6  2  0     0  0
 17 11  2  0     0  0
 18 11  1  0     0  0
 19 17  1  0     0  0
 20 18  2  0     0  0
 21  8  1  0     0  0
 22  8  1  0     0  0
 23  8  1  0     0  0
 24 27  1  0     0  0
 25  9  1  0     0  0
 26  5  1  0     0  0
 27 13  2  0     0  0
 28 24  1  0     0  0
 29 12  1  0     0  0
 30 12  1  0     0  0
 31 30  1  0     0  0
 32 29  1  0     0  0
 33 31  1  0     0  0
  4  2  1  0     0  0
 15 19  2  0     0  0
 33 32  1  0     0  0
 24 14  2  0     0  0
M  END