
  SciTegic02181312462D

 37 40  0  0  0  0            999 V2000
    9.3252   -6.1123    0.0000 C   0  0
    9.3252   -5.2873    0.0000 C   0  0
   10.0397   -4.8748    0.0000 C   0  0
   10.7542   -5.2873    0.0000 C   0  0
   10.7542   -6.1123    0.0000 C   0  0
   10.0397   -6.5248    0.0000 N   0  0
    8.6107   -6.5248    0.0000 C   0  0
    8.6107   -7.3498    0.0000 O   0  0
    7.8963   -6.1123    0.0000 N   0  0
   10.0397   -4.0498    0.0000 O   0  0
   12.1831   -2.8123    0.0000 N   0  0
   12.1831   -3.6373    0.0000 C   0  0
   11.4686   -4.0498    0.0000 C   0  0
   10.7542   -3.6373    0.0000 C   0  0
   10.7542   -2.8123    0.0000 C   0  0
   11.4686   -2.3998    0.0000 C   0  0
    7.1818   -6.5248    0.0000 C   0  0
    6.4673   -6.1123    0.0000 C   0  0
    5.7529   -6.5248    0.0000 C   0  0
    5.7529   -7.3498    0.0000 C   0  0
    6.4673   -7.7623    0.0000 C   0  0
    7.1818   -7.3498    0.0000 C   0  0
    5.0384   -7.7623    0.0000 N   0  0
    4.3239   -7.3498    0.0000 C   0  0
    4.3239   -6.5248    0.0000 O   0  0
    3.6094   -7.7623    0.0000 N   0  0
    1.5893   -7.0723    0.0000 O   0  0
    2.1413   -7.6854    0.0000 N   0  0
    2.8950   -7.3498    0.0000 C   0  0
    2.8087   -6.5293    0.0000 C   0  0
    2.0018   -6.3578    0.0000 C   0  0
    1.6662   -5.6041    0.0000 C   0  0
    2.0787   -4.8896    0.0000 C   0  0
    1.3307   -4.8504    0.0000 C   0  0
    0.8412   -5.6041    0.0000 C   0  0
   12.8976   -2.3998    0.0000 C   0  0
   12.8976   -1.5748    0.0000 C   0  0
  1  2  1  0
  2  3  2  0
  3  4  1  0
  4  5  2  0
  5  6  1  0
  1  6  2  0
  1  7  1  0
  7  8  2  0
  7  9  1  0
 11 12  1  0
 12 13  1  0
 13 14  1  0
 14 15  1  0
 15 16  1  0
 11 16  1  0
 10 14  1  0
  3 10  1  0
 17 18  1  0
 18 19  2  0
 19 20  1  0
 20 21  2  0
 21 22  1  0
 17 22  2  0
 23 24  1  0
 24 25  2  0
 24 26  1  0
 27 28  1  0
 28 29  2  0
 29 30  1  0
 30 31  2  0
 27 31  1  0
 32 33  1  0
 32 35  1  0
 32 34  1  0
 31 32  1  0
 26 29  1  0
 20 23  1  0
  9 17  1  0
 11 36  1  0
 36 37  1  0
M  END