
  SciTegic12231509382D

 24 25  0  0  0  0            999 V2000
   17.1591   -9.7303    0.0000 C   0  0
   16.4386  -10.1414    0.0000 C   0  0  2  0  0  0
   14.3014   -9.7354    0.0000 N   0  0
   15.0122  -10.1560    0.0000 C   0  0
   15.7230   -9.7353    0.0000 C   0  0
   17.1591   -8.8939    0.0000 C   0  0
   17.8602  -10.1413    0.0000 C   0  0
   16.4386  -10.9634    0.0000 C   0  0
   17.8601   -8.4828    0.0000 C   0  0
   13.5906  -10.1416    0.0000 C   0  0
   14.3014   -8.9231    0.0000 C   0  0
   18.5807   -9.7303    0.0000 C   0  0
   18.5806   -8.8938    0.0000 C   0  0
   16.4385   -8.4829    0.0000 O   0  0
   17.1592  -11.3744    0.0000 C   0  0
   15.7231  -11.3745    0.0000 C   0  0
   14.9976   -8.5120    0.0000 C   0  0
   13.5762  -10.9636    0.0000 C   0  0
   12.8798   -9.7306    0.0000 C   0  0
   13.5905   -8.5024    0.0000 C   0  0
   19.2915  -10.1413    0.0000 C   0  0
   15.7232  -12.2013    0.0000 C   0  0
   17.1593  -12.2013    0.0000 C   0  0
   16.4387  -12.6220    0.0000 C   0  0
 10  3  1  0
 11  3  1  0
 12  7  2  0
 13 12  1  0
 14  6  1  0
 15  8  2  0
 16  8  1  0
 17 11  1  0
 18 10  1  0
 19 10  1  0
 20 11  1  0
 21 12  1  0
 22 16  2  0
 23 15  1  0
 24 22  1  0
  9 13  2  0
 23 24  2  0
  2  1  1  0
  3  4  1  0
  4  5  1  0
  5  2  1  0
  6  1  2  0
  7  1  1  0
  2  8  1  1
  9  6  1  0
M  END