
  SciTegic03291108512D

 23 25  0  0  0  0            999 V2000
   -1.5534   -2.2664    0.0000 O   0  0
   -0.1245   -2.2664    0.0000 O   0  0
   -5.1258    3.0961    0.0000 O   0  0
   -0.8389    0.6211    0.0000 N   0  0
   -4.4113    1.8586    0.0000 N   0  0
   -0.1245   -0.6164    0.0000 C   0  0
   -0.8389   -1.0289    0.0000 C   0  0
   -1.5534    0.2086    0.0000 C   0  0
   -0.1245    0.2086    0.0000 C   0  0
   -1.5534   -0.6164    0.0000 C   0  0
   -2.2679    0.6211    0.0000 C   0  0
   -0.8389   -1.8539    0.0000 C   0  0
    0.5900   -1.0289    0.0000 C   0  0
    0.5900    0.6211    0.0000 C   0  0
   -2.9824    0.2086    0.0000 C   0  0
   -2.2679    1.4461    0.0000 C   0  0
   -3.6968    1.4461    0.0000 C   0  0
    1.3045   -0.6164    0.0000 C   0  0
    1.3045    0.2086    0.0000 C   0  0
   -3.6968    0.6211    0.0000 C   0  0
   -2.9824    1.8586    0.0000 C   0  0
   -4.4113    2.6836    0.0000 C   0  0
   -3.6968    3.0961    0.0000 C   0  0
  1 12  2  0
  2 12  1  0
  3 22  2  0
  4  8  1  0
  4  9  2  0
  5 17  1  0
  5 22  1  0
  6  7  2  0
  6  9  1  0
  6 13  1  0
  7 10  1  0
  7 12  1  0
  8 10  2  0
  8 11  1  0
  9 14  1  0
 11 15  2  0
 11 16  1  0
 13 18  2  0
 14 19  2  0
 15 20  1  0
 16 21  2  0
 17 20  2  0
 17 21  1  0
 18 19  1  0
 22 23  1  0
M  END