
  SciTegic12231509382D

 34 37  0  0  0  0            999 V2000
   13.4372  -20.6952    0.0000 O   0  0
   13.0289  -19.9827    0.0000 S   0  0
   12.6160  -20.6926    0.0000 O   0  0
    4.4608  -17.5118    0.0000 C   0  0
    4.4596  -18.3392    0.0000 C   0  0
    5.1744  -18.7520    0.0000 C   0  0
    5.8909  -18.3387    0.0000 C   0  0
    5.8880  -17.5082    0.0000 C   0  0
    5.1726  -17.0990    0.0000 C   0  0
    3.7448  -18.7511    0.0000 Cl  0  0
    6.6009  -17.0930    0.0000 O   0  0
    7.3169  -17.5028    0.0000 C   0  0
    7.3220  -18.3295    0.0000 C   0  0
    8.0339  -18.7393    0.0000 C   0  0
    8.7493  -18.3276    0.0000 N   0  0
    8.7481  -17.5016    0.0000 C   0  0
    8.0317  -17.0873    0.0000 C   0  0
    9.4637  -18.7401    0.0000 C   0  0
    9.4601  -19.5625    0.0000 C   0  0
   10.1704  -19.9749    0.0000 C   0  0
   10.8873  -19.5659    0.0000 N   0  0
   10.8893  -18.7400    0.0000 C   0  0
   10.1744  -18.3230    0.0000 C   0  0
   11.6002  -19.9811    0.0000 C   0  0
   11.5971  -20.8061    0.0000 O   0  0
    3.7462  -17.0995    0.0000 Cl  0  0
   12.3163  -19.5714    0.0000 N   0  0
   13.7452  -19.5768    0.0000 C   0  0
   14.4525  -19.9956    0.0000 C   0  0
   15.1683  -19.5904    0.0000 C   0  0
   15.1754  -18.7662    0.0000 C   0  0
   14.4607  -18.3489    0.0000 C   0  0
   13.7478  -18.7565    0.0000 C   0  0
   15.8926  -18.3585    0.0000 C   0  0
  2  1  2  0
  3  2  2  0
  4  5  2  0
  5  6  1  0
  6  7  2  0
  7  8  1  0
  8  9  2  0
  9  4  1  0
  5 10  1  0
  8 11  1  0
 12 11  1  0
 12 13  1  0
 12 17  1  0
 13 14  1  0
 14 15  1  0
 15 16  1  0
 16 17  1  0
 18 15  1  0
 18 19  1  0
 18 23  1  0
 19 20  1  0
 20 21  1  0
 21 22  1  0
 22 23  1  0
 21 24  1  0
 24 25  2  0
  4 26  1  0
 24 27  1  0
 27  2  1  0
  2 28  1  0
 28 29  2  0
 29 30  1  0
 30 31  2  0
 31 32  1  0
 32 33  2  0
 33 28  1  0
 31 34  1  0
M  END