
          11280715072D 1   1.00000     0.00000     0

 22 24  0     0  0            999 V2000
    2.5167   -0.9875    0.0000 C   0  0  0  0  0  0           0  0  0
    1.7917   -0.5917    0.0000 C   0  0  0  0  0  0           0  0  0
    1.0875   -1.0167    0.0000 C   0  0  0  0  0  0           0  0  0
    2.5375   -1.8042    0.0000 C   0  0  0  0  0  0           0  0  0
    1.1042   -1.8417    0.0000 C   0  0  0  0  0  0           0  0  0
    1.8375   -2.2417    0.0000 C   0  0  0  0  0  0           0  0  0
    3.2167   -0.5542    0.0000 C   0  0  0  0  0  0           0  0  0
    3.9417   -0.9542    0.0000 C   0  0  0  0  0  0           0  0  0
    0.3250   -2.1167    0.0000 O   0  0  0  0  0  0           0  0  0
    0.2917   -0.7792    0.0000 C   0  0  0  0  0  0           0  0  0
    4.6417   -0.5250    0.0000 C   0  0  0  0  0  0           0  0  0
   -0.1750   -1.4625    0.0000 C   0  0  0  0  0  0           0  0  0
    3.2000    0.2708    0.0000 O   0  0  0  0  0  0           0  0  0
    1.7792    0.2333    0.0000 O   0  0  0  0  0  0           0  0  0
    3.2542   -2.2000    0.0000 O   0  0  0  0  0  0           0  0  0
    5.3667   -0.9167    0.0000 C   0  0  0  0  0  0           0  0  0
    1.0542    0.6333    0.0000 C   0  0  0  0  0  0           0  0  0
    5.3917   -1.7417    0.0000 C   0  0  0  0  0  0           0  0  0
    6.0667   -0.4792    0.0000 C   0  0  0  0  0  0           0  0  0
    6.7917   -0.8750    0.0000 C   0  0  0  0  0  0           0  0  0
    6.1125   -2.1292    0.0000 C   0  0  0  0  0  0           0  0  0
    6.8167   -1.7042    0.0000 C   0  0  0  0  0  0           0  0  0
  2  1  2  0     0  0
  3  2  1  0     0  0
  4  1  1  0     0  0
  5  6  1  0     0  0
  6  4  2  0     0  0
  7  1  1  0     0  0
  8  7  1  0     0  0
  9  5  1  0     0  0
 10  3  1  0     0  0
 11  8  2  0     0  0
 12 10  2  0     0  0
 13  7  2  0     0  0
 14  2  1  0     0  0
 15  4  1  0     0  0
 16 11  1  0     0  0
 17 14  1  0     0  0
 18 16  2  0     0  0
 19 16  1  0     0  0
 20 19  2  0     0  0
 21 18  1  0     0  0
 22 20  1  0     0  0
  5  3  2  0     0  0
  9 12  1  0     0  0
 22 21  2  0     0  0
M  END