
  SciTegic11201309402D

 72 75  0  0  1  0            999 V2000
    8.8167   -2.9792    0.0000 N   0  0
    3.7250   -2.9792    0.0000 C   0  0
    8.3167   -2.6917    0.0000 C   0  0
    5.2542   -2.6917    0.0000 C   0  0
    4.2292   -2.6917    0.0000 N   0  0
    9.3542   -2.7417    0.0000 C   0  0
    9.4792   -2.1667    0.0000 C   0  0
    6.7792   -2.9792    0.0000 C   0  0
    5.7542   -2.9792    0.0000 N   0  0
    2.7000   -2.9792    0.0000 N   0  0
    7.8042   -2.9792    0.0000 C   0  0  1  0  0  0
    3.2125   -2.6917    0.0000 C   0  0  1  0  0  0
    4.7417   -2.9792    0.0000 C   0  0  1  0  0  0
    2.1917   -2.6917    0.0000 C   0  0
    7.2917   -2.6917    0.0000 N   0  0
    9.0417   -1.7792    0.0000 N   0  0
    6.2750   -2.6917    0.0000 C   0  0  1  0  0  0
    9.0667   -3.5167    0.0000 C   0  0
    8.9667   -4.2167    0.0000 N   0  0
    9.6042   -3.2792    0.0000 C   0  0
    9.1667   -1.1917    0.0000 C   0  0  2  0  0  0
    2.7000   -5.3417    0.0000 C   0  0
    8.7292   -0.8042    0.0000 C   0  0
    8.2167   -4.1875    0.0000 C   0  0
    7.8042   -3.5667    0.0000 C   0  0
    1.1667   -2.6917    0.0000 N   0  0
    8.5542   -5.3625    0.0000 N   0  0
    9.1667   -4.9500    0.0000 C   0  0
    0.6625   -2.9792    0.0000 C   0  0
    1.6792   -2.9792    0.0000 C   0  0  1  0  0  0
    3.7250   -3.5667    0.0000 O   0  0
    3.2125   -5.6375    0.0000 N   0  0
    8.3167   -2.1042    0.0000 O   0  0
    5.2542   -2.1042    0.0000 O   0  0
    4.7417   -3.5667    0.0000 C   0  0
   10.0417   -1.9917    0.0000 O   0  0
    6.7792   -3.5667    0.0000 O   0  0
    7.9667   -4.9000    0.0000 C   0  0
    2.1917   -2.1042    0.0000 O   0  0
    9.7292   -1.0167    0.0000 C   0  0
    8.1667   -0.9875    0.0000 O   0  0
    0.6625   -3.5667    0.0000 O   0  0
    2.7000   -4.7542    0.0000 N   0  0
    2.1917   -5.6375    0.0000 N   0  0
    3.2125   -2.1042    0.0000 C   0  0
    6.2750   -2.1042    0.0000 C   0  0  2  0  0  0
    5.2542   -3.8750    0.0000 C   0  0
    8.8542   -0.2292    0.0000 O   0  0
    6.2750   -4.4625    0.0000 C   0  0
    9.8500   -0.4375    0.0000 C   0  0
   -0.3625   -2.9792    0.0000 N   0  0
    4.0792   -2.1167    0.0000 C   0  0
    5.7542   -3.5667    0.0000 C   0  0
    5.2542   -4.4625    0.0000 C   0  0
    6.2750   -3.8750    0.0000 C   0  0
    5.7542   -4.7542    0.0000 C   0  0
    6.7792   -4.7542    0.0000 O   0  0
    0.1500   -2.6917    0.0000 C   0  0
    1.6792   -3.5667    0.0000 C   0  0
    2.1917   -4.4625    0.0000 C   0  0
   -0.5125   -3.5542    0.0000 C   0  0
    5.7542   -1.8042    0.0000 C   0  0
    3.7250   -1.8042    0.0000 C   0  0
    2.7000   -1.8042    0.0000 C   0  0
    6.7792   -1.8042    0.0000 C   0  0
    9.4167   -0.0417    0.0000 C   0  0
   10.4125   -0.2625    0.0000 C   0  0
    2.1917   -3.8750    0.0000 C   0  0
    5.7542   -1.2167    0.0000 C   0  0
   10.5292    0.3125    0.0000 C   0  0
    9.5375    0.5333    0.0000 C   0  0
   10.0917    0.7125    0.0000 C   0  0
  2  5  1  0
  3  1  1  0
  4  9  1  0
  5 13  1  0
  6  1  1  0
  7  6  1  0
  8 15  1  0
 17  9  1  1
 12 10  1  1
 11  3  1  0
 12  2  1  0
 13  4  1  0
 14 10  1  0
 11 15  1  6
 16  7  1  0
 17  8  1  0
 18  1  1  0
 19 24  1  0
 20 18  1  0
 21 16  1  6
 22 43  2  0
 23 21  1  0
 24 25  1  0
 11 25  1  0
 30 26  1  6
 27 38  1  0
 28 19  2  0
 29 26  1  0
 30 14  1  0
 31  2  2  0
 32 22  1  0
 33  3  2  0
 34  4  2  0
 13 35  1  6
 36  7  2  0
 37  8  2  0
 38 24  2  0
 39 14  2  0
 21 40  1  0
 41 23  2  0
 42 29  2  0
 43 60  1  0
 44 22  1  0
 12 45  1  0
 17 46  1  0
 47 35  1  0
 48 23  1  0
 49 56  2  0
 50 40  1  0
 51 58  1  0
 52  5  1  0
 53 47  1  0
 54 47  2  0
 55 53  2  0
 56 54  1  0
 57 49  1  0
 58 29  1  0
 30 59  1  0
 60 68  1  0
 61 51  1  0
 62 46  1  0
 63 45  1  0
 64 45  1  0
 46 65  1  6
 66 50  1  0
 67 50  2  0
 68 59  1  0
 69 62  1  0
 70 67  1  0
 71 66  2  0
 72 70  2  0
  6 20  1  0
 27 28  1  0
 72 71  1  0
 49 55  1  0
M  END