
          11280715352D 1   1.00000     0.00000     0

 25 27  0     0  0            999 V2000
    1.5500   -1.4792    0.0000 C   0  0  0  0  0  0           0  0  0
    1.2792   -0.9042    0.0000 C   0  0  3  0  0  0           0  0  0
    1.2625   -2.0292    0.0000 C   0  0  0  0  0  0           0  0  0
    0.6875   -0.7917    0.0000 S   0  0  0  0  0  0           0  0  0
    3.2167   -0.1042    0.0000 N   0  3  0  0  0  0           0  0  0
    0.6667   -2.1375    0.0000 N   0  0  0  0  0  0           0  0  0
    2.1542   -1.4875    0.0000 C   0  0  0  0  0  0           0  0  0
    1.6500   -0.4250    0.0000 C   0  0  0  0  0  0           0  0  0
    0.3042   -1.1625    0.0000 C   0  0  0  0  0  0           0  0  0
    0.3042   -1.7750    0.0000 C   0  0  0  0  0  0           0  0  0
    2.6167   -0.0250    0.0000 C   0  0  0  0  0  0           0  0  0
    2.2500   -0.5042    0.0000 C   0  0  0  0  0  0           0  0  0
    3.4500   -0.6667    0.0000 O   0  5  0  0  0  0           0  0  0
    3.5917    0.3708    0.0000 O   0  0  0  0  0  0           0  0  0
    2.4667   -0.9667    0.0000 O   0  0  0  0  0  0           0  0  0
    2.4417   -2.0167    0.0000 O   0  0  0  0  0  0           0  0  0
    1.6250   -2.5250    0.0000 C   0  0  0  0  0  0           0  0  0
    1.4167    0.1333    0.0000 C   0  0  0  0  0  0           0  0  0
    2.3917    0.5333    0.0000 C   0  0  0  0  0  0           0  0  0
    1.7875    0.6125    0.0000 C   0  0  0  0  0  0           0  0  0
   -0.2208   -0.8542    0.0000 C   0  0  0  0  0  0           0  0  0
   -0.2208   -2.0750    0.0000 C   0  0  0  0  0  0           0  0  0
    3.0542   -2.0250    0.0000 C   0  0  0  0  0  0           0  0  0
   -0.7458   -1.7667    0.0000 C   0  0  0  0  0  0           0  0  0
   -0.7458   -1.1625    0.0000 C   0  0  0  0  0  0           0  0  0
  2  1  1  0     0  0
  3  1  1  0     0  0
  4  2  1  0     0  0
  5 11  1  0     0  0
  6  3  2  0     0  0
  7  1  2  0     0  0
  8  2  1  0     0  0
  9  4  1  0     0  0
 10  6  1  0     0  0
 11 12  1  0     0  0
 12  8  2  0     0  0
 13  5  1  0     0  0
 14  5  2  0     0  0
 15  7  1  0     0  0
 16  7  1  0     0  0
 17  3  1  0     0  0
 18  8  1  0     0  0
 19 20  1  0     0  0
 20 18  2  0     0  0
 21  9  2  0     0  0
 22 10  2  0     0  0
 23 16  1  0     0  0
 24 22  1  0     0  0
 25 21  1  0     0  0
  9 10  1  0     0  0
 11 19  2  0     0  0
 25 24  2  0     0  0
M  CHG  2   5   1  13  -1
M  END