
  SciTegic03041510302D

 29 32  0  0  0  0            999 V2000
    3.5810   -6.2362    0.0000 C   0  0
    3.5799   -7.0557    0.0000 C   0  0
    4.2879   -7.4647    0.0000 C   0  0
    4.2861   -5.8273    0.0000 C   0  0
    4.9947   -6.2326    0.0000 C   0  0
    4.9936   -7.0532    0.0000 C   0  0
    5.6998   -7.4623    0.0000 C   0  0
    6.4117   -7.0552    0.0000 N   0  0
    6.4128   -6.2346    0.0000 C   0  0
    5.7021   -5.8210    0.0000 C   0  0
    7.1197   -5.8307    0.0000 C   0  0
    7.8267   -6.2427    0.0000 C   0  0
    8.5349   -5.8365    0.0000 C   0  0
    8.5373   -5.0184    0.0000 C   0  0
    7.8256   -4.6083    0.0000 C   0  0
    7.1203   -5.0168    0.0000 C   0  0
    7.1182   -7.4658    0.0000 C   0  0
    7.1159   -8.2830    0.0000 C   0  0
    6.4078   -8.6854    0.0000 C   0  0
    6.4052   -9.5018    0.0000 C   0  0
    7.1123   -9.9132    0.0000 C   0  0
    7.8235   -9.5022    0.0000 C   0  0
    7.8226   -8.6871    0.0000 C   0  0
    5.7021   -5.0038    0.0000 C   0  0
    6.4098   -4.5952    0.0000 O   0  0
    4.9944   -4.5952    0.0000 O   0  0
    5.6975   -8.2795    0.0000 O   0  0
    7.1059  -10.7319    0.0000 Cl  0  0
    9.2459   -4.6111    0.0000 Cl  0  0
  1  2  2  0
  2  3  1  0
  3  6  2  0
  5  4  2  0
  4  1  1  0
  5  6  1  0
  5 10  1  0
  6  7  1  0
  7  8  1  0
  8  9  1  0
  9 10  1  0
 11 12  2  0
 12 13  1  0
 13 14  2  0
 14 15  1  0
 15 16  2  0
 16 11  1  0
  9 11  1  0
  8 17  1  0
 17 18  1  0
 18 19  2  0
 19 20  1  0
 20 21  2  0
 21 22  1  0
 22 23  2  0
 23 18  1  0
 10 24  1  0
 24 25  2  0
 24 26  1  0
  7 27  2  0
 21 28  1  0
 14 29  1  0
M  END