
          03140815512D 1   1.00000     0.00000     0

 15 17  0     0  0            999 V2000
   10.6395   -5.4305    0.0000 C   0  0  0  0  0  0           0  0  0
   10.6382   -6.2579    0.0000 C   0  0  0  0  0  0           0  0  0
   11.3511   -6.6708    0.0000 C   0  0  0  0  0  0           0  0  0
   11.3492   -5.0177    0.0000 C   0  0  0  0  0  0           0  0  0
   12.0671   -5.4265    0.0000 C   0  0  0  0  0  0           0  0  0
   12.0677   -6.2579    0.0000 C   0  0  0  0  0  0           0  0  0
   12.8587   -6.5144    0.0000 N   0  0  0  0  0  0           0  0  0
   13.3470   -5.8414    0.0000 C   0  0  0  0  0  0           0  0  0
   12.8578   -5.1691    0.0000 N   0  0  0  0  0  0           0  0  0
   14.1719   -5.8409    0.0000 C   0  0  0  0  0  0           0  0  0
   14.6542   -6.5073    0.0000 C   0  0  0  0  0  0           0  0  0
   15.4385   -6.2519    0.0000 S   0  0  0  0  0  0           0  0  0
   15.4380   -5.4269    0.0000 C   0  0  0  0  0  0           0  0  0
   14.6533   -5.1727    0.0000 N   0  0  0  0  0  0           0  0  0
   16.1049   -4.9415    0.0000 N   0  0  0  0  0  0           0  0  0
  5  4  2  0     0  0
  6  7  1  0     0  0
  7  8  1  0     0  0
  8  9  2  0     0  0
  9  5  1  0     0  0
  4  1  1  0     0  0
  8 10  1  0     0  0
 10 11  2  0     0  0
  5  6  1  0     0  0
  2  3  1  0     0  0
  3  6  2  0     0  0
 11 12  1  0     0  0
 12 13  1  0     0  0
 13 14  2  0     0  0
 14 10  1  0     0  0
  1  2  2  0     0  0
 13 15  1  0     0  0
M  END