
          11280714452D 1   1.00000     0.00000     0

 31 33  0     0  0            999 V2000
   -3.1250   -1.5042    0.0000 N   0  0  0  0  0  0           0  0  0
   -2.3875   -1.1500    0.0000 C   0  0  0  0  0  0           0  0  0
   -1.8125   -1.7500    0.0000 N   0  0  0  0  0  0           0  0  0
   -3.0250   -2.3250    0.0000 C   0  0  0  0  0  0           0  0  0
   -2.2125   -2.4750    0.0000 C   0  0  0  0  0  0           0  0  0
    6.9750    0.5208    0.0000 C   0  0  0  0  0  0           0  0  0
    6.8042   -0.2917    0.0000 C   0  0  0  0  0  0           0  0  0
    6.3500    1.0625    0.0000 C   0  0  0  0  0  0           0  0  0
   -2.2333   -0.3417    0.0000 C   0  0  0  0  0  0           0  0  0
    6.0250   -0.5542    0.0000 C   0  0  0  0  0  0           0  0  0
    0.5667    1.2125    0.0000 O   0  0  0  0  0  0           0  0  0
   -0.1500    0.8000    0.0000 C   0  0  0  0  0  0           0  0  0
   -1.5750   -0.0250    0.0000 C   0  0  0  0  0  0           0  0  0
    5.5667    0.7958    0.0000 C   0  0  0  0  0  0           0  0  0
    2.0000    1.2125    0.0000 C   0  0  3  0  0  0           0  0  0
    1.2792    0.8000    0.0000 C   0  0  0  0  0  0           0  0  0
    5.4125   -0.0042    0.0000 C   0  0  0  0  0  0           0  0  0
    7.7500    0.7833    0.0000 O   0  0  0  0  0  0           0  0  0
    3.4250    1.2125    0.0000 N   0  0  0  0  0  0           0  0  0
   -0.1500   -0.0292    0.0000 C   0  0  0  0  0  0           0  0  0
   -0.8625    1.2125    0.0000 C   0  0  0  0  0  0           0  0  0
    7.4250   -0.8375    0.0000 O   0  0  0  0  0  0           0  0  0
   -0.8625   -0.4375    0.0000 C   0  0  0  0  0  0           0  0  0
   -1.5750    0.8083    0.0000 C   0  0  0  0  0  0           0  0  0
    2.0000    2.0375    0.0000 O   0  0  0  0  0  0           0  0  0
   -1.8583   -3.2167    0.0000 C   0  0  0  0  0  0           0  0  0
    2.7125    0.8000    0.0000 C   0  0  0  0  0  0           0  0  0
    4.1375    0.8000    0.0000 C   0  0  0  0  0  0           0  0  0
    4.8542    1.2083    0.0000 C   0  0  0  0  0  0           0  0  0
    8.3750    0.2375    0.0000 C   0  0  0  0  0  0           0  0  0
    7.2625   -1.6500    0.0000 C   0  0  0  0  0  0           0  0  0
  2  1  1  0     0  0
  3  2  2  0     0  0
  4  1  1  0     0  0
  5  4  2  0     0  0
  6  8  1  0     0  0
  7 10  1  0     0  0
  8 14  2  0     0  0
  9  2  1  0     0  0
 10 17  2  0     0  0
 11 12  1  0     0  0
 12 21  2  0     0  0
 13  9  1  0     0  0
 14 29  1  0     0  0
 15 16  1  0     0  0
 16 11  1  0     0  0
 17 14  1  0     0  0
 18  6  1  0     0  0
 19 27  1  0     0  0
 20 23  2  0     0  0
 21 24  1  0     0  0
 22  7  1  0     0  0
 23 13  1  0     0  0
 24 13  2  0     0  0
 25 15  1  0     0  0
 26  5  1  0     0  0
 27 15  1  0     0  0
 28 19  1  0     0  0
 29 28  1  0     0  0
 30 18  1  0     0  0
 31 22  1  0     0  0
  5  3  1  0     0  0
 20 12  1  0     0  0
  7  6  2  0     0  0
M  END