
  SciTegic12121614042D

 15 16  0  0  0  0            999 V2000
   -2.6111    0.7486    0.0000 C   0  0
   -2.6111   -0.7486    0.0000 C   0  0
   -1.2964   -1.4973    0.0000 C   0  0
   -1.2964    1.4973    0.0000 C   0  0
    0.0000    0.7486    0.0000 C   0  0
    0.0000   -0.7486    0.0000 C   0  0
    1.2964   -1.4973    0.0000 C   0  0
    2.5929   -0.7486    0.0000 N   0  0
    2.5929    0.7486    0.0000 C   0  0
    1.2964    1.4973    0.0000 N   0  0
    1.2995   -2.9981    0.0000 N   0  0
    2.3396   -3.5967    0.0000 C   0  0
   -3.9091   -1.5019    0.0000 N   0  3
   -3.9072   -2.7019    0.0000 O   0  0
   -4.9494   -0.9039    0.0000 O   0  5
  1  2  2  0
  2  3  1  0
  3  6  2  0
  5  4  2  0
  4  1  1  0
  5  6  1  0
  6  7  1  0
  7  8  2  0
  8  9  1  0
  9 10  2  0
 10  5  1  0
  7 11  1  0
 11 12  1  0
 13 14  2  0
 13 15  1  0
  2 13  1  0
M  CHG  2  13   1  15  -1
M  END