
  SciTegic04151115542D

 24 25  0  0  0  0            999 V2000
   11.5394  -17.2447    0.0000 C   0  0
   11.5383  -18.0720    0.0000 C   0  0
   12.2531  -18.4848    0.0000 C   0  0
   12.9694  -18.0715    0.0000 C   0  0
   12.9666  -17.2411    0.0000 C   0  0
   12.2513  -16.8319    0.0000 C   0  0
   10.8236  -18.4839    0.0000 Cl  0  0
   13.6795  -16.8259    0.0000 N   0  0
   14.3954  -17.2357    0.0000 C   0  0
   15.1083  -16.8205    0.0000 C   0  0
   14.3985  -18.0606    0.0000 O   0  0
   15.8242  -17.2303    0.0000 N   0  0
   15.1052  -15.9955    0.0000 O   0  0
   16.5372  -16.8151    0.0000 C   0  0
   12.2529  -19.3097    0.0000 F   0  0
   16.5340  -15.9901    0.0000 C   0  0  2  0  0  0
   17.1956  -15.5007    0.0000 O   0  0
   16.9377  -14.7170    0.0000 C   0  0
   16.1126  -14.7201    0.0000 O   0  0
   15.8608  -15.5057    0.0000 C   0  0  1  0  0  0
   16.9322  -13.8908    0.0000 C   0  0
   17.6488  -14.2990    0.0000 C   0  0
   15.0323  -15.5032    0.0000 C   0  0
   14.6220  -14.7874    0.0000 N   0  0
 10 12  1  0
  6  1  1  0
 10 13  2  0
  1  2  2  0
 12 14  1  0
  2  7  1  0
  3 15  1  0
  3  4  2  0
 16 14  1  1
 16 17  1  0
  5  8  1  0
  8  9  1  0
  4  5  1  0
 17 18  1  0
 18 19  1  0
 19 20  1  0
 20 16  1  0
  9 10  1  0
 18 21  1  0
  2  3  1  0
 18 22  1  0
  9 11  2  0
 20 23  1  6
  5  6  2  0
 23 24  1  0
M  END