
          02060813472D 1   1.00000     0.00000     0

 34 37  0     1  0            999 V2000
   -4.1375    0.3500    0.0000 C   0  0  0  0  0  0           0  0  0
   -4.1375   -0.4750    0.0000 O   0  0  0  0  0  0           0  0  0
   -3.4255   -0.8833    0.0000 C   0  0  0  0  0  0           0  0  0
   -2.7135   -0.4750    0.0000 C   0  0  0  0  0  0           0  0  0
   -2.7135    0.3500    0.0000 N   0  0  3  0  0  0           0  0  0
   -3.4255    0.7667    0.0000 C   0  0  0  0  0  0           0  0  0
   -1.9978    0.7604    0.0000 C   0  0  0  0  0  0           0  0  0
   -1.2845    0.3458    0.0000 C   0  0  0  0  0  0           0  0  0
   -1.9954    1.5854    0.0000 O   0  0  0  0  0  0           0  0  0
   -0.5688    0.7562    0.0000 C   0  0  1  0  0  0           0  0  0
   -0.5750    1.5833    0.0000 C   0  0  0  0  0  0           0  0  0
    0.1364    2.0011    0.0000 C   0  0  3  0  0  0           0  0  0
    0.8532    1.5882    0.0000 C   0  0  0  0  0  0           0  0  0
    1.5625    2.0025    0.0000 C   0  0  0  0  0  0           0  0  0
    1.5606    2.8279    0.0000 C   0  0  0  0  0  0           0  0  0
    0.8432    3.2372    0.0000 C   0  0  0  0  0  0           0  0  0
    0.1277    2.8213    0.0000 C   0  0  0  0  0  0           0  0  0
    0.1465    0.3453    0.0000 C   0  0  0  0  0  0           0  0  0
    0.1484   -0.4797    0.0000 O   0  0  0  0  0  0           0  0  0
    0.8601    0.7594    0.0000 N   0  0  0  0  0  0           0  0  0
    1.5749    0.3485    0.0000 C   0  0  1  0  0  0           0  0  0
    2.0226    1.0449    0.0000 C   0  0  0  0  0  0           0  0  0
    2.4704    1.7411    0.0000 N   0  0  0  0  0  0           0  0  0
    1.2613   -0.4130    0.0000 C   0  0  0  0  0  0           0  0  0
    2.0303   -0.9040    0.0000 C   0  0  0  0  0  0           0  0  0
    2.6798   -0.3952    0.0000 N   0  0  3  0  0  0           0  0  0
    2.3966    0.3796    0.0000 C   0  0  0  0  0  0           0  0  0
    3.4731   -0.6216    0.0000 C   0  0  0  0  0  0           0  0  0
    3.6738   -1.4218    0.0000 C   0  0  0  0  0  0           0  0  0
    3.0796   -1.9901    0.0000 C   0  0  0  0  0  0           0  0  0
    3.2797   -2.7897    0.0000 C   0  0  0  0  0  0           0  0  0
    4.0737   -3.0168    0.0000 C   0  0  0  0  0  0           0  0  0
    4.6677   -2.4380    0.0000 C   0  0  0  0  0  0           0  0  0
    4.4645   -1.6406    0.0000 C   0  0  0  0  0  0           0  0  0
 15 16  1  0     0  0
 16 17  1  0     0  0
  1  6  1  0     0  0
 10 18  1  0     0  0
  7  9  2  0     0  0
 18 19  2  0     0  0
  2  3  1  0     0  0
 18 20  1  0     0  0
  8 10  1  0     0  0
 21 20  1  6     0  0
  3  4  1  0     0  0
 21 22  1  0     0  0
 10 11  1  1     0  0
 22 23  3  0     0  0
  4  5  1  0     0  0
 11 12  1  0     0  0
 12 13  1  0     0  0
  5  6  1  0     0  0
 24 25  1  0     0  0
 25 26  1  0     0  0
 26 27  1  0     0  0
 21 24  1  0     0  0
 21 27  1  0     0  0
 26 28  1  0     0  0
  5  7  1  0     0  0
 28 29  1  0     0  0
  1  2  1  0     0  0
 29 30  2  0     0  0
  7  8  1  0     0  0
 30 31  1  0     0  0
 12 17  1  0     0  0
 31 32  2  0     0  0
 13 14  1  0     0  0
 32 33  1  0     0  0
 14 15  1  0     0  0
 33 34  2  0     0  0
 34 29  1  0     0  0
M  END