
  SciTegic04191616232D

180189  0  0  0  0            999 V2000
   27.0082  -19.1174    0.0000 C   0  0
    8.4000   -3.4123    0.0000 C   0  0
    4.2899  -11.8976    0.0000 O   0  0
   36.4604  -28.0423    0.0000 C   0  0  1  0  0  0
   26.8423  -23.0859    0.0000 C   0  0
   37.6688  -22.9866    0.0000 C   0  0
   44.7091  -42.0244    0.0000 C   0  0
   34.2018  -16.8218    0.0000 N   0  0
    5.6066   -4.4730    0.0000 C   0  0
   41.3635  -39.8864    0.0000 N   0  0
    5.1142   -6.8323    0.0000 C   0  0
    6.6489   -2.0933    0.0000 C   0  0
   21.7672  -15.2003    0.0000 C   0  0  2  0  0  0
   31.9125  -30.9535    0.0000 N   0  0
   12.3150   -6.2754    0.0000 C   0  0
   27.8279  -30.0108    0.0000 N   0  0
   43.6286  -37.4925    0.0000 O   0  0
    6.6015   -6.6806    0.0000 C   0  0
   27.6101  -16.5921    0.0000 C   0  0
   39.8477  -33.9226    0.0000 O   0  0
   32.6795  -24.4723    0.0000 C   0  0
   47.9439  -34.8165    0.0000 C   0  0  1  0  0  0
   25.1177  -17.3324    0.0000 C   0  0  2  0  0  0
   13.7751   -6.6226    0.0000 C   0  0
   11.1467    3.8159    0.0000 C   0  0
   35.0003  -27.6951    0.0000 C   0  0
   38.7811  -31.2651    0.0000 C   0  0  1  0  0  0
   33.3723  -31.3023    0.0000 C   0  0
   16.0959   -9.8454    0.0000 C   0  0  2  0  0  0
   19.8920  -22.5043    0.0000 N   0  0
   45.9126  -36.9672    0.0000 C   0  0  1  0  0  0
   30.7934  -13.6123    0.0000 N   0  0
   25.5481  -18.7703    0.0000 N   0  0
   39.1747  -28.9547    0.0000 O   0  0
   13.5360    2.8176    0.0000 S   0  0
   17.1625  -12.5029    0.0000 O   0  0
   22.8338  -17.8578    0.0000 O   0  0
   41.0132  -36.0421    0.0000 C   0  0
    7.4947   -7.8907    0.0000 C   0  0
   32.4283  -19.0700    0.0000 C   0  0
    4.1645   -4.3166    0.0000 C   0  0
    9.6007   -5.3630    0.0000 O   0  0
   46.4845  -34.4698    0.0000 C   0  0
   12.0479    2.6230    0.0000 C   0  0
   35.8640  -30.5667    0.0000 C   0  0
    3.5805  -10.9300    0.0000 O   0  0
   33.1495  -20.5799    0.0000 N   0  5
   34.3172  -20.8562    0.0000 N   0  3
   25.1220   -8.2574    0.0000 N   0  0
   35.6078  -25.1665    0.0000 C   0  0
   36.2888  -32.0054    0.0000 C   0  0
   35.7777  -21.2017    0.0000 N   0  0
    4.4838   -8.1978    0.0000 C   0  0
    5.4408   -2.9838    0.0000 C   0  0
   29.3289  -22.3402    0.0000 C   0  0
    3.7263   -6.3670    0.0000 C   0  0
   43.2502  -41.6759    0.0000 C   0  0
   33.0349  -16.5418    0.0000 C   0  0
    6.4826   -0.6017    0.0000 C   0  0
   35.2551  -33.0925    0.0000 C   0  0
   18.3786  -21.0799    0.0000 N   0  0
   10.4245   -4.4905    0.0000 C   0  0
   25.8142  -24.1793    0.0000 C   0  0
   40.6716  -33.0500    0.0000 C   0  0
   38.0975  -24.4240    0.0000 C   0  0
    8.5341   -2.7055    0.0000 C   0  0
   33.7969  -32.7409    0.0000 C   0  0
   34.1764  -28.5676    0.0000 O   0  0
    9.9942   -3.0526    0.0000 C   0  0
   20.7391  -16.2937    0.0000 C   0  0
   31.1351  -14.7626    0.0000 C   0  0
   40.2413  -31.6122    0.0000 N   0  0
    6.4195    2.5959    0.0000 C   0  0
   24.0499  -26.4348    0.0000 N   0  0
   22.1607  -12.8900    0.0000 O   0  0
   45.7404  -40.9352    0.0000 C   0  0
    5.4827  -11.7673    0.0000 O   0  0
   19.8767  -13.4153    0.0000 N   0  0
   19.4464  -11.9775    0.0000 C   0  0  1  0  0  0
   43.8539  -39.1489    0.0000 N   0  0
   33.1098  -25.9102    0.0000 C   0  0  2  0  0  0
   33.5033  -23.5998    0.0000 O   0  0
   27.4385  -20.5552    0.0000 C   0  0  1  0  0  0
   30.8799  -32.0427    0.0000 N   0  3
   14.2054   -8.0604    0.0000 C   0  0
   14.2655    1.8648    0.0000 O   0  0
    9.1076   -0.1694    0.0000 C   0  0
   32.0817  -27.0035    0.0000 C   0  0
    5.3377    2.0765    0.0000 C   0  0
   45.3129  -39.4974    0.0000 C   0  0
   20.4790  -10.8884    0.0000 C   0  0
    7.6570    1.7509    0.0000 N   0  0
   44.0221  -35.1822    0.0000 N   0  0
   35.1791  -23.7291    0.0000 C   0  0
   23.6576  -16.9853    0.0000 C   0  0
   24.4311  -10.4968    0.0000 N   0  0
   32.6943  -15.3911    0.0000 N   0  0
   28.8986  -20.9024    0.0000 N   0  0
   30.7891  -22.6874    0.0000 C   0  0  2  0  0  0
   42.5620  -34.8350    0.0000 C   0  0
   37.4930  -26.9532    0.0000 C   0  0
   28.5051  -23.2127    0.0000 O   0  0
   26.4104  -21.6486    0.0000 C   0  0
   11.8847   -4.8376    0.0000 N   0  0
   21.9388  -11.2372    0.0000 C   0  0
   40.9377  -38.4472    0.0000 C   0  0
    5.3788   -9.4260    0.0000 C   0  0
   23.2273  -15.5475    0.0000 N   0  0
   34.5699  -26.2573    0.0000 N   0  0
    4.5164   -5.4639    0.0000 C   0  0
   17.9863  -11.6304    0.0000 C   0  0
   26.6309   -9.6866    0.0000 N   0  0
   30.1024  -15.8517    0.0000 N   0  0
   38.3508  -29.8273    0.0000 C   0  0
   25.5633  -27.8592    0.0000 N   0  0
   32.5136  -28.4409    0.0000 C   0  0
   31.8217  -21.5982    0.0000 C   0  0
    8.2775   -4.6060    0.0000 C   0  0
   15.0632  -10.9345    0.0000 C   0  0
   31.2194  -24.1252    0.0000 N   0  0
   37.0670  -25.5141    0.0000 C   0  0
   45.4546  -35.5602    0.0000 C   0  0
   30.0543  -32.9135    0.0000 N   0  5
   13.8961  -10.6556    0.0000 O   0  0
   36.8907  -29.4801    0.0000 N   0  0
   39.5311  -37.9641    0.0000 S   0  0
    8.1038   -1.2677    0.0000 C   0  0
   22.9714  -10.1480    0.0000 C   0  0
   39.5739  -36.4647    0.0000 C   0  0
   28.9962  -30.2848    0.0000 C   0  0
   42.1317  -33.3972    0.0000 C   0  0
   11.4620    1.2208    0.0000 C   0  0
   20.1428  -18.8244    0.0000 C   0  0
   14.7260    2.9728    0.0000 O   0  0
   36.2096  -22.6391    0.0000 C   0  0
   15.4049  -12.0848    0.0000 N   0  0
   34.4058  -30.2152    0.0000 C   0  0
   19.5466  -21.3551    0.0000 C   0  0
   10.2869   -0.3914    0.0000 C   0  0
   25.2180  -26.7100    0.0000 C   0  0
   44.4525  -36.6200    0.0000 C   0  0
    9.6378    3.6356    0.0000 C   0  0
   37.7485  -32.3542    0.0000 C   0  0
   26.2461  -25.6166    0.0000 N   0  0
    6.8661   -9.2743    0.0000 C   0  0
   26.1504  -16.2433    0.0000 C   0  0
   32.0023  -17.6309    0.0000 N   0  0
   31.3957  -20.1591    0.0000 C   0  0
   32.3022  -15.0415    0.0000 N   0  0
    6.9106   -5.2196    0.0000 N   0  3
   13.9968    3.9257    0.0000 O   0  0
   31.4855  -29.5342    0.0000 C   0  0
   17.5560  -10.1925    0.0000 N   0  0
   28.6427  -15.5030    0.0000 C   0  0
   46.3426  -38.4055    0.0000 C   0  0
   41.8598  -37.2803    0.0000 N   0  0
   30.0243  -29.1915    0.0000 N   0  0
    7.6907    0.2888    0.0000 C   0  0
    9.0664    2.2444    0.0000 C   0  0
   15.6655   -8.4076    0.0000 C   0  0
   42.8225  -40.2381    0.0000 C   0  0
   29.3426  -31.4337    0.0000 N   0  0
   25.4637   -9.4077    0.0000 C   0  0
   27.8320  -18.2449    0.0000 O   0  0
    9.9676    1.0515    0.0000 C   0  0
    4.7734  -10.7993    0.0000 S   0  0
   21.3369  -13.7625    0.0000 C   0  0
   20.5748  -20.2617    0.0000 N   0  0
   48.3733  -36.2537    0.0000 C   0  0
   47.3433  -37.3442    0.0000 C   0  0
   21.1710  -17.7310    0.0000 C   0  0
   48.9767  -33.7275    0.0000 O   0  0
   50.4364  -34.0765    0.0000 C   0  0
   51.4702  -32.9896    0.0000 C   0  0
   52.9284  -33.3414    0.0000 C   0  0
   53.3528  -34.7801    0.0000 C   0  0
   52.3191  -35.8670    0.0000 C   0  0
   50.8609  -35.5153    0.0000 C   0  0
   51.1307  -31.8387    0.0000 F   0  0
   53.7553  -32.4719    0.0000 Cl  0  0
 13167  1  0
145 39  2  0
106126  1  0
170169  1  0
 14 84  2  0
130162  1  0
119124  2  0
168138  1  0
144140  1  0
 35151  2  0
169 22  1  0
 28 14  1  0
  1 33  1  0
161 57  2  0
116152  1  0
 62 69  1  0
154113  1  0
  1164  2  0
 67 60  2  0
137 28  2  0
 26 68  2  0
  7 76  2  0
 13 70  1  1
 59 12  1  0
 24 15  1  0
 79 91  1  6
  4 26  1  0
 15104  1  0
 46166  2  0
105128  1  0
 53107  2  0
107145  1  0
150118  1  0
 87139  1  0
 58 97  2  0
111 36  2  0
159142  1  0
 45137  1  0
  6135  2  0
 80161  1  0
135 94  1  0
 60 51  1  0
160 85  1  0
147 58  1  0
 48 47  2  0
 23 95  1  0
 23146  1  6
133168  1  0
 27114  1  0
 22 43  1  0
131 64  1  0
167 75  2  0
153 29  1  0
148 40  1  0
171133  1  0
103  5  1  0
 57  7  1  0
 92 73  1  0
146 19  1  0
 88116  1  0
110 11  1  0
157130  1  0
 25 44  1  0
 69 66  1  0
142 25  2  0
121 65  2  0
 58  8  1  0
 64 72  1  0
 99117  1  6
158 59  2  0
163 49  1  0
 12 54  2  0
  4101  1  1
120 99  1  0
132165  1  0
 76 90  1  0
 93100  1  0
 21120  1  0
100131  1  0
135 52  1  0
 95 37  2  0
 44132  2  0
117148  1  0
 18 11  2  0
 66127  1  0
 62 42  2  0
125  4  1  0
 64 20  2  0
161 10  1  0
 63144  1  0
 70171  1  0
113 71  1  0
 72 27  1  0
 10106  1  0
 31122  1  0
  5 63  1  0
109 81  1  0
119136  1  0
166 77  2  0
 81 88  1  1
  9110  1  0
 71 32  1  0
128 96  1  0
138 30  2  0
 31141  1  1
130 16  2  0
152157  1  0
 50121  1  0
 43122  1  0
111153  1  0
 96163  1  0
 95108  1  0
127 87  1  0
 29119  1  0
 38156  1  0
 21 82  2  0
140115  2  0
 98 83  1  0
104 62  1  0
158 92  1  0
 29160  1  1
 78 79  1  0
167 78  1  0
 40147  1  0
165159  2  0
 51 45  2  0
118  2  1  0
 19154  1  0
141 17  2  0
101121  1  0
 91105  1  0
 27143  1  6
 31155  1  0
129 38  2  0
155 90  1  0
143 51  1  0
107166  1  0
110 56  1  0
 35 86  1  0
 55102  2  0
 79111  1  0
150  9  2  0
114 34  2  0
 94 50  2  0
 87158  1  0
 65  6  1  0
 92159  1  0
 26109  1  0
110 41  1  0
134 35  2  0
 55 98  1  0
141 93  1  0
166  3  1  0
114125  1  0
 81 21  1  0
165 87  1  0
 90 80  2  0
 99 55  1  0
108 13  1  0
 33 23  1  0
 28 67  1  0
126129  1  0
 84123  2  0
140 74  1  0
 83103  1  1
138 61  1  0
 71149  2  0
 44 35  1  0
 83  1  1  0
 52 48  2  0
 85 24  1  0
 73 89  1  0
 31170  1  0
163112  2  0
156106  2  0
 18150  1  0
 39 18  1  0
 54  9  1  0
 11 53  1  0
 22172  1  6
172173  1  0
173174  2  0
174175  1  0
175176  2  0
176177  1  0
177178  2  0
178173  1  0
174179  1  0
175180  1  0
M  CHG  5  47  -1  48   1  84   1 123  -1 150   1
M  END