
  SciTegic01161211252D

139145  0  0  0  0            999 V2000
    4.6627   -5.3662    0.0000 C   0  0  1  0  0  0
    4.6650   -6.2021    0.0000 C   0  0
    5.3765   -6.6312    0.0000 N   0  0
    6.1113   -6.2119    0.0000 C   0  0
    7.5640   -6.2323    0.0000 N   0  0
    6.8360   -6.6405    0.0000 C   0  0
    6.1285   -2.9507    0.0000 C   0  0
    9.0048   -6.2311    0.0000 C   0  0
    8.2719   -6.6565    0.0000 C   0  0  2  0  0  0
    4.7085   -2.9357    0.0000 S   0  0
    5.4201   -2.5323    0.0000 S   0  0
    3.9664   -4.9866    0.0000 N   0  0
    9.7183   -6.6424    0.0000 N   0  0
   10.4350   -6.2295    0.0000 C   0  0  2  0  0  0
   11.1483   -6.6407    0.0000 C   0  0
   11.8608   -6.2322    0.0000 N   0  0
   12.5784   -6.6435    0.0000 C   0  0
   13.2908   -6.2305    0.0000 C   0  0
   13.2899   -5.4064    0.0000 N   0  0
   14.0024   -4.9934    0.0000 C   0  0
   13.2871   -2.9295    0.0000 C   0  0
   12.5738   -2.5182    0.0000 N   0  0
   11.8613   -2.9312    0.0000 C   0  0  2  0  0  0
   11.1437   -2.5198    0.0000 C   0  0
   10.4313   -2.9327    0.0000 C   0  0
    8.2877   -2.5230    0.0000 C   0  0
    7.5753   -2.9359    0.0000 N   0  0
    6.8620   -2.5204    0.0000 C   0  0  2  0  0  0
   14.0038   -2.5167    0.0000 C   0  0  1  0  0  0
   14.7182   -3.7522    0.0000 N   0  0
   14.0015   -4.1650    0.0000 C   0  0
    6.8563   -1.6962    0.0000 C   0  0
    7.5705   -1.2835    0.0000 O   0  0
    8.2868   -1.6988    0.0000 O   0  0
    9.7192   -2.5209    0.0000 N   0  0
    9.0039   -2.9292    0.0000 C   0  0  1  0  0  0
    9.1727   -3.7341    0.0000 C   0  0
    9.9881   -3.8260    0.0000 C   0  0
   10.3267   -3.0771    0.0000 C   0  0
   10.8371   -3.6447    0.0000 O   0  0
   11.1428   -1.6957    0.0000 O   0  0
   13.2880   -3.7537    0.0000 O   0  0
   14.2139   -1.7229    0.0000 C   0  0
   15.0114   -1.5069    0.0000 C   0  0
   15.2256   -0.7088    0.0000 C   0  0
   15.5946   -2.0887    0.0000 C   0  0
   13.1759   -4.1583    0.0000 O   0  0
   14.0042   -6.6419    0.0000 O   0  0
   11.1492   -7.4692    0.0000 O   0  0
   11.8511   -2.1064    0.0000 C   0  0
   12.5632   -1.6898    0.0000 C   0  0
   13.2780   -2.0980    0.0000 C   0  0
   13.9892   -1.6781    0.0000 C   0  0
   13.9840   -0.8527    0.0000 C   0  0
   13.2626   -0.4454    0.0000 C   0  0
   12.5516   -0.8647    0.0000 C   0  0
   10.4272   -7.0558    0.0000 C   0  0
    9.0039   -5.4069    0.0000 O   0  0
   10.0128   -7.7657    0.0000 C   0  0
    9.1864   -7.7584    0.0000 C   0  0
    8.7681   -8.4714    0.0000 C   0  0
    9.1786   -9.1898    0.0000 C   0  0
   10.0100   -9.1928    0.0000 C   0  0
   10.4226   -8.4791    0.0000 C   0  0
    8.2654   -7.4806    0.0000 C   0  0
    7.5472   -7.8876    0.0000 C   0  0
    6.7951   -7.5488    0.0000 N   0  0
    6.2402   -8.1573    0.0000 C   0  0
    7.4542   -8.7103    0.0000 C   0  0
    6.2458   -7.2198    0.0000 O   0  0
    3.9460   -6.6078    0.0000 O   0  0
    5.3714   -4.9439    0.0000 C   0  0  2  0  0  0
    6.0926   -5.3457    0.0000 O   0  0
    5.3632   -4.1198    0.0000 C   0  0
    3.2630   -5.4206    0.0000 C   0  0
    2.5372   -5.0266    0.0000 C   0  0  2  0  0  0
    3.2857   -6.2443    0.0000 O   0  0
    2.5306   -4.2014    0.0000 C   0  0
    1.8317   -5.4544    0.0000 N   0  0
    6.1405   -1.2891    0.0000 N   0  0
    6.1348   -0.4648    0.0000 C   0  0  2  0  0  0
    5.4190   -0.0535    0.0000 C   0  0
    6.8492   -0.0478    0.0000 C   0  0
    6.8434    0.7764    0.0000 C   0  0
    7.5577    1.1934    0.0000 O   0  0
    4.7090   -0.4705    0.0000 O   0  0
    4.7009    1.1800    0.0000 C   0  0
    4.6951    2.0042    0.0000 C   0  0
    3.9794    2.4156    0.0000 N   0  0
    5.4095    2.4212    0.0000 O   0  0
    3.8940    3.2328    0.0000 C   0  0
    3.0880    3.4030    0.0000 C   0  0
    2.6766    2.6872    0.0000 C   0  0
    3.2321    2.0754    0.0000 C   0  0  1  0  0  0
    3.0673    1.2691    0.0000 C   0  0
    2.2822    1.0089    0.0000 N   0  0
    3.6835    0.7188    0.0000 O   0  0
    1.8464   -6.2784    0.0000 C   0  0
    1.1410   -6.7019    0.0000 C   0  0  2  0  0  0
    2.5707   -6.6746    0.0000 O   0  0
    0.4210   -6.3014    0.0000 C   0  0
    0.4020   -5.4775    0.0000 C   0  0
    1.1132   -5.0550    0.0000 C   0  0
    1.0948   -4.2322    0.0000 C   0  0
    0.3740   -3.8305    0.0000 C   0  0
   -0.3350   -4.2609    0.0000 C   0  0
   -0.3155   -5.0857    0.0000 C   0  0
    0.4496   -7.9514    0.0000 C   0  0
    0.4641   -8.7796    0.0000 C   0  0  2  0  0  0
   -0.2748   -7.5552    0.0000 O   0  0
    1.1842   -9.1759    0.0000 C   0  0
    1.1989   -9.9998    0.0000 C   0  0
    1.9231  -10.4002    0.0000 C   0  0
    2.6588  -11.6260    0.0000 C   0  0
    3.3642  -11.2025    0.0000 N   0  0
   -0.2254  -10.0273    0.0000 C   0  0
   -0.9350  -10.4550    0.0000 C   0  0  2  0  0  0
    0.4947  -10.4277    0.0000 O   0  0
   -1.6551  -10.0546    0.0000 C   0  0
   -0.9204  -11.2791    0.0000 N   0  0
   -1.6697   -9.2307    0.0000 C   0  0
   -2.3908   -8.8302    0.0000 C   0  0
   -2.4039   -8.0061    0.0000 O   0  0
    7.5749   -2.1082    0.0000 H   0  0
    9.0039   -2.1051    0.0000 H   0  0
    3.9498   -5.7782    0.0000 H   0  0
    2.5372   -5.8508    0.0000 H   0  0
   -1.6413  -11.7125    0.0000 C   0  0
   -1.6263  -12.5535    0.0000 C   0  0
   -2.3772  -11.3049    0.0000 O   0  0
   14.6965   -0.4339    0.0000 O   0  0
    6.6459   -8.8757    0.0000 N   0  0
    5.4176    0.7715    0.0000 N   0  0
    6.1277    1.1835    0.0000 N   0  0
    1.1569   -7.5268    0.0000 N   0  0
   -0.2442   -9.2025    0.0000 N   0  0
    1.9378  -11.2251    0.0000 N   0  0
    2.6734  -12.4500    0.0000 N   0  0
   -3.0970   -9.2524    0.0000 N   0  0
  8 13  1  0
 13 14  1  0
 14 15  1  0
 15 16  1  0
 16 17  1  0
 17 18  1  0
 18 19  1  0
 19 20  1  0
 20 31  1  0
 21 22  1  0
 22 23  1  0
 23 24  1  0
 24 25  1  0
 25 35  1  0
 36 26  1  0
 26 27  1  0
 27 28  1  0
 21 29  1  0
 30 31  1  0
 29 30  1  0
 28 32  1  0
 32 33  2  0
 26 34  2  0
 35 36  1  0
 36 37  1  0
 37 38  1  0
 38 39  1  0
 39 35  1  0
 25 40  2  0
 24 41  2  0
 21 42  2  0
 29 43  1  6
 43 44  1  0
 44 45  1  0
 44 46  1  0
 31 47  2  0
 18 48  2  0
 15 49  2  0
 23 50  1  1
 50 51  1  0
 51 52  2  0
 52 53  1  0
 53 54  2  0
 54 55  1  0
 55 56  2  0
 56 51  1  0
 14 57  1  1
  8 58  2  0
 57 59  1  0
 59 60  2  0
 60 61  1  0
 61 62  2  0
 62 63  1  0
 63 64  2  0
 64 59  1  0
  9 65  1  6
 65 66  1  0
 66 67  1  0
 67 68  2  0
 69 66  2  0
  6 70  2  0
  2 71  2  0
  1 72  1  0
 72 73  1  1
 72 74  1  0
 12 75  1  0
 75 76  1  0
 75 77  2  0
 76 78  1  0
 78 10  1  0
 76 79  1  0
 32 80  1  0
 80 81  1  0
 81 82  1  0
 81 83  1  6
 83 84  1  0
 84 85  2  0
 82 86  2  0
 87 88  1  0
 88 89  1  0
 88 90  2  0
 89 91  1  0
 91 92  1  0
 92 93  1  0
 93 94  1  0
 94 89  1  0
 94 95  1  6
 95 96  1  0
 95 97  2  0
 79 98  1  0
 98 99  1  0
 98100  2  0
 99101  1  1
101102  1  0
102103  2  0
103104  1  0
104105  2  0
105106  1  0
106107  2  0
107102  1  0
108109  1  0
108110  2  0
109111  1  6
111112  1  0
112113  1  0
114115  2  0
116117  1  0
116118  2  0
117119  1  0
117120  1  1
119121  1  0
121122  1  0
122123  2  0
 28124  1  6
 36125  1  6
  1126  1  6
 76127  1  6
120128  1  0
  1  2  1  0
128129  1  0
  2  3  1  0
128130  2  0
  3  4  1  0
  5  6  1  0
  6  4  1  0
  7 28  1  0
  5  9  1  0
  9  8  1  0
  7 11  1  0
 10 11  1  0
 12  1  1  0
 68132  1  0
132 69  1  0
 99135  1  0
135108  1  0
 54131  1  0
109136  1  0
136116  1  0
 82133  1  0
133 87  1  0
113137  1  0
137114  1  0
114138  1  0
 84134  1  0
122139  1  0
M  END