
  SciTegic02181312462D

 33 36  0  0  0  0            999 V2000
   16.1826  -14.2911    0.0000 C   0  0
   16.8923  -13.8817    0.0000 C   0  0
   16.8894  -13.0590    0.0000 C   0  0
   16.1808  -12.6538    0.0000 C   0  0
   15.4745  -13.8822    0.0000 C   0  0
   15.4758  -13.0611    0.0000 C   0  0
   14.6953  -12.8062    0.0000 N   0  0
   14.2116  -13.4698    0.0000 N   0  0
   14.6933  -14.1347    0.0000 C   0  0
   13.3944  -13.4686    0.0000 C   0  0
   16.1746  -15.1074    0.0000 O   0  0
   15.4627  -15.5087    0.0000 C   0  0
   14.7629  -15.0902    0.0000 C   0  0
   14.0515  -15.4908    0.0000 C   0  0
   14.0426  -16.3089    0.0000 C   0  0
   14.7511  -16.7246    0.0000 N   0  0
   15.4596  -16.3216    0.0000 C   0  0
   13.3313  -16.7111    0.0000 C   0  0
   12.6273  -16.2962    0.0000 O   0  0
   13.3240  -17.5282    0.0000 N   0  0
   12.6126  -17.9305    0.0000 C   0  0
   14.0280  -17.9432    0.0000 C   0  0
   17.5956  -12.6478    0.0000 C   0  0
   18.3048  -13.0537    0.0000 N   0  0
   17.5925  -11.8306    0.0000 O   0  0
   19.0110  -12.6424    0.0000 C   0  0
   19.7187  -13.0518    0.0000 N   0  0
   20.4243  -12.6412    0.0000 C   0  0
   20.4217  -11.8231    0.0000 C   0  0
   19.7075  -11.4174    0.0000 N   0  0
   19.0047  -11.8303    0.0000 C   0  0
   21.1273  -11.4109    0.0000 C   0  0
   13.3482  -15.0746    0.0000 F   0  0
  5  1  1  0
  1  2  2  0
  2  3  1  0
  3  4  2  0
  4  6  1  0
  5  6  1  0
  6  7  2  0
  7  8  1  0
  8  9  1  0
  9  5  2  0
  8 10  1  0
  1 11  1  0
 11 12  1  0
 12 13  2  0
 13 14  1  0
 14 15  2  0
 15 16  1  0
 16 17  2  0
 17 12  1  0
 15 18  1  0
 18 19  2  0
 18 20  1  0
 20 21  1  0
 20 22  1  0
  3 23  1  0
 23 24  1  0
 23 25  2  0
 24 26  1  0
 26 27  2  0
 27 28  1  0
 28 29  2  0
 29 30  1  0
 30 31  2  0
 31 26  1  0
 29 32  1  0
 14 33  1  0
M  END