
  SciTegic02131210002D

 34 40  0  0  0  0            999 V2000
   -4.7471  -22.9630    0.0000 N   0  0
   -4.7483  -23.7934    0.0000 C   0  0
   -4.0309  -24.2076    0.0000 C   0  0
   -4.0328  -22.5488    0.0000 C   0  0
   -3.3149  -22.9594    0.0000 C   0  0
   -3.3146  -23.7887    0.0000 C   0  0
   -2.5258  -24.0448    0.0000 N   0  0
   -2.0385  -23.3737    0.0000 C   0  0
   -2.5262  -22.7030    0.0000 N   0  0
   -1.2106  -23.3734    0.0000 C   0  0
    0.4443  -23.3830    0.0000 C   0  0
    0.0314  -22.6643    0.0000 C   0  0
   -0.7992  -22.6609    0.0000 C   0  0
    0.0268  -24.0982    0.0000 C   0  0
   -0.7962  -24.0924    0.0000 C   0  0
    0.2754  -24.8827    0.0000 C   0  0  1  0  0  0
   -0.3937  -25.3618    0.0000 C   0  0
   -1.0552  -24.8738    0.0000 C   0  0
   -1.8063  -25.2027    0.0000 C   0  0
   -1.8973  -26.0194    0.0000 C   0  0
   -1.2310  -26.5059    0.0000 C   0  0
   -0.4824  -26.1744    0.0000 C   0  0
    1.0617  -25.1430    0.0000 N   0  0
    1.4912  -25.8506    0.0000 C   0  0
    2.3190  -25.8324    0.0000 C   0  0
    1.0933  -26.5765    0.0000 O   0  0
    2.7441  -26.5429    0.0000 C   0  0
    3.5710  -26.5250    0.0000 C   0  0
    3.9698  -25.7985    0.0000 N   0  0
    2.7102  -25.1100    0.0000 C   0  0
    3.5328  -25.0871    0.0000 C   0  0
    3.7652  -24.2977    0.0000 N   0  0
    3.0863  -23.8327    0.0000 C   0  0
    2.4343  -24.3348    0.0000 C   0  0
 15 18  1  0
 17 16  1  0
 16 14  1  0
  6  7  1  0
  7  8  1  0
 17 18  2  0
  8  9  2  0
 18 19  1  0
  9  5  1  0
 19 20  2  0
  4  1  1  0
 20 21  1  0
  8 10  1  0
 21 22  2  0
 22 17  1  0
 10 15  2  0
 16 23  1  6
  5  6  1  0
 23 24  1  0
 24 25  1  0
  2  3  1  0
 24 26  2  0
 10 13  1  0
 25 27  2  0
 14 11  2  0
 27 28  1  0
 11 12  1  0
 28 29  2  0
 29 31  1  0
 30 25  1  0
 30 31  2  0
 12 13  2  0
 14 15  1  0
  3  6  2  0
  1  2  2  0
  5  4  2  0
 31 32  1  0
 32 33  1  0
 33 34  2  0
 34 30  1  0
M  END