
          11280714572D 1   1.00000     0.00000     0

 55 60  0     0  0            999 V2000
   11.9042    1.8583    0.0000 C   0  0  0  0  0  0           0  0  0
   10.2667    0.4208    0.0000 C   0  0  0  0  0  0           0  0  0
   10.6750    1.1375    0.0000 C   0  0  3  0  0  0           0  0  0
   11.4917    2.5708    0.0000 O   0  0  0  0  0  0           0  0  0
   11.4917    1.1458    0.0000 C   0  0  3  0  0  0           0  0  0
   10.6750    2.5625    0.0000 C   0  0  0  0  0  0           0  0  0
   10.2542    1.8458    0.0000 C   0  0  0  0  0  0           0  0  0
   10.6792   -0.2792    0.0000 C   0  0  0  0  0  0           0  0  0
   12.7250    1.8625    0.0000 C   0  0  0  0  0  0           0  0  0
    3.3125    0.4708    0.0000 N   0  0  0  0  0  0           0  0  0
    4.0250    0.8833    0.0000 C   0  0  0  0  0  0           0  0  0
   11.9125    0.4375    0.0000 C   0  0  0  0  0  0           0  0  0
    9.4375    0.4208    0.0000 C   0  0  0  0  0  0           0  0  0
    3.3125   -0.3542    0.0000 C   0  0  0  0  0  0           0  0  0
   11.3917   -0.6917    0.0000 C   0  0  0  0  0  0           0  0  0
    4.7375    1.2958    0.0000 N   0  0  0  0  0  0           0  0  0
    9.0292   -0.2917    0.0000 C   0  0  0  0  0  0           0  0  0
    8.3292   -0.7292    0.0000 C   0  0  0  0  0  0           0  0  0
   10.2625    3.2750    0.0000 C   0  0  0  0  0  0           0  0  0
   13.1292    1.1583    0.0000 C   0  0  0  0  0  0           0  0  0
   12.7167    0.4333    0.0000 C   0  0  0  0  0  0           0  0  0
   10.2667   -1.0000    0.0000 C   0  0  0  0  0  0           0  0  0
   -3.8333   -0.3542    0.0000 N   0  0  3  0  0  0           0  0  0
    9.4417    1.8458    0.0000 C   0  0  0  0  0  0           0  0  0
    9.4417   -1.0042    0.0000 C   0  0  0  0  0  0           0  0  0
   12.1000   -0.2750    0.0000 O   0  0  0  0  0  0           0  0  0
    8.3542   -1.5542    0.0000 O   0  0  0  0  0  0           0  0  0
   -3.1208   -0.7667    0.0000 C   0  0  0  0  0  0           0  0  0
   13.9667    1.1625    0.0000 O   0  0  0  0  0  0           0  0  0
    2.6000   -0.7667    0.0000 N   0  0  0  0  0  0           0  0  0
    4.0292   -0.7667    0.0000 N   0  0  0  0  0  0           0  0  0
   -2.4083   -0.3542    0.0000 C   0  0  0  0  0  0           0  0  0
    7.6042   -0.3375    0.0000 N   0  0  0  0  0  0           0  0  0
    9.4417    3.2708    0.0000 C   0  0  0  0  0  0           0  0  0
    9.0292    2.5500    0.0000 C   0  0  0  0  0  0           0  0  0
   11.4000   -1.5167    0.0000 O   0  0  0  0  0  0           0  0  0
   -1.6875   -0.7750    0.0000 C   0  0  0  0  0  0           0  0  0
   -0.9708   -0.3542    0.0000 C   0  0  0  0  0  0           0  0  0
    9.0292    3.9833    0.0000 O   0  0  0  0  0  0           0  0  0
    1.1667   -0.7667    0.0000 C   0  0  0  0  0  0           0  0  0
   -0.2583   -0.7667    0.0000 O   0  0  0  0  0  0           0  0  0
   -3.8333    0.4708    0.0000 C   0  0  0  0  0  0           0  0  0
   -4.5500   -0.7667    0.0000 C   0  0  0  0  0  0           0  0  0
   -1.6958    0.8833    0.0000 C   0  0  0  0  0  0           0  0  0
    1.8792   -0.3542    0.0000 C   0  0  0  0  0  0           0  0  0
   -2.4000    0.4708    0.0000 C   0  0  0  0  0  0           0  0  0
    0.4542   -0.3542    0.0000 C   0  0  0  0  0  0           0  0  0
    4.7417   -0.3417    0.0000 C   0  0  0  0  0  0           0  0  0
    6.8875   -0.7542    0.0000 C   0  0  0  0  0  0           0  0  0
   -0.9750    0.4708    0.0000 C   0  0  0  0  0  0           0  0  0
    6.1750   -0.3417    0.0000 C   0  0  0  0  0  0           0  0  0
    5.4625   -0.7542    0.0000 C   0  0  0  0  0  0           0  0  0
   -5.2708   -0.3500    0.0000 C   0  0  0  0  0  0           0  0  0
   -4.5375    0.8833    0.0000 C   0  0  0  0  0  0           0  0  0
   -5.2583    0.4750    0.0000 C   0  0  0  0  0  0           0  0  0
  2  3  1  0     0  0
  3  5  1  0     0  0
  4  1  1  0     0  0
  5  1  1  0     0  0
  6  4  1  0     0  0
  7  3  1  0     0  0
  8  2  1  0     0  0
  9  1  2  0     0  0
 10 14  1  0     0  0
 11 10  1  0     0  0
 12  5  1  0     0  0
 13  2  2  0     0  0
 14 31  2  0     0  0
 15  8  1  0     0  0
 16 11  3  0     0  0
 17 13  1  0     0  0
 18 17  1  0     0  0
 19  6  1  0     0  0
 20  9  1  0     0  0
 21 20  1  0     0  0
 22  8  2  0     0  0
 23 28  1  0     0  0
 24  7  1  0     0  0
 25 17  2  0     0  0
 26 15  2  0     0  0
 27 18  2  0     0  0
 28 32  1  0     0  0
 29 20  2  0     0  0
 30 14  1  0     0  0
 31 48  1  0     0  0
 32 37  1  0     0  0
 33 18  1  0     0  0
 34 19  2  0     0  0
 35 24  2  0     0  0
 36 15  1  0     0  0
 37 38  2  0     0  0
 38 41  1  0     0  0
 39 34  1  0     0  0
 40 45  1  0     0  0
 41 47  1  0     0  0
 42 23  1  0     0  0
 43 23  1  0     0  0
 44 50  2  0     0  0
 45 30  1  0     0  0
 46 44  1  0     0  0
 47 40  1  0     0  0
 48 52  1  0     0  0
 49 33  1  0     0  0
 50 38  1  0     0  0
 51 49  1  0     0  0
 52 51  1  0     0  0
 53 43  1  0     0  0
 54 42  1  0     0  0
 55 53  1  0     0  0
 21 12  2  0     0  0
  6  7  2  0     0  0
 35 34  1  0     0  0
 25 22  1  0     0  0
 32 46  2  0     0  0
 55 54  1  0     0  0
M  END