
  SciTegic09261414482D

 19 19  0  0  0  0            999 V2000
    8.7483   -8.5289    0.0000 C   0  0
    8.7471   -9.3562    0.0000 C   0  0
    9.4620   -9.7691    0.0000 C   0  0
   10.1783   -9.3558    0.0000 C   0  0
   10.1755   -8.5252    0.0000 C   0  0
    9.4602   -8.1161    0.0000 C   0  0
   10.8884   -8.1100    0.0000 O   0  0
   11.6044   -8.5199    0.0000 C   0  0
   12.3173   -8.1047    0.0000 C   0  0
   13.0333   -8.5144    0.0000 C   0  0
   12.3142   -7.2797    0.0000 O   0  0
   13.7462   -8.0993    0.0000 N   0  0
   14.4621   -8.5091    0.0000 C   0  0
   15.1751   -8.0939    0.0000 C   0  0
   14.4653   -9.3341    0.0000 C   0  0
    8.0324   -9.7682    0.0000 C   0  0
    7.3182   -9.3551    0.0000 N   0  0
    8.0317  -10.5931    0.0000 O   0  0
    6.6035   -9.7671    0.0000 C   0  0
  1  2  2  0
  2  3  1  0
  3  4  2  0
  4  5  1  0
  5  6  2  0
  6  1  1  0
  5  7  1  0
  7  8  1  0
  8  9  1  0
  9 10  1  0
  9 11  1  0
 10 12  1  0
 12 13  1  0
 13 14  1  0
 13 15  1  0
  2 16  1  0
 16 17  1  0
 16 18  2  0
 17 19  1  0
M  END