
  SciTegic06271217572D

 24 25  0  0  0  0            999 V2000
   -2.6612   -2.2867    0.0000 S   0  0
   -3.0873   -2.9931    0.0000 O   0  0
   -2.2625   -3.0090    0.0000 O   0  0
   -3.3676   -1.8606    0.0000 N   0  0
   -1.9431   -1.0458    0.0000 C   0  0
   -1.9443   -1.8732    0.0000 C   0  0
   -1.2295   -2.2861    0.0000 C   0  0
   -0.5130   -1.8727    0.0000 C   0  0
   -0.5159   -1.0422    0.0000 C   0  0
   -1.2313   -0.6331    0.0000 C   0  0
    0.1970   -0.6270    0.0000 C   0  0
    0.9130   -1.0368    0.0000 C   0  0
    0.1939    0.1980    0.0000 O   0  0
    1.6260   -0.6216    0.0000 S   0  0
    2.3420   -1.0314    0.0000 C   0  0
    2.3420   -1.8553    0.0000 N   0  0
    3.0571   -2.2650    0.0000 C   0  0
    3.7710   -1.8498    0.0000 C   0  0
    3.7653   -1.0205    0.0000 C   0  0
    3.0495   -0.6145    0.0000 N   0  0
    4.4767   -0.6028    0.0000 O   0  0
    3.0598   -3.0900    0.0000 C   0  0
    2.3467   -3.5049    0.0000 C   0  0
    2.3494   -4.3298    0.0000 C   0  0
 11 12  1  0
  6  7  1  0
 11 13  2  0
  1  4  1  0
 12 14  1  0
  7  8  2  0
 14 15  1  0
  2  1  2  0
 15 16  2  0
  8  9  1  0
 16 17  1  0
  1  3  2  0
 17 18  2  0
  9 10  2  0
 18 19  1  0
 10  5  1  0
 19 20  1  0
 20 15  1  0
  6  1  1  0
 19 21  2  0
  5  6  2  0
 17 22  1  0
  9 11  1  0
 22 23  1  0
 23 24  1  0
M  END