
          05080814042D 1   1.00000     0.00000     0

 33 37  0     1  0            999 V2000
   -3.8565   -1.3197    0.0000 C   0  0  0  0  0  0           0  0  0
   -4.5673   -1.7345    0.0000 C   0  0  0  0  0  0           0  0  0
   -4.5603   -2.5609    0.0000 C   0  0  0  0  0  0           0  0  0
   -3.8464   -2.9643    0.0000 C   0  0  0  0  0  0           0  0  0
   -3.1433   -1.7269    0.0000 C   0  0  0  0  0  0           0  0  0
   -3.1372   -2.5545    0.0000 C   0  0  0  0  0  0           0  0  0
   -2.4214   -2.9609    0.0000 C   0  0  0  0  0  0           0  0  0
   -2.4335   -1.3055    0.0000 C   0  0  0  0  0  0           0  0  0
   -1.7130   -1.7164    0.0000 C   0  0  2  0  0  0           0  0  0
   -1.7085   -2.5460    0.0000 C   0  0  2  0  0  0           0  0  0
   -0.9917   -2.9546    0.0000 N   0  0  3  0  0  0           0  0  0
   -0.2749   -2.5382    0.0000 C   0  0  0  0  0  0           0  0  0
   -0.2794   -1.7086    0.0000 C   0  0  1  0  0  0           0  0  0
   -1.0008   -1.2954    0.0000 C   0  0  0  0  0  0           0  0  0
   -1.7208   -0.8875    0.0000 H   0  0  0  0  0  0           0  0  0
   -1.7167   -3.3708    0.0000 H   0  0  0  0  0  0           0  0  0
    0.4332   -1.2929    0.0000 C   0  0  0  0  0  0           0  0  0
    1.1495   -1.7022    0.0000 N   0  0  3  0  0  0           0  0  0
    0.4295   -0.4679    0.0000 O   0  0  0  0  0  0           0  0  0
    1.1472   -2.5303    0.0000 C   0  0  0  0  0  0           0  0  0
    1.8594   -2.9396    0.0000 C   0  0  0  0  0  0           0  0  0
    2.5745   -2.5274    0.0000 N   0  0  3  0  0  0           0  0  0
    2.5728   -1.7014    0.0000 C   0  0  0  0  0  0           0  0  0
    1.8560   -1.2876    0.0000 C   0  0  0  0  0  0           0  0  0
   -3.8605   -0.4947    0.0000 O   0  0  0  0  0  0           0  0  0
   -4.5770   -0.0856    0.0000 C   0  0  0  0  0  0           0  0  0
   -0.9883   -3.7796    0.0000 C   0  0  0  0  0  0           0  0  0
    3.2892   -2.9394    0.0000 C   0  0  0  0  0  0           0  0  0
    3.2853   -3.7636    0.0000 C   0  0  0  0  0  0           0  0  0
    3.9992   -4.1755    0.0000 C   0  0  0  0  0  0           0  0  0
    4.7144   -3.7625    0.0000 C   0  0  0  0  0  0           0  0  0
    4.7112   -2.9332    0.0000 N   0  0  0  0  0  0           0  0  0
    3.9967   -2.5250    0.0000 N   0  0  0  0  0  0           0  0  0
  5  8  1  0     0  0
 10 16  1  1     0  0
  6  7  1  0     0  0
 13 17  1  1     0  0
  7 10  1  0     0  0
 17 18  1  0     0  0
  9  8  1  0     0  0
 17 19  2  0     0  0
 18 20  1  0     0  0
  9 10  1  0     0  0
  3  4  2  0     0  0
  4  6  1  0     0  0
  5  6  2  0     0  0
  1  2  2  0     0  0
 18 24  1  0     0  0
 20 21  1  0     0  0
 21 22  1  0     0  0
 22 23  1  0     0  0
 23 24  1  0     0  0
  5  1  1  0     0  0
  1 25  1  0     0  0
  2  3  1  0     0  0
 25 26  1  0     0  0
  9 14  1  0     0  0
 11 27  1  0     0  0
 10 11  1  0     0  0
 22 28  1  0     0  0
 11 12  1  0     0  0
 28 29  2  0     0  0
 12 13  1  0     0  0
 29 30  1  0     0  0
 13 14  1  0     0  0
 30 31  2  0     0  0
 31 32  1  0     0  0
  9 15  1  6     0  0
 32 33  2  0     0  0
 33 28  1  0     0  0
M  END