
  SciTegic09261415472D

 71 73  0  0  0  0            999 V2000
    5.5343  -18.4140    0.0000 O   0  0
    6.2752  -19.0508    0.0000 O   0  0
    4.1823  -15.1415    0.0000 O   0  0
    6.2752  -19.8638    0.0000 O   0  0
    9.7960  -23.5206    0.0000 O   0  0
    6.9802  -22.7075    0.0000 O   0  0
   12.6118  -22.7075    0.0000 O   0  0
    5.5744  -20.2683    0.0000 O   0  0
   11.9110  -19.8638    0.0000 O   0  0
    2.0329  -17.1340    0.0000 O   0  0
    8.3903  -25.1467    0.0000 O   0  0
    6.9802  -17.8290    0.0000 N   0  0
   11.2060  -22.7075    0.0000 N   0  0
    6.3211  -17.3530    0.0000 C   0  0  1  0  0  0
    6.5757  -16.5768    0.0000 C   0  0
    7.3888  -16.5768    0.0000 C   0  0
    7.6394  -17.3530    0.0000 C   0  0
    5.5520  -17.6034    0.0000 C   0  0
    6.9802  -18.6422    0.0000 C   0  0
    7.6851  -19.0508    0.0000 C   0  0  2  0  0  0
    4.8652  -16.3750    0.0000 C   0  0  1  0  0  0
    5.5774  -15.9740    0.0000 C   0  0
    8.3902  -18.6422    0.0000 C   0  0
    5.5722  -15.1632    0.0000 C   0  0
    4.1686  -15.9522    0.0000 C   0  0
    6.9802  -20.2683    0.0000 C   0  0
    6.9802  -21.0814    0.0000 C   0  0  2  0  0  0
   10.5051  -23.5990    0.0000 C   0  0  2  0  0  0
   10.5051  -22.3031    0.0000 C   0  0  1  0  0  0
    6.2719  -14.7539    0.0000 C   0  0
    4.8661  -14.7609    0.0000 C   0  0
    8.3903  -22.7075    0.0000 C   0  0  2  0  0  0
   11.2060  -24.0118    0.0000 C   0  0
    6.2752  -21.4900    0.0000 C   0  0
    9.7960  -22.7075    0.0000 C   0  0
    7.6851  -22.3031    0.0000 C   0  0
    9.5816  -24.1314    0.0000 C   0  0
    8.3903  -23.5206    0.0000 C   0  0
   11.9110  -21.4900    0.0000 C   0  0  2  0  0  0
   11.9110  -22.3031    0.0000 C   0  0
    2.7598  -15.9304    0.0000 C   0  0
   11.2060  -24.8248    0.0000 C   0  0
    7.6853  -23.9292    0.0000 C   0  0
   12.6118  -21.0814    0.0000 C   0  0
   10.5051  -19.8638    0.0000 C   0  0
    5.5744  -21.0814    0.0000 C   0  0
   11.2060  -20.2683    0.0000 C   0  0
   13.3167  -21.4900    0.0000 C   0  0
    2.0466  -16.3233    0.0000 C   0  0
    7.6853  -24.7423    0.0000 C   0  0
   14.0259  -21.0814    0.0000 C   0  0
   13.3168  -22.3031    0.0000 C   0  0
   14.7267  -21.4900    0.0000 C   0  0
   14.0259  -22.7075    0.0000 C   0  0
   14.7267  -22.3031    0.0000 C   0  0
   15.4317  -22.7075    0.0000 O   0  0
    9.0952  -22.3031    0.0000 N   0  0
    7.6851  -19.8638    0.0000 N   0  0
   11.2060  -21.0814    0.0000 N   0  0
    3.4553  -16.3493    0.0000 N   0  0
    4.8694  -21.4900    0.0000 N   0  0
    4.8515  -17.1857    0.0000 N   0  0
    1.3501  -15.9046    0.0000 N   0  0
    7.6851  -21.4900    0.0000 N   0  0
    6.9804  -25.1467    0.0000 N   0  0
   10.5050  -19.0466    0.0000 C   0  0
    9.7972  -18.6381    0.0000 C   0  0
    9.7971  -17.8209    0.0000 S   0  0
    8.3889  -17.8250    0.0000 C   0  0
    9.0893  -17.4124    0.0000 S   0  0
   10.5083  -21.4859    0.0000 H   0  0
  8 46  2  0
  9 47  2  0
 10 49  2  0
 11 50  2  0
 56 55  1  0
 12 14  1  0
 12 17  1  0
 12 19  1  0
 62 18  1  0
 21 62  1  6
 58 20  1  0
 58 26  1  0
 60 25  1  0
 60 41  1  0
 64 27  1  0
 64 36  1  0
 29 13  1  0
 13 40  1  0
 57 32  1  0
 57 35  1  0
 59 39  1  0
 59 47  1  0
 61 46  1  0
 63 49  1  0
 65 50  1  0
 14 15  1  0
 14 18  1  6
 15 16  1  0
 16 17  1  0
 20 19  1  6
 20 23  1  0
 21 22  1  0
 21 25  1  0
 22 24  1  0
 24 30  1  0
 24 31  1  0
 26 27  1  0
 27 34  1  1
 28 29  1  0
 28 33  1  0
 28 37  1  6
 29 35  1  0
 32 36  1  0
 32 38  1  1
 33 42  1  0
 34 46  1  0
 38 43  1  0
 39 40  1  0
 39 44  1  1
 41 49  1  0
 43 50  1  0
 44 48  1  0
 45 47  1  0
 48 51  2  0
 48 52  1  0
 51 53  1  0
 52 54  2  0
 53 55  2  0
 54 55  1  0
  1 18  2  0
  2 19  2  0
  3 25  2  0
  4 26  2  0
  5 35  2  0
  6 36  2  0
  7 40  2  0
 45 66  1  0
 66 67  1  0
 67 68  1  0
 23 69  1  0
 69 70  1  0
 68 70  1  0
 29 71  1  6
M  STY  8   1 SUP   2 SUP   3 SUP   4 SUP   5 SUP   6 SUP   7 SUP   8 SUP
M  STY  2   9 SUP  10 SUP
M  SLB  8   1   1   2   2   3   3   4   4   5   5   6   6   7   7   8   8
M  SLB  2   9   9  10  10
M  SDS EXP  8   1   2   3   4   5   6   7   8
M  SAL   1  1  56
M  SBL   1  1   5
M  SMT   1 O
M  SAL   2  1  57
M  SBL   2  2  19  20
M  SMT   2 N
M  SAL   3  1  58
M  SBL   3  2  11  12
M  SMT   3 N
M  SAL   4  1  59
M  SBL   4  2  21  22
M  SMT   4 N
M  SAL   5  1  60
M  SBL   5  2  13  14
M  SMT   5 N
M  SAL   6  1  61
M  SBL   6  1  23
M  SMT   6 N
M  SAL   7  1  62
M  SBL   7  2   9  10
M  SMT   7 N
M  SAL   8  1  63
M  SBL   8  1  24
M  SMT   8 N
M  SAL   9  1  64
M  SBL   9  2  15  16
M  SMT   9 N
M  SAL  10  1  65
M  SBL  10  1  25
M  SMT  10 N
M  END