
  SciTegic11111309142D

 49 53  0  0  1  0            999 V2000
   -1.6339   -6.5584    0.0000 C   0  0
   -0.7250  -13.5709    0.0000 C   0  0
    0.0616  -13.8221    0.0000 C   0  0
    0.5434  -13.1538    0.0000 C   0  0
    0.0579  -12.4918    0.0000 C   0  0
   -0.7250  -12.7462    0.0000 C   0  0
   -2.7559   -9.3125    0.0000 O   0  0
   -3.2410   -9.9801    0.0000 C   0  0
   -2.9383  -10.7479    0.0000 C   0  0
   -3.4399  -11.3597    0.0000 C   0  0
   -3.1594  -12.0937    0.0000 C   0  0
   -2.3824  -12.1974    0.0000 C   0  0
   -1.9207  -11.5633    0.0000 C   0  0
   -2.2432  -10.8409    0.0000 C   0  0
   -4.2546  -11.2276    0.0000 Cl  0  0
   -1.7491  -10.1800    0.0000 Cl  0  0
   -1.1001  -11.6495    0.0000 S   0  0
   -1.0139  -10.8289    0.0000 O   0  0
   -1.1864  -12.4702    0.0000 O   0  0
    0.7726  -12.0792    0.0000 C   0  0
    1.4865  -12.4914    0.0000 N   0  0
    0.7726  -11.2531    0.0000 O   0  0
    1.4865  -13.3182    0.0000 C   0  0
    2.1965  -13.7281    0.0000 C   0  0
    2.9069  -13.3179    0.0000 N   0  0
    2.9069  -12.4959    0.0000 C   0  0
    2.1967  -12.0813    0.0000 C   0  0
    3.6181  -13.7285    0.0000 C   0  0
    3.6181  -14.5493    0.0000 O   0  0
    4.3366  -13.3137    0.0000 C   0  0  2  0  0  0
   -3.0926   -8.5564    0.0000 C   0  0
   -3.7638   -7.0487    0.0000 C   0  0
   -4.2507   -7.7232    0.0000 C   0  0
   -3.9119   -8.4762    0.0000 C   0  0
   -2.9397   -7.1355    0.0000 C   0  0
   -2.6077   -7.8924    0.0000 C   0  0
   -1.7880   -7.9820    0.0000 N   0  0
   -1.2995   -7.3157    0.0000 C   0  0
   -2.4552   -6.4717    0.0000 C   0  0
   -0.4765   -7.4042    0.0000 C   0  0
   -2.7911   -5.7152    0.0000 C   0  0
    5.0534  -13.7276    0.0000 C   0  0
    5.7703  -13.3137    0.0000 C   0  0
    6.4871  -13.7276    0.0000 N   0  3
    7.2039  -13.3137    0.0000 C   0  0
    6.4871  -14.5553    0.0000 C   0  0
    7.2000  -14.1411    0.0000 C   0  0
    4.3366  -12.4860    0.0000 N   0  0
   -0.2800  -11.7392    0.0000 N   0  0
  5 20  1  0
 20 21  1  0
 20 22  2  0
 21 23  1  0
 21 27  1  0
 23 24  1  0
 24 25  1  0
 25 26  1  0
 26 27  1  0
 25 28  1  0
 28 29  2  0
 28 30  1  0
  7 31  1  0
 31 36  2  0
  2  3  1  0
 35 32  2  0
  3  4  1  0
 32 33  1  0
  4  5  1  0
 33 34  2  0
 34 31  1  0
  5  6  1  0
  6  2  1  0
 35 36  1  0
  7  8  1  0
 36 37  1  0
  8  9  1  0
 37 38  2  0
 38  1  1  0
  9 10  2  0
  1 39  2  0
 39 35  1  0
 10 11  1  0
 38 40  1  0
 11 12  2  0
 39 41  1  0
 12 13  1  0
 30 42  1  0
 13 14  2  0
 42 43  1  0
 14  9  1  0
 43 44  1  0
 10 15  1  0
 44 45  1  0
 14 16  1  0
 44 46  1  0
 13 17  1  0
 44 47  1  0
 17 18  2  0
 30 48  1  1
 17 19  2  0
 17 49  1  0
 49  5  1  0
M  CHG  1  44   1
M  END