
  SciTegic11111309142D

 51 55  0  0  1  0            999 V2000
   -2.9471   -9.4462    0.0000 C   0  0
   -2.0384  -16.4608    0.0000 C   0  0
   -1.2516  -16.7121    0.0000 C   0  0
   -0.7697  -16.0436    0.0000 C   0  0
   -1.2553  -15.3814    0.0000 C   0  0
   -2.0384  -15.6358    0.0000 C   0  0
   -4.0696  -12.2013    0.0000 O   0  0
   -4.5548  -12.8691    0.0000 C   0  0
   -4.2520  -13.6371    0.0000 C   0  0
   -4.7538  -14.2492    0.0000 C   0  0
   -4.4731  -14.9834    0.0000 C   0  0
   -3.6961  -15.0872    0.0000 C   0  0
   -3.2342  -14.4528    0.0000 C   0  0
   -3.5568  -13.7302    0.0000 C   0  0
   -5.5687  -14.1171    0.0000 Cl  0  0
   -3.0625  -13.0691    0.0000 Cl  0  0
   -2.4132  -14.5390    0.0000 S   0  0
   -2.3269  -13.7181    0.0000 O   0  0
   -2.4994  -15.3600    0.0000 O   0  0
   -0.5404  -14.9687    0.0000 C   0  0
    0.1738  -15.3810    0.0000 N   0  0
   -0.5404  -14.1423    0.0000 O   0  0
    0.1738  -16.2081    0.0000 C   0  0
    0.8840  -16.6181    0.0000 C   0  0
    1.5948  -16.2078    0.0000 N   0  0
    1.5948  -15.3855    0.0000 C   0  0
    0.8842  -14.9708    0.0000 C   0  0
    2.3062  -16.6185    0.0000 C   0  0
    2.3062  -17.4395    0.0000 O   0  0
    3.0249  -16.2036    0.0000 C   0  0
    3.7359  -16.6139    0.0000 C   0  0  2  0  0  0
    4.4548  -16.1989    0.0000 C   0  0
    5.1656  -16.6093    0.0000 C   0  0
    5.8846  -16.1942    0.0000 C   0  0
   -4.4064  -11.4449    0.0000 C   0  0
   -5.0778   -9.9366    0.0000 C   0  0
   -5.5649  -10.6114    0.0000 C   0  0
   -5.2260  -11.3647    0.0000 C   0  0
   -4.2535  -10.0236    0.0000 C   0  0
   -3.9213  -10.7807    0.0000 C   0  0
   -3.1014  -10.8703    0.0000 N   0  0
   -2.6127  -10.2038    0.0000 C   0  0
   -3.7688   -9.3595    0.0000 C   0  0
   -1.7894  -10.2923    0.0000 C   0  0
   -4.1049   -8.6027    0.0000 C   0  0
    6.6016  -16.6082    0.0000 N   0  0
    3.7314  -17.4411    0.0000 N   0  0
    7.3187  -16.1942    0.0000 C   0  0
    8.0358  -16.6082    0.0000 N   0  0
    7.3187  -15.3662    0.0000 N   0  0
   -1.5931  -14.6287    0.0000 N   0  0
 17 18  2  0
 17 19  2  0
  5 20  1  0
 20 21  1  0
 20 22  2  0
 21 23  1  0
 21 27  1  0
 23 24  1  0
 24 25  1  0
 25 26  1  0
 26 27  1  0
 25 28  1  0
 28 29  2  0
 28 30  1  0
 30 31  1  0
 31 32  1  0
 32 33  1  0
 33 34  1  0
  7 35  1  0
 35 40  2  0
  2  3  1  0
 39 36  2  0
  3  4  1  0
 36 37  1  0
  4  5  1  0
 37 38  2  0
 38 35  1  0
  5  6  1  0
  6  2  1  0
 39 40  1  0
  7  8  1  0
 40 41  1  0
  8  9  1  0
 41 42  2  0
 42  1  1  0
  9 10  2  0
  1 43  2  0
 43 39  1  0
 10 11  1  0
 42 44  1  0
 11 12  2  0
 43 45  1  0
 12 13  1  0
 34 46  1  0
 13 14  2  0
 31 47  1  6
 14  9  1  0
 46 48  1  0
 10 15  1  0
 48 49  1  0
 14 16  1  0
 48 50  2  0
 13 17  1  0
 17 51  1  0
 51  5  1  0
M  END