
          11280714432D 1   1.00000     0.00000     0

 18 18  0     0  0            999 V2000
    4.2917   -3.6417    0.0000 C   0  0  0  0  0  0           0  0  0
    3.6000   -4.0875    0.0000 C   0  0  0  0  0  0           0  0  0
    5.0250   -4.0250    0.0000 O   0  0  0  0  0  0           0  0  0
    4.2542   -2.8167    0.0000 O   0  0  0  0  0  0           0  0  0
    7.8792   -3.8917    0.0000 N   0  0  0  0  0  0           0  0  0
    3.6417   -4.9042    0.0000 C   0  0  0  0  0  0           0  0  0
    2.8667   -3.7042    0.0000 C   0  0  0  0  0  0           0  0  0
    6.4542   -3.9542    0.0000 C   0  0  3  0  0  0           0  0  0
    5.7167   -3.5792    0.0000 C   0  0  0  0  0  0           0  0  0
    7.1500   -3.5125    0.0000 C   0  0  0  0  0  0           0  0  0
    2.2125   -4.9750    0.0000 C   0  0  0  0  0  0           0  0  0
    2.9500   -5.3542    0.0000 C   0  0  0  0  0  0           0  0  0
    2.1750   -4.1542    0.0000 C   0  0  0  0  0  0           0  0  0
    6.4917   -4.7792    0.0000 O   0  0  0  0  0  0           0  0  0
    1.5167   -5.4167    0.0000 O   0  0  0  0  0  0           0  0  0
    8.5750   -3.4500    0.0000 C   0  0  3  0  0  0           0  0  0
    8.5417   -2.6250    0.0000 C   0  0  0  0  0  0           0  0  0
    9.3042   -3.8292    0.0000 C   0  0  0  0  0  0           0  0  0
  2  1  1  0     0  0
  3  1  1  0     0  0
  4  1  2  0     0  0
  5 10  1  0     0  0
  6  2  1  0     0  0
  7  2  2  0     0  0
  8  9  1  0     0  0
  9  3  1  0     0  0
 10  8  1  0     0  0
 11 13  2  0     0  0
 12  6  2  0     0  0
 13  7  1  0     0  0
 14  8  1  0     0  0
 15 11  1  0     0  0
 16  5  1  0     0  0
 17 16  1  0     0  0
 18 16  1  0     0  0
 12 11  1  0     0  0
M  END