
  SciTegic          2D

 35 38  0  0  0  0            999 V2000
  -12.3327  -12.9470    0.0000 C   0  0
  -17.2585   -3.8594    0.0000 C   0  0
  -18.3031   -5.6561    0.0000 C   0  0
  -18.2994   -4.4562    0.0000 C   0  0
  -12.2141   -3.8316    0.0000 O   0  0
    1.2990   -0.7500    0.0000 C   0  0
    0.0000    1.5000    0.0000 C   0  0
    0.0000   -1.5000    0.0000 C   0  0
   -1.2990    0.7500    0.0000 C   0  0
  -11.7625  -10.6743    0.0000 C   0  0
  -14.2102  -11.5453    0.0000 C   0  0
  -12.2653   -9.2611    0.0000 C   0  0
  -14.7130  -10.1320    0.0000 C   0  0
   -9.1517   -0.8677    0.0000 C   0  0
  -14.5946   -5.2077    0.0000 C   0  0
   -5.2003   -1.4932    0.0000 C   0  0
   -6.4990   -0.7410    0.0000 C   0  0
   -2.6003   -1.4978    0.0000 C   0  0
    1.2990    0.7500    0.0000 N   0  0
   -7.9381   -2.9696    0.0000 N   0  0
  -15.8155   -7.3053    0.0000 N   0  0
  -12.1237   -6.1734    0.0000 N   0  0
  -10.0176   -4.6489    0.0000 N   0  0
   -3.8990   -0.7455    0.0000 O   0  0
  -10.1554   -1.9824    0.0000 S   0  0
  -11.5104   -4.8036    0.0000 C   0  0
  -12.7349  -11.8164    0.0000 C   0  0
   -1.2990   -0.7500    0.0000 C   0  0
   -7.8003   -1.4887    0.0000 C   0  0
  -13.7356   -8.9918    0.0000 C   0  0
  -13.6166   -6.3281    0.0000 C   0  0
  -15.9671   -5.8130    0.0000 C   0  0
   -9.4054   -3.2815    0.0000 C   0  0
  -14.3494   -7.6223    0.0000 N   0  0
  -17.2619   -5.0594    0.0000 C   0  0
  1 27  1  0
  2 35  1  0
  3 35  1  0
  4 35  1  0
 26  5  2  0
  6 19  2  0
  6  8  1  0
  7 19  1  0
  7  9  2  0
  8 28  2  0
  9 28  1  0
 10 12  2  0
 10 27  1  0
 11 13  1  0
 11 27  2  0
 12 30  1  0
 13 30  2  0
 14 29  2  0
 14 25  1  0
 15 32  1  0
 15 31  2  0
 16 24  1  0
 16 17  1  0
 17 29  1  0
 18 28  1  0
 18 24  1  0
 29 20  1  0
 33 20  2  0
 32 21  2  0
 21 34  1  0
 26 22  1  0
 31 22  1  0
 33 23  1  0
 26 23  1  0
 33 25  1  0
 30 34  1  0
 31 34  1  0
 32 35  1  0
M  END