
  SciTegic02271514512D

 25 27  0  0  0  0            999 V2000
   11.2013   -6.4509    0.0000 C   0  0
   11.2013   -7.2680    0.0000 C   0  0
   11.9066   -7.6725    0.0000 C   0  0
   12.6119   -7.2680    0.0000 C   0  0
   12.6119   -6.4509    0.0000 C   0  0
   11.9066   -6.0381    0.0000 C   0  0
   10.4951   -7.6782    0.0000 C   0  0
    9.7865   -7.2689    0.0000 C   0  0
    9.0799   -7.6778    0.0000 C   0  0
    9.0807   -8.4959    0.0000 C   0  0
    9.7939   -8.9033    0.0000 C   0  0
   10.4976   -8.4920    0.0000 C   0  0
   11.9066   -5.2209    0.0000 O   0  0
   13.3208   -6.0443    0.0000 S   0  0
   14.0273   -6.4550    0.0000 C   0  0
   13.3190   -7.6777    0.0000 O   0  0
   14.0233   -7.2732    0.0000 C   0  0
   14.7290   -7.6838    0.0000 C   0  0
   15.4389   -7.2773    0.0000 C   0  0
   15.4386   -6.4558    0.0000 C   0  0
   14.7324   -6.0489    0.0000 C   0  0
   14.7324   -5.2317    0.0000 C   0  0
   14.7297   -4.4171    0.0000 N   0  0
    9.7862   -6.4517    0.0000 Cl  0  0
   11.2071   -8.8976    0.0000 Cl  0  0
  1  2  1  0
  1  6  1  0
  2  3  1  0
  3  4  1  0
  4  5  1  0
  5  6  2  0
  7  8  2  0
  8  9  1  0
  9 10  2  0
 10 11  1  0
 11 12  2  0
 12  7  1  0
  2  7  1  0
  6 13  1  0
  5 14  1  0
 14 15  1  0
  4 16  2  0
 15 17  2  0
 17 18  1  0
 18 19  2  0
 19 20  1  0
 20 21  2  0
 21 15  1  0
 21 22  1  0
 22 23  3  0
  8 24  1  0
 12 25  1  0
M  END