
          11280715042D 1   1.00000     0.00000     0

 46 49  0     0  0            999 V2000
   -1.7583    2.6500    0.0000 C   0  0  0  0  0  0           0  0  0
   -1.7583    1.8250    0.0000 N   0  0  3  0  0  0           0  0  0
    5.3792    0.1458    0.0000 C   0  0  0  0  0  0           0  0  0
    3.2375    0.5625    0.0000 C   0  0  0  0  0  0           0  0  0
    6.0917    0.5500    0.0000 C   0  0  0  0  0  0           0  0  0
    4.6667    0.5583    0.0000 N   0  0  3  0  0  0           0  0  0
   -2.4708    3.0708    0.0000 C   0  0  3  0  0  0           0  0  0
    2.5167   -0.6667    0.0000 C   0  0  0  0  0  0           0  0  0
    3.9500    0.1458    0.0000 C   0  0  0  0  0  0           0  0  0
    2.5167    0.1583    0.0000 C   0  0  3  0  0  0           0  0  0
   -1.0458    1.4125    0.0000 C   0  0  3  0  0  0           0  0  0
    0.3792    0.5833    0.0000 N   0  0  3  0  0  0           0  0  0
    3.2250   -1.0792    0.0000 C   0  0  0  0  0  0           0  0  0
    3.2250   -1.9042    0.0000 C   0  0  0  0  0  0           0  0  0
   -1.7583    4.3042    0.0000 C   0  0  0  0  0  0           0  0  0
    3.2417    1.3875    0.0000 N   0  0  0  0  0  0           0  0  0
    1.8042    0.5708    0.0000 C   0  0  0  0  0  0           0  0  0
    6.0917    1.3708    0.0000 C   0  0  0  0  0  0           0  0  0
    6.8042    0.1333    0.0000 C   0  0  0  0  0  0           0  0  0
   -1.0458    3.0625    0.0000 O   0  0  0  0  0  0           0  0  0
   -2.4708    3.8958    0.0000 C   0  0  0  0  0  0           0  0  0
   -1.0458    0.5833    0.0000 C   0  0  0  0  0  0           0  0  0
   -0.3333    1.8208    0.0000 C   0  0  0  0  0  0           0  0  0
    2.5042   -2.3167    0.0000 C   0  0  0  0  0  0           0  0  0
    5.3750   -0.6792    0.0000 O   0  0  0  0  0  0           0  0  0
    7.5167    0.5375    0.0000 C   0  0  0  0  0  0           0  0  0
    6.8042    1.7833    0.0000 C   0  0  0  0  0  0           0  0  0
    7.5250    1.3625    0.0000 C   0  0  0  0  0  0           0  0  0
    1.8000   -1.0750    0.0000 C   0  0  0  0  0  0           0  0  0
   -1.7583    5.1292    0.0000 O   0  0  0  0  0  0           0  0  0
    1.0917    0.1625    0.0000 C   0  0  0  0  0  0           0  0  0
    1.7917   -1.9000    0.0000 C   0  0  0  0  0  0           0  0  0
   -0.3375    0.1708    0.0000 C   0  0  0  0  0  0           0  0  0
    0.3792    1.4083    0.0000 C   0  0  0  0  0  0           0  0  0
   -1.0458    3.8958    0.0000 N   0  0  0  0  0  0           0  0  0
   -2.4708    1.4208    0.0000 C   0  0  0  0  0  0           0  0  0
    3.9375   -2.3167    0.0000 Cl  0  0  0  0  0  0           0  0  0
    2.5042   -3.1417    0.0000 Cl  0  0  0  0  0  0           0  0  0
    6.8042    2.6083    0.0000 Cl  0  0  0  0  0  0           0  0  0
    8.2292    0.1208    0.0000 Cl  0  0  0  0  0  0           0  0  0
    3.9542    1.7958    0.0000 O   0  0  0  0  0  0           0  0  0
    4.6667    1.3833    0.0000 C   0  0  0  0  0  0           0  0  0
   -3.1833    2.6500    0.0000 C   0  0  0  0  0  0           0  0  0
   -3.1833    1.8250    0.0000 C   0  0  0  0  0  0           0  0  0
   -0.3333    3.4833    0.0000 C   0  0  0  0  0  0           0  0  0
    4.6750    2.2083    0.0000 C   0  0  0  0  0  0           0  0  0
  2  1  1  0     0  0
  3  6  1  0     0  0
  4 10  1  0     0  0
  5  3  1  0     0  0
  6  9  1  0     0  0
  7  1  1  0     0  0
 10  8  1  0     0  0
  9  4  1  0     0  0
 10 17  1  0     0  0
 11  2  1  0     0  0
 12 34  1  0     0  0
 13  8  1  0     0  0
 14 13  2  0     0  0
 15 21  1  0     0  0
 16  4  2  0     0  0
 17 31  1  0     0  0
 18  5  1  0     0  0
 19  5  2  0     0  0
 20  1  2  0     0  0
  7 21  1  0     0  0
 22 11  1  0     0  0
 23 11  1  0     0  0
 24 32  2  0     0  0
 25  3  2  0     0  0
 26 19  1  0     0  0
 27 18  2  0     0  0
 28 26  2  0     0  0
 29  8  2  0     0  0
 30 15  2  0     0  0
 31 12  1  0     0  0
 32 29  1  0     0  0
 33 22  1  0     0  0
 34 23  1  0     0  0
 35 15  1  0     0  0
 36  2  1  0     0  0
 37 14  1  0     0  0
 38 24  1  0     0  0
 39 27  1  0     0  0
 40 26  1  0     0  0
 41 16  1  0     0  0
 42  6  1  0     0  0
 43  7  1  0     0  0
 44 43  1  0     0  0
 45 35  1  0     0  0
 46 41  1  0     0  0
 36 44  1  0     0  0
 33 12  1  0     0  0
 14 24  1  0     0  0
 28 27  1  0     0  0
M  END