
  SciTegic01161211232D

 43 48  0  0  0  0            999 V2000
   10.7997    0.5931    0.0000 C   0  0
   11.5162    1.0065    0.0000 C   0  0
   11.5133    1.8370    0.0000 C   0  0
   10.7979    2.2461    0.0000 C   0  0
   10.0849    1.0060    0.0000 C   0  0
   10.0862    1.8349    0.0000 C   0  0
    9.2982    2.0923    0.0000 N   0  0
    8.8099    1.4224    0.0000 C   0  0
    9.2962    0.7511    0.0000 C   0  0
    7.9849    1.4236    0.0000 O   0  0
    9.0401   -0.0331    0.0000 C   0  0
    8.2532   -0.2796    0.0000 C   0  0
    7.5882    0.2095    0.0000 N   0  0
    6.9157   -0.2685    0.0000 C   0  0
    7.1627   -1.0558    0.0000 C   0  0
    7.9874   -1.0643    0.0000 C   0  0
    6.1338   -0.0054    0.0000 C   0  0
    8.4647   -1.7372    0.0000 C   0  0
    6.7479   -1.7689    0.0000 C   0  0
    5.9229   -1.7663    0.0000 N   0  0
    7.1581   -2.4847    0.0000 O   0  0
    5.4381   -1.1016    0.0000 C   0  0
    4.6527   -1.3540    0.0000 C   0  0
    4.6500   -2.1791    0.0000 C   0  0
    5.4338   -2.4364    0.0000 C   0  0  2  0  0  0
    5.6868   -3.2217    0.0000 C   0  0
    5.1331   -3.8333    0.0000 N   0  0
    4.3168   -3.7500    0.0000 C   0  0
    3.9793   -4.5028    0.0000 C   0  0
    4.5910   -5.0564    0.0000 C   0  0
    5.3064   -4.6457    0.0000 C   0  0
   12.2313    0.5951    0.0000 S   0  0
   12.9451    1.0087    0.0000 C   0  0
   13.6602    0.5973    0.0000 C   0  0
   13.6568   -0.2261    0.0000 C   0  0
   14.3711   -0.6374    0.0000 C   0  0
   15.0859   -0.2237    0.0000 C   0  0
   15.0820    0.6056    0.0000 C   0  0
   14.3671    1.0131    0.0000 C   0  0
   14.3616    1.8381    0.0000 Cl  0  0
   12.9418   -0.6375    0.0000 Cl  0  0
   11.6417    0.0125    0.0000 O   0  0
   12.8125    0.0125    0.0000 O   0  0
  4  6  1  0
 19 21  2  0
 20 22  1  0
  8 10  2  0
  5  6  2  0
  9 11  2  0
  1  2  2  0
 22 23  1  0
 23 24  1  0
 24 25  1  0
 25 20  1  0
 11 12  1  0
 25 26  1  1
 12 13  1  0
 26 27  1  0
 27 28  1  0
  5  1  1  0
  2  3  1  0
  3  4  2  0
 28 29  1  0
 29 30  1  0
 30 31  1  0
 31 27  1  0
 13 14  1  0
  2 32  1  0
 14 15  2  0
 32 33  1  0
 15 16  1  0
 33 34  1  0
 16 12  2  0
 34 35  2  0
  6  7  1  0
 35 36  1  0
 14 17  1  0
 36 37  2  0
  7  8  1  0
 37 38  1  0
 16 18  1  0
 38 39  2  0
 39 34  1  0
  8  9  1  0
 39 40  1  0
 15 19  1  0
 35 41  1  0
  9  5  1  0
 32 42  2  0
 19 20  1  0
 32 43  2  0
M  END