
  SciTegic04091416292D

 30 33  0  0  0  0            999 V2000
   16.7455   -3.4958    0.0000 N   0  0
   17.5705   -3.4958    0.0000 C   0  0  1  0  0  0
   17.8273   -2.7117    0.0000 C   0  0
   17.1580   -2.2249    0.0000 C   0  0  2  0  0  0
   16.4930   -2.7117    0.0000 C   0  0
   16.3156   -4.1996    0.0000 C   0  0
   15.4910   -4.1795    0.0000 C   0  0
   16.7106   -4.9239    0.0000 O   0  0
   15.0610   -4.8839    0.0000 C   0  0
   14.2368   -4.8425    0.0000 C   0  0
   13.9464   -5.6146    0.0000 C   0  0
   14.5912   -6.1294    0.0000 N   0  0
   15.2799   -5.6753    0.0000 O   0  0
   17.1567   -1.3999    0.0000 O   0  0
   17.9795   -4.2127    0.0000 C   0  0
   17.5634   -4.9251    0.0000 O   0  0
   18.8044   -4.2168    0.0000 N   0  0
   19.2204   -3.5044    0.0000 C   0  0
   20.0454   -3.5084    0.0000 C   0  0
   20.4519   -4.2247    0.0000 C   0  0
   21.2761   -4.2292    0.0000 C   0  0
   21.6930   -3.5161    0.0000 C   0  0
   21.2795   -2.7973    0.0000 C   0  0
   20.4567   -2.7964    0.0000 C   0  0
   22.5179   -3.5191    0.0000 C   0  0
   22.9979   -4.1879    0.0000 O   0  0
   23.7834   -3.9357    0.0000 C   0  0
   23.7864   -3.1107    0.0000 N   0  0
   23.0027   -2.8531    0.0000 C   0  0
   13.1510   -5.8336    0.0000 C   0  0
  1  2  1  0
  2  3  1  0
  3  4  1  0
  4  5  1  0
  5  1  1  0
  1  6  1  0
  6  7  1  0
  6  8  2  0
  7  9  1  0
  9 10  2  0
 10 11  1  0
 11 12  2  0
 12 13  1  0
 13  9  1  0
  4 14  1  6
  2 15  1  1
 15 16  2  0
 15 17  1  0
 17 18  1  0
 18 19  1  0
 19 20  2  0
 20 21  1  0
 21 22  2  0
 22 23  1  0
 23 24  2  0
 24 19  1  0
 22 25  1  0
 25 26  1  0
 26 27  1  0
 27 28  2  0
 28 29  1  0
 29 25  2  0
 11 30  1  0
M  END