
  SciTegic12231509382D

 31 33  0  0  1  0            999 V2000
    2.1542    1.0758    0.0000 C   0  0
    1.7417    0.3613    0.0000 C   0  0
    0.9167    0.3613    0.0000 C   0  0  2  0  0  0
    0.5587   -0.3820    0.0000 C   0  0  1  0  0  0
   -0.2456   -0.5656    0.0000 C   0  0
   -0.8906   -0.0512    0.0000 C   0  0
   -0.8906    0.7738    0.0000 C   0  0
   -1.6051    1.1863    0.0000 C   0  0
   -2.3196    0.7738    0.0000 C   0  0
   -2.3196   -0.0512    0.0000 C   0  0
   -1.6051   -0.4637    0.0000 C   0  0
   -1.6051   -1.2887    0.0000 C   0  0
   -1.6051   -2.1137    0.0000 F   0  0
   -0.7801   -1.2887    0.0000 F   0  0
   -2.4301   -1.2887    0.0000 F   0  0
   -0.2456    1.2882    0.0000 N   0  0
   -0.4292    2.0925    0.0000 C   0  0
   -1.2175    2.3357    0.0000 C   0  0
   -1.4011    3.1400    0.0000 N   0  0
   -2.1895    3.3831    0.0000 C   0  0
   -0.7964    3.7011    0.0000 C   0  0
    0.5587    1.1046    0.0000 C   0  0
    1.0731    1.7496    0.0000 O   0  0
    1.0731   -1.0270    0.0000 C   0  0
    1.8889   -0.9041    0.0000 C   0  0
    2.4032   -1.5491    0.0000 C   0  0
    2.1018   -2.3170    0.0000 C   0  0
    2.6162   -2.9621    0.0000 O   0  0
    3.4320   -2.8391    0.0000 C   0  0
    1.2861   -2.4400    0.0000 C   0  0
    0.7717   -1.7950    0.0000 C   0  0
  1  2  1  0
  3  2  1  6
  3  4  1  0
  4  5  1  0
  5  6  1  0
  6  7  2  0
  7  8  1  0
  8  9  2  0
  9 10  1  0
 10 11  2  0
  6 11  1  0
 11 12  1  0
 12 13  1  0
 12 14  1  0
 12 15  1  0
  7 16  1  0
 16 17  1  0
 17 18  1  0
 18 19  1  0
 19 20  1  0
 19 21  1  0
 16 22  1  0
  3 22  1  0
 22 23  2  0
  4 24  1  6
 24 25  2  0
 25 26  1  0
 26 27  2  0
 27 28  1  0
 28 29  1  0
 27 30  1  0
 30 31  2  0
 24 31  1  0
M  END