
  SciTegic01061111512D

 25 27  0  0  0  0            999 V2000
    7.7640   -3.5460    0.0000 C   0  0  2  0  0  0
    7.7640   -4.3715    0.0000 C   0  0  1  0  0  0
    8.4768   -4.7820    0.0000 C   0  0  1  0  0  0
    9.1856   -4.3715    0.0000 C   0  0  2  0  0  0
    9.1856   -3.5460    0.0000 C   0  0  1  0  0  0
    8.4768   -3.1313    0.0000 O   0  0
    9.9020   -3.1375    0.0000 S   0  0
   10.6163   -3.5502    0.0000 C   0  0
    9.9002   -4.7872    0.0000 O   0  0
    8.4768   -5.6074    0.0000 N   0  0
    7.8117   -6.0918    0.0000 N   0  0
    8.0654   -6.8768    0.0000 N   0  0
    8.8909   -6.8768    0.0000 C   0  0
    9.1445   -6.0918    0.0000 C   0  0
    7.0494   -4.7872    0.0000 O   0  0
    7.0476   -3.1375    0.0000 C   0  0
    7.0451   -2.3121    0.0000 O   0  0
    9.3777   -7.5413    0.0000 C   0  0
    9.0368   -8.2942    0.0000 C   0  0
    9.5229   -8.9623    0.0000 C   0  0
   10.3448   -8.8768    0.0000 C   0  0
   10.6780   -8.1173    0.0000 C   0  0
   10.1940   -7.4526    0.0000 C   0  0
   11.4984   -8.0285    0.0000 O   0  0
   11.9878   -8.6955    0.0000 C   0  0
 11 12  2  0
 12 13  1  0
 13 14  2  0
 14 10  1  0
  5  7  1  1
  2 15  1  1
  1  2  1  0
  1 16  1  1
  7  8  1  0
 16 17  1  0
  1  6  1  0
 13 18  1  0
  4  9  1  6
 18 19  2  0
  2  3  1  0
 19 20  1  0
  3 10  1  1
 20 21  2  0
 10 11  1  0
 21 22  1  0
  3  4  1  0
 22 23  2  0
 23 18  1  0
  4  5  1  0
 22 24  1  0
  5  6  1  0
 24 25  1  0
M  END