
          11280715042D 1   1.00000     0.00000     0

 23 24  0     0  0            999 V2000
    0.1750   -0.1542    0.0000 S   0  0  3  0  0  0           0  0  0
   -3.5208   -0.3167    0.0000 N   0  0  0  0  0  0           0  0  0
    0.7042   -0.4292    0.0000 C   0  0  0  0  0  0           0  0  0
   -3.4708    0.6583    0.0000 N   0  0  0  0  0  0           0  0  0
   -3.8458    0.1833    0.0000 C   0  0  0  0  0  0           0  0  0
   -2.9375   -0.1542    0.0000 C   0  0  0  0  0  0           0  0  0
   -0.1750    0.5458    0.0000 O   0  0  0  0  0  0           0  0  0
    0.5125    0.5458    0.0000 O   0  0  0  0  0  0           0  0  0
   -0.3458   -0.4542    0.0000 N   0  0  0  0  0  0           0  0  0
    2.3000   -1.2625    0.0000 C   0  0  3  0  0  0           0  0  0
    1.7667   -0.9792    0.0000 C   0  0  0  0  0  0           0  0  0
   -2.9083    0.4458    0.0000 C   0  0  0  0  0  0           0  0  0
    0.7292   -1.0167    0.0000 C   0  0  0  0  0  0           0  0  0
    1.2042   -0.1167    0.0000 C   0  0  0  0  0  0           0  0  0
    1.7417   -0.3917    0.0000 C   0  0  0  0  0  0           0  0  0
    1.2625   -1.2917    0.0000 C   0  0  0  0  0  0           0  0  0
   -2.4208   -0.4542    0.0000 C   0  0  0  0  0  0           0  0  0
    2.3167   -1.8625    0.0000 C   0  0  0  0  0  0           0  0  0
    2.8042   -0.9417    0.0000 C   0  0  0  0  0  0           0  0  0
    2.8792   -1.4167    0.0000 C   0  0  0  0  0  0           0  0  0
   -0.8625   -0.1542    0.0000 C   0  0  0  0  0  0           0  0  0
   -1.9083   -0.1542    0.0000 C   0  0  0  0  0  0           0  0  0
   -1.3833   -0.4542    0.0000 C   0  0  0  0  0  0           0  0  0
  2  6  1  0     0  0
  3  1  1  0     0  0
  4 12  1  0     0  0
  5  2  2  0     0  0
  6 17  1  0     0  0
  7  1  2  0     0  0
  8  1  2  0     0  0
  9  1  1  0     0  0
 10 11  1  0     0  0
 11 15  2  0     0  0
 12  6  2  0     0  0
 13  3  1  0     0  0
 14  3  2  0     0  0
 15 14  1  0     0  0
 16 13  2  0     0  0
 17 22  1  0     0  0
 18 10  1  0     0  0
 19 10  1  0     0  0
 20 10  1  0     0  0
 21  9  1  0     0  0
 22 23  1  0     0  0
 23 21  1  0     0  0
 11 16  1  0     0  0
  4  5  1  0     0  0
M  END