
  SciTegic09171211542D

 97 96  0  0  0  0            999 V2000
    1.2616  -26.5356    0.0000 C   0  0
    1.2616  -27.3606    0.0000 C   0  0  1  0  0  0
    1.9736  -27.7689    0.0000 C   0  0
    1.9736  -26.1189    0.0000 C   0  0
    2.6856  -26.5356    0.0000 C   0  0  1  0  0  0
    2.6821  -27.3606    0.0000 C   0  0  1  0  0  0
    3.3909  -27.7738    0.0000 C   0  0
    4.1077  -27.3666    0.0000 C   0  0
    3.3979  -26.1238    0.0000 C   0  0  2  0  0  0
    4.1073  -26.5441    0.0000 C   0  0  2  0  0  0
    4.1242  -24.8979    0.0000 C   0  0
    3.4032  -25.3015    0.0000 C   0  0
    4.8336  -25.3183    0.0000 C   0  0  1  0  0  0
    4.8247  -26.1398    0.0000 C   0  0  1  0  0  0
    5.6032  -26.4022    0.0000 C   0  0
    6.0934  -25.7428    0.0000 C   0  0
    5.6177  -25.0730    0.0000 C   0  0  2  0  0  0
    0.5477  -27.7741    0.0000 O   0  0
    2.6782  -25.7106    0.0000 C   0  0
    3.3907  -26.9481    0.0000 H   0  0
    4.0991  -25.7189    0.0000 H   0  0
    4.8199  -26.9647    0.0000 H   0  0
    4.8282  -24.4897    0.0000 C   0  0
    5.8811  -24.2911    0.0000 C   0  0  1  0  0  0
    6.6899  -24.1284    0.0000 C   0  0
    5.3358  -23.6721    0.0000 C   0  0
    7.2353  -24.7474    0.0000 C   0  0
    8.0441  -24.5847    0.0000 C   0  0
    8.5894  -25.2037    0.0000 C   0  0
    9.3982  -25.0410    0.0000 C   0  0
    8.3260  -25.9855    0.0000 C   0  0
    6.4407  -25.0689    0.0000 H   0  0
    2.6741  -28.1814    0.0000 H   0  0
    0.7571  -24.0743    0.0000 O   0  0
    0.8336  -23.2529    0.0000 S   0  0
    0.0840  -23.5973    0.0000 O   0  0
   -3.7323  -24.5600    0.0000 O   0  0
   -3.0615  -25.0410    0.0000 S   0  0
   -2.9804  -24.2196    0.0000 O   0  0
   -2.9799  -22.0984    0.0000 O   0  0
   -3.2698  -22.8748    0.0000 S   0  0
   -2.4524  -22.7377    0.0000 O   0  0
   -3.1512  -19.2201    0.0000 O   0  0
   -3.0138  -20.0363    0.0000 S   0  0
   -2.3756  -19.5092    0.0000 O   0  0
   -0.4816  -18.4142    0.0000 O   0  0
   -1.2338  -18.7626    0.0000 S   0  0
   -0.5560  -19.2398    0.0000 O   0  0
    1.4290  -20.1405    0.0000 O   0  0
    0.7533  -19.6675    0.0000 S   0  0
    0.6815  -20.4892    0.0000 O   0  0
    1.8585  -21.1012    0.0000 O   0  0
    1.7819  -21.9226    0.0000 S   0  0
    2.5316  -21.5782    0.0000 O   0  0
   -0.8100  -23.1081    0.0000 C   0  0  2  0  0  0
   -1.6315  -23.0316    0.0000 C   0  0  2  0  0  0
   -2.1041  -23.7027    0.0000 C   0  0  1  0  0  0
   -1.7636  -24.4495    0.0000 C   0  0  2  0  0  0
   -0.9421  -24.5260    0.0000 C   0  0  1  0  0  0
   -0.4612  -23.8557    0.0000 O   0  0
   -2.2415  -25.1220    0.0000 O   0  0
   -2.9255  -23.6262    0.0000 O   0  0
   -1.9770  -22.2825    0.0000 O   0  0
   -0.3350  -22.4336    0.0000 C   0  0
    0.4866  -22.5077    0.0000 O   0  0
   -1.5010  -21.6086    0.0000 C   0  0  2  0  0  0
   -0.6810  -21.6861    0.0000 O   0  0
   -0.2054  -21.0163    0.0000 C   0  0  1  0  0  0
   -0.5472  -20.2651    0.0000 C   0  0  1  0  0  0
   -1.3696  -20.1877    0.0000 C   0  0  1  0  0  0
   -1.8501  -20.8615    0.0000 C   0  0  1  0  0  0
   -2.6716  -20.7864    0.0000 O   0  0
   -1.7125  -19.4374    0.0000 O   0  0
   -0.0687  -19.5931    0.0000 O   0  0
    0.6158  -21.0948    0.0000 C   0  0
    0.9585  -21.8452    0.0000 O   0  0
   -1.1501  -22.3567    0.0000 H   0  0
    2.1225  -22.6741    0.0000 O   0  5
    1.6550  -23.3305    0.0000 O   0  5
    1.2311  -18.9995    0.0000 O   0  5
   -1.5772  -18.0148    0.0000 O   0  5
   -3.8390  -19.9622    0.0000 O   0  5
   -4.0914  -22.8000    0.0000 O   0  5
   -3.5408  -25.7167    0.0000 O   0  5
   -0.5995  -25.2765    0.0000 N   0  0
   -0.8467  -26.0618    0.0000 C   0  0
   -0.1758  -26.5418    0.0000 C   0  0
    0.4882  -26.0520    0.0000 N   0  0
    0.2274  -25.2694    0.0000 N   0  0
   -0.1698  -27.3668    0.0000 C   0  0
    0.0937  -18.6563    0.0000 Na  0  3
    1.9687  -19.3438    0.0000 Na  0  3
    3.2813  -22.0313    0.0000 Na  0  3
    1.5313  -24.4375    0.0000 Na  0  3
   -2.8438  -26.1250    0.0000 Na  0  3
   -3.6562  -21.0313    0.0000 Na  0  3
   -4.7188  -23.8750    0.0000 Na  0  3
 47 46  2  0
 48 47  2  0
 10 21  1  1
  5  4  1  0
 14 22  1  6
 50 49  2  0
 51 50  2  0
  5  6  1  0
 13 23  1  1
 53 52  2  0
 54 53  2  0
 17 24  1  0
  9 12  1  0
 24 25  1  0
 55 56  1  0
 10 14  1  0
 24 26  1  6
 13 11  1  0
 25 27  1  0
 11 12  1  0
 27 28  1  0
 55 60  1  0
 56 57  1  0
 57 58  1  0
 58 59  1  0
 59 60  1  0
 13 14  1  0
 58 61  1  6
 28 29  1  0
 57 62  1  1
  1  2  1  0
 56 63  1  6
 29 30  1  0
 55 64  1  1
  1  4  1  0
 64 65  1  0
 29 31  1  0
 63 66  1  0
 66 67  1  0
  2  3  1  0
 17 32  1  6
  5  9  1  0
  6 33  1  6
 35 34  2  0
 66 71  1  0
 67 68  1  0
 68 69  1  0
 69 70  1  0
 70 71  1  0
 36 35  2  0
 71 72  1  6
  6  7  1  0
 70 73  1  1
 14 15  1  0
 69 74  1  1
 15 16  1  0
 68 75  1  1
 38 37  2  0
 75 76  1  0
 39 38  2  0
 66 77  1  6
 76 53  1  0
 16 17  1  0
 53 78  1  0
 65 35  1  0
 17 13  1  0
 35 79  1  0
 74 50  1  0
  7  8  1  0
 50 80  1  0
 73 47  1  0
 41 40  2  0
 47 81  1  0
 72 44  1  0
 42 41  2  0
 44 82  1  0
 62 41  1  0
  2 18  1  1
 41 83  1  0
 61 38  1  0
  8 10  1  0
 38 84  1  0
  5 19  1  1
 59 85  1  1
 85 86  1  0
 44 43  2  0
 45 44  2  0
  9 10  1  0
  9 20  1  6
 86 87  2  0
 87 88  1  0
 88 89  2  0
 89 85  1  0
  3  6  1  0
 87 90  1  0
 90 18  1  0
M  CHG  8  78  -1  79  -1  80  -1  81  -1  82  -1  83  -1  84  -1  91   1
M  CHG  6  92   1  93   1  94   1  95   1  96   1  97   1
M  END