
          11280715362D 1   1.00000     0.00000     0

 35 37  0     0  0            999 V2000
    5.1792    0.7333    0.0000 S   0  0  3  0  0  0           0  0  0
    1.6042   -1.3417    0.0000 C   0  0  0  0  0  0           0  0  0
    4.4667    1.1458    0.0000 N   0  0  0  0  0  0           0  0  0
    1.6042   -0.5167    0.0000 C   0  0  0  0  0  0           0  0  0
    6.0042    0.7375    0.0000 C   0  0  0  0  0  0           0  0  0
    2.3167   -0.1042    0.0000 C   0  0  0  0  0  0           0  0  0
    2.3167    0.7208    0.0000 C   0  0  0  0  0  0           0  0  0
    5.1792   -0.0875    0.0000 O   0  0  0  0  0  0           0  0  0
    5.1792    1.5625    0.0000 O   0  0  0  0  0  0           0  0  0
    3.0375    1.1375    0.0000 C   0  0  3  0  0  0           0  0  0
    5.1792   -1.7542    0.0000 C   0  0  0  0  0  0           0  0  0
    0.8917   -1.7542    0.0000 C   0  0  0  0  0  0           0  0  0
    2.3167   -1.7542    0.0000 N   0  0  0  0  0  0           0  0  0
    3.7542    0.7333    0.0000 C   0  0  0  0  0  0           0  0  0
    0.1875   -2.9917    0.0000 N   0  0  0  0  0  0           0  0  0
    4.4667   -1.3417    0.0000 C   0  0  0  0  0  0           0  0  0
    5.1792   -2.5792    0.0000 O   0  0  0  0  0  0           0  0  0
    6.4125    1.4458    0.0000 C   0  0  0  0  0  0           0  0  0
    6.4167    0.0208    0.0000 C   0  0  0  0  0  0           0  0  0
    7.6542    0.7375    0.0000 C   0  0  0  0  0  0           0  0  0
    5.8917   -1.3417    0.0000 O   0  0  0  0  0  0           0  0  0
    7.2292    1.4583    0.0000 C   0  0  0  0  0  0           0  0  0
    7.2417    0.0208    0.0000 C   0  0  0  0  0  0           0  0  0
    3.0375   -1.3417    0.0000 O   0  0  0  0  0  0           0  0  0
    0.9000   -2.5792    0.0000 C   0  0  0  0  0  0           0  0  0
    8.4792    0.7458    0.0000 I   0  0  0  0  0  0           0  0  0
    0.8917   -0.1042    0.0000 C   0  0  0  0  0  0           0  0  0
    1.6042    1.1333    0.0000 C   0  0  0  0  0  0           0  0  0
    0.8917    0.7208    0.0000 C   0  0  0  0  0  0           0  0  0
    3.7542   -1.7542    0.0000 C   0  0  0  0  0  0           0  0  0
    2.3167    1.5500    0.0000 C   0  0  0  0  0  0           0  0  0
    3.4417    1.8583    0.0000 C   0  0  0  0  0  0           0  0  0
    0.1792   -1.3417    0.0000 C   0  0  0  0  0  0           0  0  0
   -0.5333   -2.5792    0.0000 C   0  0  0  0  0  0           0  0  0
   -0.5333   -1.7542    0.0000 C   0  0  0  0  0  0           0  0  0
  2  4  1  0     0  0
  3  1  1  0     0  0
  4  6  2  0     0  0
  5  1  1  0     0  0
  6  7  1  0     0  0
  7 10  1  0     0  0
  8  1  2  0     0  0
  9  1  2  0     0  0
 10 14  1  0     0  0
 11 16  1  0     0  0
 12  2  1  0     0  0
 13  2  2  0     0  0
 14  3  1  0     0  0
 15 25  2  0     0  0
 16 30  1  0     0  0
 17 11  2  0     0  0
 18  5  1  0     0  0
 19  5  2  0     0  0
 20 23  2  0     0  0
 21 11  1  0     0  0
 22 18  2  0     0  0
 23 19  1  0     0  0
 13 24  1  0     0  0
 25 12  1  0     0  0
 26 20  1  0     0  0
 27 29  2  0     0  0
 28  7  2  0     0  0
 29 28  1  0     0  0
 30 24  1  0     0  0
 31 10  1  0     0  0
 32 10  1  0     0  0
 33 12  2  0     0  0
 34 35  2  0     0  0
 35 33  1  0     0  0
 20 22  1  0     0  0
 27  4  1  0     0  0
 15 34  1  0     0  0
M  END