
  SciTegic04091415032D

 12 13  0  0  0  0            999 V2000
   11.2577   -4.4574    0.0000 C   0  0
   11.2565   -5.2769    0.0000 C   0  0
   11.9646   -5.6859    0.0000 C   0  0
   12.6742   -5.2764    0.0000 C   0  0
   12.6714   -4.4538    0.0000 C   0  0
   11.9628   -4.0485    0.0000 N   0  0
   10.5500   -4.0485    0.0000 C   0  0
   10.5549   -3.2310    0.0000 N   0  0
    9.7781   -2.9745    0.0000 N   0  0
    9.2951   -3.6352    0.0000 C   0  0
    9.7751   -4.2977    0.0000 N   0  0
   13.3776   -4.0425    0.0000 Cl  0  0
  1  2  2  0
  2  3  1  0
  3  4  2  0
  4  5  1  0
  5  6  2  0
  6  1  1  0
  8  9  1  0
  7  8  2  0
  9 10  1  0
 10 11  2  0
 11  7  1  0
  1  7  1  0
  5 12  1  0
M  END