
          11280714442D 1   1.00000     0.00000     0

 25 29  0     0  0            999 V2000
    0.9917   -0.7542    0.0000 C   0  0  0  0  0  0           0  0  0
    1.8292   -0.7625    0.0000 C   0  0  0  0  0  0           0  0  0
    2.2375   -1.4667    0.0000 C   0  0  0  0  0  0           0  0  0
    0.5792   -1.4667    0.0000 C   0  0  0  0  0  0           0  0  0
    2.0875    0.0333    0.0000 C   0  0  0  0  0  0           0  0  0
    0.7375    0.0333    0.0000 C   0  0  0  0  0  0           0  0  0
    1.4125    0.5208    0.0000 N   0  0  0  0  0  0           0  0  0
    1.8167   -2.1917    0.0000 C   0  0  0  0  0  0           0  0  0
    0.9917   -2.1875    0.0000 C   0  0  0  0  0  0           0  0  0
   -0.2250   -1.6375    0.0000 C   0  0  0  0  0  0           0  0  0
    3.0500   -1.6417    0.0000 C   0  0  0  0  0  0           0  0  0
    0.4417   -2.8000    0.0000 N   0  0  0  0  0  0           0  0  0
    2.3792   -2.8042    0.0000 N   0  0  0  0  0  0           0  0  0
    3.1292   -2.4667    0.0000 C   0  0  0  0  0  0           0  0  0
   -0.3208   -2.4625    0.0000 C   0  0  0  0  0  0           0  0  0
    2.8667    0.2833    0.0000 O   0  0  0  0  0  0           0  0  0
   -0.0458    0.2875    0.0000 O   0  0  0  0  0  0           0  0  0
   -0.8958   -1.1500    0.0000 C   0  0  0  0  0  0           0  0  0
    3.7125   -1.1625    0.0000 C   0  0  0  0  0  0           0  0  0
   -1.0708   -2.7917    0.0000 C   0  0  0  0  0  0           0  0  0
    3.8875   -2.8042    0.0000 C   0  0  0  0  0  0           0  0  0
    4.4667   -1.4917    0.0000 C   0  0  0  0  0  0           0  0  0
   -1.6500   -1.4792    0.0000 C   0  0  0  0  0  0           0  0  0
    4.5542   -2.3167    0.0000 C   0  0  0  0  0  0           0  0  0
   -1.7375   -2.3125    0.0000 C   0  0  0  0  0  0           0  0  0
  2  1  2  0     0  0
  3  2  1  0     0  0
  4  1  1  0     0  0
  5  2  1  0     0  0
  6  1  1  0     0  0
  7  6  1  0     0  0
  8  3  2  0     0  0
  9  4  2  0     0  0
 10  4  1  0     0  0
 11  3  1  0     0  0
 12  9  1  0     0  0
 13  8  1  0     0  0
 14 11  2  0     0  0
 15 10  2  0     0  0
 16  5  2  0     0  0
 17  6  2  0     0  0
 18 10  1  0     0  0
 19 11  1  0     0  0
 20 15  1  0     0  0
 21 14  1  0     0  0
 22 19  2  0     0  0
 23 18  2  0     0  0
 24 22  1  0     0  0
 25 23  1  0     0  0
  5  7  1  0     0  0
 15 12  1  0     0  0
 13 14  1  0     0  0
 25 20  2  0     0  0
 21 24  2  0     0  0
M  END