
          11280714532D 1   1.00000     0.00000     0

 21 23  0     0  0            999 V2000
    2.3500   -2.5375    0.0000 C   0  0  0  0  0  0           0  0  0
    2.8375   -3.2042    0.0000 N   0  0  3  0  0  0           0  0  0
    3.6167   -2.1167    0.0000 C   0  0  0  0  0  0           0  0  0
    2.8292   -1.8667    0.0000 C   0  0  3  0  0  0           0  0  0
    6.4750   -2.1125    0.0000 N   0  0  0  0  0  0           0  0  0
    3.6167   -2.9417    0.0000 C   0  0  0  0  0  0           0  0  0
    5.7625   -1.7000    0.0000 C   0  0  0  0  0  0           0  0  0
    7.1875   -1.7000    0.0000 N   0  0  0  0  0  0           0  0  0
    4.3292   -1.7042    0.0000 C   0  0  0  0  0  0           0  0  0
    5.0500   -2.1167    0.0000 C   0  0  0  0  0  0           0  0  0
    7.1875   -0.8750    0.0000 C   0  0  0  0  0  0           0  0  0
    5.7542   -0.8750    0.0000 C   0  0  3  0  0  0           0  0  0
    4.3292   -3.3542    0.0000 C   0  0  0  0  0  0           0  0  0
    1.5250   -2.5417    0.0000 O   0  0  0  0  0  0           0  0  0
    6.4667   -0.4625    0.0000 C   0  0  0  0  0  0           0  0  0
    5.0500   -2.9417    0.0000 C   0  0  0  0  0  0           0  0  0
    7.9000   -0.4542    0.0000 O   0  0  0  0  0  0           0  0  0
    2.6167   -4.0000    0.0000 C   0  0  0  0  0  0           0  0  0
    3.2417   -1.1542    0.0000 C   0  0  0  0  0  0           0  0  0
    2.2417   -1.2792    0.0000 C   0  0  0  0  0  0           0  0  0
    5.0375   -0.4667    0.0000 C   0  0  0  0  0  0           0  0  0
  2  1  1  0     0  0
  3  4  1  0     0  0
  4  1  1  0     0  0
  5  7  2  0     0  0
  6  2  1  0     0  0
  7 10  1  0     0  0
  8  5  1  0     0  0
  9  3  1  0     0  0
 10  9  2  0     0  0
 11 15  1  0     0  0
 12  7  1  0     0  0
 13  6  1  0     0  0
 14  1  2  0     0  0
 15 12  1  0     0  0
 16 13  2  0     0  0
 17 11  2  0     0  0
 18  2  1  0     0  0
  4 19  1  0     0  0
  4 20  1  0     0  0
 21 12  1  0     0  0
  6  3  2  0     0  0
 16 10  1  0     0  0
  8 11  1  0     0  0
M  END