
  SciTegic09171211542D

 35 37  0  0  0  0            999 V2000
   20.5050  -13.0328    0.0000 C   0  0
   21.2205  -12.6201    0.0000 C   0  0
   21.9330  -13.0346    0.0000 C   0  0
   21.9303  -13.8605    0.0000 C   0  0
   21.2092  -14.2701    0.0000 C   0  0
   20.4998  -13.8532    0.0000 C   0  0
   22.6426  -14.2766    0.0000 C   0  0
   22.6384  -15.1016    0.0000 C   0  0
   23.3508  -15.5147    0.0000 C   0  0
   21.9219  -15.5054    0.0000 C   0  0
   24.0681  -15.1056    0.0000 O   0  0
   23.3486  -16.3333    0.0000 O   0  0
   21.9100  -16.3268    0.0000 O   0  0
   21.2114  -15.0855    0.0000 O   0  0
   19.7919  -12.6179    0.0000 C   0  0
   12.6497  -14.2985    0.0000 C   0  0
   13.3662  -13.8852    0.0000 C   0  0
   13.3633  -13.0547    0.0000 C   0  0
   12.6479  -12.6455    0.0000 C   0  0
   11.9349  -13.8857    0.0000 C   0  0
   11.9361  -13.0567    0.0000 C   0  0
   11.1482  -12.7994    0.0000 S   0  0
   10.6599  -13.4693    0.0000 C   0  0
   11.1462  -14.1406    0.0000 N   0  0
   14.0762  -12.6395    0.0000 N   0  0
   14.7922  -13.0493    0.0000 C   0  0
   15.5052  -12.6341    0.0000 C   0  0
   14.7954  -13.8743    0.0000 O   0  0
   16.2212  -13.0439    0.0000 C   0  0
   16.9341  -12.6287    0.0000 N   0  0
   17.6501  -13.0385    0.0000 C   0  0
   18.3630  -12.6233    0.0000 C   0  0
   17.6532  -13.8635    0.0000 O   0  0
   19.0790  -13.0331    0.0000 C   0  0
    9.8349  -13.4681    0.0000 C   0  0
 17 18  1  0
  8  9  1  0
 18 19  2  0
 19 21  1  0
 20 21  2  0
  4  5  1  0
  8 10  1  0
  2  3  1  0
  5  6  2  0
  9 11  1  0
 21 22  1  0
 22 23  1  0
 23 24  2  0
 24 20  1  0
  9 12  2  0
 18 25  1  0
  6  1  1  0
 25 26  1  0
  1  2  2  0
 26 27  1  0
 10 13  1  0
 26 28  2  0
 10 14  2  0
 27 29  1  0
  4  7  1  0
 29 30  1  0
  1 15  1  0
 30 31  1  0
  3  4  2  0
 31 32  1  0
 20 16  1  0
 31 33  2  0
  7  8  1  0
 32 34  1  0
 34 15  1  0
 16 17  2  0
 23 35  1  0
M  END