
  SciTegic04091415032D

 12 13  0  0  0  0            999 V2000
   11.3529   -4.4951    0.0000 C   0  0
   11.3517   -5.3215    0.0000 C   0  0
   12.0658   -5.7340    0.0000 N   0  0
   12.7814   -5.3210    0.0000 C   0  0
   12.7786   -4.4915    0.0000 C   0  0
   12.0640   -4.0827    0.0000 N   0  0
   10.6392   -4.0827    0.0000 C   0  0
   10.6442   -3.2583    0.0000 N   0  0
    9.8608   -2.9997    0.0000 N   0  0
    9.3737   -3.6659    0.0000 C   0  0
    9.8578   -4.3340    0.0000 N   0  0
   13.4907   -4.0767    0.0000 Cl  0  0
  1  2  2  0
  2  3  1  0
  3  4  2  0
  4  5  1  0
  5  6  2  0
  6  1  1  0
  8  9  1  0
  7  8  2  0
  9 10  1  0
 10 11  2  0
 11  7  1  0
  1  7  1  0
  5 12  1  0
M  END