
          11280715142D 1   1.00000     0.00000     0

 42 46  0     1  0            999 V2000
    1.9292   -2.5917    0.0000 C   0  0  2  0  0  0           0  0  0
    2.3417   -3.3042    0.0000 C   0  0  1  0  0  0           0  0  0
    1.9125   -0.7292    0.0000 N   0  0  3  0  0  0           0  0  0
    1.2750   -2.0792    0.0000 C   0  0  0  0  0  0           0  0  0
    1.2750   -1.2542    0.0000 C   0  0  0  0  0  0           0  0  0
    2.1292   -4.8167    0.0000 C   0  0  0  0  0  0           0  0  0
    2.7417   -2.4042    0.0000 N   0  0  0  0  0  0           0  0  0
    1.3417   -3.1792    0.0000 C   0  0  0  0  0  0           0  0  0
    2.7250   -0.9042    0.0000 C   0  0  0  0  0  0           0  0  0
    3.1375   -3.5167    0.0000 C   0  0  0  0  0  0           0  0  0
    1.9250   -4.0167    0.0000 O   0  0  0  0  0  0           0  0  0
    1.5500   -5.3917    0.0000 N   0  0  0  0  0  0           0  0  0
    2.9250   -5.0250    0.0000 N   0  0  0  0  0  0           0  0  0
    0.5417   -2.9542    0.0000 C   0  0  0  0  0  0           0  0  0
    1.6625    0.0583    0.0000 C   0  0  0  0  0  0           0  0  0
    3.0917   -1.6542    0.0000 C   0  0  0  0  0  0           0  0  0
   -0.0458   -3.5292    0.0000 C   0  0  0  0  0  0           0  0  0
    3.1417   -5.8167    0.0000 C   0  0  0  0  0  0           0  0  0
    1.7625   -6.1917    0.0000 C   0  0  0  0  0  0           0  0  0
    0.1625   -4.3292    0.0000 C   0  0  0  0  0  0           0  0  0
    1.5542   -3.9750    0.0000 C   0  0  0  0  0  0           0  0  0
    2.5542   -6.4042    0.0000 C   0  0  0  0  0  0           0  0  0
    3.2292   -0.2542    0.0000 O   0  0  0  0  0  0           0  0  0
    3.3500   -4.3167    0.0000 O   0  0  0  0  0  0           0  0  0
    0.9542   -4.5542    0.0000 C   0  0  0  0  0  0           0  0  0
    2.2167    0.6708    0.0000 C   0  0  0  0  0  0           0  0  0
    3.9292   -3.3042    0.0000 O   0  0  0  0  0  0           0  0  0
    0.5542   -2.4917    0.0000 C   0  0  0  0  0  0           0  0  0
   -0.4333   -4.9042    0.0000 F   0  0  0  0  0  0           0  0  0
    3.3250    1.8958    0.0000 C   0  0  0  0  0  0           0  0  0
    0.5542   -0.8417    0.0000 C   0  0  0  0  0  0           0  0  0
    3.0167    0.4958    0.0000 C   0  0  0  0  0  0           0  0  0
    1.9625    1.4458    0.0000 C   0  0  0  0  0  0           0  0  0
    2.5042    2.0583    0.0000 C   0  0  0  0  0  0           0  0  0
    3.5750    1.1000    0.0000 C   0  0  0  0  0  0           0  0  0
    3.8792    2.5000    0.0000 O   0  0  0  0  0  0           0  0  0
   -0.8375   -3.3042    0.0000 C   0  0  0  0  0  0           0  0  0
    3.9375   -6.0292    0.0000 C   0  0  0  0  0  0           0  0  0
    1.1792   -6.7750    0.0000 C   0  0  0  0  0  0           0  0  0
    3.6250    3.2833    0.0000 C   0  0  0  0  0  0           0  0  0
   -0.1583   -2.0792    0.0000 C   0  0  0  0  0  0           0  0  0
   -0.1583   -1.2542    0.0000 C   0  0  0  0  0  0           0  0  0
  2  1  1  0     0  0
  3  5  1  0     0  0
  4  1  1  0     0  0
  5  4  1  0     0  0
  6 11  1  0     0  0
  7  1  1  0     0  0
  1  8  1  1     0  0
  9 16  1  0     0  0
 10  2  1  0     0  0
  2 11  1  1     0  0
 12  6  2  0     0  0
 13  6  1  0     0  0
 14  8  1  0     0  0
 15  3  1  0     0  0
 16  7  1  0     0  0
 17 14  2  0     0  0
 18 13  2  0     0  0
 19 12  1  0     0  0
 20 25  2  0     0  0
 21  8  2  0     0  0
 22 18  1  0     0  0
 23  9  2  0     0  0
 24 10  2  0     0  0
 25 21  1  0     0  0
 26 15  1  0     0  0
 27 10  1  0     0  0
 28  4  2  0     0  0
 29 20  1  0     0  0
 30 34  1  0     0  0
 31  5  2  0     0  0
 32 26  2  0     0  0
 33 26  1  0     0  0
 34 33  2  0     0  0
 35 32  1  0     0  0
 36 30  1  0     0  0
 37 17  1  0     0  0
 38 18  1  0     0  0
 39 19  1  0     0  0
 40 36  1  0     0  0
 41 28  1  0     0  0
 42 41  2  0     0  0
  3  9  1  0     0  0
 17 20  1  0     0  0
 31 42  1  0     0  0
 19 22  2  0     0  0
 35 30  2  0     0  0
M  END