
  CDK    9/16/09,10:2

 78 82  0  0  0  0  0  0  0  0999 V2000
    8.4649   -1.0996    0.0000 C   0  0  0  0  0  0  0  0  0  0  0  0
    9.1981   -2.3270    0.0000 O   0  0  0  0  0  0  0  0  0  0  0  0
    9.1858   -1.5033    0.0000 C   0  0  0  0  0  0  0  0  0  0  0  0
    8.4526   -0.2744    0.0000 C   0  0  0  0  0  0  0  0  0  0  0  0
    9.1620    0.1510    0.0000 C   0  0  0  0  0  0  0  0  0  0  0  0
    9.1498    0.9736    0.0000 C   0  0  0  0  0  0  0  0  0  0  0  0
    9.8552    1.3967    0.0000 O   0  0  0  0  0  0  0  0  0  0  0  0
   10.6116   -1.4799    0.0000 C   0  0  0  0  0  0  0  0  0  0  0  0
   11.3008   -0.2362    0.0000 O   0  0  0  0  0  0  0  0  0  0  0  0
   11.3139   -1.0586    0.0000 C   0  0  0  0  0  0  0  0  0  0  0  0
   12.7434   -1.0345    0.0000 C   0  0  0  0  0  0  0  0  0  0  0  0
   13.4764   -2.2653    0.0000 O   0  0  0  0  0  0  0  0  0  0  0  0
   13.4680   -1.4373    0.0000 C   0  0  0  0  0  0  0  0  0  0  0  0
   12.7306   -0.2123    0.0000 C   0  0  0  0  0  0  0  0  0  0  0  0
   13.4431    0.2149    0.0000 C   0  0  0  0  0  0  0  0  0  0  0  0
   13.4303    1.0371    0.0000 C   0  0  0  0  0  0  0  0  0  0  0  0
   14.1605   -0.1921    0.0000 C   0  0  0  0  0  0  0  0  0  0  0  0
   14.8929   -1.4174    0.0000 C   0  0  0  0  0  0  0  0  0  0  0  0
   15.5775   -0.1727    0.0000 O   0  0  0  0  0  0  0  0  0  0  0  0
   15.5932   -0.9975    0.0000 C   0  0  0  0  0  0  0  0  0  0  0  0
   14.9085   -2.2412    0.0000 C   0  0  0  0  0  0  0  0  0  0  0  0
    6.3291   -1.5419    0.0000 C   0  0  0  0  0  0  0  0  0  0  0  0
    7.0362   -1.1179    0.0000 C   0  0  0  0  0  0  0  0  0  0  0  0
    7.0239   -0.2923    0.0000 O   0  0  0  0  0  0  0  0  0  0  0  0
    6.3414   -2.3687    0.0000 C   0  0  0  0  0  0  0  0  0  0  0  0
    7.0606   -2.7672    0.0000 C   0  0  0  0  0  0  0  0  0  0  0  0
    7.0654   -3.5947    0.0000 C   0  0  0  0  0  0  0  0  0  0  0  0
    7.7943   -3.9965    0.0000 C   0  0  0  0  0  0  0  0  0  0  0  0
    8.5012   -3.5721    0.0000 C   0  0  0  0  0  0  0  0  0  0  0  0
    8.4839   -2.7421    0.0000 C   0  0  0  0  0  0  0  0  0  0  0  0
    7.7619   -2.3448    0.0000 C   0  0  0  0  0  0  0  0  0  0  0  0
    9.2219   -3.9716    0.0000 O   0  0  0  0  0  0  0  0  0  0  0  0
    9.2342   -4.7976    0.0000 P   0  0  0  0  0  0  0  0  0  0  0  0
    8.4124   -4.8098    0.0000 O   0  0  0  0  0  0  0  0  0  0  0  0
    7.7558   -1.5213    0.0000 N   0  0  0  0  0  0  0  0  0  0  0  0
    8.4308    1.3768    0.0000 N   0  0  0  0  0  0  0  0  0  0  0  0
    9.8919   -1.0765    0.0000 N   0  0  0  0  0  0  0  0  0  0  0  0
   12.0359   -1.4588    0.0000 N   0  0  0  0  0  0  0  0  0  0  0  0
   14.1756   -1.0129    0.0000 N   0  0  0  0  0  0  0  0  0  0  0  0
   15.6335   -2.6471    0.0000 O   0  0  0  0  0  0  0  0  0  0  0  0
   16.3208   -1.3993    0.0000 N   0  0  0  0  0  0  0  0  0  0  0  0
    5.6094   -1.1385    0.0000 N   0  0  0  0  0  0  0  0  0  0  0  0
    9.2468   -5.6214    0.0000 O   0  0  0  0  0  0  0  0  0  0  0  0
   10.0652   -4.7849    0.0000 O   0  0  0  0  0  0  0  0  0  0  0  0
   -1.9761   -0.1085    0.0000 C   0  0  0  0  0  0  0  0  0  0  0  0
   -2.5025   -0.7421    0.0000 C   0  0  0  0  0  0  0  0  0  0  0  0
   -2.2163   -1.5152    0.0000 C   0  0  0  0  0  0  0  0  0  0  0  0
   -1.4066   -1.6608    0.0000 C   0  0  0  0  0  0  0  0  0  0  0  0
   -1.1206   -2.4335    0.0000 C   0  0  0  0  0  0  0  0  0  0  0  0
   -2.7578   -2.1462    0.0000 O   0  0  0  0  0  0  0  0  0  0  0  0
   -2.4695   -2.9258    0.0000 C   0  0  0  0  0  0  0  0  0  0  0  0
   -1.6583   -3.0688    0.0000 C   0  0  0  0  0  0  0  0  0  0  0  0
   -1.3746   -3.8405    0.0000 C   0  0  0  0  0  0  0  0  0  0  0  0
   -1.9060   -4.4738    0.0000 C   0  0  0  0  0  0  0  0  0  0  0  0
   -2.7176   -4.3278    0.0000 C   0  0  0  0  0  0  0  0  0  0  0  0
   -2.9968   -3.5522    0.0000 C   0  0  0  0  0  0  0  0  0  0  0  0
   -2.2574    0.6642    0.0000 O   0  0  0  0  0  0  0  0  0  0  0  0
   -0.1105   -2.7997    0.0000 C   0  0  0  0  0  0  0  0  0  0  0  0
    0.6087   -2.3847    0.0000 C   0  0  0  0  0  0  0  0  0  0  0  0
    1.3145   -3.6256    0.0000 C   0  0  0  0  0  0  0  0  0  0  0  0
    0.5980   -4.0360    0.0000 C   0  0  0  0  0  0  0  0  0  0  0  0
   -0.1145   -3.6245    0.0000 C   0  0  0  0  0  0  0  0  0  0  0  0
    2.0291   -4.0398    0.0000 N   0  0  0  0  0  0  0  0  0  0  0  0
    2.7437   -4.4498    0.0000 C   0  0  0  0  0  0  0  0  0  0  0  0
    3.4583   -4.8640    0.0000 S   0  0  0  0  0  0  0  0  0  0  0  0
    0.6087   -1.5579    0.0000 C   0  0  0  0  0  0  0  0  0  0  0  0
   -0.8752   -1.0237    0.0000 C   0  0  0  0  0  0  0  0  0  0  0  0
   -0.1074   -1.1471    0.0000 O   0  0  0  0  0  0  0  0  0  0  0  0
   -1.1557   -0.2541    0.0000 C   0  0  0  0  0  0  0  0  0  0  0  0
    1.3146   -2.7963    0.0000 C   0  0  0  0  0  0  0  0  0  0  0  0
   -3.2522   -4.9596    0.0000 O   0  0  0  0  0  0  0  0  0  0  0  0
    1.3226   -1.1444    0.0000 N   0  0  0  0  0  0  0  0  0  0  0  0
    2.0376   -1.5560    0.0000 C   0  0  0  0  0  0  0  0  0  0  0  0
    2.7515   -1.1425    0.0000 C   0  0  0  0  0  0  0  0  0  0  0  0
    3.4666   -1.5540    0.0000 C   0  0  0  0  0  0  0  0  0  0  0  0
    4.1805   -1.1405    0.0000 C   0  0  0  0  0  0  0  0  0  0  0  0
    4.8955   -1.5520    0.0000 C   0  0  0  0  0  0  0  0  0  0  0  0
    4.8967   -2.3770    0.0000 O   0  0  0  0  0  0  0  0  0  0  0  0
 37  8  1  0  0  0  0 
  3 37  1  0  0  0  0 
 20 41  1  0  0  0  0 
 42 22  1  0  0  0  0 
 38 11  1  0  0  0  0 
 10 38  1  0  0  0  0 
 33 43  1  0  0  0  0 
  6 36  1  0  0  0  0 
 33 44  1  0  0  0  0 
 39 18  1  0  0  0  0 
 13 39  1  0  0  0  0 
  6  7  2  0  0  0  0 
  8 10  1  0  0  0  0 
 10  9  2  0  0  0  0 
 11 13  1  0  0  0  0 
 13 12  2  0  0  0  0 
 11 14  1  1  0  0  0 
 14 15  1  0  0  0  0 
 15 16  1  0  0  0  0 
 15 17  1  0  0  0  0 
 18 20  1  0  0  0  0 
 20 19  2  0  0  0  0 
 18 21  1  6  0  0  0 
 22 23  1  0  0  0  0 
 23 24  2  0  0  0  0 
 22 25  1  6  0  0  0 
 25 26  1  0  0  0  0 
 26 27  2  0  0  0  0 
 27 28  1  0  0  0  0 
 28 29  2  0  0  0  0 
 29 30  1  0  0  0  0 
 30 31  2  0  0  0  0 
 31 26  1  0  0  0  0 
 29 32  1  0  0  0  0 
 32 33  1  0  0  0  0 
 33 34  2  0  0  0  0 
  1  3  1  0  0  0  0 
 45 69  1  0  0  0  0 
 69 67  2  0  0  0  0 
 67 48  1  0  0  0  0 
 47 46  2  0  0  0  0 
 46 45  1  0  0  0  0 
 47 48  1  0  0  0  0 
 47 50  1  0  0  0  0 
 48 49  2  0  0  0  0 
 49 52  1  0  0  0  0 
 51 50  1  0  0  0  0 
 51 52  2  0  0  0  0 
 52 53  1  0  0  0  0 
 53 54  2  0  0  0  0 
 54 55  1  0  0  0  0 
 55 56  2  0  0  0  0 
 56 51  1  0  0  0  0 
 45 57  2  0  0  0  0 
 58 59  2  0  0  0  0 
 59 70  1  0  0  0  0 
 70 60  2  0  0  0  0 
 60 61  1  0  0  0  0 
 61 62  2  0  0  0  0 
 62 58  1  0  0  0  0 
 49 58  1  0  0  0  0 
 60 63  1  0  0  0  0 
 63 64  2  0  0  0  0 
 64 65  2  0  0  0  0 
 59 66  1  0  0  0  0 
 66 68  2  0  0  0  0 
 55 71  1  0  0  0  0 
  3  2  2  0  0  0  0 
 66 72  1  0  0  0  0 
  1  4  1  1  0  0  0 
 72 73  1  0  0  0  0 
  4  5  1  0  0  0  0 
 73 74  1  0  0  0  0 
  5  6  1  0  0  0  0 
 74 75  1  0  0  0  0 
 23 35  1  0  0  0  0 
 75 76  1  0  0  0  0 
 35  1  1  0  0  0  0 
 76 77  1  0  0  0  0 
 77 42  1  0  0  0  0 
 21 40  1  0  0  0  0 
 77 78  2  0  0  0  0 
M  END