
          11280715202D 1   1.00000     0.00000     0

 26 28  0     0  0            999 V2000
    3.3292   -3.7042    0.0000 C   0  0  0  0  0  0           0  0  0
    4.0500   -4.1167    0.0000 C   0  0  0  0  0  0           0  0  0
    3.3292   -2.8792    0.0000 C   0  0  0  0  0  0           0  0  0
    9.7667   -4.9375    0.0000 C   0  0  0  0  0  0           0  0  0
    4.0500   -4.9500    0.0000 C   0  0  0  0  0  0           0  0  0
    2.6167   -4.1250    0.0000 C   0  0  0  0  0  0           0  0  0
    9.7625   -4.1125    0.0000 C   0  0  0  0  0  0           0  0  0
   10.5542   -5.1875    0.0000 O   0  0  0  0  0  0           0  0  0
   10.5417   -3.8500    0.0000 O   0  0  0  0  0  0           0  0  0
   11.0375   -4.5042    0.0000 C   0  0  0  0  0  0           0  0  0
    9.0542   -5.3542    0.0000 C   0  0  0  0  0  0           0  0  0
    4.0417   -2.4667    0.0000 O   0  0  0  0  0  0           0  0  0
    8.3375   -4.9417    0.0000 C   0  0  0  0  0  0           0  0  0
    3.3292   -5.3625    0.0000 C   0  0  0  0  0  0           0  0  0
    6.1917   -5.3542    0.0000 N   0  0  0  0  0  0           0  0  0
    2.6167   -4.9500    0.0000 C   0  0  0  0  0  0           0  0  0
    5.4792   -4.9417    0.0000 C   0  0  0  0  0  0           0  0  0
    4.7667   -5.3625    0.0000 C   0  0  3  0  0  0           0  0  0
    9.0500   -3.7042    0.0000 C   0  0  0  0  0  0           0  0  0
    2.6167   -2.4750    0.0000 N   0  0  0  0  0  0           0  0  0
    7.6250   -5.3542    0.0000 C   0  0  0  0  0  0           0  0  0
    8.3417   -4.1167    0.0000 C   0  0  0  0  0  0           0  0  0
    1.9042   -3.7125    0.0000 O   0  0  0  0  0  0           0  0  0
    4.7667   -6.1875    0.0000 O   0  0  0  0  0  0           0  0  0
    6.9042   -4.9417    0.0000 C   0  0  3  0  0  0           0  0  0
    6.9042   -4.1167    0.0000 C   0  0  0  0  0  0           0  0  0
  2  1  2  0     0  0
  3  1  1  0     0  0
  4 11  2  0     0  0
  5  2  1  0     0  0
  6  1  1  0     0  0
  7 19  2  0     0  0
  8  4  1  0     0  0
  9  7  1  0     0  0
 10  8  1  0     0  0
 11 13  1  0     0  0
 12  3  2  0     0  0
 13 21  1  0     0  0
 14 16  1  0     0  0
 15 17  1  0     0  0
 16  6  2  0     0  0
 17 18  1  0     0  0
 18  5  1  0     0  0
 19 22  1  0     0  0
 20  3  1  0     0  0
 21 25  1  0     0  0
 22 13  2  0     0  0
 23  6  1  0     0  0
 24 18  1  0     0  0
 25 15  1  0     0  0
 26 25  1  0     0  0
  5 14  2  0     0  0
  7  4  1  0     0  0
  9 10  1  0     0  0
M  END