
          11280714442D 1   1.00000     0.00000     0

 13 14  0     0  0            999 V2000
    5.3167   -3.1542    0.0000 N   0  0  3  0  0  0           0  0  0
    4.7167   -3.1625    0.0000 C   0  0  0  0  0  0           0  0  0
    6.5167   -3.1625    0.0000 N   0  0  0  0  0  0           0  0  0
    4.4167   -2.6417    0.0000 C   0  0  0  0  0  0           0  0  0
    4.8417   -2.2167    0.0000 Cl  0  0  0  0  0  0           0  0  0
    5.6167   -2.6417    0.0000 C   0  0  0  0  0  0           0  0  0
    5.6167   -3.6792    0.0000 C   0  0  0  0  0  0           0  0  0
    6.2167   -3.6792    0.0000 C   0  0  0  0  0  0           0  0  0
    6.2167   -2.6417    0.0000 C   0  0  0  0  0  0           0  0  0
    4.4167   -3.6792    0.0000 C   0  0  0  0  0  0           0  0  0
    3.8167   -2.6417    0.0000 C   0  0  0  0  0  0           0  0  0
    3.8167   -3.6792    0.0000 C   0  0  0  0  0  0           0  0  0
    3.5167   -3.1625    0.0000 C   0  0  0  0  0  0           0  0  0
  2  1  1  0     0  0
  3  8  1  0     0  0
  4  2  1  0     0  0
  5  4  1  0     0  0
  6  1  1  0     0  0
  7  1  1  0     0  0
  8  7  1  0     0  0
  9  6  1  0     0  0
 10  2  2  0     0  0
 11  4  2  0     0  0
 12 10  1  0     0  0
 13 12  2  0     0  0
  3  9  1  0     0  0
 13 11  1  0     0  0
M  END