
  SciTegic12151613582D

 25 26  0  0  0  0            999 V2000
    2.5973   -1.5031    0.0000 C   0  0
    1.2990   -0.7500    0.0000 C   0  0
    1.2990    0.7500    0.0000 C   0  0
    0.0000    1.5000    0.0000 C   0  0
   -1.2990    0.7500    0.0000 C   0  0
   -1.2990   -0.7500    0.0000 C   0  0
    0.0000   -1.5000    0.0000 C   0  0
    2.5956   -2.7031    0.0000 O   0  0
    3.6375   -0.9049    0.0000 O   0  0
   -0.0031    3.0008    0.0000 C   0  0
   -1.3039    3.7494    0.0000 N   0  0
    1.0351    3.6026    0.0000 O   0  0
   -1.3070    5.2502    0.0000 C   0  0
   -2.6061    6.0003    0.0000 C   0  0
   -2.6061    7.5003    0.0000 C   0  0
   -1.3071    8.2503    0.0000 C   0  0
   -0.0080    7.5003    0.0000 C   0  0
   -0.0080    6.0003    0.0000 C   0  0
    1.2933    8.2481    0.0000 C   0  0
    2.5920    7.4959    0.0000 N   0  0
    1.2953    9.4481    0.0000 O   0  0
    3.6324    8.0938    0.0000 C   0  0
   -3.9074    5.2525    0.0000 O   0  0
   -5.2061    6.0048    0.0000 C   0  0
   -6.2465    5.4070    0.0000 C   0  0
  1  2  1  0
  2  3  1  0
  3  4  2  0
  4  5  1  0
  5  6  2  0
  6  7  1  0
  2  7  2  0
  1  8  2  0
  1  9  1  0
 10 11  1  0
 10 12  2  0
 13 14  1  0
 14 15  2  0
 15 16  1  0
 16 17  2  0
 17 18  1  0
 13 18  2  0
 19 20  1  0
 19 21  2  0
 20 22  1  0
 17 19  1  0
 24 25  1  0
 23 24  1  0
 14 23  1  0
 11 13  1  0
  4 10  1  0
M  END