
          08180812482D 1   1.00000     0.00000     0

 25 26  0     0  0            999 V2000
   -2.5723   -4.5000    0.0000 N   0  0  0  0  0  0           0  0  0
   -2.5734   -5.3273    0.0000 C   0  0  0  0  0  0           0  0  0
   -1.8586   -5.7402    0.0000 C   0  0  0  0  0  0           0  0  0
   -1.8604   -4.0872    0.0000 C   0  0  0  0  0  0           0  0  0
   -1.1450   -4.4963    0.0000 C   0  0  0  0  0  0           0  0  0
   -1.1448   -5.3274    0.0000 C   0  0  0  0  0  0           0  0  0
   -0.3887   -4.1670    0.0000 C   0  0  0  0  0  0           0  0  0
    0.2748   -4.6573    0.0000 N   0  3  0  0  0  0           0  0  0
    0.2652   -5.4815    0.0000 C   0  0  0  0  0  0           0  0  0
    1.0477   -5.7428    0.0000 S   0  0  0  0  0  0           0  0  0
    1.5381   -5.0793    0.0000 C   0  0  0  0  0  0           0  0  0
    1.0585   -4.4080    0.0000 C   0  0  0  0  0  0           0  0  0
    1.3190   -3.6252    0.0000 C   0  0  0  0  0  0           0  0  0
    2.3630   -5.0859    0.0000 C   0  0  0  0  0  0           0  0  0
    2.7698   -5.8036    0.0000 C   0  0  0  0  0  0           0  0  0
    3.5948   -5.8102    0.0000 O   0  0  0  0  0  0           0  0  0
   -1.8629   -3.2622    0.0000 N   0  0  0  0  0  0           0  0  0
   -3.2882   -5.7393    0.0000 C   0  0  3  0  0  0           0  0  0
   -4.0083   -6.1458    0.0000 F   0  0  0  0  0  0           0  0  0
   -2.8794   -6.4559    0.0000 F   0  0  0  0  0  0           0  0  0
   -3.6953   -5.0217    0.0000 F   0  0  0  0  0  0           0  0  0
   -0.6342   -5.6228    0.0000 C   0  0  3  0  0  0           0  0  0
    0.0750   -6.0333    0.0000 F   0  0  0  0  0  0           0  0  0
   -0.2216   -4.9085    0.0000 F   0  0  0  0  0  0           0  0  0
   -1.0422   -6.3399    0.0000 F   0  0  0  0  0  0           0  0  0
 12  8  1  0     0  0
  2  3  1  0     0  0
 12 13  1  0     0  0
  3  6  2  0     0  0
 11 14  1  0     0  0
  5  7  1  0     0  0
 14 15  1  0     0  0
  1  2  2  0     0  0
 15 16  1  0     0  0
  7  8  1  0     0  0
  4 17  1  0     0  0
  8  9  2  0     0  0
  2 18  1  0     0  0
  5  4  2  0     0  0
 18 19  1  0     0  0
  4  1  1  0     0  0
 18 20  1  0     0  0
  5  6  1  0     0  0
 18 21  1  0     0  0
  6 22  1  0     0  0
  9 10  1  0     0  0
 22 23  1  0     0  0
 10 11  1  0     0  0
 22 24  1  0     0  0
 11 12  2  0     0  0
 22 25  1  0     0  0
M  CHG  1   8   1
M  END