
  SciTegic01181116592D

 37 39  0  0  0  0            999 V2000
   11.9903   -3.2174    0.0000 N   0  0
   -0.2529   -4.6933    0.0000 C   0  0
   -0.6741   -5.4055    0.0000 C   0  0
   -0.2680   -6.1241    0.0000 C   0  0
    0.5591   -6.1319    0.0000 C   0  0
    0.9785   -5.4150    0.0000 C   0  0
    0.5700   -4.6992    0.0000 C   0  0
    0.9872   -3.9876    0.0000 N   0  0
    1.8082   -3.9064    0.0000 N   0  0
    1.9846   -3.1005    0.0000 C   0  0
    1.2726   -2.6836    0.0000 C   0  0
    0.6563   -3.2319    0.0000 C   0  0
   -0.1641   -3.2336    0.0000 C   0  0
   -0.5766   -2.5178    0.0000 C   0  0
   -1.4008   -2.5180    0.0000 C   0  0
   -1.8136   -3.2334    0.0000 C   0  0
   -1.3961   -3.9499    0.0000 C   0  0
   -0.5732   -3.9461    0.0000 C   0  0
    1.1914   -1.8626    0.0000 C   0  0
    2.7043   -2.6965    0.0000 C   0  0
    3.4139   -3.1174    0.0000 N   0  0
    2.7140   -1.8716    0.0000 O   0  0
    1.8034   -5.4194    0.0000 Cl  0  0
   -0.6871   -6.8347    0.0000 Cl  0  0
   -2.6386   -3.2351    0.0000 Cl  0  0
    4.1331   -2.7134    0.0000 C   0  0
    4.8427   -3.1343    0.0000 C   0  0
    5.5620   -2.7302    0.0000 C   0  0
    6.2715   -3.1511    0.0000 C   0  0
    6.9908   -2.7470    0.0000 C   0  0
    7.7004   -3.1679    0.0000 N   0  0
    8.4197   -2.7639    0.0000 C   0  0
    9.1292   -3.1848    0.0000 C   0  0
    9.8485   -2.7807    0.0000 C   0  0
   10.5581   -3.2016    0.0000 C   0  0
   11.2774   -2.7976    0.0000 C   0  0
    7.6907   -3.9929    0.0000 C   0  0
 12 13  1  0
  5  6  1  0
 11 19  1  0
  3  4  1  0
 10 20  1  0
  9 10  2  0
 20 21  1  0
 10 11  1  0
 20 22  2  0
 11 12  2  0
  6 23  1  0
 12  8  1  0
  4 24  1  0
  7  8  1  0
 16 25  1  0
  6  7  2  0
 21 26  1  0
  7  2  1  0
 26 27  1  0
 13 14  2  0
 27 28  1  0
  8  9  1  0
 28 29  1  0
 14 15  1  0
 29 30  1  0
  2  3  2  0
 30 31  1  0
 15 16  2  0
 31 32  1  0
  4  5  2  0
 32 33  1  0
 16 17  1  0
 33 34  1  0
 34 35  1  0
 17 18  2  0
 35 36  1  0
 36  1  1  0
 18 13  1  0
 31 37  1  0
M  END