
  SciTegic05061409512D

 20 23  0  0  0  0            999 V2000
   11.9814   -6.4211    0.0000 C   0  0
   11.9823   -7.6660    0.0000 C   0  0
   11.2635   -7.6653    0.0000 C   0  0
    9.7723   -5.0921    0.0000 C   0  0
   10.1885   -5.8054    0.0000 C   0  0
    9.8278   -6.4253    0.0000 N   0  0
    8.9471   -5.0951    0.0000 C   0  0
   10.9054   -7.0437    0.0000 C   0  0
   12.3414   -7.0401    0.0000 C   0  0
   10.9073   -5.7944    0.0000 N   0  0
   11.2664   -6.4219    0.0000 C   0  0
    7.7291   -6.0444    0.0000 C   0  0
    8.5162   -7.1272    0.0000 N   0  0
    8.5142   -5.7882    0.0000 N   0  0
    7.0147   -7.2896    0.0000 C   0  0
    6.2991   -6.8762    0.0000 C   0  0
    7.0129   -5.6348    0.0000 C   0  0
    9.0024   -6.4577    0.0000 N   0  0
    7.7293   -6.8717    0.0000 C   0  0
    6.3003   -6.0481    0.0000 C   0  0
 10  5  1  0
  4  5  1  0
 11 10  1  0
 11  8  2  0
  1 11  1  0
  6  8  1  0
  9  1  2  0
  7  4  1  0
  2  9  1  0
  3  2  2  0
  8  3  1  0
  5  6  2  0
 20 16  1  0
 17 20  2  0
 14 12  1  0
 19 13  1  0
 13 18  2  0
 15 19  1  0
 12 19  2  0
 18 14  1  0
 12 17  1  0
 16 15  2  0
 14  7  1  0
M  END