
          11280714582D 1   1.00000     0.00000     0

 37 40  0     0  0            999 V2000
    3.8542   -6.3417    0.0000 N   0  0  3  0  0  0           0  0  0
    4.5750   -5.9375    0.0000 C   0  0  0  0  0  0           0  0  0
    6.0125  -10.0792    0.0000 C   0  0  0  0  0  0           0  0  0
    3.1417   -5.9375    0.0000 C   0  0  0  0  0  0           0  0  0
    5.2917   -6.3500    0.0000 C   0  0  0  0  0  0           0  0  0
    4.6917  -10.3542    0.0000 N   0  0  0  0  0  0           0  0  0
    5.2542   -9.7417    0.0000 N   0  0  0  0  0  0           0  0  0
    5.1125  -11.0750    0.0000 N   0  0  0  0  0  0           0  0  0
    5.9250  -10.9042    0.0000 N   0  0  0  0  0  0           0  0  0
    6.7292   -9.6625    0.0000 C   0  0  0  0  0  0           0  0  0
    6.7292   -8.8292    0.0000 C   0  0  0  0  0  0           0  0  0
    6.0125   -5.9375    0.0000 C   0  0  0  0  0  0           0  0  0
    4.5750   -5.1042    0.0000 C   0  0  0  0  0  0           0  0  0
    3.8542   -4.6875    0.0000 C   0  0  3  0  0  0           0  0  0
    3.1417   -5.1042    0.0000 C   0  0  0  0  0  0           0  0  0
    3.8542   -7.1750    0.0000 C   0  0  0  0  0  0           0  0  0
    6.0125   -8.4167    0.0000 C   0  0  0  0  0  0           0  0  0
    2.4292   -6.3500    0.0000 O   0  0  0  0  0  0           0  0  0
    6.0167   -5.1042    0.0000 O   0  0  0  0  0  0           0  0  0
    6.0042   -7.5875    0.0000 C   0  0  0  0  0  0           0  0  0
    5.2917   -8.8292    0.0000 C   0  0  0  0  0  0           0  0  0
    4.5792   -7.5917    0.0000 C   0  0  0  0  0  0           0  0  0
    6.7292   -6.3500    0.0000 O   0  0  0  0  0  0           0  0  0
    5.2917   -7.1750    0.0000 C   0  0  0  0  0  0           0  0  0
    4.5750   -8.4167    0.0000 C   0  0  0  0  0  0           0  0  0
    7.4500  -10.0792    0.0000 C   0  0  0  0  0  0           0  0  0
    7.4417   -8.4167    0.0000 C   0  0  0  0  0  0           0  0  0
    3.4375   -3.9917    0.0000 C   0  0  0  0  0  0           0  0  0
    4.2667   -3.9667    0.0000 C   0  0  0  0  0  0           0  0  0
    7.4500   -5.9375    0.0000 C   0  0  0  0  0  0           0  0  0
    3.8292   -3.2667    0.0000 C   0  0  0  0  0  0           0  0  0
    2.6125   -4.0167    0.0000 C   0  0  0  0  0  0           0  0  0
    8.1542   -8.8250    0.0000 C   0  0  0  0  0  0           0  0  0
    8.1625   -9.6542    0.0000 C   0  0  0  0  0  0           0  0  0
    8.1625   -6.3542    0.0000 C   0  0  0  0  0  0           0  0  0
    4.2500   -2.5417    0.0000 C   0  0  0  0  0  0           0  0  0
    2.1792   -3.3125    0.0000 C   0  0  0  0  0  0           0  0  0
  2  1  1  0     0  0
  3 10  1  0     0  0
  4  1  1  0     0  0
  5  2  2  0     0  0
  6  7  2  0     0  0
  7  3  1  0     0  0
  8  9  1  0     0  0
  9  3  2  0     0  0
 10 11  2  0     0  0
 11 17  1  0     0  0
 12  5  1  0     0  0
 13  2  1  0     0  0
 14 15  1  0     0  0
 15  4  1  0     0  0
 16  1  1  0     0  0
 17 21  2  0     0  0
 18  4  2  0     0  0
 19 12  2  0     0  0
 20 24  2  0     0  0
 21 25  1  0     0  0
 22 16  1  0     0  0
 23 12  1  0     0  0
 24 22  1  0     0  0
 25 22  2  0     0  0
 26 10  1  0     0  0
 27 11  1  0     0  0
 28 14  1  0     0  0
 29 14  1  0     0  0
 30 23  1  0     0  0
 31 29  1  0     0  0
 32 28  1  0     0  0
 33 27  2  0     0  0
 34 33  1  0     0  0
 35 30  1  0     0  0
 36 31  1  0     0  0
 37 32  1  0     0  0
 14 13  1  0     0  0
 17 20  1  0     0  0
 34 26  2  0     0  0
  8  6  1  0     0  0
M  END