
  CDK    9/16/09,9:48

 10 10  0  0  0  0  0  0  0  0999 V2000
    2.6839  -27.9460    0.0000 C   0  0  0  0  0  0  0  0  0  0  0  0
    2.6827  -28.7735    0.0000 C   0  0  0  0  0  0  0  0  0  0  0  0
    3.3955  -29.1863    0.0000 C   0  0  0  0  0  0  0  0  0  0  0  0
    4.1149  -28.7730    0.0000 C   0  0  0  0  0  0  0  0  0  0  0  0
    4.1117  -27.9420    0.0000 C   0  0  0  0  0  0  0  0  0  0  0  0
    3.3936  -27.5332    0.0000 C   0  0  0  0  0  0  0  0  0  0  0  0
    4.8241  -27.5260    0.0000 C   0  0  0  0  0  0  0  0  0  0  0  0
    5.5404  -27.9349    0.0000 C   0  0  0  0  0  0  0  0  0  0  0  0
    6.2528  -27.5189    0.0000 N   0  0  0  0  0  0  0  0  0  0  0  0
    4.8296  -29.1848    0.0000 O   0  0  0  0  0  0  0  0  0  0  0  0
  2  3  1  0  0  0  0 
  5  6  2  0  0  0  0 
  6  1  1  0  0  0  0 
  1  2  2  0  0  0  0 
  5  7  1  0  0  0  0 
  3  4  2  0  0  0  0 
  7  8  1  0  0  0  0 
  8  9  1  0  0  0  0 
  4  5  1  0  0  0  0 
  4 10  1  0  0  0  0 
M  END