
          11280715372D 1   1.00000     0.00000     0

 33 36  0     0  0            999 V2000
    5.8250   -2.2792    0.0000 C   0  0  0  0  0  0           0  0  0
    5.8292   -3.1625    0.0000 C   0  0  0  0  0  0           0  0  0
    4.3042   -2.2792    0.0000 N   0  0  3  0  0  0           0  0  0
    5.0625   -3.6000    0.0000 N   0  0  3  0  0  0           0  0  0
    4.3042   -3.1625    0.0000 C   0  0  0  0  0  0           0  0  0
    5.0625   -1.8292    0.0000 C   0  0  0  0  0  0           0  0  0
    6.6667   -2.0000    0.0000 N   0  0  0  0  0  0           0  0  0
    6.6750   -3.4292    0.0000 N   0  0  0  0  0  0           0  0  0
    7.1917   -2.7125    0.0000 C   0  0  0  0  0  0           0  0  0
    3.5375   -1.8375    0.0000 C   0  0  0  0  0  0           0  0  0
    8.0750   -2.7042    0.0000 C   0  0  0  0  0  0           0  0  0
    3.5375   -3.6042    0.0000 O   0  0  0  0  0  0           0  0  0
    5.0625   -0.9500    0.0000 O   0  0  0  0  0  0           0  0  0
   12.0500   -3.4500    0.0000 C   0  0  0  0  0  0           0  0  0
    5.0625   -4.4792    0.0000 C   0  0  0  0  0  0           0  0  0
   12.4875   -2.6792    0.0000 O   0  0  0  0  0  0           0  0  0
    8.5167   -3.4667    0.0000 C   0  0  0  0  0  0           0  0  0
    8.5042   -1.9417    0.0000 C   0  0  0  0  0  0           0  0  0
   10.7167   -2.6917    0.0000 O   0  0  0  0  0  0           0  0  0
    3.5292   -0.9542    0.0000 C   0  0  0  0  0  0           0  0  0
   11.1667   -3.4542    0.0000 C   0  0  0  0  0  0           0  0  0
    9.8375   -2.7000    0.0000 C   0  0  0  0  0  0           0  0  0
    3.5042    0.8125    0.0000 C   0  0  0  0  0  0           0  0  0
   12.4917   -4.2125    0.0000 O   0  0  0  0  0  0           0  0  0
    3.4917    1.6958    0.0000 N   0  0  0  0  0  0           0  0  0
    9.4000   -3.4667    0.0000 C   0  0  0  0  0  0           0  0  0
    9.3875   -1.9292    0.0000 C   0  0  0  0  0  0           0  0  0
    2.7625   -0.5250    0.0000 C   0  0  0  0  0  0           0  0  0
    4.2917   -0.5042    0.0000 C   0  0  0  0  0  0           0  0  0
    4.2792    0.3833    0.0000 C   0  0  0  0  0  0           0  0  0
    2.7417    0.3583    0.0000 C   0  0  0  0  0  0           0  0  0
    4.2917   -4.9167    0.0000 C   0  0  0  0  0  0           0  0  0
    4.2917   -5.8042    0.0000 C   0  0  0  0  0  0           0  0  0
  2  1  2  0     0  0
  3  6  1  0     0  0
  4  2  1  0     0  0
  5  3  1  0     0  0
  6  1  1  0     0  0
  7  1  1  0     0  0
  8  2  1  0     0  0
  9  7  1  0     0  0
 10  3  1  0     0  0
 11  9  1  0     0  0
 12  5  2  0     0  0
 13  6  2  0     0  0
 14 21  1  0     0  0
 15  4  1  0     0  0
 16 14  2  0     0  0
 17 11  2  0     0  0
 18 11  1  0     0  0
 19 22  1  0     0  0
 20 10  1  0     0  0
 21 19  1  0     0  0
 22 27  1  0     0  0
 23 30  2  0     0  0
 24 14  1  0     0  0
 25 23  1  0     0  0
 26 17  1  0     0  0
 27 18  2  0     0  0
 28 20  1  0     0  0
 29 20  2  0     0  0
 30 29  1  0     0  0
 31 28  2  0     0  0
 32 15  1  0     0  0
 33 32  1  0     0  0
  8  9  2  0     0  0
  4  5  1  0     0  0
 26 22  2  0     0  0
 23 31  1  0     0  0
M  END