
  SciTegic05061116452D

 22 24  0  0  0  0            999 V2000
    5.1819   -7.5500    0.0000 C   0  0
    5.1807   -8.3773    0.0000 C   0  0
    5.8956   -8.7902    0.0000 C   0  0
    5.8938   -7.1372    0.0000 C   0  0
    6.6091   -7.5463    0.0000 C   0  0
    6.6099   -8.3732    0.0000 C   0  0
    7.3252   -8.7841    0.0000 N   0  0
    8.0402   -8.3694    0.0000 C   0  0
    8.0355   -7.5394    0.0000 C   0  0
    7.3196   -7.1322    0.0000 N   0  0
    8.7563   -8.7791    0.0000 O   0  0
    8.7595   -9.6041    0.0000 C   0  0
    9.4756  -10.0138    0.0000 C   0  0
    8.7474   -7.1226    0.0000 C   0  0
    9.4644   -7.5307    0.0000 N   0  0
    9.4654   -8.3595    0.0000 C   0  0
   10.1782   -8.7676    0.0000 C   0  0
   10.8926   -8.3543    0.0000 N   0  0
   10.8896   -7.5283    0.0000 C   0  0
   10.1721   -7.1157    0.0000 C   0  0
    8.7424   -6.2976    0.0000 O   0  0
   11.6081   -8.7651    0.0000 C   0  0
  8 11  1  0
  2  3  1  0
 11 12  1  0
  5  6  1  0
 12 13  1  0
  3  6  2  0
  9 14  1  0
  6  7  1  0
 14 15  1  0
 15 16  1  0
  1  2  2  0
  7  8  2  0
  5  4  2  0
  8  9  1  0
  4  1  1  0
 15 20  1  0
 16 17  1  0
 17 18  1  0
 18 19  1  0
 19 20  1  0
  9 10  2  0
 14 21  2  0
 10  5  1  0
 18 22  1  0
M  END