
  SciTegic10311316262D

 18 20  0  0  0  0            999 V2000
   18.1089   -2.2782    0.0000 C   0  0
   18.1077   -3.0977    0.0000 C   0  0
   18.8158   -3.5067    0.0000 C   0  0
   18.8140   -1.8693    0.0000 C   0  0
   19.5226   -2.2746    0.0000 C   0  0
   19.5260   -3.0998    0.0000 C   0  0
   20.2384   -3.5072    0.0000 C   0  0
   20.9519   -3.0939    0.0000 C   0  0
   20.9485   -2.2687    0.0000 C   0  0
   20.2316   -1.8568    0.0000 N   0  0
   21.6550   -1.8580    0.0000 O   0  0
   17.4031   -1.8658    0.0000 C   0  0
   17.4043   -1.0475    0.0000 C   0  0
   16.6973   -0.6392    0.0000 C   0  0
   15.9887   -1.0480    0.0000 C   0  0
   15.9915   -1.8694    0.0000 C   0  0
   16.6991   -2.2741    0.0000 C   0  0
   20.2406   -4.3244    0.0000 C   0  0
  1  2  2  0
  2  3  1  0
  3  6  2  0
  5  4  2  0
  4  1  1  0
  5  6  1  0
  5 10  1  0
  6  7  1  0
  7  8  2  0
  8  9  1  0
  9 10  1  0
  9 11  2  0
 12 13  2  0
 13 14  1  0
 14 15  2  0
 15 16  1  0
 16 17  2  0
 17 12  1  0
  1 12  1  0
  7 18  1  0
M  END