
  SciTegic12201611262D

 28 30  0  0  0  0            999 V2000
    2.5973   -1.5031    0.0000 C   0  0
    1.2990   -0.7500    0.0000 C   0  0
    1.2990    0.7500    0.0000 C   0  0
    0.0000    1.5000    0.0000 C   0  0
   -1.2990    0.7500    0.0000 C   0  0
   -1.2990   -0.7500    0.0000 C   0  0
    0.0000   -1.5000    0.0000 C   0  0
    3.6375   -0.9049    0.0000 O   0  0
    2.5951   -3.0039    0.0000 O   0  0
    0.0000   -2.7000    0.0000 O   0  0
   -2.3383    1.3500    0.0000 O   0  0
    2.5972    1.5031    0.0000 C   0  0
    2.5951    3.0039    0.0000 C   0  0
    3.8933    3.7570    0.0000 C   0  0
    5.2447    3.1360    0.0000 N   0  0
    6.2484    4.2507    0.0000 C   0  0
    5.4984    5.5498    0.0000 C   0  0
    4.0312    5.2379    0.0000 N   0  0
    2.9122    6.2341    0.0000 C   0  0
    3.2150    7.7041    0.0000 C   0  0
    0.0000    2.7000    0.0000 Cl  0  0
    3.6331   -3.6060    0.0000 C   0  0
    4.5783    8.2985    0.0000 S   0  0
    4.4152    9.7896    0.0000 C   0  0
    2.9467   10.0953    0.0000 C   0  0
    2.2022    8.7931    0.0000 C   0  0
    0.7138    8.6220    0.0000 C   0  0
   -0.0017    9.5853    0.0000 C   0  0
  1  2  1  0
  2  3  1  0
  3  4  2  0
  4  5  1  0
  5  6  2  0
  6  7  1  0
  2  7  2  0
  1  8  2  0
  1  9  1  0
  7 10  1  0
  5 11  1  0
 12 13  1  0
 14 15  2  0
 15 16  1  0
 16 17  2  0
 17 18  1  0
 14 18  1  0
 19 20  1  0
 18 19  1  0
 13 14  1  0
  3 12  1  0
  4 21  1  0
  9 22  1  0
 20 23  1  0
 20 26  2  0
 23 24  1  0
 24 25  2  0
 25 26  1  0
 26 27  1  0
 27 28  2  0
M  END