
  SciTegic04091415222D

 25 26  0  0  0  0            999 V2000
   13.2299  -11.4568    0.0000 N   0  0
   12.4133  -11.4568    0.0000 C   0  0
   12.0008  -10.7423    0.0000 C   0  0
   11.1757  -10.7423    0.0000 C   0  0
   10.7567  -10.0337    0.0000 C   0  0
   10.7698  -11.4586    0.0000 C   0  0
    9.9234  -10.0413    0.0000 C   0  0
    9.9365  -11.4663    0.0000 C   0  0
    9.5258  -10.7575    0.0000 C   0  0
    9.5278  -12.1830    0.0000 I   0  0
    8.7008  -10.7651    0.0000 N   0  0
    7.8759  -10.7773    0.0000 N   0  3
    7.0551  -10.7886    0.0000 N   0  5
   13.6424  -12.1713    0.0000 C   0  0
   14.4674  -12.1713    0.0000 C   0  0
   14.8799  -12.8858    0.0000 C   0  0
   13.6424  -10.7423    0.0000 C   0  0
   14.4674  -10.7423    0.0000 C   0  0
   14.8799  -10.0279    0.0000 C   0  0
   15.7049  -10.0279    0.0000 C   0  0
   16.1136  -10.7425    0.0000 C   0  0
   16.9378  -10.7429    0.0000 C   0  0
   17.3511  -10.0279    0.0000 C   0  0
   16.9342   -9.3111    0.0000 C   0  0
   16.1113   -9.3142    0.0000 C   0  0
  2  1  1  0
  2  3  1  0
  3  4  1  0
  5  4  2  0
  6  4  1  0
  7  5  1  0
  8  6  2  0
  9  8  1  0
  9  7  2  0
  8 10  1  0
  9 11  1  0
 11 12  2  0
 12 13  2  0
  1 14  1  0
 14 15  1  0
 15 16  1  0
  1 17  1  0
 17 18  1  0
 18 19  1  0
 19 20  1  0
 20 21  2  0
 21 22  1  0
 22 23  2  0
 23 24  1  0
 24 25  2  0
 25 20  1  0
M  CHG  2  12   1  13  -1
M  ISO  1  10 125
M  END