
          11280715402D 1   1.00000     0.00000     0

 17 17  0     1  0            999 V2000
   -0.0708   -1.1250    0.0000 C   0  0  3  0  0  0           0  0  0
   -0.3833   -0.6125    0.0000 C   0  0  0  0  0  0           0  0  0
   -0.6708   -1.1417    0.0000 C   0  0  0  0  0  0           0  0  0
    0.4625   -1.4042    0.0000 C   0  0  0  0  0  0           0  0  0
    0.9750   -1.0917    0.0000 N   0  0  0  0  0  0           0  0  0
    3.8625   -1.3750    0.0000 N   0  0  0  0  0  0           0  0  0
    4.3750   -1.0542    0.0000 C   0  0  3  0  0  0           0  0  0
    1.6792   -1.3667    0.0000 O   0  0  0  0  0  0           0  0  0
    2.8250   -1.4042    0.0000 C   0  0  1  0  0  0           0  0  0
    3.3292   -1.0917    0.0000 C   0  0  0  0  0  0           0  0  0
    2.2917   -1.1167    0.0000 C   0  0  0  0  0  0           0  0  0
    2.8417   -2.0042    0.0000 O   0  0  0  0  0  0           0  0  0
    0.4792   -2.0042    0.0000 C   0  0  0  0  0  0           0  0  0
    4.9000   -1.3417    0.0000 C   0  0  0  0  0  0           0  0  0
    4.3542   -0.4542    0.0000 C   0  0  0  0  0  0           0  0  0
    4.7917   -0.6292    0.0000 C   0  0  0  0  0  0           0  0  0
    3.2417   -1.8292    0.0000 H   0  0  0  0  0  0           0  0  0
  2  1  1  0     0  0
  3  1  1  0     0  0
  4  1  1  0     0  0
  5  4  2  0     0  0
  6 10  1  0     0  0
  7  6  1  0     0  0
  8  5  1  0     0  0
  9 11  1  0     0  0
 10  9  1  0     0  0
 11  8  1  0     0  0
  9 12  1  6     0  0
 13  4  1  0     0  0
 14  7  1  0     0  0
 15  7  1  0     0  0
 16  7  1  0     0  0
  9 17  1  1     0  0
  3  2  1  0     0  0
M  END