
  SciTegic12091219242D

 18 20  0  0  0  0            999 V2000
   -2.4208    0.5458    0.0000 C   0  0
   -1.5583    1.2333    0.0000 C   0  0
   -0.4583   -1.0375    0.0000 N   0  0
   -0.4583    0.9958    0.0000 C   0  0
   -2.4208   -0.5917    0.0000 C   0  0
    0.0250   -0.0292    0.0000 C   0  0
   -1.5583   -1.2792    0.0000 C   0  0
   -0.1125   -2.9167    0.0000 C   0  0
   -1.2458   -3.0875    0.0000 C   0  0
    0.2500   -1.9000    0.0000 C   0  0
   -3.3833    1.0958    0.0000 C   0  0
   -1.8708    2.2708    0.0000 C   0  0
   -3.3833   -1.1417    0.0000 C   0  0
    0.2667    1.7833    0.0000 C   0  0
   -4.3458    0.5083    0.0000 C   0  0
   -1.1083    3.0958    0.0000 C   0  0
   -0.0458    2.8500    0.0000 C   0  0
   -4.3458   -0.5542    0.0000 C   0  0
  2  1  1  0
  3  7  1  0
  4  2  2  0
  5  1  2  0
  6  4  1  0
  7  5  1  0
  8 10  1  0
  9  8  2  0
 10  3  1  0
 11  1  1  0
 12  2  1  0
 13  5  1  0
 14  4  1  0
 15 11  2  0
 16 12  2  0
 17 16  1  0
 18 15  1  0
 13 18  2  0
  6  3  1  0
 14 17  2  0
M  END