
  Mrv0541 04051115152D          

 17 19  0  0  0  0            999 V2000
   -1.0785    0.6321    0.0000 C   0  0  0  0  0  0  0  0  0  0  0  0
   -0.3640    0.2196    0.0000 C   0  0  0  0  0  0  0  0  0  0  0  0
   -0.3640   -0.6054    0.0000 C   0  0  0  0  0  0  0  0  0  0  0  0
   -1.0785   -1.0179    0.0000 C   0  0  0  0  0  0  0  0  0  0  0  0
   -1.7930   -0.6054    0.0000 C   0  0  0  0  0  0  0  0  0  0  0  0
   -1.7930    0.2196    0.0000 C   0  0  0  0  0  0  0  0  0  0  0  0
   -2.5776    0.4745    0.0000 O   0  0  0  0  0  0  0  0  0  0  0  0
   -3.0625   -0.1929    0.0000 C   0  0  0  0  0  0  0  0  0  0  0  0
   -2.5776   -0.8603    0.0000 O   0  0  0  0  0  0  0  0  0  0  0  0
    0.3504    0.6321    0.0000 C   0  0  0  0  0  0  0  0  0  0  0  0
    0.4367    1.4526    0.0000 N   0  0  0  0  0  0  0  0  0  0  0  0
    1.2436    1.6241    0.0000 N   0  0  0  0  0  0  0  0  0  0  0  0
    1.6561    0.9096    0.0000 C   0  0  0  0  0  0  0  0  0  0  0  0
    1.1041    0.2965    0.0000 C   0  0  0  0  0  0  0  0  0  0  0  0
   -1.0785   -1.8429    0.0000 Br  0  0  0  0  0  0  0  0  0  0  0  0
    1.5792    2.3778    0.0000 C   0  0  0  0  0  0  0  0  0  0  0  0
    2.4766    0.8234    0.0000 N   0  0  0  0  0  0  0  0  0  0  0  0
  1  2  2  0  0  0  0
  1  6  1  0  0  0  0
  2  3  1  0  0  0  0
 10  2  1  0  0  0  0
  3  4  2  0  0  0  0
  4  5  1  0  0  0  0
 15  4  1  0  0  0  0
  5  6  2  0  0  0  0
  5  9  1  0  0  0  0
  6  7  1  0  0  0  0
  8  7  1  0  0  0  0
  8  9  1  0  0  0  0
 10 11  2  0  0  0  0
 10 14  1  0  0  0  0
 11 12  1  0  0  0  0
 13 12  1  0  0  0  0
 16 12  1  0  0  0  0
 13 14  2  0  0  0  0
 13 17  1  0  0  0  0
M  END