
          11280714482D 1   1.00000     0.00000     0

 36 40  0     0  0            999 V2000
    9.6417   -5.9667    0.0000 C   0  0  0  0  0  0           0  0  0
    8.9250   -5.5542    0.0000 C   0  0  0  0  0  0           0  0  0
    8.2125   -5.9667    0.0000 O   0  0  0  0  0  0           0  0  0
    7.5000   -5.5542    0.0000 C   0  0  0  0  0  0           0  0  0
   10.3917   -5.6292    0.0000 N   0  0  0  0  0  0           0  0  0
   10.9500   -6.2417    0.0000 N   0  0  0  0  0  0           0  0  0
    8.9250   -4.7292    0.0000 C   0  0  0  0  0  0           0  0  0
   10.5375   -6.9542    0.0000 N   0  0  0  0  0  0           0  0  0
    8.2125   -4.3167    0.0000 C   0  0  0  0  0  0           0  0  0
    7.5042   -4.7292    0.0000 C   0  0  0  0  0  0           0  0  0
    9.7292   -6.7875    0.0000 N   0  0  0  0  0  0           0  0  0
    6.0792   -7.2125    0.0000 C   0  0  0  0  0  0           0  0  0
    6.7917   -6.7917    0.0000 N   0  0  0  0  0  0           0  0  0
    6.7917   -5.9667    0.0000 C   0  0  0  0  0  0           0  0  0
    5.3667   -6.8000    0.0000 C   0  0  0  0  0  0           0  0  0
    8.2125   -3.4917    0.0000 O   0  0  0  0  0  0           0  0  0
    6.0792   -8.0375    0.0000 O   0  0  0  0  0  0           0  0  0
    5.3667   -5.9750    0.0000 C   0  0  0  0  0  0           0  0  0
    4.6542   -7.2167    0.0000 C   0  0  0  0  0  0           0  0  0
    3.9375   -5.9792    0.0000 C   0  0  0  0  0  0           0  0  0
    6.7792   -4.3167    0.0000 C   0  0  0  0  0  0           0  0  0
    3.9417   -6.8042    0.0000 C   0  0  0  0  0  0           0  0  0
    4.6542   -5.5667    0.0000 C   0  0  0  0  0  0           0  0  0
    6.0792   -5.5542    0.0000 C   0  0  0  0  0  0           0  0  0
    3.2167   -5.5667    0.0000 O   0  0  0  0  0  0           0  0  0
   -0.3500   -6.0000    0.0000 C   0  0  0  0  0  0           0  0  0
    6.0750   -4.7375    0.0000 C   0  0  0  0  0  0           0  0  0
    0.3625   -5.5792    0.0000 C   0  0  0  0  0  0           0  0  0
    2.5042   -5.9875    0.0000 C   0  0  0  0  0  0           0  0  0
   -1.0708   -5.5875    0.0000 C   0  0  0  0  0  0           0  0  0
   -0.3458   -6.8167    0.0000 C   0  0  0  0  0  0           0  0  0
    1.0792   -5.9917    0.0000 C   0  0  0  0  0  0           0  0  0
    1.7917   -5.5750    0.0000 C   0  0  0  0  0  0           0  0  0
   -1.0583   -7.2375    0.0000 C   0  0  0  0  0  0           0  0  0
   -1.7833   -6.0000    0.0000 C   0  0  0  0  0  0           0  0  0
   -1.7833   -6.8250    0.0000 C   0  0  0  0  0  0           0  0  0
  2  1  1  0     0  0
  3  2  1  0     0  0
  4  3  1  0     0  0
  5  1  1  0     0  0
  6  5  2  0     0  0
  7  2  2  0     0  0
  8 11  1  0     0  0
  9  7  1  0     0  0
 10  9  1  0     0  0
 11  1  2  0     0  0
 12 13  1  0     0  0
 13 14  1  0     0  0
 14  4  2  0     0  0
 15 12  1  0     0  0
 16  9  2  0     0  0
 17 12  2  0     0  0
 18 15  2  0     0  0
 19 15  1  0     0  0
 20 22  1  0     0  0
 21 10  2  0     0  0
 22 19  2  0     0  0
 23 18  1  0     0  0
 24 14  1  0     0  0
 25 20  1  0     0  0
 26 28  1  0     0  0
 27 21  1  0     0  0
 28 32  1  0     0  0
 29 25  1  0     0  0
 30 26  2  0     0  0
 31 26  1  0     0  0
 32 33  1  0     0  0
 33 29  1  0     0  0
 34 31  2  0     0  0
 35 30  1  0     0  0
 36 34  1  0     0  0
  6  8  1  0     0  0
  4 10  1  0     0  0
 24 27  2  0     0  0
 20 23  2  0     0  0
 36 35  2  0     0  0
M  END