
          11280715502D 1   1.00000     0.00000     0

 32 36  0     1  0            999 V2000
    3.8742  -25.8279    0.0000 C   0  0  3  0  0  0           0  0  0
    3.8581  -24.9993    0.0000 C   0  0  0  0  0  0           0  0  0
    3.1364  -24.6011    0.0000 C   0  0  0  0  0  0           0  0  0
    2.4262  -25.0270    0.0000 N   0  0  3  0  0  0           0  0  0
    2.4422  -25.8557    0.0000 C   0  0  0  0  0  0           0  0  0
    3.1686  -26.2584    0.0000 C   0  0  0  0  0  0           0  0  0
    4.8128  -24.6453    0.0000 C   0  0  0  0  0  0           0  0  0
    5.9995  -25.7945    0.0000 C   0  0  0  0  0  0           0  0  0
    6.1982  -24.9881    0.0000 C   0  0  0  0  0  0           0  0  0
    5.6035  -24.4176    0.0000 C   0  0  0  0  0  0           0  0  0
    5.2041  -26.0216    0.0000 C   0  0  0  0  0  0           0  0  0
    4.6103  -25.4442    0.0000 C   0  0  0  0  0  0           0  0  0
    4.0186  -26.6468    0.0000 O   0  0  0  0  0  0           0  0  0
    4.8384  -26.7648    0.0000 C   0  0  0  0  0  0           0  0  0
    1.7044  -24.6275    0.0000 C   0  0  0  0  0  0           0  0  0
    0.9974  -25.0528    0.0000 C   0  0  0  0  0  0           0  0  0
    0.2757  -24.6532    0.0000 C   0  0  0  0  0  0           0  0  0
   -0.4313  -25.0785    0.0000 N   0  0  0  0  0  0           0  0  0
   -1.1530  -24.6789    0.0000 C   0  0  0  0  0  0           0  0  0
   -1.1679  -23.8541    0.0000 O   0  0  0  0  0  0           0  0  0
   -1.8600  -25.1042    0.0000 C   0  0  2  0  0  0           0  0  0
   -2.6261  -24.7928    0.0000 N   0  0  3  0  0  0           0  0  0
   -3.1579  -25.4223    0.0000 C   0  0  0  0  0  0           0  0  0
   -2.7230  -26.1234    0.0000 C   0  0  0  0  0  0           0  0  0
   -1.9219  -25.9263    0.0000 C   0  0  0  0  0  0           0  0  0
   -2.6527  -23.9682    0.0000 C   0  0  0  0  0  0           0  0  0
   -3.3801  -23.5789    0.0000 C   0  0  0  0  0  0           0  0  0
   -3.4043  -22.7571    0.0000 C   0  0  0  0  0  0           0  0  0
   -4.1308  -22.3678    0.0000 C   0  0  0  0  0  0           0  0  0
   -4.8326  -22.8032    0.0000 C   0  0  0  0  0  0           0  0  0
   -4.8033  -23.6320    0.0000 C   0  0  0  0  0  0           0  0  0
   -4.0763  -24.0174    0.0000 C   0  0  0  0  0  0           0  0  0
  4 15  1  0     0  0
  1  2  1  0     0  0
 15 16  1  0     0  0
 11  8  2  0     0  0
 16 17  1  0     0  0
  1  6  1  0     0  0
 17 18  1  0     0  0
  8  9  1  0     0  0
 18 19  1  0     0  0
  2  3  1  0     0  0
 19 20  2  0     0  0
  9 10  2  0     0  0
 21 19  1  1     0  0
 21 22  1  0     0  0
 10  7  1  0     0  0
 11 12  1  0     0  0
  3  4  1  0     0  0
  4  5  1  0     0  0
 22 23  1  0     0  0
 23 24  1  0     0  0
 24 25  1  0     0  0
 25 21  1  0     0  0
  5  6  1  0     0  0
 22 26  1  0     0  0
 26 27  1  0     0  0
 12  1  1  0     0  0
 27 28  2  0     0  0
  1 13  1  0     0  0
 28 29  1  0     0  0
 13 14  1  0     0  0
 29 30  2  0     0  0
 14 11  1  0     0  0
 30 31  1  0     0  0
  7 12  2  0     0  0
 31 32  2  0     0  0
 32 27  1  0     0  0
M  END