
          11280714452D 1   1.00000     0.00000     0

 36 39  0     0  0            999 V2000
    5.2292   -2.0292    0.0000 C   0  0  0  0  0  0           0  0  0
    5.2292   -1.2000    0.0000 C   0  0  0  0  0  0           0  0  0
   -1.9083   -2.0292    0.0000 N   0  0  0  0  0  0           0  0  0
    5.9417   -0.7875    0.0000 C   0  0  0  0  0  0           0  0  0
    5.9417    0.0375    0.0000 C   0  0  0  0  0  0           0  0  0
    4.5167   -2.4417    0.0000 C   0  0  0  0  0  0           0  0  0
    3.8042   -2.0292    0.0000 C   0  0  0  0  0  0           0  0  0
   -2.6125   -2.4417    0.0000 C   0  0  0  0  0  0           0  0  0
    3.0875   -2.4417    0.0000 C   0  0  0  0  0  0           0  0  0
    5.9417   -2.4417    0.0000 C   0  0  0  0  0  0           0  0  0
    5.2250    0.4500    0.0000 O   0  0  0  0  0  0           0  0  0
    6.6625   -1.2000    0.0000 C   0  0  0  0  0  0           0  0  0
   -1.1875   -2.4417    0.0000 C   0  0  0  0  0  0           0  0  0
    4.5167   -3.2667    0.0000 O   0  0  0  0  0  0           0  0  0
    6.6625   -2.0292    0.0000 C   0  0  0  0  0  0           0  0  0
   -2.6208   -3.2667    0.0000 C   0  0  0  0  0  0           0  0  0
   -1.8958   -3.6792    0.0000 C   0  0  0  0  0  0           0  0  0
    0.2417   -2.4417    0.0000 O   0  0  0  0  0  0           0  0  0
    2.3750   -2.0292    0.0000 C   0  0  0  0  0  0           0  0  0
    6.6542    0.4583    0.0000 O   0  0  0  0  0  0           0  0  0
    0.9542   -2.0292    0.0000 C   0  0  0  0  0  0           0  0  0
    1.6667   -2.4375    0.0000 C   0  0  0  0  0  0           0  0  0
   -0.4750   -2.0292    0.0000 C   0  0  0  0  0  0           0  0  0
   -1.1833   -3.2667    0.0000 C   0  0  0  0  0  0           0  0  0
    5.9417   -3.2667    0.0000 O   0  0  0  0  0  0           0  0  0
    1.6667   -0.7875    0.0000 C   0  0  0  0  0  0           0  0  0
   -3.3250   -2.0375    0.0000 C   0  0  0  0  0  0           0  0  0
    2.3792   -1.2000    0.0000 C   0  0  0  0  0  0           0  0  0
    0.9542   -1.2042    0.0000 C   0  0  0  0  0  0           0  0  0
   -3.3208   -3.6792    0.0000 C   0  0  0  0  0  0           0  0  0
    6.6625   -3.6792    0.0000 C   0  0  0  0  0  0           0  0  0
    7.3750   -3.2667    0.0000 C   0  0  0  0  0  0           0  0  0
    8.0917   -3.6792    0.0000 C   0  0  0  0  0  0           0  0  0
    8.8042   -3.2667    0.0000 C   0  0  0  0  0  0           0  0  0
   -4.0375   -2.4500    0.0000 C   0  0  0  0  0  0           0  0  0
   -4.0333   -3.2750    0.0000 C   0  0  0  0  0  0           0  0  0
  2  1  2  0     0  0
  3 13  2  0     0  0
  4  2  1  0     0  0
  5  4  1  0     0  0
  6  1  1  0     0  0
  7  6  1  0     0  0
  8  3  1  0     0  0
  9  7  2  0     0  0
 10  1  1  0     0  0
 11  5  2  0     0  0
 12 15  1  0     0  0
 13 23  1  0     0  0
 14  6  2  0     0  0
 15 10  2  0     0  0
 16 17  1  0     0  0
 17 24  2  0     0  0
 18 21  1  0     0  0
 19  9  1  0     0  0
 20  5  1  0     0  0
 21 22  2  0     0  0
 22 19  1  0     0  0
 23 18  1  0     0  0
 24 13  1  0     0  0
 25 10  1  0     0  0
 26 28  1  0     0  0
 27  8  2  0     0  0
 28 19  2  0     0  0
 29 26  2  0     0  0
 30 16  2  0     0  0
 31 25  1  0     0  0
 32 31  1  0     0  0
 33 32  1  0     0  0
 34 33  1  0     0  0
 35 27  1  0     0  0
 36 30  1  0     0  0
  4 12  2  0     0  0
 29 21  1  0     0  0
  8 16  1  0     0  0
 36 35  2  0     0  0
M  END