
  SciTegic06051315212D

 40 44  0  0  0  0            999 V2000
    0.3008  -18.5024    0.0000 C   0  0
    1.0061  -18.0979    0.0000 C   0  0
    1.0061  -17.2807    0.0000 C   0  0
    0.3008  -16.8680    0.0000 N   0  0
   -0.4045  -18.0979    0.0000 N   0  0
   -0.4045  -17.2762    0.0000 C   0  0
   -1.1914  -17.0222    0.0000 C   0  0
   -1.6740  -17.6870    0.0000 C   0  0
   -1.1913  -18.3517    0.0000 N   0  0
    1.7132  -18.5075    0.0000 C   0  0
    2.4205  -18.9159    0.0000 C   0  0
    3.1282  -19.3246    0.0000 C   0  0
    3.1256  -20.1419    0.0000 C   0  0
    3.8325  -20.5505    0.0000 C   0  0
    4.5412  -20.1419    0.0000 C   0  0
    4.5386  -19.3205    0.0000 C   0  0
    3.8312  -18.9156    0.0000 C   0  0
    2.4172  -20.5493    0.0000 C   0  0
    5.2449  -18.9094    0.0000 C   0  0
    5.9540  -19.3156    0.0000 N   0  0
    5.2421  -18.0923    0.0000 O   0  0
    6.6603  -18.9045    0.0000 C   0  0
    7.3679  -19.3118    0.0000 C   0  0
    8.0737  -18.9014    0.0000 C   0  0
    8.0713  -18.0834    0.0000 C   0  0
    7.3572  -17.6774    0.0000 C   0  0
    6.6544  -18.0901    0.0000 C   0  0
    8.7826  -19.3079    0.0000 C   0  0
    8.7851  -20.1251    0.0000 N   0  0
    8.0762  -20.5320    0.0000 C   0  0
    8.0767  -21.3456    0.0000 C   0  0
    8.7838  -21.7559    0.0000 N   0  0
    9.4921  -21.3464    0.0000 C   0  0
    9.4933  -20.5267    0.0000 C   0  0
    8.7831  -22.5731    0.0000 C   0  0
    7.3515  -16.8603    0.0000 C   0  0
    8.0564  -16.4467    0.0000 F   0  0
    6.6410  -16.4566    0.0000 F   0  0
    7.3465  -16.0425    0.0000 F   0  0
    1.7102  -20.1394    0.0000 C   0  0
  6  4  1  0
  5  1  1  0
  1  2  2  0
  2  3  1  0
  3  4  2  0
  5  6  1  0
  6  7  2  0
  7  8  1  0
  8  9  2  0
  9  5  1  0
  2 10  1  0
 10 11  3  0
 11 12  1  0
 12 13  2  0
 13 14  1  0
 14 15  2  0
 15 16  1  0
 16 17  2  0
 17 12  1  0
 13 18  1  0
 16 19  1  0
 19 20  1  0
 19 21  2  0
 20 22  1  0
 22 23  2  0
 23 24  1  0
 24 25  2  0
 25 26  1  0
 26 27  2  0
 27 22  1  0
 24 28  1  0
 28 29  1  0
 29 30  1  0
 29 34  1  0
 30 31  1  0
 31 32  1  0
 32 33  1  0
 33 34  1  0
 32 35  1  0
 26 36  1  0
 36 37  1  0
 36 38  1  0
 36 39  1  0
 18 40  1  0
M  END