
  SciTegic06051313522D

 31 34  0  0  0  0            999 V2000
   25.7056   -1.9110    0.0000 S   0  0
   26.4189   -2.3254    0.0000 N   0  0
   26.4172   -3.1495    0.0000 C   0  0
   27.1340   -1.9157    0.0000 C   0  0
   27.8473   -2.3301    0.0000 C   0  0
   28.5624   -1.9204    0.0000 C   0  0
   28.5661   -1.0927    0.0000 C   0  0
   27.8528   -0.6783    0.0000 C   0  0
   27.1356   -1.0916    0.0000 N   0  0
   27.8456   -3.1543    0.0000 C   0  0
   27.1371   -3.5758    0.0000 N   0  0
   27.8357   -5.6507    0.0000 C   0  0
   27.8462   -4.8231    0.0000 C   0  0
   27.1363   -4.4028    0.0000 C   0  0
   26.4158   -4.8103    0.0000 C   0  0
   26.4073   -5.6343    0.0000 C   0  0
   27.1173   -6.0545    0.0000 N   0  0
   28.6165   -5.9127    0.0000 N   0  0
   28.6314   -4.5744    0.0000 C   0  0
   29.1092   -5.2501    0.0000 C   0  0
   24.9900   -2.3216    0.0000 C   0  0
   25.1168   -1.3208    0.0000 O   0  0
   26.1126   -1.1917    0.0000 O   0  0
   29.9315   -5.2596    0.0000 C   0  0
   30.3348   -5.9805    0.0000 C   0  0
   31.1590   -5.9908    0.0000 C   0  0
   31.5808   -5.2808    0.0000 C   0  0
   31.1725   -4.5590    0.0000 C   0  0
   30.3496   -4.5523    0.0000 C   0  0
   32.4058   -5.2896    0.0000 F   0  0
   25.7053   -4.3909    0.0000 C   0  0
  1  2  1  0
  2  3  1  0
  4  5  1  0
  5  6  2  0
  6  7  1  0
  7  8  2  0
  8  9  1  0
  4  9  2  0
 12 13  1  0
 13 14  2  0
 14 15  1  0
 15 16  2  0
 16 17  1  0
 12 17  2  0
 19 20  2  0
 18 20  1  0
 12 18  1  0
 13 19  1  0
 11 14  1  0
 10 11  1  0
  5 10  1  0
  2  4  1  0
  1 21  1  0
  1 22  2  0
  1 23  2  0
 24 25  2  0
 25 26  1  0
 26 27  2  0
 27 28  1  0
 28 29  2  0
 29 24  1  0
 20 24  1  0
 27 30  1  0
 15 31  1  0
M  END