
  SciTegic09261414552D

 30 32  0  0  0  0            999 V2000
    8.3278   -7.3836    0.0000 N   0  0
    7.6170   -7.7955    0.0000 C   0  0
    6.9022   -7.3836    0.0000 O   0  0
    7.6170   -8.6194    0.0000 N   0  0
    6.9022   -9.0313    0.0000 C   0  0
    6.9022   -9.8551    0.0000 C   0  0
    6.1873  -10.2670    0.0000 C   0  0
    5.4724   -9.8551    0.0000 C   0  0
    5.4724   -9.0313    0.0000 C   0  0
    6.1873   -8.6194    0.0000 C   0  0
    4.7617  -10.2670    0.0000 O   0  0
    4.0468   -9.8551    0.0000 C   0  0
    9.0427   -7.7955    0.0000 C   0  0
    9.0427   -8.6194    0.0000 C   0  0
    9.7534   -9.0313    0.0000 C   0  0
    9.7534   -9.8551    0.0000 C   0  0
    9.0426  -10.2670    0.0000 C   0  0
    8.3278   -9.8551    0.0000 C   0  0
    8.3278   -9.0313    0.0000 C   0  0
   10.5529  -11.0841    0.0000 S   0  0
   10.4683  -10.2670    0.0000 C   0  0
   11.2217   -9.9299    0.0000 N   0  0
   11.7739  -10.5414    0.0000 C   0  0
   11.3620  -11.2562    0.0000 C   0  0
    8.3278   -6.5597    0.0000 C   0  0
    7.6170   -6.1477    0.0000 C   0  0
    9.0427   -6.1477    0.0000 C   0  0
    4.0461   -9.0313    0.0000 F   0  0
    3.3336  -10.2676    0.0000 F   0  0
    3.3288   -9.4412    0.0000 F   0  0
  1  2  1  0
  2  3  2  0
  2  4  1  0
  5  6  1  0
  6  7  2  0
  7  8  1  0
  8  9  2  0
  9 10  1  0
  5 10  2  0
 11 12  1  0
  8 11  1  0
  4  5  1  0
 13 14  1  0
 14 15  1  0
 15 16  2  0
 16 17  1  0
 17 18  2  0
 18 19  1  0
 14 19  2  0
 20 21  1  0
 21 22  2  0
 22 23  1  0
 23 24  2  0
 20 24  1  0
 16 21  1  0
  1 13  1  0
 25 26  1  0
 25 27  1  0
  1 25  1  0
 12 28  1  0
 12 29  1  0
 12 30  1  0
M  END