
  CDK    9/16/09,9:44

 19 20  0  0  0  0  0  0  0  0999 V2000
    7.3194   -1.4208    0.0000 C   0  0  0  0  0  0  0  0  0  0  0  0
    7.3182   -2.2482    0.0000 C   0  0  0  0  0  0  0  0  0  0  0  0
    8.0331   -2.6610    0.0000 C   0  0  0  0  0  0  0  0  0  0  0  0
    8.7495   -2.2477    0.0000 C   0  0  0  0  0  0  0  0  0  0  0  0
    8.7466   -1.4172    0.0000 C   0  0  0  0  0  0  0  0  0  0  0  0
    8.0313   -1.0080    0.0000 C   0  0  0  0  0  0  0  0  0  0  0  0
    6.6048   -1.0085    0.0000 C   0  0  0  0  0  0  0  0  0  0  0  0
    5.8905   -1.4211    0.0000 C   0  0  0  0  0  0  0  0  0  0  0  0
    5.1415   -1.0832    0.0000 N   0  0  0  0  0  0  0  0  0  0  0  0
    4.5896   -1.6964    0.0000 C   0  0  0  0  0  0  0  0  0  0  0  0
    5.0023   -2.4109    0.0000 N   0  0  0  0  0  0  0  0  0  0  0  0
    5.8091   -2.2390    0.0000 C   0  0  0  0  0  0  0  0  0  0  0  0
    9.4596   -1.0020    0.0000 C   0  0  0  0  0  0  0  0  0  0  0  0
   10.1756   -1.4118    0.0000 C   0  0  0  0  0  0  0  0  0  0  0  0
    9.4564   -0.1770    0.0000 O   0  0  0  0  0  0  0  0  0  0  0  0
   10.1787   -2.2368    0.0000 C   0  0  0  0  0  0  0  0  0  0  0  0
   10.1708   -3.0583    0.0000 C   0  0  0  0  0  0  0  0  0  0  0  0
   11.0037   -2.2392    0.0000 C   0  0  0  0  0  0  0  0  0  0  0  0
    9.3537   -2.2378    0.0000 C   0  0  0  0  0  0  0  0  0  0  0  0
  4  5  1  0  0  0  0 
  2  3  1  0  0  0  0 
  5  6  2  0  0  0  0 
  9 10  2  0  0  0  0 
 10 11  1  0  0  0  0 
 11 12  1  0  0  0  0 
 12  8  2  0  0  0  0 
  6  1  1  0  0  0  0 
  5 13  1  0  0  0  0 
  1  2  2  0  0  0  0 
 13 14  1  0  0  0  0 
  1  7  1  0  0  0  0 
 13 15  2  0  0  0  0 
  3  4  2  0  0  0  0 
 14 16  1  0  0  0  0 
  7  8  1  0  0  0  0 
 16 17  1  0  0  0  0 
  8  9  1  0  0  0  0 
 16 18  1  0  0  0  0 
 16 19  1  0  0  0  0 
M  END