
  SciTegic11201309402D

 77 81  0  0  1  0            999 V2000
    6.6109   -5.8153    0.0000 N   0  0
    5.8028   -5.9903    0.0000 C   0  0
    4.0282   -0.8290    0.0000 N   0  0
    5.2488   -5.3779    0.0000 C   0  0  1  0  0  0
    5.4404   -1.6538    0.0000 C   0  0
    5.7653   -4.7406    0.0000 N   0  0
    5.8903   -2.3411    0.0000 N   0  0
    1.7121   -1.4539    0.0000 N   0  0
    3.2034   -0.7915    0.0000 C   0  0
    6.0653   -3.9658    0.0000 C   0  0
    1.1914   -2.1037    0.0000 C   0  0
    7.1400   -7.1900    0.0000 C   0  0
    4.8031   -1.1289    0.0000 C   0  0  2  0  0  0
    6.1110   -3.1410    0.0000 C   0  0  2  0  0  0
    0.8540   -3.6908    0.0000 N   0  0
    7.2233   -6.3652    0.0000 C   0  0  2  0  0  0
    2.4036   -1.0040    0.0000 C   0  0  2  0  0  0
    1.0664   -4.4906    0.0000 C   0  0
    0.8915   -2.8660    0.0000 C   0  0  2  0  0  0
    7.8106   -7.6774    0.0000 N   0  0
    6.9276   -3.0535    0.0000 C   0  0
    9.7269   -3.9033    0.0000 C   0  0
    1.5163   -5.1905    0.0000 C   0  0
    3.7533   -6.0403    0.0000 S   0  0
    9.2853   -7.7399    0.0000 C   0  0
    2.9535   -6.0528    0.0000 S   0  0
    7.5149   -3.6408    0.0000 C   0  0
    2.1537   -5.7028    0.0000 C   0  0
    8.5647   -7.3275    0.0000 C   0  0  2  0  0  0
    5.5404   -6.7776    0.0000 O   0  0
    9.8144   -4.7281    0.0000 N   0  0
    6.0611   -1.0914    0.0000 O   0  0
    4.5531   -5.8278    0.0000 C   0  0
    6.3902   -7.5274    0.0000 O   0  0
    3.0535   -0.1792    0.0000 O   0  0
    6.8734   -4.1407    0.0000 O   0  0
    0.4749   -1.6788    0.0000 O   0  0
    2.0662   -0.2541    0.0000 C   0  0
    0.0875   -2.6911    0.0000 C   0  0
    0.3041   -4.8281    0.0000 O   0  0
    9.2895   -8.5647    0.0000 O   0  0
    7.3275   -4.2532    0.0000 O   0  0
    9.9976   -7.3275    0.0000 N   0  0
    8.9771   -3.5659    0.0000 N   0  0
   10.4017   -3.4159    0.0000 N   0  0
    5.2155   -0.4166    0.0000 C   0  0  2  0  0  0
    6.9483   -5.0655    0.0000 C   0  0
    8.3272   -3.5534    0.0000 N   0  0
   -0.6331   -3.1035    0.0000 C   0  0
    2.5536    0.4207    0.0000 C   0  0
   12.1346   -7.5774    0.0000 N   0  0
    7.9398   -5.9528    0.0000 C   0  0
    7.7649   -5.1530    0.0000 C   0  0
    9.1478   -5.2030    0.0000 C   0  0
    2.6286   -6.3277    0.0000 C   0  0
    1.3872   -5.6029    0.0000 C   0  0
    8.5605   -6.5027    0.0000 C   0  0
   10.7142   -7.7274    0.0000 C   0  0
   11.3765   -7.2525    0.0000 C   0  0
    6.0403   -0.4166    0.0000 C   0  0
    4.8031    0.3082    0.0000 C   0  0
   -0.6331   -3.9283    0.0000 C   0  0
    3.3784    0.3332    0.0000 C   0  0
    2.2162    1.1705    0.0000 C   0  0
   -1.3455   -2.6786    0.0000 C   0  0
    9.2270   -6.0278    0.0000 C   0  0
    6.4527    0.2957    0.0000 C   0  0
    0.9748   -6.3277    0.0000 C   0  0
    2.2120   -7.0400    0.0000 C   0  0
    2.7036    1.8454    0.0000 C   0  0
   -2.0578   -3.0910    0.0000 C   0  0
   -1.3497   -4.3282    0.0000 C   0  0
    3.8616    1.0081    0.0000 C   0  0
    1.3872   -7.0400    0.0000 C   0  0
   -2.0703   -3.9158    0.0000 C   0  0
    3.5242    1.7579    0.0000 C   0  0
    4.4712   -0.1856    0.0000 H   0  0
  2  1  1  0
  3 13  1  0
  4  2  1  6
  5  7  1  0
  6  4  1  0
  7 14  1  0
  8 11  1  0
  9  3  1  0
 10  6  1  0
 11 19  1  0
 16 12  1  1
 13  5  1  0
 14 10  1  0
 15 18  1  0
 16  1  1  0
 17  9  1  0
 18 23  1  0
 19 15  1  0
 20 12  1  0
 14 21  1  1
 22 31  2  0
 23 28  1  0
 24 33  1  0
 25 29  1  0
 26 24  1  0
 27 21  1  0
 28 26  1  0
 29 20  1  1
 30  2  2  0
 31 54  1  0
 32  5  2  0
  4 33  1  0
 34 12  2  0
 35  9  2  0
 36 10  2  0
 37 11  2  0
 17 38  1  1
 19 39  1  6
 40 18  2  0
 41 25  2  0
 42 27  2  0
 43 25  1  0
 44 22  1  0
 45 22  1  0
 13 46  1  0
 47  1  1  0
 48 27  1  0
 49 39  1  0
 50 38  1  0
 51 59  1  0
 52 16  1  0
 53 47  1  0
 54 66  1  0
 55 28  1  0
 56 28  1  0
 29 57  1  0
 58 43  1  0
 59 58  1  0
 60 46  1  0
 46 61  1  1
 62 49  1  0
 63 50  1  0
 64 50  2  0
 65 49  2  0
 66 57  1  0
 67 60  1  0
 68 56  1  0
 69 55  1  0
 70 64  1  0
 71 65  1  0
 72 62  2  0
 73 63  2  0
 74 68  1  0
 75 71  2  0
 76 70  2  0
 52 53  1  0
 69 74  1  0
  8 17  1  0
 72 75  1  0
 73 76  1  0
 13 77  1  6
M  END