
          11280715312D 1   1.00000     0.00000     0

 34 36  0     0  0            999 V2000
    4.3125   -3.3167    0.0000 N   0  0  0  0  0  0           0  0  0
    4.3125   -4.1625    0.0000 C   0  0  0  0  0  0           0  0  0
    2.8875   -3.3167    0.0000 C   0  0  0  0  0  0           0  0  0
    3.6042   -2.9292    0.0000 C   0  0  0  0  0  0           0  0  0
    3.6042   -4.5667    0.0000 N   0  0  0  0  0  0           0  0  0
   11.4542   -4.1292    0.0000 C   0  0  0  0  0  0           0  0  0
    2.8875   -4.1625    0.0000 C   0  0  0  0  0  0           0  0  0
   10.7417   -4.5542    0.0000 C   0  0  0  0  0  0           0  0  0
   12.2042   -4.4667    0.0000 O   0  0  0  0  0  0           0  0  0
    2.1792   -2.9292    0.0000 C   0  0  0  0  0  0           0  0  0
    2.1792   -4.5667    0.0000 C   0  0  0  0  0  0           0  0  0
   11.5375   -3.3125    0.0000 C   0  0  0  0  0  0           0  0  0
    1.4625   -3.3167    0.0000 C   0  0  0  0  0  0           0  0  0
    1.4625   -4.1625    0.0000 C   0  0  0  0  0  0           0  0  0
   12.7542   -3.8500    0.0000 C   0  0  0  0  0  0           0  0  0
    5.0292   -4.5667    0.0000 N   0  0  3  0  0  0           0  0  0
   12.3417   -3.1375    0.0000 C   0  0  0  0  0  0           0  0  0
   10.0292   -4.1417    0.0000 N   0  0  3  0  0  0           0  0  0
   10.7417   -5.3792    0.0000 O   0  0  0  0  0  0           0  0  0
    3.6042   -2.1042    0.0000 N   0  0  0  0  0  0           0  0  0
    0.7542   -2.9000    0.0000 O   0  0  0  0  0  0           0  0  0
    0.7542   -4.5792    0.0000 O   0  0  0  0  0  0           0  0  0
   14.0625   -3.2625    0.0000 Cl  0  0  0  0  0  0           0  0  0
   13.5792   -3.9292    0.0000 C   0  0  0  0  0  0           0  0  0
    5.7417   -4.1542    0.0000 C   0  0  0  0  0  0           0  0  0
    9.3167   -4.5542    0.0000 C   0  0  0  0  0  0           0  0  0
    5.0292   -5.3917    0.0000 C   0  0  0  0  0  0           0  0  0
   10.0167   -3.3167    0.0000 C   0  0  0  0  0  0           0  0  0
    0.0292   -3.2917    0.0000 C   0  0  0  0  0  0           0  0  0
    0.0292   -4.1875    0.0000 C   0  0  0  0  0  0           0  0  0
    6.4542   -4.5667    0.0000 C   0  0  0  0  0  0           0  0  0
    8.6000   -4.1500    0.0000 C   0  0  0  0  0  0           0  0  0
    7.8875   -4.5625    0.0000 C   0  0  0  0  0  0           0  0  0
    7.1667   -4.1500    0.0000 C   0  0  0  0  0  0           0  0  0
  2  1  2  0     0  0
  3  4  2  0     0  0
  4  1  1  0     0  0
  5  2  1  0     0  0
  6  8  1  0     0  0
  7  3  1  0     0  0
  8 18  1  0     0  0
  9  6  1  0     0  0
 10  3  1  0     0  0
 11  7  1  0     0  0
 12  6  2  0     0  0
 13 10  2  0     0  0
 14 13  1  0     0  0
 15  9  1  0     0  0
 16  2  1  0     0  0
 17 12  1  0     0  0
 18 26  1  0     0  0
 19  8  2  0     0  0
 20  4  1  0     0  0
 21 13  1  0     0  0
 22 14  1  0     0  0
 23 24  1  0     0  0
 24 15  1  0     0  0
 25 16  1  0     0  0
 26 32  1  0     0  0
 27 16  1  0     0  0
 28 18  1  0     0  0
 29 21  1  0     0  0
 30 22  1  0     0  0
 31 25  1  0     0  0
 32 33  1  0     0  0
 33 34  1  0     0  0
 34 31  1  0     0  0
  7  5  2  0     0  0
 11 14  2  0     0  0
 15 17  2  0     0  0
M  END