
          11280715192D 1   1.00000     0.00000     0

 37 41  0     0  0            999 V2000
    5.9500   -2.7875    0.0000 C   0  0  0  0  0  0           0  0  0
    5.9417   -1.9625    0.0000 C   0  0  0  0  0  0           0  0  0
    5.2292   -3.2042    0.0000 N   0  0  3  0  0  0           0  0  0
    4.5167   -1.9625    0.0000 N   0  0  3  0  0  0           0  0  0
    4.5167   -2.7917    0.0000 C   0  0  0  0  0  0           0  0  0
    6.7375   -3.0375    0.0000 N   0  0  0  0  0  0           0  0  0
    5.2750   -1.4792    0.0000 C   0  0  0  0  0  0           0  0  0
    7.2167   -2.3667    0.0000 C   0  0  0  0  0  0           0  0  0
    6.7292   -1.7000    0.0000 N   0  0  0  0  0  0           0  0  0
    0.9500   -8.1625    0.0000 S   0  0  3  0  0  0           0  0  0
    8.0417   -2.3625    0.0000 C   0  0  3  0  0  0           0  0  0
    9.2500   -1.8375    0.0000 C   0  0  3  0  0  0           0  0  0
    1.6667   -7.7417    0.0000 C   0  0  0  0  0  0           0  0  0
    3.8000   -3.2042    0.0000 O   0  0  0  0  0  0           0  0  0
    0.2375   -7.7500    0.0000 O   0  0  0  0  0  0           0  0  0
    0.9542   -8.9792    0.0000 O   0  0  0  0  0  0           0  0  0
    5.2917   -0.6542    0.0000 O   0  0  0  0  0  0           0  0  0
    7.7417   -2.8875    0.0000 C   0  0  0  0  0  0           0  0  0
    3.0917   -6.9167    0.0000 C   0  0  0  0  0  0           0  0  0
    0.2292   -8.5667    0.0000 F   0  0  0  0  0  0           0  0  0
    3.8042   -6.5042    0.0000 C   0  0  0  0  0  0           0  0  0
    9.0375   -0.8167    0.0000 C   0  0  0  0  0  0           0  0  0
    8.9917   -2.3167    0.0000 C   0  0  3  0  0  0           0  0  0
   10.3250   -2.3917    0.0000 C   0  0  0  0  0  0           0  0  0
    5.2292   -4.0292    0.0000 C   0  0  0  0  0  0           0  0  0
    3.7917   -1.5667    0.0000 C   0  0  0  0  0  0           0  0  0
    1.6667   -6.9167    0.0000 C   0  0  0  0  0  0           0  0  0
    2.3792   -8.1542    0.0000 C   0  0  0  0  0  0           0  0  0
    4.5167   -6.9167    0.0000 O   0  0  0  0  0  0           0  0  0
    2.3792   -6.5042    0.0000 C   0  0  0  0  0  0           0  0  0
    3.0917   -7.7417    0.0000 C   0  0  0  0  0  0           0  0  0
   10.0750   -2.8500    0.0000 C   0  0  0  0  0  0           0  0  0
    3.8042   -5.6792    0.0000 C   0  0  0  0  0  0           0  0  0
    3.7750   -0.7417    0.0000 C   0  0  0  0  0  0           0  0  0
    4.5167   -4.4417    0.0000 C   0  0  0  0  0  0           0  0  0
    4.5167   -5.2667    0.0000 C   0  0  0  0  0  0           0  0  0
    3.0500   -0.3417    0.0000 C   0  0  0  0  0  0           0  0  0
  2  1  2  0     0  0
  3  1  1  0     0  0
  4  5  1  0     0  0
  5  3  1  0     0  0
  6  1  1  0     0  0
  7  2  1  0     0  0
  8  6  1  0     0  0
  9  2  1  0     0  0
 10 13  1  0     0  0
 11  8  1  0     0  0
 12 11  1  0     0  0
 13 28  1  0     0  0
 14  5  2  0     0  0
 15 10  2  0     0  0
 16 10  2  0     0  0
 17  7  2  0     0  0
 18 11  1  0     0  0
 19 21  1  0     0  0
 20 10  1  0     0  0
 21 33  1  0     0  0
 22 12  1  0     0  0
 23 18  1  0     0  0
 24 12  1  0     0  0
 25  3  1  0     0  0
 26  4  1  0     0  0
 27 30  1  0     0  0
 28 31  2  0     0  0
 29 21  2  0     0  0
 30 19  2  0     0  0
 31 19  1  0     0  0
 32 23  1  0     0  0
 33 36  1  0     0  0
 34 26  1  0     0  0
 35 25  1  0     0  0
 36 35  1  0     0  0
 37 34  1  0     0  0
  9  8  2  0     0  0
  4  7  1  0     0  0
 23 22  1  0     0  0
 24 32  1  0     0  0
 13 27  2  0     0  0
M  END