
  SciTegic01181116592D

 30 33  0  0  0  0            999 V2000
   -5.6833   -8.2375    0.0000 C   0  0
   -5.6833   -9.0625    0.0000 C   0  0
   -4.9713   -9.4708    0.0000 C   0  0
   -4.2593   -9.0625    0.0000 N   0  0
   -4.2593   -8.2375    0.0000 C   0  0
   -4.9713   -7.8208    0.0000 C   0  0
   -3.5454   -9.4760    0.0000 C   0  0
   -2.8304   -9.0646    0.0000 C   0  0
   -2.1165   -9.4781    0.0000 C   0  0
   -1.4014   -9.0666    0.0000 S   0  0
   -0.6875   -9.4802    0.0000 C   0  0
   -0.6014  -10.3007    0.0000 N   0  0
    0.2053  -10.4734    0.0000 N   0  0
    0.6189   -9.7594    0.0000 C   0  0
    0.0677   -9.1457    0.0000 N   0  0
    1.4347   -9.6735    0.0000 C   0  0
    1.9182  -10.3433    0.0000 C   0  0
    2.7381  -10.2586    0.0000 C   0  0
    3.0754   -9.5048    0.0000 N   0  0
    2.5868   -8.8348    0.0000 C   0  0
    1.7686   -8.9228    0.0000 C   0  0
    0.5398  -11.2275    0.0000 C   0  0
    1.3602  -11.3150    0.0000 C   0  0
    1.6946  -12.0691    0.0000 C   0  0
    2.5150  -12.1565    0.0000 N   0  0
    2.8445  -12.9111    0.0000 C   0  0
    3.6610  -13.0001    0.0000 C   0  0
    4.1506  -12.3356    0.0000 C   0  0
    3.8175  -11.5798    0.0000 C   0  0
    2.9950  -11.4884    0.0000 C   0  0
 14 15  2  0
 15 11  1  0
  1  2  1  0
  7  8  1  0
 16 17  2  0
  1  6  1  0
 17 18  1  0
  8  9  1  0
 18 19  2  0
  2  3  1  0
 19 20  1  0
  9 10  1  0
 20 21  2  0
 21 16  1  0
 14 16  1  0
  3  4  1  0
 13 22  1  0
 10 11  1  0
 22 23  1  0
 11 12  2  0
 23 24  1  0
  4  5  1  0
 24 25  1  0
 25 26  1  0
  5  6  1  0
  4  7  1  0
 12 13  1  0
 13 14  1  0
 25 30  1  0
 26 27  1  0
 27 28  1  0
 28 29  1  0
 29 30  1  0
M  END