
  SciTegic11201309402D

 75 76  0  0  1  0            999 V2000
   -0.5625    0.5000    0.0000 N   0  0
    1.2250    0.9125    0.0000 N   0  0
    2.6542   -0.2375    0.0000 N   0  0
    0.6000    0.9583    0.0000 C   0  0
    2.3000    0.2833    0.0000 C   0  0
    1.7542    3.8083    0.0000 P   0  0
   -0.9833    0.0375    0.0000 C   0  0
   -2.3208   -0.7667    0.0000 C   0  0
    3.4542   -0.7375    0.0000 C   0  0
    0.6000   -3.2417    0.0000 C   0  0
   -0.0208    0.8208    0.0000 C   0  0  2  0  0  0
    3.6875   -0.1542    0.0000 N   0  0
   -1.8583   -0.3417    0.0000 N   0  0
    2.8375   -0.8375    0.0000 C   0  0  1  0  0  0
    1.8042    0.6833    0.0000 C   0  0  1  0  0  0
    1.2250   -3.2000    0.0000 N   0  0
   -2.9208   -0.5792    0.0000 C   0  0  1  0  0  0
    4.3125   -0.0542    0.0000 C   0  0  2  0  0  0
   -5.5000   -1.5000    0.0000 C   0  0
    4.5375    0.5208    0.0000 C   0  0
   -3.3833   -1.0042    0.0000 N   0  0
   -1.2583   -0.5292    0.0000 C   0  0  1  0  0  0
   -3.9833   -0.8250    0.0000 C   0  0
   -0.0208   -3.1042    0.0000 N   0  0
   -5.0458   -1.0667    0.0000 N   0  0
    1.3250    3.3625    0.0000 O   0  0
   -5.9208    0.3458    0.0000 C   0  0
    2.3000    3.4958    0.0000 O   0  0
    0.6000    1.4458    0.0000 O   0  0
    2.7542    0.7125    0.0000 O   0  0
   -1.5083    0.3958    0.0000 O   0  0
   -0.2458    1.4000    0.0000 C   0  0
    0.5542   -3.8750    0.0000 O   0  0
   -2.1833   -1.3792    0.0000 O   0  0
    3.8500   -1.2292    0.0000 O   0  0
   -5.3625   -2.1042    0.0000 O   0  0
    4.1500    1.0208    0.0000 O   0  0
   -3.0583    0.0333    0.0000 C   0  0
    4.7042   -0.5500    0.0000 C   0  0
    2.3000   -2.5792    0.0000 C   0  0
   -6.0917   -1.3125    0.0000 C   0  0  2  0  0  0
   -4.1208   -0.2042    0.0000 O   0  0
   -5.4583    0.7708    0.0000 O   0  0
    2.8375   -1.4625    0.0000 C   0  0
    2.7542   -3.0125    0.0000 O   0  0
    1.2167    4.1250    0.0000 O   0  0
    2.2042    4.2542    0.0000 O   0  0
   -4.4458   -1.2542    0.0000 C   0  0
    1.8042   -2.9750    0.0000 C   0  0
   -6.2292   -0.7000    0.0000 C   0  0
   -5.7833   -0.2667    0.0000 C   0  0
    0.9292    2.8833    0.0000 C   0  0
    0.1417    1.8958    0.0000 C   0  0
    5.1542    0.6208    0.0000 O   0  0
    2.1167    1.2208    0.0000 C   0  0
    2.6542   -2.0542    0.0000 C   0  0
   -6.5542   -1.7375    0.0000 N   0  0
   -6.5167    0.5333    0.0000 O   0  0
    3.0542    1.7625    0.0000 S   0  0
    0.7667    1.7958    0.0000 C   0  0
   -0.0833    2.4833    0.0000 C   0  0
    0.3042    2.9625    0.0000 C   0  0
    1.1542    2.2875    0.0000 C   0  0
   -0.5625   -2.7917    0.0000 C   0  0
   -2.8833    0.7333    0.0000 C   0  0
    5.3167   -0.4542    0.0000 C   0  0
   -1.3583   -1.1500    0.0000 C   0  0
    2.7500    1.2208    0.0000 C   0  0
    3.6917    1.7625    0.0000 C   0  0
    5.7167   -0.9500    0.0000 C   0  0
    5.5542    0.1208    0.0000 C   0  0
   -2.2958    1.0458    0.0000 C   0  0
   -3.1458    1.3333    0.0000 C   0  0
   -0.9833   -2.3375    0.0000 C   0  0
   -1.2583   -1.7667    0.0000 C   0  0
  2  4  1  0
  3  5  1  0
  4 11  1  0
  5 15  1  0
  6 26  1  0
  7  1  1  0
  8 13  1  0
 14  9  1  1
 10 24  1  0
 11  1  1  0
 12  9  1  0
 22 13  1  6
 14  3  1  0
 15  2  1  0
 16 10  1  0
 17  8  1  0
 18 12  1  6
 19 25  1  0
 20 18  1  0
 17 21  1  1
 22  7  1  0
 23 21  1  0
 24 64  1  0
 25 48  1  0
 26 52  1  0
 27 51  1  0
 28  6  2  0
 29  4  2  0
 30  5  2  0
 31  7  2  0
 11 32  1  1
 33 10  2  0
 34  8  2  0
 35  9  2  0
 36 19  2  0
 37 20  2  0
 17 38  1  0
 18 39  1  0
 40 56  1  0
 41 19  1  0
 42 23  2  0
 43 27  2  0
 14 44  1  0
 45 40  2  0
 46  6  1  0
 47  6  1  0
 48 23  1  0
 49 16  1  0
 41 50  1  0
 51 50  1  0
 52 62  1  0
 53 32  1  0
 54 20  1  0
 15 55  1  6
 56 44  1  0
 41 57  1  1
 58 27  1  0
 59 68  1  0
 60 53  2  0
 61 53  1  0
 62 61  2  0
 63 60  1  0
 64 74  1  0
 65 38  1  0
 66 39  1  0
 22 67  1  0
 68 55  1  0
 69 59  1  0
 70 66  1  0
 71 66  1  0
 72 65  1  0
 73 65  1  0
 74 75  1  0
 75 67  1  0
 52 63  2  0
 49 40  1  0
M  END