
          11280715262D 1   1.00000     0.00000     0

 21 21  0     0  0            999 V2000
    6.1667   -2.6500    0.0000 C   0  0  0  0  0  0           0  0  0
    1.8417   -2.7125    0.0000 N   0  0  0  0  0  0           0  0  0
    7.6042   -2.6542    0.0000 C   0  0  3  0  0  0           0  0  0
    6.8792   -3.0625    0.0000 N   0  0  0  0  0  0           0  0  0
    1.7042   -4.0292    0.0000 N   0  0  0  0  0  0           0  0  0
    1.2917   -3.3167    0.0000 C   0  0  0  0  0  0           0  0  0
    2.5917   -3.0500    0.0000 C   0  0  0  0  0  0           0  0  0
    7.6042   -1.8292    0.0000 C   0  0  3  0  0  0           0  0  0
    8.3167   -3.0667    0.0000 C   0  0  3  0  0  0           0  0  0
    2.5042   -3.8667    0.0000 C   0  0  0  0  0  0           0  0  0
    6.1667   -1.8250    0.0000 O   0  0  0  0  0  0           0  0  0
    5.4542   -3.0542    0.0000 O   0  0  0  0  0  0           0  0  0
    3.3167   -2.6417    0.0000 C   0  0  0  0  0  0           0  0  0
    6.8917   -1.4125    0.0000 C   0  0  0  0  0  0           0  0  0
    8.3042   -3.8917    0.0000 C   0  0  0  0  0  0           0  0  0
    9.0292   -2.6542    0.0000 C   0  0  0  0  0  0           0  0  0
    7.5917   -1.0042    0.0000 C   0  0  0  0  0  0           0  0  0
    9.0292   -3.4792    0.0000 C   0  0  0  0  0  0           0  0  0
    8.3167   -1.4167    0.0000 C   0  0  0  0  0  0           0  0  0
    4.7417   -2.6417    0.0000 C   0  0  0  0  0  0           0  0  0
    4.0292   -3.0542    0.0000 C   0  0  0  0  0  0           0  0  0
  2  7  1  0     0  0
  3  4  1  0     0  0
  4  1  1  0     0  0
  5 10  1  0     0  0
  6  2  2  0     0  0
  7 13  1  0     0  0
  8  3  1  0     0  0
  9  3  1  0     0  0
 10  7  2  0     0  0
 11  1  2  0     0  0
 12  1  1  0     0  0
 13 21  1  0     0  0
 14  8  1  0     0  0
 15  9  1  0     0  0
 16  9  1  0     0  0
 17  8  1  0     0  0
 18  9  1  0     0  0
 19  8  1  0     0  0
 20 12  1  0     0  0
 21 20  1  0     0  0
  5  6  1  0     0  0
M  END