
  SciTegic10191216002D

 27 29  0  0  0  0            999 V2000
    9.7151    2.8875    0.0000 C   0  0
    9.7138    2.0600    0.0000 C   0  0
   10.4268    1.6470    0.0000 C   0  0
   11.1461    2.0604    0.0000 C   0  0
   11.1430    2.8916    0.0000 C   0  0
   10.4248    3.3003    0.0000 C   0  0
    9.0003    3.2994    0.0000 O   0  0
   11.8610    1.6486    0.0000 O   0  0
    8.9988    1.6485    0.0000 C   0  0
    8.2849    2.0619    0.0000 C   0  0
    8.9975    0.8235    0.0000 C   0  0
   12.5751    2.0617    0.0000 C   0  0
   13.2875    1.6449    0.0000 C   0  0
   14.0011    2.0574    0.0000 C   0  0
   14.0008    2.8833    0.0000 C   0  0
   13.2809    3.2949    0.0000 C   0  0
   12.5702    2.8801    0.0000 C   0  0
   11.8536    3.2889    0.0000 I   0  0
   13.2853    0.8199    0.0000 I   0  0
   14.7143    3.2974    0.0000 C   0  0
   15.4298    2.8865    0.0000 C   0  0
   15.5139    2.0681    0.0000 C   0  0
   16.3213    1.8984    0.0000 N   0  0
   16.7323    2.6138    0.0000 C   0  0
   16.1788    3.2256    0.0000 N   0  0
   14.9009    1.5161    0.0000 O   0  0
   17.5526    2.7020    0.0000 O   0  0
  1  2  2  0
 13 14  1  0
  1  7  1  0
 14 15  2  0
  3  4  2  0
 15 16  1  0
  4  8  1  0
 16 17  2  0
 17 12  1  0
 17 18  1  0
  2  9  1  0
 13 19  1  0
  4  5  1  0
 15 20  1  0
  9 10  1  0
 21 20  1  0
 21 22  1  0
  2  3  1  0
  9 11  1  0
  5  6  2  0
  8 12  1  0
 22 23  1  0
 23 24  1  0
 24 25  1  0
 25 21  1  0
  6  1  1  0
 22 26  2  0
 12 13  2  0
 24 27  2  0
M  END