
          11280715362D 1   1.00000     0.00000     0

 37 40  0     1  0            999 V2000
    4.5250   -5.3792    0.0000 C   0  0  0  0  0  0           0  0  0
    4.5250   -4.2042    0.0000 C   0  0  1  0  0  0           0  0  0
    5.0292   -4.5042    0.0000 C   0  0  2  0  0  0           0  0  0
    4.0167   -4.5000    0.0000 C   0  0  0  0  0  0           0  0  0
    5.5500   -4.2167    0.0000 N   0  0  3  0  0  0           0  0  0
    4.0167   -5.0875    0.0000 C   0  0  0  0  0  0           0  0  0
    5.0292   -5.0875    0.0000 C   0  0  0  0  0  0           0  0  0
    4.5167   -5.9667    0.0000 C   0  0  0  0  0  0           0  0  0
    3.5042   -5.9542    0.0000 N   0  0  0  0  0  0           0  0  0
    6.0750   -2.7500    0.0000 C   0  0  0  0  0  0           0  0  0
    3.5125   -5.3667    0.0000 C   0  0  0  0  0  0           0  0  0
    5.5542   -3.6292    0.0000 C   0  0  0  0  0  0           0  0  0
    4.5292   -3.6125    0.0000 C   0  0  0  0  0  0           0  0  0
    7.2625   -5.4750    0.0000 C   0  0  0  0  0  0           0  0  0
    8.4667   -5.4792    0.0000 C   0  0  0  0  0  0           0  0  0
    7.5625   -4.9625    0.0000 C   0  0  0  0  0  0           0  0  0
    8.1625   -4.9625    0.0000 C   0  0  0  0  0  0           0  0  0
    5.0417   -3.3250    0.0000 C   0  0  1  0  0  0           0  0  0
    5.5667   -2.4500    0.0000 O   0  0  0  0  0  0           0  0  0
    6.0667   -3.3417    0.0000 O   0  0  0  0  0  0           0  0  0
    9.0667   -5.4792    0.0000 O   0  0  0  0  0  0           0  0  0
    7.5625   -6.0000    0.0000 O   0  0  0  0  0  0           0  0  0
    6.5875   -2.4625    0.0000 C   0  0  3  0  0  0           0  0  0
    5.0500   -2.7375    0.0000 C   0  0  0  0  0  0           0  0  0
    3.5125   -4.1917    0.0000 C   0  0  0  0  0  0           0  0  0
    6.0542   -4.5167    0.0000 C   0  0  0  0  0  0           0  0  0
    8.1625   -6.0000    0.0000 O   0  0  0  0  0  0           0  0  0
    6.6625   -5.4750    0.0000 O   0  0  0  0  0  0           0  0  0
    3.0000   -4.5000    0.0000 C   0  0  0  0  0  0           0  0  0
    3.0000   -5.0875    0.0000 C   0  0  0  0  0  0           0  0  0
    7.1000   -2.7750    0.0000 C   0  0  0  0  0  0           0  0  0
    6.6000   -1.8750    0.0000 C   0  0  0  0  0  0           0  0  0
    7.1167   -1.5917    0.0000 C   0  0  0  0  0  0           0  0  0
    7.6125   -2.4875    0.0000 C   0  0  0  0  0  0           0  0  0
    7.6250   -1.9000    0.0000 C   0  0  0  0  0  0           0  0  0
    5.5417   -4.8000    0.0000 H   0  0  0  0  0  0           0  0  0
    3.6750   -3.6625    0.0000 H   0  0  0  0  0  0           0  0  0
  2  3  1  0     0  0
  3  7  1  0     0  0
  4  6  2  0     0  0
  5  3  1  0     0  0
  6  1  1  0     0  0
  7  1  1  0     0  0
  8  1  2  0     0  0
  9  8  1  0     0  0
 10 19  1  0     0  0
 11  6  1  0     0  0
 12  5  1  0     0  0
 13  2  1  0     0  0
 15 17  1  0     0  0
 16 14  1  0     0  0
 17 16  2  0     0  0
 18 12  1  0     0  0
 19 24  1  0     0  0
 20 10  2  0     0  0
 21 15  2  0     0  0
 22 14  2  0     0  0
 23 10  1  0     0  0
 18 24  1  1     0  0
 25  4  1  0     0  0
 26  5  1  0     0  0
 27 15  1  0     0  0
 28 14  1  0     0  0
 29 30  1  0     0  0
 30 11  2  0     0  0
 31 23  1  0     0  0
 32 23  1  0     0  0
 33 32  1  0     0  0
 34 31  1  0     0  0
 35 33  1  0     0  0
  3 36  1  1     0  0
  2 37  1  6     0  0
  9 11  1  0     0  0
  2  4  1  0     0  0
 29 25  2  0     0  0
 13 18  1  0     0  0
 35 34  1  0     0  0
M  END