
  Mrv0541 04051115152D          

 40 45  0  0  0  0            999 V2000
   -0.0126   -2.7660    0.0000 C   0  0  0  0  0  0  0  0  0  0  0  0
    0.3999   -3.4804    0.0000 C   0  0  0  0  0  0  0  0  0  0  0  0
    1.2249   -3.4804    0.0000 C   0  0  0  0  0  0  0  0  0  0  0  0
    1.6374   -4.1949    0.0000 C   0  0  0  0  0  0  0  0  0  0  0  0
    1.2249   -4.9094    0.0000 C   0  0  0  0  0  0  0  0  0  0  0  0
    0.3999   -4.9094    0.0000 N   0  0  0  0  0  0  0  0  0  0  0  0
   -0.0126   -4.1949    0.0000 C   0  0  0  0  0  0  0  0  0  0  0  0
   -0.8376   -4.1949    0.0000 C   0  0  0  0  0  0  0  0  0  0  0  0
   -1.2501   -3.4804    0.0000 C   0  0  0  0  0  0  0  0  0  0  0  0
   -0.8376   -2.7660    0.0000 C   0  0  0  0  0  0  0  0  0  0  0  0
   -1.2501   -2.0515    0.0000 C   0  0  0  0  0  0  0  0  0  0  0  0
   -0.8376   -1.3370    0.0000 N   0  0  0  0  0  0  0  0  0  0  0  0
   -0.0126   -1.3370    0.0000 C   0  0  0  0  0  0  0  0  0  0  0  0
    0.4723   -2.0045    0.0000 N   0  0  0  0  0  0  0  0  0  0  0  0
    1.2569   -1.7495    0.0000 C   0  0  0  0  0  0  0  0  0  0  0  0
    1.9714   -2.1620    0.0000 C   0  0  0  0  0  0  0  0  0  0  0  0
    1.9714   -2.9870    0.0000 N   0  0  0  0  0  0  0  0  0  0  0  0
    2.6859   -1.7495    0.0000 N   0  0  0  0  0  0  0  0  0  0  0  0
    2.6859   -0.9245    0.0000 C   0  0  0  0  0  0  0  0  0  0  0  0
    1.9714   -0.5120    0.0000 N   0  0  0  0  0  0  0  0  0  0  0  0
    1.2569   -0.9245    0.0000 C   0  0  0  0  0  0  0  0  0  0  0  0
    0.4723   -0.6696    0.0000 N   0  0  0  0  0  0  0  0  0  0  0  0
    0.2174    0.1150    0.0000 C   0  0  2  0  0  0  0  0  0  0  0  0
   -0.5673    0.3700    0.0000 O   0  0  0  0  0  0  0  0  0  0  0  0
    0.7023    0.7825    0.0000 C   0  0  2  0  0  0  0  0  0  0  0  0
    1.5273    0.7825    0.0000 O   0  0  0  0  0  0  0  0  0  0  0  0
    0.2174    1.4499    0.0000 C   0  0  2  0  0  0  0  0  0  0  0  0
    0.4723    2.2345    0.0000 O   0  0  0  0  0  0  0  0  0  0  0  0
   -0.5673    1.1950    0.0000 C   0  0  1  0  0  0  0  0  0  0  0  0
   -1.2347    1.6799    0.0000 C   0  0  0  0  0  0  0  0  0  0  0  0
   -1.1485    2.5004    0.0000 O   0  0  0  0  0  0  0  0  0  0  0  0
   -1.8159    2.9853    0.0000 C   0  0  0  0  0  0  0  0  0  0  0  0
   -1.7297    3.8058    0.0000 C   0  0  0  0  0  0  0  0  0  0  0  0
   -2.3971    4.2907    0.0000 C   0  0  0  0  0  0  0  0  0  0  0  0
   -2.3109    5.1112    0.0000 C   0  0  0  0  0  0  0  0  0  0  0  0
   -1.5572    5.4467    0.0000 C   0  0  0  0  0  0  0  0  0  0  0  0
   -1.4710    6.2672    0.0000 C   0  0  0  0  0  0  0  0  0  0  0  0
   -1.3847    7.0877    0.0000 N   0  0  0  0  0  0  0  0  0  0  0  0
   -0.8898    4.9618    0.0000 C   0  0  0  0  0  0  0  0  0  0  0  0
   -0.9760    4.1413    0.0000 C   0  0  0  0  0  0  0  0  0  0  0  0
  1  2  2  0  0  0  0
 10  1  1  0  0  0  0
  2  3  1  0  0  0  0
  2  7  1  0  0  0  0
  4  3  2  0  0  0  0
  5  4  1  0  0  0  0
  5  6  2  0  0  0  0
  7  6  1  0  0  0  0
  8  7  2  0  0  0  0
  9  8  1  0  0  0  0
 10  9  2  0  0  0  0
 11 10  1  0  0  0  0
 11 12  1  0  0  0  0
 13 12  1  0  0  0  0
 13 14  2  0  0  0  0
 13 22  1  0  0  0  0
 15 14  1  0  0  0  0
 16 15  2  0  0  0  0
 15 21  1  0  0  0  0
 16 17  1  0  0  0  0
 16 18  1  0  0  0  0
 19 18  2  0  0  0  0
 19 20  1  0  0  0  0
 21 20  2  0  0  0  0
 21 22  1  0  0  0  0
 23 22  1  6  0  0  0
 23 24  1  0  0  0  0
 23 25  1  0  0  0  0
 29 24  1  0  0  0  0
 25 26  1  1  0  0  0
 25 27  1  0  0  0  0
 27 28  1  1  0  0  0
 29 27  1  0  0  0  0
 29 30  1  6  0  0  0
 30 31  1  0  0  0  0
 32 31  1  0  0  0  0
 32 33  1  0  0  0  0
 33 34  2  0  0  0  0
 33 40  1  0  0  0  0
 34 35  1  0  0  0  0
 35 36  2  0  0  0  0
 36 37  1  0  0  0  0
 36 39  1  0  0  0  0
 37 38  3  0  0  0  0
 39 40  2  0  0  0  0
M  END