
  SciTegic06271217572D

 22 23  0  0  0  0            999 V2000
   -5.8941  -20.9478    0.0000 S   0  0
   -6.3206  -21.6542    0.0000 O   0  0
   -5.4954  -21.6700    0.0000 O   0  0
   -6.6070  -20.5217    0.0000 N   0  0
   -5.1761  -19.7070    0.0000 C   0  0
   -5.1773  -20.5343    0.0000 C   0  0
   -4.4625  -20.9471    0.0000 C   0  0
   -3.7461  -20.5338    0.0000 C   0  0
   -3.7490  -19.7034    0.0000 C   0  0
   -4.4643  -19.2942    0.0000 C   0  0
   -3.0361  -19.2882    0.0000 C   0  0
   -2.3201  -19.6980    0.0000 C   0  0
   -3.0392  -18.4633    0.0000 O   0  0
   -1.6072  -19.2828    0.0000 S   0  0
   -0.8912  -19.6926    0.0000 C   0  0
   -0.8912  -20.5164    0.0000 N   0  0
   -0.1762  -20.9261    0.0000 C   0  0
    0.5377  -20.5108    0.0000 C   0  0
    0.5320  -19.6817    0.0000 C   0  0
   -0.1838  -19.2757    0.0000 N   0  0
    1.2542  -20.9197    0.0000 C   0  0
    1.2584  -21.7447    0.0000 C   0  0
  9 11  1  0
 11 12  1  0
  6  7  1  0
 11 13  2  0
  1  4  1  0
 12 14  1  0
  7  8  2  0
 14 15  1  0
  2  1  2  0
 15 16  2  0
  8  9  1  0
 16 17  1  0
  1  3  2  0
 17 18  2  0
  9 10  2  0
 18 19  1  0
 10  5  1  0
 19 20  2  0
 20 15  1  0
  6  1  1  0
 18 21  1  0
  5  6  2  0
 21 22  1  0
M  END