
  SciTegic10011413212D

 38 40  0  0  0  0            999 V2000
    9.0086  -25.4728    0.0000 C   0  0  2  0  0  0
    9.7197  -25.8809    0.0000 C   0  0
   10.4308  -25.4728    0.0000 C   0  0  2  0  0  0
    9.0086  -24.6523    0.0000 C   0  0
    9.7197  -24.2401    0.0000 C   0  0
    9.7197  -23.4196    0.0000 C   0  0
   10.4308  -23.0114    0.0000 C   0  0
   10.4308  -22.1910    0.0000 C   0  0
   11.1377  -21.7787    0.0000 C   0  0  2  0  0  0
   11.9182  -22.0310    0.0000 C   0  0
   12.4022  -21.3705    0.0000 C   0  0
   11.9182  -20.7060    0.0000 C   0  0  2  0  0  0
   12.1746  -19.9255    0.0000 C   0  0
   12.9850  -19.7978    0.0000 C   0  0
   13.2775  -19.0316    0.0000 C   0  0
   14.0879  -18.9039    0.0000 C   0  0
   14.3805  -18.1377    0.0000 C   0  0
   15.1909  -18.0058    0.0000 C   0  0
   13.8667  -17.4991    0.0000 C   0  0
   11.6567  -19.2870    0.0000 C   0  0
   11.1377  -20.9583    0.0000 C   0  0  2  0  0  0
   11.1377  -20.1378    0.0000 C   0  0
   10.4308  -20.5501    0.0000 C   0  0
    9.7197  -20.9583    0.0000 C   0  0
    9.7197  -21.7787    0.0000 C   0  0
   10.4308  -24.6523    0.0000 C   0  0
   11.1377  -24.2401    0.0000 C   0  0
    8.2975  -25.8809    0.0000 O   0  0
   11.1377  -22.5992    0.0000 H   0  0
   12.7387  -20.7060    0.0000 H   0  0
   14.5898  -17.3426    0.0000 O   0  0
   11.1379  -25.8823    0.0000 O   0  0
   11.9490  -18.5239    0.0000 C   0  0
   11.4343  -17.8892    0.0000 C   0  0
   11.7266  -17.1260    0.0000 C   0  0
   11.2118  -16.4913    0.0000 C   0  0
   12.5336  -16.9976    0.0000 C   0  0
   11.9359  -16.3314    0.0000 O   0  0
  1  2  1  0
  2  3  1  0
  1  4  1  0
  4  5  1  0
  5  6  2  0
  6  7  1  0
  7  8  2  0
  8  9  1  0
  9 10  1  0
 10 11  1  0
 11 12  1  0
 12 13  1  0
 13 14  1  0
 14 15  1  0
 15 16  1  0
 16 17  1  0
 17 18  1  0
 17 19  1  0
 13 20  1  0
 12 21  1  0
  9 21  1  0
 21 22  1  1
 21 23  1  0
 23 24  1  0
 24 25  1  0
  8 25  1  0
  3 26  1  0
  5 26  1  0
 26 27  2  0
  1 28  1  1
  9 29  1  6
 12 30  1  6
 17 31  1  0
  3 32  1  6
 20 33  1  0
 33 34  1  0
 34 35  1  0
 35 36  1  0
 35 37  1  0
 35 38  1  0
M  END