
          11280715362D 1   1.00000     0.00000     0

 28 30  0     0  0            999 V2000
    4.0750   -6.7792    0.0000 C   0  0  0  0  0  0           0  0  0
    3.5542   -6.4792    0.0000 C   0  0  3  0  0  0           0  0  0
    4.0750   -7.3792    0.0000 C   0  0  0  0  0  0           0  0  0
    3.5542   -7.6792    0.0000 O   0  0  0  0  0  0           0  0  0
    3.0292   -7.3875    0.0000 C   0  0  3  0  0  0           0  0  0
    3.0292   -6.7792    0.0000 C   0  0  3  0  0  0           0  0  0
    4.5917   -6.4792    0.0000 C   0  0  0  0  0  0           0  0  0
    2.5042   -6.4792    0.0000 C   0  0  0  0  0  0           0  0  0
    3.5542   -5.8750    0.0000 C   0  0  0  0  0  0           0  0  0
    2.5042   -5.8750    0.0000 C   0  0  0  0  0  0           0  0  0
    3.0417   -5.5750    0.0000 C   0  0  0  0  0  0           0  0  0
    4.5917   -7.6792    0.0000 C   0  0  0  0  0  0           0  0  0
    5.1167   -6.7792    0.0000 C   0  0  0  0  0  0           0  0  0
    9.2667   -7.3250    0.0000 C   0  0  0  0  0  0           0  0  0
    5.1167   -7.3792    0.0000 C   0  0  0  0  0  0           0  0  0
    9.2625   -6.7250    0.0000 O   0  0  0  0  0  0           0  0  0
    6.1542   -7.3625    0.0000 C   0  0  0  0  0  0           0  0  0
    6.6792   -7.6542    0.0000 C   0  0  0  0  0  0           0  0  0
    4.5792   -5.8792    0.0000 O   0  0  0  0  0  0           0  0  0
    8.7500   -7.6292    0.0000 N   0  0  0  0  0  0           0  0  0
    2.4667   -7.1875    0.0000 C   0  0  0  0  0  0           0  0  0
    2.8292   -7.9542    0.0000 C   0  0  0  0  0  0           0  0  0
    5.6417   -7.6667    0.0000 C   0  0  0  0  0  0           0  0  0
    3.0542   -4.9750    0.0000 C   0  0  0  0  0  0           0  0  0
    9.7792   -7.6250    0.0000 C   0  0  0  0  0  0           0  0  0
    7.1917   -7.3417    0.0000 C   0  0  0  0  0  0           0  0  0
    8.2292   -7.3292    0.0000 C   0  0  0  0  0  0           0  0  0
    7.7167   -7.6375    0.0000 C   0  0  0  0  0  0           0  0  0
  2  1  1  0     0  0
  3  1  1  0     0  0
  4  3  1  0     0  0
  5  4  1  0     0  0
  6  2  1  0     0  0
  7  1  2  0     0  0
  8  6  1  0     0  0
  9  2  1  0     0  0
 10 11  2  0     0  0
 11  9  1  0     0  0
 12  3  2  0     0  0
 13  7  1  0     0  0
 14 20  1  0     0  0
 15 13  2  0     0  0
 16 14  2  0     0  0
 17 23  1  0     0  0
 18 17  2  0     0  0
 19  7  1  0     0  0
 20 27  1  0     0  0
 21  5  1  0     0  0
 22  5  1  0     0  0
 23 15  1  0     0  0
 24 11  1  0     0  0
 25 14  1  0     0  0
 26 18  1  0     0  0
 27 28  1  0     0  0
 28 26  1  0     0  0
  5  6  1  0     0  0
 15 12  1  0     0  0
 10  8  1  0     0  0
M  END