
  SciTegic04191613082D

183193  0  0  1  0            999 V2000
    4.2633   16.8460    0.0000 C   0  0
    4.7288   15.4192    0.0000 N   0  0
    3.4049   14.7121    0.0000 C   0  0
    3.3543   13.2121    0.0000 C   0  0
    2.0305   12.5051    0.0000 C   0  0
    1.9796   10.9932    0.0000 C   0  0  1  0  0  0
    0.4825   10.8981    0.0000 C   0  0
   -0.9694   10.5214    0.0000 N   0  0
   -2.3238    9.8767    0.0000 C   0  0  2  0  0  0
   -3.5317    8.9873    0.0000 C   0  0
   -4.5494    7.8854    0.0000 N   0  0
   -5.3403    6.6108    0.0000 C   0  0  2  0  0  0
   -6.6944    7.2852    0.0000 C   0  0
   -7.9460    6.4570    0.0000 C   0  0
   -8.9807    7.5431    0.0000 C   0  0
  -10.4386    7.1902    0.0000 C   0  0
  -10.8619    5.7512    0.0000 C   0  0
   -9.8274    4.6651    0.0000 C   0  0
   -8.3695    5.0179    0.0000 C   0  0
   -5.8756    5.2096    0.0000 C   0  0
   -6.1361    3.7324    0.0000 N   0  0
   -6.1122    2.2326    0.0000 C   0  0  1  0  0  0
   -5.8050    0.7643    0.0000 C   0  0
   -5.2255   -0.6192    0.0000 N   0  0
   -4.3946   -1.8680    0.0000 C   0  0
   -3.3424   -2.9371    0.0000 C   0  0
   -2.3450   -1.5438    0.0000 C   0  0
   -0.8452   -1.5200    0.0000 C   0  0
    1.3600   -2.5054    0.0000 C   0  0
    2.7958   -2.0713    0.0000 N   0  0
    4.1149   -1.3570    0.0000 C   0  0
    5.2631   -0.3918    0.0000 C   0  0  1  0  0  0
    6.3505   -1.4431    0.0000 C   0  0
    6.0592   -2.6072    0.0000 O   0  0
    7.7937   -1.0312    0.0000 N   0  0
    8.8727   -2.0743    0.0000 C   0  0  1  0  0  0
   10.2431   -2.6864    0.0000 C   0  0
   10.3991   -4.1791    0.0000 C   0  0
   11.7695   -4.7912    0.0000 C   0  0
   11.9255   -6.2839    0.0000 C   0  0
   13.0212   -6.7732    0.0000 N   0  0
    8.5114   -3.5310    0.0000 C   0  0
    9.3750   -4.3641    0.0000 O   0  0
    7.5503   -3.8075    0.0000 O   0  0
    6.1935    0.7848    0.0000 N   0  0
    6.8681    2.1245    0.0000 C   0  0
    7.9890    1.6961    0.0000 O   0  0
    7.2591    3.5727    0.0000 C   0  0  1  0  0  0
    7.3506    5.0699    0.0000 N   0  0
    7.1389    6.5549    0.0000 C   0  0
    8.3037    6.8436    0.0000 O   0  0
    6.6326    7.9668    0.0000 C   0  0  2  0  0  0
    7.6942    9.0442    0.0000 C   0  0
    9.1470    8.6674    0.0000 C   0  0
   10.2004    9.7364    0.0000 C   0  0
   11.6531    9.3596    0.0000 N   0  0
   12.7065   10.4286    0.0000 C   0  0
   12.3870   11.5853    0.0000 N   0  0
   13.8681   10.1273    0.0000 N   0  0
    5.8524    9.2480    0.0000 N   0  0
    4.8303   10.3458    0.0000 C   0  0
    3.6082   11.2155    0.0000 C   0  0  2  0  0  0
    3.8640   12.7063    0.0000 C   0  0
    5.2716   13.2269    0.0000 C   0  0
    5.5255   14.7061    0.0000 C   0  0
    6.9332   15.2267    0.0000 N   0  0
    7.1871   16.7059    0.0000 C   0  0
    6.2641   17.4727    0.0000 N   0  0
    8.3125   17.1221    0.0000 N   0  0
    2.2359   11.8213    0.0000 N   0  0
    0.7699   12.1385    0.0000 C   0  0
    0.9037   13.3310    0.0000 O   0  0
   -0.7301   12.1541    0.0000 C   0  0  2  0  0  0
   -1.3717   13.5238    0.0000 C   0  0
   -0.5138   14.7553    0.0000 C   0  0
   -1.1504   16.1144    0.0000 C   0  0
   -0.2925   17.3458    0.0000 N   0  0
   -0.9291   18.7049    0.0000 C   0  0
   -0.2431   19.6895    0.0000 N   0  0
   -2.1247   18.8071    0.0000 N   0  0
   -2.2024   11.8674    0.0000 N   0  0
   -3.5869   11.2903    0.0000 C   0  0
   -4.1583   12.3455    0.0000 O   0  0
   -4.8269   10.4462    0.0000 C   0  0  1  0  0  0
   -5.8716    9.3698    0.0000 N   0  0
   -6.6782    8.1052    0.0000 C   0  0
   -7.7500    8.6448    0.0000 O   0  0
   -7.2138    6.7040    0.0000 C   0  0  2  0  0  0
   -8.4494    7.5764    0.0000 C   0  0
   -8.3137    9.0711    0.0000 C   0  0
   -9.5379    9.9380    0.0000 C   0  0
   -9.3992   11.4316    0.0000 C   0  0
   -8.0364   12.0583    0.0000 C   0  0
   -6.8123   11.1915    0.0000 C   0  0
   -6.9509    9.6979    0.0000 C   0  0
   -7.4563    5.2238    0.0000 N   0  0
   -7.3959    3.7250    0.0000 C   0  0
   -8.5124    3.2851    0.0000 O   0  0
   -6.1360   11.2039    0.0000 C   0  0
   -6.1353   12.7047    0.0000 C   0  0
   -7.4391   13.4698    0.0000 C   0  0
   -7.4369   14.9668    0.0000 C   0  0
   -6.1391   15.7137    0.0000 C   0  0
   -6.1369   17.2107    0.0000 C   0  0
   -7.4324   17.9609    0.0000 C   0  0
   -8.7302   17.2141    0.0000 C   0  0
   -8.7324   15.7170    0.0000 C   0  0
   -4.8436   14.9635    0.0000 C   0  0
   -4.8367   13.4506    0.0000 C   0  0
    5.4896   11.0978    0.0000 O   0  0
    8.5767    2.8298    0.0000 C   0  0
    8.5929    1.3291    0.0000 C   0  0
   10.0735    1.0835    0.0000 C   0  0
   10.6020   -0.3212    0.0000 N   0  0
   12.0826   -0.5667    0.0000 C   0  0
   12.8443    0.3606    0.0000 N   0  0
   12.5052   -1.6899    0.0000 N   0  0
    1.2841   -3.7030    0.0000 O   0  0
   -0.0747   -2.8069    0.0000 C   0  0
   -0.7327   -4.3890    0.0000 C   0  0
    0.7304   -4.7195    0.0000 C   0  0
    2.2297   -4.7671    0.0000 N   0  0
    1.9988   -6.2581    0.0000 C   0  0
    3.3364   -6.9369    0.0000 C   0  0
    4.3954   -5.8746    0.0000 C   0  0
    3.7108   -4.5301    0.0000 C   0  0  1  0  0  0
    5.1204   -4.0171    0.0000 C   0  0
    5.6361   -5.1006    0.0000 O   0  0
    6.4073   -3.2465    0.0000 N   0  0
    7.0002   -4.0518    0.0000 C   0  0
    7.5252   -2.2464    0.0000 C   0  0
    8.4336   -1.0527    0.0000 C   0  0
    9.0997    0.2913    0.0000 N   0  0
    9.4994    1.7370    0.0000 C   0  0  2  0  0  0
   10.9887    1.4715    0.0000 C   0  0
   11.9563    2.6187    0.0000 C   0  0
   12.9408    2.4432    0.0000 O   0  0
   11.5484    3.7472    0.0000 O   0  0
    9.6183    3.2323    0.0000 C   0  0
    9.4521    4.7231    0.0000 N   0  0
   10.9248    4.3956    0.0000 C   0  0
   11.9426    5.4975    0.0000 C   0  0
   11.4972    6.9298    0.0000 C   0  0
   10.0340    7.2603    0.0000 C   0  0
    9.0067    6.1554    0.0000 C   0  0  2  0  0  0
    8.2983    7.4776    0.0000 C   0  0
    7.3524    8.6418    0.0000 N   0  0
    6.2034    9.6060    0.0000 C   0  0  1  0  0  0
    6.5861   11.0695    0.0000 C   0  0
    8.0332   11.4676    0.0000 C   0  0
    8.4245   12.9277    0.0000 C   0  0
    9.8683   13.3232    0.0000 C   0  0
   10.9330   12.2705    0.0000 C   0  0
   10.5539   10.8222    0.0000 C   0  0
    9.0972   10.4137    0.0000 C   0  0
   12.3769   12.6661    0.0000 C   0  0
   12.7560   14.1143    0.0000 C   0  0
   11.6913   15.1670    0.0000 C   0  0
   10.2474   14.7715    0.0000 C   0  0
    4.8926   10.3353    0.0000 C   0  0
    5.2935   11.2514    0.0000 O   0  0
    3.4675   10.8033    0.0000 N   0  0
    9.1308    8.0315    0.0000 O   0  0
   10.8182    3.2513    0.0000 O   0  0
    9.4533   -1.6854    0.0000 O   0  0
    0.5785   -5.9099    0.0000 O   0  0
   -2.1069   -3.7877    0.0000 C   0  0
   -5.3260   -2.6247    0.0000 O   0  0
   -7.0322    5.5293    0.0000 O   0  0
   -4.3318    9.8816    0.0000 O   0  0
   -3.0983   11.1761    0.0000 C   0  0
   -2.8593   12.6577    0.0000 C   0  0
   -4.0223   13.6063    0.0000 C   0  0
   -3.7832   15.0880    0.0000 N   0  0
   -2.3809   15.6227    0.0000 C   0  0
   -2.1897   16.8073    0.0000 N   0  0
   -1.4502   14.8651    0.0000 N   0  0
    0.3245   11.8855    0.0000 O   0  0
    3.0891   17.0937    0.0000 N   0  0
    5.0646   17.7392    0.0000 N   0  0
    9.1349    7.1472    0.0000 H   0  0
    4.6412   -4.8967    0.0000 H   0  0
   -6.4674    3.1673    0.0000 H   0  0
  2  1  1  0
  3  2  1  0
  4  3  1  0
  5  4  1  0
  6  5  1  6
  6  7  1  0
  7  8  1  0
  8  9  1  0
  9 10  1  0
 10 11  1  0
 11 12  1  0
 12 13  1  1
 13 14  1  0
 14 15  2  0
 15 16  1  0
 16 17  2  0
 17 18  1  0
 18 19  2  0
 19 14  1  0
 12 20  1  0
 20 21  1  0
 21 22  1  0
 22 23  1  0
 23 24  1  0
 25 24  1  0
 26 25  1  0
 27 26  1  0
 28 27  2  0
 28 29  1  0
 29 30  1  0
 30 31  1  0
 32 31  1  0
 32 33  1  6
 33 34  2  0
 33 35  1  0
 36 35  1  1
 36 37  1  0
 37 38  1  0
 38 39  1  0
 39 40  1  0
 40 41  1  0
 36 42  1  0
 42 43  2  0
 42 44  1  0
 32 45  1  0
 45 46  1  0
 46 47  2  0
 46 48  1  0
 48 49  1  0
 49 50  1  0
 50 51  2  0
 50 52  1  0
 52 53  1  1
 53 54  1  0
 54 55  1  0
 55 56  1  0
 56 57  1  0
 57 58  1  0
 57 59  2  0
 52 60  1  0
 61 60  1  0
 62 61  1  0
 62 63  1  1
 63 64  1  0
 64 65  1  0
 65 66  1  0
 66 67  1  0
 67 68  1  0
 67 69  2  0
 70 62  1  0
 71 70  1  0
 71 72  2  0
 73 71  1  0
 73 74  1  1
 74 75  1  0
 75 76  1  0
 76 77  1  0
 77 78  1  0
 78 79  2  0
 78 80  1  0
 81 73  1  0
 82 81  1  0
 82 83  2  0
 84 82  1  0
 85 84  1  0
 86 85  1  0
 86 87  2  0
 88 86  1  0
 88 89  1  1
 89 90  1  0
 91 90  1  0
 92 91  2  0
 93 92  1  0
 94 93  2  0
 95 94  1  0
 90 95  2  0
 96 88  1  0
 97 96  1  0
 22 97  1  0
 97 98  2  0
 84 99  1  1
 99100  1  0
100101  2  0
101102  1  0
103102  1  0
104103  2  0
105104  1  0
106105  2  0
107106  1  0
102107  2  0
103108  1  0
108109  2  0
109100  1  0
 61110  2  0
 48111  1  1
111112  1  0
112113  1  0
113114  1  0
114115  1  0
115116  1  0
115117  2  0
 29118  2  0
119 28  1  0
120119  2  0
121120  1  0
122121  1  0
123122  1  0
124123  1  0
125124  1  0
126125  1  0
122126  1  0
126127  1  0
127128  2  0
129127  1  0
129130  1  0
131129  1  0
132131  1  0
133132  1  0
134133  1  0
134135  1  1
135136  1  0
136137  2  0
136138  1  0
139134  1  0
140139  1  0
141140  1  0
142141  1  0
143142  1  0
144143  1  0
145144  1  0
145140  1  0
145146  1  0
147146  1  0
148147  1  0
148149  1  6
149150  1  0
150151  2  0
151152  1  0
153152  1  0
153154  1  0
154155  2  0
155150  1  0
156153  2  0
157156  1  0
158157  2  0
159158  1  0
152159  2  0
148160  1  0
160161  2  0
160162  1  0
162  6  1  0
146163  2  0
139164  2  0
132165  2  0
121166  2  0
167120  1  0
 26167  2  0
 25168  2  0
 20169  2  0
 10170  2  0
  9171  1  6
171172  1  0
172173  1  0
173174  1  0
174175  1  0
175176  2  0
175177  1  0
  7178  2  0
  1179  1  0
  1180  2  0
145181  1  6
126182  1  1
 22183  1  6
M  END