
  SciTegic11201309402D

 35 43  0  0  0  0            999 V2000
    0.6377  -16.4331    0.0000 C   0  0
   -5.0020  -17.3707    0.0000 C   0  0
   -5.0032  -18.1983    0.0000 C   0  0
   -4.2903  -18.6113    0.0000 C   0  0
   -3.5709  -18.1978    0.0000 C   0  0
   -4.2923  -16.9580    0.0000 C   0  0
   -3.5728  -17.3632    0.0000 C   0  0
   -3.5918  -15.7146    0.0000 C   0  0  2  0  0  0
   -4.3049  -16.1345    0.0000 C   0  0
   -2.8723  -16.1199    0.0000 C   0  0  1  0  0  0
   -2.8691  -16.9446    0.0000 C   0  0  2  0  0  0
   -2.1573  -17.3518    0.0000 C   0  0  1  0  0  0
   -2.1638  -15.7025    0.0000 C   0  0
   -2.5952  -18.1932    0.0000 O   0  0
   -2.8784  -15.2946    0.0000 O   0  0
   -1.4475  -16.1144    0.0000 C   0  0
   -1.4452  -16.9394    0.0000 C   0  0
   -0.6599  -17.1923    0.0000 N   0  0
   -0.6634  -15.8574    0.0000 C   0  0
   -0.1783  -16.5217    0.0000 C   0  0
    0.9695  -15.6805    0.0000 C   0  0
    0.4793  -15.0160    0.0000 C   0  0
   -0.3349  -15.1081    0.0000 C   0  0
   -1.4344  -18.0428    0.0000 H   0  0
   -3.5991  -14.8888    0.0000 N   0  0
   -4.0196  -15.5971    0.0000 C   0  0
   -3.5841  -16.5321    0.0000 C   0  0
   -3.6066  -14.0639    0.0000 C   0  0
   -4.3249  -13.6579    0.0000 C   0  0
   -4.7433  -12.9430    0.0000 C   0  0
   -5.1492  -13.6613    0.0000 C   0  0
   -4.2916  -19.4363    0.0000 O   0  0
   -0.4017  -17.9759    0.0000 C   0  0
    1.1249  -17.0988    0.0000 C   0  0
   -4.4621  -15.2222    0.0000 H   0  0
 16 17  2  0
  4  5  2  0
  6  9  1  0
  7 11  1  0
 17 18  1  0
 18 20  1  0
 19 16  1  0
 10  8  1  0
  8  9  1  0
 19 20  2  0
 20  1  1  0
 10 11  1  0
  1 21  2  0
  5  7  1  0
 21 22  1  0
  6  2  1  0
 22 23  2  0
 23 19  1  0
  6  7  2  0
 12 24  1  1
  8 25  1  0
 10 13  1  0
 25 26  1  0
 11 12  1  0
 11 27  1  1
 27 26  1  0
 12 17  1  0
 25 28  1  0
 16 13  1  0
 28 29  1  0
 30 29  1  0
 31 30  1  0
 29 31  1  0
  3  4  1  0
  5 14  1  0
 12 14  1  0
  4 32  1  0
  2  3  2  0
 18 33  1  0
 10 15  1  1
  1 34  1  0
 33 34  1  0
  8 35  1  6
M  END