
          11280715092D 1   1.00000     0.00000     0

 34 35  0     1  0            999 V2000
    0.3417   -1.1625    0.0000 C   0  0  2  0  0  0           0  0  0
    1.0542   -0.7500    0.0000 N   0  0  0  0  0  0           0  0  0
   -0.3708   -0.7500    0.0000 C   0  0  0  0  0  0           0  0  0
    1.7750   -1.1625    0.0000 C   0  0  0  0  0  0           0  0  0
   -1.0875   -1.1625    0.0000 N   0  0  0  0  0  0           0  0  0
   -0.3708    0.0750    0.0000 C   0  0  0  0  0  0           0  0  0
    0.3417   -1.9875    0.0000 C   0  0  0  0  0  0           0  0  0
    1.7750   -1.9875    0.0000 O   0  0  0  0  0  0           0  0  0
    5.3417   -0.7417    0.0000 N   0  0  3  0  0  0           0  0  0
   -1.0875    0.4875    0.0000 C   0  0  0  0  0  0           0  0  0
   -1.8000   -0.7500    0.0000 C   0  0  0  0  0  0           0  0  0
   -0.3708   -2.4000    0.0000 C   0  0  3  0  0  0           0  0  0
    2.4875   -0.7500    0.0000 C   0  0  0  0  0  0           0  0  0
   -1.8000    0.0750    0.0000 C   0  0  0  0  0  0           0  0  0
    4.6292   -1.1542    0.0000 C   0  0  0  0  0  0           0  0  0
    6.0625   -1.1542    0.0000 C   0  0  0  0  0  0           0  0  0
    5.3417    0.0833    0.0000 C   0  0  0  0  0  0           0  0  0
   -1.0958    1.3125    0.0000 C   0  0  0  0  0  0           0  0  0
   -0.3625   -3.2250    0.0000 C   0  0  0  0  0  0           0  0  0
   -1.0833   -1.9875    0.0000 C   0  0  0  0  0  0           0  0  0
    3.2042   -1.1625    0.0000 C   0  0  0  0  0  0           0  0  0
    6.0625   -1.9792    0.0000 C   0  0  0  0  0  0           0  0  0
    6.0542    0.4958    0.0000 C   0  0  0  0  0  0           0  0  0
    3.9167   -0.7417    0.0000 C   0  0  0  0  0  0           0  0  0
   -0.3750    1.7250    0.0000 C   0  0  0  0  0  0           0  0  0
    0.3375    1.3208    0.0000 C   0  0  0  0  0  0           0  0  0
    6.7792   -2.3875    0.0000 C   0  0  0  0  0  0           0  0  0
    6.0542    1.3208    0.0000 C   0  0  0  0  0  0           0  0  0
    6.7792   -3.2125    0.0000 C   0  0  0  0  0  0           0  0  0
    1.0542    1.7333    0.0000 C   0  0  0  0  0  0           0  0  0
    6.7667    1.7375    0.0000 C   0  0  0  0  0  0           0  0  0
   -1.0833   -3.6375    0.0000 C   0  0  0  0  0  0           0  0  0
   -1.7958   -2.4000    0.0000 C   0  0  0  0  0  0           0  0  0
   -1.7958   -3.2250    0.0000 C   0  0  0  0  0  0           0  0  0
  2  1  1  0     0  0
  3  1  1  0     0  0
  4  2  1  0     0  0
  5  3  2  0     0  0
  6  3  1  0     0  0
  1  7  1  1     0  0
  8  4  2  0     0  0
  9 15  1  0     0  0
 10  6  2  0     0  0
 11  5  1  0     0  0
 12  7  1  0     0  0
 13  4  1  0     0  0
 14 10  1  0     0  0
 15 24  1  0     0  0
 16  9  1  0     0  0
 17  9  1  0     0  0
 18 10  1  0     0  0
 19 12  1  0     0  0
 20 12  1  0     0  0
 21 13  1  0     0  0
 22 16  1  0     0  0
 23 17  1  0     0  0
 24 21  1  0     0  0
 25 18  1  0     0  0
 26 25  1  0     0  0
 27 22  1  0     0  0
 28 23  1  0     0  0
 29 27  1  0     0  0
 30 26  1  0     0  0
 31 28  1  0     0  0
 32 19  1  0     0  0
 33 20  1  0     0  0
 34 33  1  0     0  0
 14 11  2  0     0  0
 34 32  1  0     0  0
M  END