
  CDK    9/16/09,10:4

 34 37  0  0  0  0  0  0  0  0999 V2000
   15.1604  -11.9616    0.0000 C   0  0  0  0  0  0  0  0  0  0  0  0
   15.9898  -11.9427    0.0000 C   0  0  0  0  0  0  0  0  0  0  0  0
   16.3858  -11.2189    0.0000 C   0  0  0  0  0  0  0  0  0  0  0  0
   15.9570  -10.5096    0.0000 C   0  0  0  0  0  0  0  0  0  0  0  0
   15.1277  -10.5285    0.0000 C   0  0  0  0  0  0  0  0  0  0  0  0
   14.7271  -11.2569    0.0000 N   0  0  0  0  0  0  0  0  0  0  0  0
   15.3626  -11.5810    0.0000 C   0  0  0  0  0  0  0  0  0  0  0  0
   15.6860  -10.8860    0.0000 C   0  0  0  0  0  0  0  0  0  0  0  0
   13.9026  -11.2843    0.0000 C   0  0  0  0  0  0  0  0  0  0  0  0
   17.2107  -11.2088    0.0000 C   0  0  0  0  0  0  0  0  0  0  0  0
   18.0356  -11.1945    0.0000 C   0  0  0  0  0  0  0  0  0  0  0  0
   17.2230  -12.0337    0.0000 O   0  0  0  0  0  0  0  0  0  0  0  0
   17.1985  -10.3839    0.0000 C   0  0  0  0  0  0  0  0  0  0  0  0
   17.9076   -9.9636    0.0000 C   0  0  0  0  0  0  0  0  0  0  0  0
   17.8958   -9.1395    0.0000 C   0  0  0  0  0  0  0  0  0  0  0  0
   17.1748   -8.7368    0.0000 C   0  0  0  0  0  0  0  0  0  0  0  0
   16.4642   -9.1643    0.0000 C   0  0  0  0  0  0  0  0  0  0  0  0
   16.4795   -9.9870    0.0000 C   0  0  0  0  0  0  0  0  0  0  0  0
   18.4586  -11.9041    0.0000 C   0  0  0  0  0  0  0  0  0  0  0  0
   19.2827  -11.8902    0.0000 C   0  0  0  0  0  0  0  0  0  0  0  0
   19.6836  -11.1682    0.0000 C   0  0  0  0  0  0  0  0  0  0  0  0
   19.2544  -10.4587    0.0000 C   0  0  0  0  0  0  0  0  0  0  0  0
   18.4317  -10.4761    0.0000 C   0  0  0  0  0  0  0  0  0  0  0  0
   13.4665  -10.5839    0.0000 C   0  0  0  0  0  0  0  0  0  0  0  0
   12.6420  -10.6114    0.0000 O   0  0  0  0  0  0  0  0  0  0  0  0
   12.2059   -9.9111    0.0000 C   0  0  0  0  0  0  0  0  0  0  0  0
   11.3814   -9.9386    0.0000 C   0  0  0  0  0  0  0  0  0  0  0  0
   10.9490   -9.2369    0.0000 C   0  0  0  0  0  0  0  0  0  0  0  0
   10.1252   -9.2639    0.0000 C   0  0  0  0  0  0  0  0  0  0  0  0
    9.7359   -9.9922    0.0000 C   0  0  0  0  0  0  0  0  0  0  0  0
   10.1765  -10.6948    0.0000 C   0  0  0  0  0  0  0  0  0  0  0  0
   10.9988  -10.6642    0.0000 C   0  0  0  0  0  0  0  0  0  0  0  0
    9.7906  -11.4240    0.0000 F   0  0  0  0  0  0  0  0  0  0  0  0
   14.9597   -7.9290    0.0000 Br  0  0  0  0  0  0  0  0  0  0  0  0
 15 16  2  0  0  0  0 
 16 17  1  0  0  0  0 
  7  8  1  0  0  0  0 
 17 18  2  0  0  0  0 
 18 13  1  0  0  0  0 
  3  8  1  0  0  0  0 
 11 19  2  0  0  0  0 
  1  2  1  0  0  0  0 
 19 20  1  0  0  0  0 
  6  9  1  0  0  0  0 
 20 21  2  0  0  0  0 
  1  6  1  0  0  0  0 
 21 22  1  0  0  0  0 
  3 10  1  0  0  0  0 
 22 23  2  0  0  0  0 
 23 11  1  0  0  0  0 
  2  3  1  0  0  0  0 
  9 24  1  0  0  0  0 
 10 11  1  0  0  0  0 
 24 25  1  0  0  0  0 
  3  4  1  0  0  0  0 
 25 26  1  0  0  0  0 
 10 12  1  0  0  0  0 
 26 27  1  0  0  0  0 
  4  5  1  0  0  0  0 
 27 28  2  0  0  0  0 
 10 13  1  0  0  0  0 
 28 29  1  0  0  0  0 
  5  6  1  0  0  0  0 
 29 30  2  0  0  0  0 
 13 14  2  0  0  0  0 
 30 31  1  0  0  0  0 
 31 32  2  0  0  0  0 
 32 27  1  0  0  0  0 
 14 15  1  0  0  0  0 
 31 33  1  0  0  0  0 
  6  7  1  0  0  0  0 
M  CHG  1   6   1
M  CHG  1  34  -1
M  END