
          11280715122D 1   1.00000     0.00000     0

 30 32  0     0  0            999 V2000
    8.1000   -6.8167    0.0000 C   0  0  0  0  0  0           0  0  0
    7.3792   -6.4042    0.0000 C   0  0  0  0  0  0           0  0  0
    8.1000   -7.6417    0.0000 C   0  0  0  0  0  0           0  0  0
    2.8292   -6.4292    0.0000 N   0  0  3  0  0  0           0  0  0
    8.8125   -8.0542    0.0000 N   0  0  0  0  0  0           0  0  0
    2.1125   -6.0167    0.0000 C   0  0  0  0  0  0           0  0  0
    4.2542   -7.2542    0.0000 N   0  0  3  0  0  0           0  0  0
    7.3792   -5.5792    0.0000 N   0  0  3  0  0  0           0  0  0
    8.8125   -6.4042    0.0000 C   0  0  0  0  0  0           0  0  0
    6.6667   -6.8167    0.0000 O   0  0  0  0  0  0           0  0  0
    3.5417   -6.0167    0.0000 C   0  0  0  0  0  0           0  0  0
    2.8250   -7.2542    0.0000 C   0  0  0  0  0  0           0  0  0
    2.1125   -5.1917    0.0000 C   0  0  0  0  0  0           0  0  0
    7.2750   -7.6417    0.0000 N   0  0  0  0  0  0           0  0  0
    9.5292   -7.6417    0.0000 C   0  0  0  0  0  0           0  0  0
    4.2542   -6.4292    0.0000 C   0  0  0  0  0  0           0  0  0
    3.5417   -7.6667    0.0000 C   0  0  0  0  0  0           0  0  0
    9.5250   -6.8125    0.0000 C   0  0  0  0  0  0           0  0  0
    2.8250   -4.7750    0.0000 O   0  0  0  0  0  0           0  0  0
    4.9667   -7.6667    0.0000 C   0  0  0  0  0  0           0  0  0
   10.2375   -6.3917    0.0000 O   0  0  0  0  0  0           0  0  0
    5.7667   -7.4500    0.0000 C   0  0  0  0  0  0           0  0  0
    1.3917   -6.4292    0.0000 C   0  0  0  0  0  0           0  0  0
    6.4792   -7.8625    0.0000 C   0  0  0  0  0  0           0  0  0
    6.6667   -5.1667    0.0000 C   0  0  0  0  0  0           0  0  0
    8.1000   -5.1667    0.0000 C   0  0  0  0  0  0           0  0  0
    1.3917   -4.7792    0.0000 C   0  0  0  0  0  0           0  0  0
    3.5417   -5.1792    0.0000 C   0  0  0  0  0  0           0  0  0
    0.6792   -6.0167    0.0000 C   0  0  0  0  0  0           0  0  0
    0.6792   -5.1917    0.0000 C   0  0  0  0  0  0           0  0  0
  2  1  1  0     0  0
  3  1  2  0     0  0
  4 12  1  0     0  0
  5  3  1  0     0  0
  6  4  1  0     0  0
  7 20  1  0     0  0
  8  2  1  0     0  0
  9  1  1  0     0  0
 10  2  2  0     0  0
 11 16  1  0     0  0
 12 17  1  0     0  0
 13  6  1  0     0  0
 14  3  1  0     0  0
 15 18  1  0     0  0
 16  7  1  0     0  0
 17  7  1  0     0  0
 18  9  2  0     0  0
 19 13  1  0     0  0
 20 22  1  0     0  0
 21 18  1  0     0  0
 22 24  1  0     0  0
 23  6  2  0     0  0
 24 14  1  0     0  0
 25  8  1  0     0  0
 26  8  1  0     0  0
 27 13  2  0     0  0
 28 19  1  0     0  0
 29 23  1  0     0  0
 30 29  2  0     0  0
 15  5  2  0     0  0
  4 11  1  0     0  0
 30 27  1  0     0  0
M  END