
          08180812472D 1   1.00000     0.00000     0

 25 28  0     1  0            999 V2000
   -4.1860   -9.1162    0.0000 C   0  0  0  0  0  0           0  0  0
   -4.1860   -8.2912    0.0000 C   0  0  0  0  0  0           0  0  0
   -3.4719   -7.8787    0.0000 C   0  0  0  0  0  0           0  0  0
   -4.9002   -9.5287    0.0000 O   0  0  0  0  0  0           0  0  0
   -3.4719   -9.5287    0.0000 C   0  0  0  0  0  0           0  0  0
   -2.7578   -9.1162    0.0000 C   0  0  0  0  0  0           0  0  0
   -2.0437   -9.5287    0.0000 C   0  0  0  0  0  0           0  0  0
   -1.3249   -9.1162    0.0000 C   0  0  0  0  0  0           0  0  0
   -1.3249   -8.2912    0.0000 C   0  0  1  0  0  0           0  0  0
   -0.6108   -7.8787    0.0000 C   0  0  2  0  0  0           0  0  0
    0.1697   -8.1387    0.0000 C   0  0  0  0  0  0           0  0  0
    0.6571   -7.4662    0.0000 C   0  0  0  0  0  0           0  0  0
    0.1697   -6.8031    0.0000 C   0  0  2  0  0  0           0  0  0
    0.4297   -6.0179    0.0000 O   0  0  0  0  0  0           0  0  0
   -0.6108   -7.0537    0.0000 C   0  0  2  0  0  0           0  0  0
   -0.6108   -6.2287    0.0000 C   0  0  0  0  0  0           0  0  0
   -1.3249   -6.6412    0.0000 C   0  0  0  0  0  0           0  0  0
   -2.0437   -7.0537    0.0000 C   0  0  0  0  0  0           0  0  0
   -2.0437   -7.8787    0.0000 C   0  0  2  0  0  0           0  0  0
   -2.7578   -8.2912    0.0000 C   0  0  1  0  0  0           0  0  0
   -2.7578   -7.4662    0.0000 C   0  0  0  0  0  0           0  0  0
   -2.0437   -8.7037    0.0000 H   0  0  0  0  0  0           0  0  0
   -1.3249   -7.4662    0.0000 H   0  0  0  0  0  0           0  0  0
   -0.6108   -8.7037    0.0000 H   0  0  0  0  0  0           0  0  0
   -3.4719  -10.3537    0.0000 C   0  0  0  0  0  0           0  0  0
  1  2  1  0     0  0
  2  3  1  0     0  0
  1  4  2  0     0  0
  1  5  1  0     0  0
  5  6  2  0     0  0
  6  7  1  0     0  0
  7  8  1  0     0  0
  8  9  1  0     0  0
  9 10  1  0     0  0
 10 11  1  0     0  0
 11 12  1  0     0  0
 12 13  1  0     0  0
 13 14  1  1     0  0
 13 15  1  0     0  0
 10 15  1  0     0  0
 15 16  1  1     0  0
 15 17  1  0     0  0
 17 18  1  0     0  0
 18 19  1  0     0  0
  9 19  1  0     0  0
 19 20  1  0     0  0
  3 20  1  0     0  0
  6 20  1  0     0  0
 20 21  1  1     0  0
 19 22  1  6     0  0
  9 23  1  1     0  0
 10 24  1  6     0  0
  5 25  1  0     0  0
M  END