
  SciTegic01061111512D

 23 25  0  0  0  0            999 V2000
    2.9777   -3.9482    0.0000 C   0  0  2  0  0  0
    2.9777   -4.7734    0.0000 C   0  0  1  0  0  0
    3.6863   -5.1839    0.0000 C   0  0  1  0  0  0
    4.3992   -4.7734    0.0000 C   0  0  2  0  0  0
    4.3992   -3.9482    0.0000 C   0  0  1  0  0  0
    3.6863   -3.5334    0.0000 O   0  0
    5.1156   -3.5396    0.0000 S   0  0
    5.8297   -3.9524    0.0000 C   0  0
    5.1138   -5.1891    0.0000 O   0  0
    3.6863   -6.0093    0.0000 N   0  0
    3.0254   -6.4937    0.0000 N   0  0
    3.2791   -7.2788    0.0000 N   0  0
    4.1044   -7.2788    0.0000 C   0  0
    4.3580   -6.4937    0.0000 C   0  0
    2.2629   -5.1891    0.0000 O   0  0
    2.2611   -3.5396    0.0000 C   0  0
    2.2587   -2.7144    0.0000 O   0  0
    4.5913   -7.9430    0.0000 C   0  0
    4.2504   -8.6960    0.0000 C   0  0
    4.7365   -9.3640    0.0000 C   0  0
    5.5583   -9.2784    0.0000 C   0  0
    5.8915   -8.5191    0.0000 C   0  0
    5.4074   -7.8543    0.0000 C   0  0
  4  5  1  0
  5  6  1  0
 11 12  2  0
 12 13  1  0
 13 14  2  0
 14 10  1  0
  5  7  1  1
  2 15  1  1
  1  2  1  0
  1 16  1  1
  7  8  1  0
 16 17  1  0
  1  6  1  0
 13 18  1  0
  4  9  1  6
 18 19  2  0
  2  3  1  0
 19 20  1  0
  3 10  1  1
 20 21  2  0
 10 11  1  0
 21 22  1  0
  3  4  1  0
 22 23  2  0
 23 18  1  0
M  END