
          11280714542D 1   1.00000     0.00000     0

 35 37  0     0  0            999 V2000
    5.2625   -7.0000    0.0000 S   0  0  3  0  0  0           0  0  0
   -0.3500   -6.2042    0.0000 C   0  0  0  0  0  0           0  0  0
    0.1667   -6.5042    0.0000 N   0  0  0  0  0  0           0  0  0
    3.3417   -5.3250    0.0000 N   0  0  3  0  0  0           0  0  0
    0.6875   -6.2042    0.0000 C   0  0  0  0  0  0           0  0  0
   -0.8708   -6.5125    0.0000 C   0  0  0  0  0  0           0  0  0
    2.7875   -5.6375    0.0000 C   0  0  3  0  0  0           0  0  0
    3.1042   -6.0292    0.0000 C   0  0  3  0  0  0           0  0  0
    1.7292   -6.2000    0.0000 C   0  0  3  0  0  0           0  0  0
    5.2625   -6.4000    0.0000 C   0  0  0  0  0  0           0  0  0
    2.2417   -5.8917    0.0000 C   0  0  0  0  0  0           0  0  0
    1.9625   -5.4917    0.0000 C   0  0  0  0  0  0           0  0  0
    1.2125   -6.5000    0.0000 N   0  0  0  0  0  0           0  0  0
    5.9917   -7.3625    0.0000 O   0  0  0  0  0  0           0  0  0
    5.2667   -7.7417    0.0000 O   0  0  0  0  0  0           0  0  0
   -0.3583   -5.6042    0.0000 O   0  0  0  0  0  0           0  0  0
   -1.3875   -6.2125    0.0000 C   0  0  0  0  0  0           0  0  0
    0.6875   -5.6042    0.0000 O   0  0  0  0  0  0           0  0  0
    4.6667   -7.0417    0.0000 O   0  0  0  0  0  0           0  0  0
    4.7417   -6.1000    0.0000 C   0  0  0  0  0  0           0  0  0
    5.7792   -6.1000    0.0000 C   0  0  0  0  0  0           0  0  0
    3.6375   -4.8042    0.0000 C   0  0  0  0  0  0           0  0  0
    5.7792   -5.4917    0.0000 C   0  0  0  0  0  0           0  0  0
    4.7417   -5.5000    0.0000 C   0  0  0  0  0  0           0  0  0
    5.2625   -5.1917    0.0000 C   0  0  0  0  0  0           0  0  0
   -0.8708   -7.1167    0.0000 C   0  0  0  0  0  0           0  0  0
   -1.3958   -5.6125    0.0000 O   0  0  0  0  0  0           0  0  0
    3.1042   -6.6292    0.0000 C   0  0  0  0  0  0           0  0  0
    2.4667   -6.1167    0.0000 C   0  0  0  0  0  0           0  0  0
    2.5042   -6.6250    0.0000 C   0  0  0  0  0  0           0  0  0
   -1.9083   -6.5125    0.0000 C   0  0  0  0  0  0           0  0  0
    5.2542   -4.5917    0.0000 C   0  0  0  0  0  0           0  0  0
   -1.9125   -5.3167    0.0000 C   0  0  0  0  0  0           0  0  0
   -1.3875   -7.4167    0.0000 C   0  0  0  0  0  0           0  0  0
   -1.9083   -7.1167    0.0000 C   0  0  0  0  0  0           0  0  0
  3  2  1  0     0  0
  4  7  1  0     0  0
  5  3  1  0     0  0
  6  2  1  0     0  0
  7 12  1  0     0  0
  8 11  1  0     0  0
  9 13  1  0     0  0
 10  1  1  0     0  0
 11  9  1  0     0  0
 12  9  1  0     0  0
 13  5  1  0     0  0
 14  1  2  0     0  0
 15  1  2  0     0  0
 16  2  2  0     0  0
 17  6  2  0     0  0
 18  5  2  0     0  0
 19  1  1  0     0  0
 20 10  1  0     0  0
 21 10  2  0     0  0
 22  4  1  0     0  0
 23 21  1  0     0  0
 24 20  2  0     0  0
 25 23  2  0     0  0
 26  6  1  0     0  0
 27 17  1  0     0  0
 28  8  1  0     0  0
 29  7  1  0     0  0
 30 29  1  0     0  0
 31 17  1  0     0  0
 32 25  1  0     0  0
 33 27  1  0     0  0
 34 26  2  0     0  0
 35 34  1  0     0  0
 24 25  1  0     0  0
 35 31  2  0     0  0
  4  8  1  0     0  0
 30 28  1  0     0  0
M  END