
  Mrv0541 04051115152D          

 16 17  0  0  0  0            999 V2000
    1.9121   -1.7855    0.0000 C   0  0  0  0  0  0  0  0  0  0  0  0
    1.9121   -0.9605    0.0000 N   0  0  0  0  0  0  0  0  0  0  0  0
   -1.6603    2.7520    0.0000 Cl  0  0  0  0  0  0  0  0  0  0  0  0
    1.1976   -0.5480    0.0000 C   0  0  0  0  0  0  0  0  0  0  0  0
    1.1976    0.2770    0.0000 N   0  0  0  0  0  0  0  0  0  0  0  0
    0.4831   -0.9605    0.0000 C   0  0  0  0  0  0  0  0  0  0  0  0
    0.4831   -1.7855    0.0000 C   0  0  0  0  0  0  0  0  0  0  0  0
    1.1976   -2.1980    0.0000 C   0  0  0  0  0  0  0  0  0  0  0  0
   -0.2314   -0.5480    0.0000 C   0  0  0  0  0  0  0  0  0  0  0  0
   -0.2314    0.2770    0.0000 C   0  0  0  0  0  0  0  0  0  0  0  0
   -0.9458    0.6895    0.0000 C   0  0  0  0  0  0  0  0  0  0  0  0
   -1.6603    0.2770    0.0000 C   0  0  0  0  0  0  0  0  0  0  0  0
   -2.3748    0.6895    0.0000 C   0  0  0  0  0  0  0  0  0  0  0  0
   -2.3748    1.5145    0.0000 C   0  0  0  0  0  0  0  0  0  0  0  0
   -1.6603    1.9270    0.0000 C   0  0  0  0  0  0  0  0  0  0  0  0
   -0.9458    1.5145    0.0000 C   0  0  0  0  0  0  0  0  0  0  0  0
  1  8  2  0  0  0  0
  1  2  1  0  0  0  0
  4  2  2  0  0  0  0
 15  3  1  0  0  0  0
  4  6  1  0  0  0  0
  4  5  1  0  0  0  0
  6  9  1  0  0  0  0
  6  7  2  0  0  0  0
  7  8  1  0  0  0  0
  9 10  1  0  0  0  0
 10 11  1  0  0  0  0
 16 11  2  0  0  0  0
 11 12  1  0  0  0  0
 13 12  2  0  0  0  0
 13 14  1  0  0  0  0
 14 15  2  0  0  0  0
 15 16  1  0  0  0  0
M  END