
  SciTegic09291412002D

 70 72  0  0  0  0            999 V2000
   18.0813   -7.0054    0.0000 S   0  0
   18.7917   -6.5930    0.0000 S   0  0
   14.4677   -6.3604    0.0000 O   0  0
   15.2231   -7.0054    0.0000 O   0  0
   13.0866   -3.0152    0.0000 O   0  0
   15.2231   -7.8301    0.0000 O   0  0
   18.7917  -11.5417    0.0000 O   0  0
   15.9376  -10.7169    0.0000 O   0  0
   21.6500  -10.7169    0.0000 O   0  0
   14.5086   -8.2426    0.0000 O   0  0
   20.9396   -7.8301    0.0000 O   0  0
   10.8950   -5.0315    0.0000 O   0  0
   15.9376   -5.7681    0.0000 N   0  0
   20.2251  -10.7169    0.0000 N   0  0
   15.2698   -5.2828    0.0000 C   0  0  1  0  0  0
   15.5253   -4.4956    0.0000 C   0  0
   16.3500   -4.4956    0.0000 C   0  0
   16.6055   -5.2828    0.0000 C   0  0
   14.4857   -5.5381    0.0000 C   0  0
   15.9376   -6.5930    0.0000 C   0  0
   16.6522   -7.0054    0.0000 C   0  0  2  0  0  0
   13.7786   -4.2644    0.0000 C   0  0  1  0  0  0
   14.5006   -3.8597    0.0000 C   0  0
   17.3668   -6.5930    0.0000 C   0  0
   14.4953   -3.0373    0.0000 C   0  0
   13.0727   -3.8375    0.0000 C   0  0
   15.9376   -8.2426    0.0000 C   0  0
   15.9376   -9.0673    0.0000 C   0  0  2  0  0  0
   19.5105  -11.6216    0.0000 C   0  0  2  0  0  0
   19.5105  -10.3045    0.0000 C   0  0  1  0  0  0
   15.2087   -2.6200    0.0000 C   0  0
   13.7796   -2.6270    0.0000 C   0  0
   17.3669  -10.7169    0.0000 C   0  0  2  0  0  0
   20.2251  -12.0382    0.0000 C   0  0
   15.2231   -9.4797    0.0000 C   0  0
   18.7917  -10.7169    0.0000 C   0  0
   16.6522  -10.3045    0.0000 C   0  0
   18.5774  -12.1603    0.0000 C   0  0
   17.3669  -11.5417    0.0000 C   0  0  1  0  0  0
   20.9396   -9.4797    0.0000 C   0  0  2  0  0  0
   20.9396  -10.3045    0.0000 C   0  0
   11.6319   -3.8128    0.0000 C   0  0
   20.2251  -12.8630    0.0000 C   0  0
   16.6524  -11.9541    0.0000 C   0  0
   21.6500   -9.0673    0.0000 C   0  0
   19.5105   -7.0054    0.0000 C   0  0
   19.5105   -7.8301    0.0000 C   0  0
   14.5086   -9.0673    0.0000 C   0  0
   20.2251   -8.2426    0.0000 C   0  0
   22.3645   -9.4797    0.0000 C   0  0
   10.9089   -4.2092    0.0000 C   0  0
   23.0834   -9.0673    0.0000 C   0  0
   22.3646  -10.3045    0.0000 C   0  0
   23.7937   -9.4797    0.0000 C   0  0
   23.0834  -10.7169    0.0000 C   0  0
   23.7937  -10.3045    0.0000 C   0  0
   24.4843  -10.7172    0.0000 O   0  0
   18.0574  -10.3047    0.0000 N   0  0
   16.6794   -7.8461    0.0000 N   0  0
   20.1978   -9.0833    0.0000 N   0  0
   12.3448   -4.2592    0.0000 N   0  0
   13.7826   -9.4729    0.0000 N   0  0
   13.7644   -5.1054    0.0000 N   0  0
   10.2030   -3.7865    0.0000 N   0  0
   16.6794   -9.4638    0.0000 N   0  0
   19.9216   -6.2821    0.0000 C   0  0
   20.3382   -7.0017    0.0000 C   0  0
   18.1626  -11.7484    0.0000 O   0  0
   18.2365  -11.2106    0.0000 H   0  0
   20.0106  -11.1705    0.0000 H   0  0
 10 48  2  0
 11 49  2  0
 12 51  2  0
 57 56  1  0
 13 15  1  0
 13 18  1  0
 13 20  1  0
 63 19  1  0
 22 63  1  6
 59 21  1  0
 59 27  1  0
 61 26  1  0
 61 42  1  0
 65 28  1  0
 65 37  1  0
 30 14  1  0
 14 41  1  0
 33 58  1  0
 58 36  1  0
 60 40  1  0
 60 49  1  0
 62 48  1  0
 64 51  1  0
 15 16  1  0
 15 19  1  6
 16 17  1  0
 17 18  1  0
 21 20  1  6
 21 24  1  0
 22 23  1  0
 22 26  1  0
 23 25  1  0
 25 31  1  0
 25 32  1  0
 27 28  1  0
 28 35  1  1
 29 30  1  0
 29 34  1  0
 29 38  1  6
 30 36  1  0
 33 37  1  0
 33 39  1  0
 34 43  1  0
 35 48  1  0
 39 44  1  6
 40 41  1  0
 40 45  1  1
 42 51  1  0
 45 50  1  0
 46 47  1  0
 47 49  1  0
 50 52  2  0
 50 53  1  0
 52 54  1  0
 53 55  2  0
 54 56  2  0
 55 56  1  0
  1  2  1  0
  1 24  1  0
  2 46  1  0
  3 19  2  0
  4 20  2  0
  5 26  2  0
  6 27  2  0
  7 36  2  0
  8 37  2  0
  9 41  2  0
 46 66  1  0
 46 67  1  0
 39 68  1  0
 33 69  1  6
 30 70  1  6
M  END