
          11280715122D 1   1.00000     0.00000     0

 35 38  0     0  0            999 V2000
    5.1042   -4.3667    0.0000 C   0  0  0  0  0  0           0  0  0
    4.3917   -4.7792    0.0000 N   0  0  0  0  0  0           0  0  0
    5.1042   -3.5375    0.0000 C   0  0  0  0  0  0           0  0  0
    3.6792   -4.3667    0.0000 C   0  0  0  0  0  0           0  0  0
    8.1167   -8.6917    0.0000 C   0  0  0  0  0  0           0  0  0
    7.5875   -9.9250    0.0000 N   0  0  0  0  0  0           0  0  0
    8.2917   -9.5042    0.0000 N   0  0  0  0  0  0           0  0  0
    6.9667   -9.3917    0.0000 N   0  0  0  0  0  0           0  0  0
    2.9625   -4.7792    0.0000 C   0  0  3  0  0  0           0  0  0
    7.3000   -8.6167    0.0000 N   0  0  0  0  0  0           0  0  0
    3.6792   -3.5375    0.0000 N   0  0  0  0  0  0           0  0  0
    5.8167   -4.7792    0.0000 N   0  0  3  0  0  0           0  0  0
    8.6667   -8.0792    0.0000 C   0  0  0  0  0  0           0  0  0
    5.8167   -3.1167    0.0000 C   0  0  0  0  0  0           0  0  0
    4.3917   -3.1250    0.0000 C   0  0  0  0  0  0           0  0  0
    8.6667   -7.2500    0.0000 C   0  0  0  0  0  0           0  0  0
    7.9542   -6.8417    0.0000 C   0  0  0  0  0  0           0  0  0
    5.8167   -5.6042    0.0000 C   0  0  0  0  0  0           0  0  0
    5.8167   -2.2917    0.0000 O   0  0  0  0  0  0           0  0  0
    2.3042   -5.1542    0.0000 F   0  0  0  0  0  0           0  0  0
    2.1500   -4.4667    0.0000 F   0  0  0  0  0  0           0  0  0
    2.8167   -5.6292    0.0000 F   0  0  0  0  0  0           0  0  0
    7.9542   -6.0125    0.0000 C   0  0  0  0  0  0           0  0  0
    7.2417   -7.2542    0.0000 C   0  0  0  0  0  0           0  0  0
    6.5292   -6.0167    0.0000 C   0  0  0  0  0  0           0  0  0
    6.5375   -3.5292    0.0000 O   0  0  0  0  0  0           0  0  0
    6.5292   -6.8417    0.0000 C   0  0  0  0  0  0           0  0  0
    7.2375   -5.6000    0.0000 C   0  0  0  0  0  0           0  0  0
    6.5292   -4.3667    0.0000 C   0  0  0  0  0  0           0  0  0
    9.3792   -8.4917    0.0000 C   0  0  0  0  0  0           0  0  0
    9.3792   -6.8417    0.0000 C   0  0  0  0  0  0           0  0  0
    7.2375   -4.7792    0.0000 C   0  0  0  0  0  0           0  0  0
   10.0917   -8.0792    0.0000 C   0  0  0  0  0  0           0  0  0
   10.0917   -7.2500    0.0000 C   0  0  0  0  0  0           0  0  0
    7.9417   -4.3667    0.0000 C   0  0  0  0  0  0           0  0  0
  2  1  2  0     0  0
  3  1  1  0     0  0
  4  2  1  0     0  0
  5 13  1  0     0  0
  6  7  2  0     0  0
  7  5  1  0     0  0
  8 10  1  0     0  0
  9  4  1  0     0  0
 10  5  2  0     0  0
 11 15  1  0     0  0
 12  1  1  0     0  0
 13 16  2  0     0  0
 14  3  1  0     0  0
 15  3  2  0     0  0
 16 17  1  0     0  0
 17 23  2  0     0  0
 18 12  1  0     0  0
 19 14  2  0     0  0
 20  9  1  0     0  0
 21  9  1  0     0  0
 22  9  1  0     0  0
 23 28  1  0     0  0
 24 27  2  0     0  0
 25 18  1  0     0  0
 26 14  1  0     0  0
 27 25  1  0     0  0
 28 25  2  0     0  0
 29 12  1  0     0  0
 30 13  1  0     0  0
 31 16  1  0     0  0
 32 29  1  0     0  0
 33 34  1  0     0  0
 34 31  2  0     0  0
 35 32  1  0     0  0
  4 11  2  0     0  0
 17 24  1  0     0  0
 33 30  2  0     0  0
  6  8  1  0     0  0
M  END