
  CDK    9/16/09,9:56

 28 30  0  0  0  0  0  0  0  0999 V2000
   -1.9083   -1.7500    0.0000 N   0  0  0  0  0  0  0  0  0  0  0  0
   -1.9083   -2.5750    0.0000 C   0  0  0  0  0  0  0  0  0  0  0  0
   -1.1963   -2.9833    0.0000 N   0  0  0  0  0  0  0  0  0  0  0  0
   -1.1963   -1.3333    0.0000 C   0  0  0  0  0  0  0  0  0  0  0  0
   -2.6240   -1.3396    0.0000 C   0  0  0  0  0  0  0  0  0  0  0  0
   -2.6264   -0.5146    0.0000 C   0  0  0  0  0  0  0  0  0  0  0  0
   -1.1963   -3.8083    0.0000 C   0  0  0  0  0  0  0  0  0  0  0  0
   -1.9108   -4.2208    0.0000 C   0  0  0  0  0  0  0  0  0  0  0  0
   -2.6222   -2.9885    0.0000 O   0  0  0  0  0  0  0  0  0  0  0  0
   -1.1963   -0.5083    0.0000 O   0  0  0  0  0  0  0  0  0  0  0  0
   -0.4843   -1.7500    0.0000 C   0  0  0  0  0  0  0  0  0  0  0  0
   -0.4797   -2.5760    0.0000 C   0  0  0  0  0  0  0  0  0  0  0  0
    0.3072   -2.8270    0.0000 N   0  0  0  0  0  0  0  0  0  0  0  0
    0.7891   -2.1560    0.0000 C   0  0  0  0  0  0  0  0  0  0  0  0
    0.2999   -1.4905    0.0000 N   0  0  0  0  0  0  0  0  0  0  0  0
    0.5505   -0.7045    0.0000 C   0  0  0  0  0  0  0  0  0  0  0  0
    1.6141   -2.1514    0.0000 C   0  0  0  0  0  0  0  0  0  0  0  0
    2.0306   -2.8636    0.0000 C   0  0  0  0  0  0  0  0  0  0  0  0
    2.8556   -2.8590    0.0000 C   0  0  0  0  0  0  0  0  0  0  0  0
    3.2686   -3.5736    0.0000 C   0  0  0  0  0  0  0  0  0  0  0  0
    4.0929   -3.5694    0.0000 C   0  0  0  0  0  0  0  0  0  0  0  0
    4.5022   -2.8521    0.0000 C   0  0  0  0  0  0  0  0  0  0  0  0
    4.0813   -2.1376    0.0000 C   0  0  0  0  0  0  0  0  0  0  0  0
    3.2585   -2.1453    0.0000 C   0  0  0  0  0  0  0  0  0  0  0  0
    5.3272   -2.8464    0.0000 O   0  0  0  0  0  0  0  0  0  0  0  0
    5.7446   -3.5580    0.0000 C   0  0  0  0  0  0  0  0  0  0  0  0
    4.5090   -4.2818    0.0000 O   0  0  0  0  0  0  0  0  0  0  0  0
    4.1001   -4.9983    0.0000 C   0  0  0  0  0  0  0  0  0  0  0  0
 12 13  1  0  0  0  0 
 13 14  2  0  0  0  0 
 14 15  1  0  0  0  0 
 15 11  1  0  0  0  0 
  3  7  1  0  0  0  0 
 15 16  1  0  0  0  0 
  2  3  1  0  0  0  0 
 14 17  1  0  0  0  0 
  7  8  1  0  0  0  0 
 17 18  2  0  0  0  0 
  3 12  1  0  0  0  0 
 18 19  1  0  0  0  0 
  2  9  2  0  0  0  0 
 19 20  2  0  0  0  0 
 11  4  1  0  0  0  0 
 20 21  1  0  0  0  0 
  4 10  2  0  0  0  0 
 21 22  2  0  0  0  0 
 11 12  2  0  0  0  0 
 22 23  1  0  0  0  0 
 23 24  2  0  0  0  0 
 24 19  1  0  0  0  0 
  1  5  1  0  0  0  0 
 22 25  1  0  0  0  0 
  1  2  1  0  0  0  0 
 25 26  1  0  0  0  0 
  5  6  1  0  0  0  0 
 21 27  1  0  0  0  0 
  1  4  1  0  0  0  0 
 27 28  1  0  0  0  0 
M  END