
  SciTegic09261414462D

 56 59  0  0  0  0            999 V2000
   13.0446  -12.4489    0.0000 H   0  0
    8.7457  -10.0324    0.0000 O   0  0
    5.8646   -9.2475    0.0000 O   0  0
   10.8992  -12.0772    0.0000 C   0  0  1  0  0  0
    7.2745   -8.4012    0.0000 O   0  0
   15.9074  -11.5985    0.0000 O   0  0
   13.0579  -13.2811    0.0000 O   0  0
    8.0116   -9.6285    0.0000 C   0  0  2  0  0  0
    8.7760  -13.3297    0.0000 C   0  0  2  0  0  0
   10.1779  -11.6764    0.0000 O   0  0
    7.3279  -11.6959    0.0000 O   0  0
   11.6319  -13.3008    0.0000 C   0  0  2  0  0  0
    8.0496  -12.1025    0.0000 C   0  0  2  0  0  0
   10.9159  -12.8988    0.0000 C   0  0  1  0  0  0
   11.6092  -11.6556    0.0000 C   0  0  2  0  0  0
    9.4845  -12.9094    0.0000 C   0  0  1  0  0  0
    9.4829  -12.0856    0.0000 O   0  0
    7.3480  -13.3459    0.0000 O   0  0
   15.1952  -12.8477    0.0000 C   0  0  1  0  0  0
    5.1571   -9.6654    0.0000 O   0  0
    8.7165   -9.2022    0.0000 C   0  0
    8.7793  -14.1571    0.0000 O   0  0
    5.8876  -10.8917    0.0000 N   0  0
    7.2905   -9.2270    0.0000 C   0  0  2  0  0  0
   12.3727  -14.5096    0.0000 C   0  0
    5.1671  -10.4891    0.0000 C   0  0
   12.4055  -15.3349    0.0000 O   0  0
   13.0732  -14.0723    0.0000 C   0  0
    8.7618  -11.6843    0.0000 C   0  0  2  0  0  0
   12.3384  -12.8770    0.0000 C   0  0  1  0  0  0
   10.2058  -13.3206    0.0000 O   0  0
   15.9130  -13.2548    0.0000 O   0  0
    8.0437  -11.2671    0.0000 H   0  0
    9.4388   -9.6017    0.0000 O   0  0
    4.4602  -10.9124    0.0000 C   0  0
    6.5980  -10.4706    0.0000 C   0  0  1  0  0  0
    9.4601  -10.4382    0.0000 O   0  0
   15.1891  -12.0240    0.0000 C   0  0  1  0  0  0
   12.3013  -10.4060    0.0000 O   0  0
   13.7727  -12.8615    0.0000 C   0  0  2  0  0  0
    8.0278  -10.4520    0.0000 O   0  0
   12.3254  -11.2251    0.0000 O   0  0
    7.3191  -10.8721    0.0000 C   0  0  1  0  0  0
   13.7630  -12.0355    0.0000 C   0  0  1  0  0  0
    8.7492  -10.8585    0.0000 C   0  0
    8.0622  -12.9240    0.0000 C   0  0  2  0  0  0
   13.0432  -11.6317    0.0000 C   0  0
   14.4948  -14.0870    0.0000 O   0  0
   11.6431  -14.1237    0.0000 N   0  0
   12.3324  -12.0532    0.0000 O   0  0
   14.4887  -13.2633    0.0000 C   0  0  2  0  0  0
    6.5857   -9.6490    0.0000 C   0  0  1  0  0  0
   14.4729  -11.6137    0.0000 O   0  0
   11.5924  -10.8299    0.0000 C   0  0
   13.0347  -10.8079    0.0000 O   0  0
   10.1912  -12.4942    0.0000 H   0  0
 43 33  1  6
 30  1  1  6
 46  9  1  0
 38 53  1  0
 38  6  1  1
 24 52  1  0
 30 50  1  0
 44 53  1  0
  4 10  1  6
 52  3  1  1
 51 19  1  0
 12 49  1  6
 44 40  1  0
 23 26  1  0
 43 41  1  0
 24  5  1  6
 36 23  1  6
 29 45  1  1
  8 41  1  0
 21 34  1  0
 49 25  1  0
 13 46  1  0
 14 12  1  0
 47 42  2  0
 26 20  2  0
 45 37  1  0
 45  2  2  0
 52 36  1  0
  9 16  1  0
 19 32  1  6
 43 11  1  0
 51 48  1  1
 12 30  1  0
 19 38  1  0
 26 35  1  0
 25 28  1  0
 44 47  1  1
  9 22  1  6
 14 31  1  1
 36 43  1  0
  8 24  1  0
 15 50  1  0
  8 21  1  1
 29 13  1  0
 13 11  1  6
 15 54  1  1
 47 55  1  0
 25 27  2  0
 46 18  1  1
 40  7  1  6
 54 39  1  0
  4 14  1  0
 15  4  1  0
 29 17  1  0
 16 31  1  0
 16 17  1  0
 40 51  1  0
 30  7  1  0
 16 56  1  6
M  END