
  SciTegic09261410572D

 90 88  0  0  0  0            999 V2000
   -0.0932   -1.6983    0.0000 C   0  0  2  0  0  0
   -0.9034   -1.8542    0.0000 C   0  0
   -1.4435   -1.2306    0.0000 C   0  0
   -1.1734   -0.4510    0.0000 C   0  0  2  0  0  0
   -0.3633   -0.2951    0.0000 C   0  0
    0.1768   -0.9188    0.0000 C   0  0
    0.4469   -2.3220    0.0000 N   0  0
   -1.7135    0.1726    0.0000 N   0  0
   -1.4435    0.9522    0.0000 C   0  0
   -2.5236    0.0167    0.0000 C   0  0
   -3.0637    0.6403    0.0000 C   0  0
   -3.8739    0.4844    0.0000 N   0  0
   -2.7937    1.4199    0.0000 O   0  0
   -1.9835    1.5758    0.0000 C   0  0
   -1.7135    2.3554    0.0000 O   0  0
   -0.6333    1.1081    0.0000 O   0  0
   -2.2536    2.9790    0.0000 C   0  0
   -1.9835    3.7586    0.0000 C   0  0  1  0  0  0
   -2.5236    4.3822    0.0000 C   0  0  2  0  0  0
   -2.2536    5.1617    0.0000 C   0  0  1  0  0  0
   -1.4435    5.3177    0.0000 C   0  0  2  0  0  0
   -0.9034    4.6940    0.0000 C   0  0  2  0  0  0
   -1.1734    3.9145    0.0000 O   0  0
   -0.0932    4.8499    0.0000 O   0  0
    0.4469    4.2263    0.0000 C   0  0
   -3.3338    4.2263    0.0000 O   0  0
   -2.7937    5.7854    0.0000 O   0  0
   -3.6038    3.4467    0.0000 S   0  0
   -4.3834    3.7168    0.0000 O   0  0
   -2.8243    3.1767    0.0000 O   0  0
   -3.8739    2.6672    0.0000 O   0  5
   -3.6038    5.6295    0.0000 S   0  0
   -3.7597    6.4396    0.0000 O   0  0
   -3.4479    4.8193    0.0000 O   0  5
   -4.4139    5.4736    0.0000 O   0  0
    0.1768   -3.1015    0.0000 C   0  0
   -0.6333   -3.2574    0.0000 C   0  0
   -0.9034   -4.0370    0.0000 N   0  0
   -1.1734   -2.6338    0.0000 O   0  0
   -1.7135   -4.1929    0.0000 C   0  0
   -1.9835   -4.9724    0.0000 C   0  0
   -2.7937   -5.1283    0.0000 C   0  0
   -3.3338   -4.5047    0.0000 C   0  0
   -2.2536   -3.5692    0.0000 C   0  0
   -3.0637   -3.7251    0.0000 C   0  0
    1.2570   -2.1660    0.0000 C   0  0
    1.7971   -2.7897    0.0000 C   0  0
    1.5270   -1.3865    0.0000 O   0  0
    2.6072   -2.6338    0.0000 O   0  0
    3.1473   -3.2574    0.0000 C   0  0
    3.9574   -3.1015    0.0000 C   0  0  2  0  0  0
    4.2275   -2.3220    0.0000 O   0  0
    4.4975   -3.7251    0.0000 C   0  0  2  0  0  0
    5.3077   -3.5692    0.0000 C   0  0  1  0  0  0
    5.5777   -2.7897    0.0000 C   0  0  2  0  0  0
    5.0376   -2.1660    0.0000 C   0  0  1  0  0  0
    5.3077   -1.3865    0.0000 O   0  0
    4.7676   -0.7628    0.0000 C   0  0
    6.3878   -2.6338    0.0000 O   0  0
    6.6579   -1.8542    0.0000 S   0  0
    6.9279   -1.0747    0.0000 O   0  0
    5.8783   -1.5842    0.0000 O   0  5
    7.4374   -2.1243    0.0000 O   0  0
    5.8478   -4.1929    0.0000 O   0  0
    5.5777   -4.9724    0.0000 S   0  0
    4.7982   -4.7024    0.0000 O   0  0
    6.3573   -5.2425    0.0000 O   0  5
    5.3077   -5.7520    0.0000 O   0  0
    4.2275   -4.5047    0.0000 O   0  0
    3.4174   -4.6606    0.0000 S   0  0
    3.2614   -3.8505    0.0000 O   0  0
    3.5733   -5.4707    0.0000 O   0  0
    2.6072   -4.8165    0.0000 O   0  5
   -4.4139    1.1081    0.0000 C   0  0
   -5.2241    0.9522    0.0000 C   0  0
   -5.7642    1.5758    0.0000 C   0  0
   -5.4941    2.3554    0.0000 C   0  0
   -4.6840    2.5113    0.0000 C   0  0
   -4.1439    1.8876    0.0000 C   0  0
   -1.1734    6.0972    0.0000 O   0  0
   -1.7135    6.7208    0.0000 S   0  0
   -1.0899    7.2609    0.0000 O   0  5
   -2.3371    6.1808    0.0000 O   0  0
   -2.2536    7.3445    0.0000 O   0  0
    9.6767    0.0000    0.0000 Na  0  3
   10.6785    0.0000    0.0000 Na  0  3
    0.0000   -7.4020    0.0000 Na  0  3
    1.0018   -7.4020    0.0000 Na  0  3
    2.0036   -7.4020    0.0000 Na  0  3
    0.0000   -9.0520    0.0000 Na  0  3
  1  2  1  0
  2  3  1  0
  3  4  1  0
  4  5  1  0
  5  6  1  0
  6  1  1  0
  1  7  1  6
  4  8  1  1
  8  9  1  0
  8 10  1  0
 10 11  1  0
 11 12  1  0
 11 13  2  0
  9 14  1  0
 14 15  1  0
  9 16  2  0
 15 17  1  0
 18 17  1  1
 18 19  1  0
 19 20  1  0
 20 21  1  0
 21 22  1  0
 22 23  1  0
 23 18  1  0
 22 24  1  1
 24 25  1  0
 19 26  1  1
 20 27  1  6
 26 28  1  0
 28 29  2  0
 28 30  2  0
 28 31  1  0
 27 32  1  0
 32 33  2  0
 32 34  1  0
 32 35  2  0
  7 36  1  0
 36 37  1  0
 37 38  1  0
 37 39  2  0
 40 38  1  0
 40 41  1  0
 41 42  1  0
 42 43  1  0
 40 44  1  0
 44 45  1  0
 43 45  1  0
  7 46  1  0
 46 47  1  0
 46 48  2  0
 47 49  1  0
 49 50  1  0
 51 50  1  6
 51 52  1  0
 51 53  1  0
 53 54  1  0
 54 55  1  0
 55 56  1  0
 56 52  1  0
 56 57  1  6
 57 58  1  0
 55 59  1  6
 59 60  1  0
 60 61  2  0
 60 62  1  0
 60 63  2  0
 54 64  1  1
 64 65  1  0
 65 66  2  0
 65 67  1  0
 65 68  2  0
 53 69  1  6
 69 70  1  0
 70 71  2  0
 70 72  2  0
 70 73  1  0
 12 74  1  0
 74 75  1  0
 75 76  1  0
 76 77  1  0
 77 78  1  0
 78 79  1  0
 79 74  1  0
 21 80  1  1
 80 81  1  0
 81 82  1  0
 81 83  2  0
 81 84  2  0
M  CHG  8  31  -1  34  -1  62  -1  67  -1  73  -1  82  -1  85   1  86   1
M  CHG  4  87   1  88   1  89   1  90   1
M  END