
  SciTegic01181116592D

 28 31  0  0  0  0            999 V2000
   12.3379  -12.8606    0.0000 N   0  0
   12.3368  -13.6886    0.0000 C   0  0
   13.0521  -14.1018    0.0000 N   0  0
   13.0503  -12.4474    0.0000 C   0  0
   13.7663  -12.8569    0.0000 C   0  0
   13.7711  -13.6841    0.0000 C   0  0
   14.5598  -13.9347    0.0000 N   0  0
   15.0416  -13.2630    0.0000 N   0  0
   14.5515  -12.5968    0.0000 C   0  0
   13.0478  -11.6218    0.0000 N   0  0
   12.3315  -11.2110    0.0000 C   0  0
   12.3324  -10.3861    0.0000 C   0  0
   11.6171   -9.9755    0.0000 C   0  0
   10.9022  -10.3906    0.0000 C   0  0
   10.9074  -11.2204    0.0000 C   0  0
   11.6234  -11.6274    0.0000 C   0  0
   10.1854   -9.9808    0.0000 O   0  0
   10.1818   -9.1551    0.0000 C   0  0
    9.4650   -8.7454    0.0000 F   0  0
   10.8951   -8.7392    0.0000 F   0  0
   10.1751   -8.3277    0.0000 F   0  0
   14.9781  -14.6466    0.0000 C   0  0
   15.8037  -14.6403    0.0000 C   0  0
   16.2192  -15.3512    0.0000 C   0  0
   17.0442  -15.3453    0.0000 C   0  0
   17.4524  -14.6266    0.0000 N   0  0
   17.0297  -13.9124    0.0000 C   0  0
   16.2062  -13.9219    0.0000 C   0  0
  3  6  2  0
 13 14  2  0
  1  2  2  0
 14 15  1  0
  5  4  2  0
 15 16  2  0
 16 11  1  0
  6  7  1  0
 14 17  1  0
  7  8  1  0
 17 18  1  0
  8  9  2  0
 18 19  1  0
  9  5  1  0
 18 20  1  0
  4  1  1  0
 18 21  1  0
  4 10  1  0
  7 22  1  0
  5  6  1  0
 22 23  1  0
 10 11  1  0
 23 24  2  0
 24 25  1  0
 11 12  2  0
 25 26  2  0
  2  3  1  0
 26 27  1  0
 12 13  1  0
 27 28  2  0
 28 23  1  0
M  END