
  CDK    9/16/09,10:4

 34 37  0  0  0  0  0  0  0  0999 V2000
   15.2291  -21.8522    0.0000 C   0  0  0  0  0  0  0  0  0  0  0  0
   16.0585  -21.8333    0.0000 C   0  0  0  0  0  0  0  0  0  0  0  0
   16.4545  -21.1096    0.0000 C   0  0  0  0  0  0  0  0  0  0  0  0
   16.0257  -20.4003    0.0000 C   0  0  0  0  0  0  0  0  0  0  0  0
   15.1965  -20.4192    0.0000 C   0  0  0  0  0  0  0  0  0  0  0  0
   14.7958  -21.1475    0.0000 N   0  0  0  0  0  0  0  0  0  0  0  0
   15.4313  -21.4717    0.0000 C   0  0  0  0  0  0  0  0  0  0  0  0
   15.7547  -20.7767    0.0000 C   0  0  0  0  0  0  0  0  0  0  0  0
   13.9713  -21.1750    0.0000 C   0  0  0  0  0  0  0  0  0  0  0  0
   17.2795  -21.0995    0.0000 C   0  0  0  0  0  0  0  0  0  0  0  0
   18.1044  -21.0852    0.0000 C   0  0  0  0  0  0  0  0  0  0  0  0
   17.2917  -21.9244    0.0000 O   0  0  0  0  0  0  0  0  0  0  0  0
   17.2673  -20.2745    0.0000 C   0  0  0  0  0  0  0  0  0  0  0  0
   17.9763  -19.8543    0.0000 C   0  0  0  0  0  0  0  0  0  0  0  0
   17.9646  -19.0302    0.0000 C   0  0  0  0  0  0  0  0  0  0  0  0
   17.2435  -18.6275    0.0000 C   0  0  0  0  0  0  0  0  0  0  0  0
   16.5329  -19.0550    0.0000 C   0  0  0  0  0  0  0  0  0  0  0  0
   16.5482  -19.8777    0.0000 C   0  0  0  0  0  0  0  0  0  0  0  0
   18.5273  -21.7948    0.0000 C   0  0  0  0  0  0  0  0  0  0  0  0
   19.3514  -21.7810    0.0000 C   0  0  0  0  0  0  0  0  0  0  0  0
   19.7524  -21.0589    0.0000 C   0  0  0  0  0  0  0  0  0  0  0  0
   19.3232  -20.3493    0.0000 C   0  0  0  0  0  0  0  0  0  0  0  0
   18.5005  -20.3667    0.0000 C   0  0  0  0  0  0  0  0  0  0  0  0
   13.5353  -20.4746    0.0000 C   0  0  0  0  0  0  0  0  0  0  0  0
   12.7107  -20.5021    0.0000 O   0  0  0  0  0  0  0  0  0  0  0  0
   12.2747  -19.8018    0.0000 C   0  0  0  0  0  0  0  0  0  0  0  0
   11.4501  -19.8291    0.0000 C   0  0  0  0  0  0  0  0  0  0  0  0
   11.0177  -19.1275    0.0000 C   0  0  0  0  0  0  0  0  0  0  0  0
   10.1940  -19.1545    0.0000 C   0  0  0  0  0  0  0  0  0  0  0  0
    9.8047  -19.8829    0.0000 C   0  0  0  0  0  0  0  0  0  0  0  0
   10.2452  -20.5855    0.0000 C   0  0  0  0  0  0  0  0  0  0  0  0
   11.0676  -20.5549    0.0000 C   0  0  0  0  0  0  0  0  0  0  0  0
    9.8594  -21.3147    0.0000 Br  0  0  0  0  0  0  0  0  0  0  0  0
   14.8910  -17.1735    0.0000 Br  0  0  0  0  0  0  0  0  0  0  0  0
 15 16  2  0  0  0  0 
 16 17  1  0  0  0  0 
  7  8  1  0  0  0  0 
 17 18  2  0  0  0  0 
 18 13  1  0  0  0  0 
  3  8  1  0  0  0  0 
 11 19  2  0  0  0  0 
  1  2  1  0  0  0  0 
 19 20  1  0  0  0  0 
  6  9  1  0  0  0  0 
 20 21  2  0  0  0  0 
  1  6  1  0  0  0  0 
 21 22  1  0  0  0  0 
  3 10  1  0  0  0  0 
 22 23  2  0  0  0  0 
 23 11  1  0  0  0  0 
  2  3  1  0  0  0  0 
  9 24  1  0  0  0  0 
 10 11  1  0  0  0  0 
 24 25  1  0  0  0  0 
  3  4  1  0  0  0  0 
 25 26  1  0  0  0  0 
 10 12  1  0  0  0  0 
 26 27  1  0  0  0  0 
  4  5  1  0  0  0  0 
 27 28  2  0  0  0  0 
 10 13  1  0  0  0  0 
 28 29  1  0  0  0  0 
  5  6  1  0  0  0  0 
 29 30  2  0  0  0  0 
 13 14  2  0  0  0  0 
 30 31  1  0  0  0  0 
 31 32  2  0  0  0  0 
 32 27  1  0  0  0  0 
 14 15  1  0  0  0  0 
 31 33  1  0  0  0  0 
  6  7  1  0  0  0  0 
M  CHG  1   6   1
M  CHG  1  34  -1
M  END