
  CDK    9/16/09,9:46

 19 21  0  0  0  0  0  0  0  0999 V2000
   -4.3766    1.6842    0.0000 C   0  0  0  0  0  0  0  0  0  0  0  0
   -4.3779    0.8578    0.0000 C   0  0  0  0  0  0  0  0  0  0  0  0
   -3.6660    0.4455    0.0000 C   0  0  0  0  0  0  0  0  0  0  0  0
   -3.6680    2.0963    0.0000 C   0  0  0  0  0  0  0  0  0  0  0  0
   -5.0903    2.0954    0.0000 O   0  0  0  0  0  0  0  0  0  0  0  0
   -2.9492    1.6846    0.0000 C   0  0  0  0  0  0  0  0  0  0  0  0
   -2.9518    0.8603    0.0000 C   0  0  0  0  0  0  0  0  0  0  0  0
   -1.5249    1.6802    0.0000 C   0  0  0  0  0  0  0  0  0  0  0  0
   -2.2381    2.0968    0.0000 C   0  0  0  0  0  0  0  0  0  0  0  0
   -1.5275    0.8559    0.0000 N   0  0  0  0  0  0  0  0  0  0  0  0
   -2.2488    0.4495    0.0000 C   0  0  0  0  0  0  0  0  0  0  0  0
   -0.8251   -0.3907    0.0000 C   0  0  0  0  0  0  0  0  0  0  0  0
   -0.8146    0.4390    0.0000 C   0  0  0  0  0  0  0  0  0  0  0  0
   -1.5466   -0.7972    0.0000 C   0  0  0  0  0  0  0  0  0  0  0  0
   -2.2563   -0.3731    0.0000 C   0  0  0  0  0  0  0  0  0  0  0  0
   -2.9764   -0.7758    0.0000 C   0  0  0  0  0  0  0  0  0  0  0  0
   -2.9878   -1.6023    0.0000 C   0  0  0  0  0  0  0  0  0  0  0  0
   -2.2732   -2.0246    0.0000 C   0  0  0  0  0  0  0  0  0  0  0  0
   -1.5561   -1.6194    0.0000 C   0  0  0  0  0  0  0  0  0  0  0  0
 10  8  1  0  0  0  0 
  8  9  1  0  0  0  0 
  4  1  1  0  0  0  0 
  1  5  1  0  0  0  0 
  6  7  1  0  0  0  0 
 10 13  1  0  0  0  0 
 11 15  1  0  0  0  0 
 14 12  1  0  0  0  0 
 12 13  1  0  0  0  0 
  2  3  1  0  0  0  0 
  3  7  2  0  0  0  0 
 14 15  2  0  0  0  0 
  1  2  2  0  0  0  0 
 15 16  1  0  0  0  0 
  6  4  2  0  0  0  0 
 16 17  2  0  0  0  0 
  6  9  1  0  0  0  0 
 17 18  1  0  0  0  0 
  7 11  1  0  0  0  0 
 18 19  2  0  0  0  0 
 19 14  1  0  0  0  0 
M  END