
          11280715062D 1   1.00000     0.00000     0

 31 33  0     1  0            999 V2000
    3.6917   -2.9292    0.0000 C   0  0  3  0  0  0           0  0  0
    7.2167   -2.5292    0.0000 C   0  0  2  0  0  0           0  0  0
    7.2042   -1.7042    0.0000 C   0  0  0  0  0  0           0  0  0
    5.7917   -2.5292    0.0000 N   0  0  3  0  0  0           0  0  0
    2.9792   -2.5167    0.0000 C   0  0  0  0  0  0           0  0  0
    4.2792   -2.3417    0.0000 C   0  0  3  0  0  0           0  0  0
    6.5042   -2.9417    0.0000 C   0  0  0  0  0  0           0  0  0
    7.9167   -1.2917    0.0000 N   0  0  0  0  0  0           0  0  0
    4.5250   -2.9292    0.0000 C   0  0  0  0  0  0           0  0  0
    4.9917   -2.7542    0.0000 C   0  0  0  0  0  0           0  0  0
    9.3500   -1.2792    0.0000 C   0  0  0  0  0  0           0  0  0
    7.9292   -2.9417    0.0000 C   0  0  0  0  0  0           0  0  0
    2.2667   -2.9292    0.0000 C   0  0  0  0  0  0           0  0  0
    6.4917   -1.2917    0.0000 O   0  0  0  0  0  0           0  0  0
    5.2375   -3.3417    0.0000 C   0  0  0  0  0  0           0  0  0
    9.3417   -0.4542    0.0000 O   0  0  0  0  0  0           0  0  0
    8.6375   -1.6917    0.0000 C   0  0  0  0  0  0           0  0  0
    1.5542   -2.5167    0.0000 C   0  0  0  0  0  0           0  0  0
   10.0667   -1.6792    0.0000 O   0  0  0  0  0  0           0  0  0
    7.9375   -3.7667    0.0000 C   0  0  0  0  0  0           0  0  0
    3.1125   -3.5042    0.0000 C   0  0  0  0  0  0           0  0  0
    0.8375   -2.9292    0.0000 O   0  0  0  0  0  0           0  0  0
    2.9792   -1.6792    0.0000 C   0  0  0  0  0  0           0  0  0
    4.2792   -1.5167    0.0000 C   0  0  0  0  0  0           0  0  0
    2.2667   -1.2667    0.0000 C   0  0  0  0  0  0           0  0  0
    1.5542   -1.6917    0.0000 C   0  0  0  0  0  0           0  0  0
    7.2167   -4.1792    0.0000 C   0  0  0  0  0  0           0  0  0
    8.6500   -4.1667    0.0000 C   0  0  0  0  0  0           0  0  0
    8.6542   -4.9917    0.0000 C   0  0  0  0  0  0           0  0  0
    7.2250   -5.0042    0.0000 C   0  0  0  0  0  0           0  0  0
    7.9417   -5.4042    0.0000 C   0  0  0  0  0  0           0  0  0
  2  7  1  0     0  0
  2  3  1  1     0  0
  4 15  1  0     0  0
  5  1  1  0     0  0
  6  1  1  0     0  0
  7  4  1  0     0  0
  8  3  1  0     0  0
  9  1  1  0     0  0
 10  6  1  0     0  0
 11 17  1  0     0  0
 12  2  1  0     0  0
 13  5  2  0     0  0
 14  3  2  0     0  0
 15  9  1  0     0  0
 16 11  2  0     0  0
 17  8  1  0     0  0
 18 13  1  0     0  0
 19 11  1  0     0  0
 20 12  1  0     0  0
 21  1  1  0     0  0
 22 18  1  0     0  0
 23  5  1  0     0  0
 24  6  1  0     0  0
 25 23  2  0     0  0
 26 25  1  0     0  0
 27 20  2  0     0  0
 28 20  1  0     0  0
 29 28  2  0     0  0
 30 27  1  0     0  0
 31 29  1  0     0  0
 10  4  1  0     0  0
 18 26  2  0     0  0
 30 31  2  0     0  0
M  END