
  SciTegic12231509382D

 29 32  0  0  0  0            999 V2000
    9.1069  -21.1958    0.0000 C   0  0
    9.1057  -22.0232    0.0000 C   0  0
    9.8206  -22.4360    0.0000 C   0  0
   10.5370  -22.0227    0.0000 C   0  0
   10.5341  -21.1922    0.0000 C   0  0
    9.8188  -20.7830    0.0000 C   0  0
    9.8163  -19.9580    0.0000 O   0  0
    9.1006  -19.5477    0.0000 C   0  0
   11.2471  -20.7770    0.0000 N   0  0
   11.9666  -21.1874    0.0000 C   0  0
   12.6774  -20.7757    0.0000 C   0  0
   12.6786  -19.9504    0.0000 N   0  0
   11.9627  -19.5384    0.0000 C   0  0
   11.2457  -19.9517    0.0000 C   0  0
   13.3930  -19.5379    0.0000 C   0  0
   14.1075  -19.9504    0.0000 C   0  0
   14.8220  -19.5379    0.0000 C   0  0
   15.5364  -19.9504    0.0000 C   0  0
   16.2509  -19.5379    0.0000 N   0  0
   17.0019  -19.8768    0.0000 C   0  0
   16.3345  -18.7208    0.0000 C   0  0
   17.1415  -18.5492    0.0000 C   0  0
   17.5504  -19.2623    0.0000 C   0  0
   18.3705  -19.2637    0.0000 C   0  0
   18.7827  -18.5527    0.0000 C   0  0
   18.3687  -17.8389    0.0000 C   0  0
   17.5500  -17.8411    0.0000 C   0  0
   15.7207  -18.1697    0.0000 O   0  0
   17.1732  -20.6839    0.0000 O   0  0
  2  3  1  0
 12 15  1  0
  6  7  1  0
 15 16  1  0
 16 17  1  0
  7  8  1  0
 17 18  1  0
  3  4  2  0
 18 19  1  0
 19 20  1  0
  5  9  1  0
  9 10  1  0
 20 23  1  0
 22 21  1  0
 21 19  1  0
  1  2  2  0
  4  5  1  0
 22 23  2  0
 23 24  1  0
  5  6  2  0
 24 25  2  0
  6  1  1  0
 25 26  1  0
  9 14  1  0
 26 27  2  0
 27 22  1  0
 10 11  1  0
 21 28  2  0
 11 12  1  0
 20 29  2  0
 12 13  1  0
 13 14  1  0
M  END