
  SciTegic01161211212D

 20 22  0  0  0  0            999 V2000
    1.8390  -16.3108    0.0000 C   0  0
    1.8379  -17.1358    0.0000 C   0  0
    2.5507  -17.5474    0.0000 C   0  0
    2.5489  -15.8992    0.0000 C   0  0
    3.2621  -16.3072    0.0000 C   0  0
    3.2655  -17.1332    0.0000 C   0  0
    3.9787  -17.5412    0.0000 C   0  0
    3.9719  -15.8890    0.0000 C   0  0
    4.6897  -16.3014    0.0000 C   0  0  2  0  0  0
    4.6955  -17.1293    0.0000 C   0  0  2  0  0  0
    5.4846  -17.3795    0.0000 C   0  0
    5.9666  -16.7063    0.0000 C   0  0
    5.4752  -16.0400    0.0000 N   0  0
    4.6822  -15.4758    0.0000 H   0  0
    4.6905  -17.9478    0.0000 H   0  0
    5.8655  -15.3169    0.0000 C   0  0
    6.6877  -15.2936    0.0000 C   0  0
    7.0788  -14.5699    0.0000 C   0  0
    2.5512  -18.3700    0.0000 O   0  0
    1.8390  -18.7818    0.0000 C   0  0
  5  4  2  0
  4  1  1  0
  5  6  1  0
  2  3  1  0
 10 11  1  0
 11 12  1  0
 12 13  1  0
 13  9  1  0
  3  6  2  0
  9 14  1  6
  1  2  2  0
 10 15  1  1
  5  8  1  0
 13 16  1  0
  6  7  1  0
 16 17  1  0
  7 10  1  0
 17 18  2  0
  9  8  1  0
  3 19  1  0
  9 10  1  0
 19 20  1  0
M  END