
  SciTegic01161211252D

 32 35  0  0  0  0            999 V2000
   15.3667  -14.0000    0.0000 O   0  0
   14.6542  -14.4167    0.0000 S   0  0
   15.3713  -14.8254    0.0000 O   0  0
   15.3386  -12.3458    0.0000 C   0  0
   15.9979  -11.8498    0.0000 C   0  0
   15.7317  -11.0688    0.0000 C   0  0
   14.9042  -11.0823    0.0000 N   0  0
   14.6654  -11.8710    0.0000 N   0  0
   14.4080  -10.4228    0.0000 C   0  0
   14.7314   -9.6626    0.0000 C   0  0
   14.2352   -9.0045    0.0000 C   0  0
   13.4155   -9.1053    0.0000 C   0  0
   13.0945   -9.8700    0.0000 C   0  0
   13.5927  -10.5249    0.0000 C   0  0
   16.2077  -10.3978    0.0000 C   0  0
   17.0304  -10.4729    0.0000 C   0  0
   17.5049   -9.7989    0.0000 C   0  0
   17.1579   -9.0495    0.0000 C   0  0
   16.3317   -8.9781    0.0000 C   0  0
   15.8609   -9.6530    0.0000 C   0  0
   15.3513  -13.1707    0.0000 C   0  0
   14.6433  -13.5942    0.0000 N   0  0
   16.0721  -13.5722    0.0000 N   0  0
   12.9176   -8.4475    0.0000 Cl  0  0
   16.7801  -13.1487    0.0000 C   0  0
   13.9479  -14.8425    0.0000 C   0  0
   13.2294  -14.4367    0.0000 C   0  0
   12.5218  -14.8594    0.0000 C   0  0
   12.5341  -15.6852    0.0000 C   0  0
   13.2598  -16.0864    0.0000 C   0  0
   13.9644  -15.6613    0.0000 C   0  0
   11.8266  -16.1096    0.0000 Cl  0  0
  2  1  2  0
 16 17  1  0
  3  2  2  0
 17 18  2  0
  9 10  2  0
 18 19  1  0
  4  5  1  0
 19 20  2  0
 20 15  1  0
  6 15  1  0
 10 11  1  0
  4 21  1  0
 21 22  2  0
 11 12  2  0
 21 23  1  0
  5  6  1  0
 12 24  1  0
 12 13  1  0
 23 25  1  0
 22  2  1  0
  6  7  1  0
  2 26  1  0
 13 14  2  0
 26 27  2  0
 14  9  1  0
 27 28  1  0
  7  9  1  0
 28 29  2  0
  7  8  1  0
 29 30  1  0
  8  4  2  0
 30 31  2  0
 31 26  1  0
 15 16  2  0
 29 32  1  0
M  END