
          11280714462D 1   1.00000     0.00000     0

 30 33  0     0  0            999 V2000
   11.3792   -0.6792    0.0000 C   0  0  0  0  0  0           0  0  0
   12.1000   -1.0875    0.0000 C   0  0  0  0  0  0           0  0  0
   12.8042   -0.6667    0.0000 C   0  0  0  0  0  0           0  0  0
   11.3792    0.1375    0.0000 C   0  0  0  0  0  0           0  0  0
   12.1042   -1.9167    0.0000 N   0  0  0  0  0  0           0  0  0
    2.8250   -2.3500    0.0000 N   0  0  3  0  0  0           0  0  0
   10.6750   -1.0917    0.0000 C   0  0  0  0  0  0           0  0  0
   12.8000    0.1500    0.0000 C   0  0  0  0  0  0           0  0  0
    9.9625   -0.6792    0.0000 N   0  0  0  0  0  0           0  0  0
   12.0792    0.5583    0.0000 C   0  0  0  0  0  0           0  0  0
   11.3917   -2.3292    0.0000 C   0  0  0  0  0  0           0  0  0
   10.6792   -1.9167    0.0000 C   0  0  0  0  0  0           0  0  0
    6.3917   -1.9292    0.0000 C   0  0  0  0  0  0           0  0  0
   13.5125    0.5708    0.0000 Cl  0  0  0  0  0  0           0  0  0
    7.8250   -1.1042    0.0000 C   0  0  0  0  0  0           0  0  0
    6.3917   -1.1042    0.0000 C   0  0  0  0  0  0           0  0  0
    7.1125   -2.3417    0.0000 C   0  0  0  0  0  0           0  0  0
    7.8250   -1.9292    0.0000 C   0  0  0  0  0  0           0  0  0
    7.1042   -0.6917    0.0000 C   0  0  0  0  0  0           0  0  0
    3.5417   -1.9292    0.0000 C   0  0  0  0  0  0           0  0  0
    9.2500   -1.1000    0.0000 C   0  0  0  0  0  0           0  0  0
    4.2542   -2.3417    0.0000 C   0  0  0  0  0  0           0  0  0
    5.6792   -2.3417    0.0000 O   0  0  0  0  0  0           0  0  0
    2.1042   -1.9375    0.0000 C   0  0  0  0  0  0           0  0  0
    2.8250   -3.1792    0.0000 C   0  0  0  0  0  0           0  0  0
    8.5375   -0.6875    0.0000 C   0  0  0  0  0  0           0  0  0
    4.9667   -1.9292    0.0000 C   0  0  0  0  0  0           0  0  0
    1.3917   -2.3500    0.0000 C   0  0  0  0  0  0           0  0  0
    2.1042   -3.5917    0.0000 C   0  0  0  0  0  0           0  0  0
    1.3917   -3.1792    0.0000 C   0  0  0  0  0  0           0  0  0
  2  1  1  0     0  0
  3  2  2  0     0  0
  4  1  2  0     0  0
  5  2  1  0     0  0
  6 20  1  0     0  0
  7  1  1  0     0  0
  8 10  2  0     0  0
  9  7  1  0     0  0
 10  4  1  0     0  0
 11 12  1  0     0  0
 12  7  2  0     0  0
 13 16  1  0     0  0
 14  8  1  0     0  0
 15 26  1  0     0  0
 16 19  2  0     0  0
 17 18  1  0     0  0
 18 15  2  0     0  0
 19 15  1  0     0  0
 20 22  1  0     0  0
 21  9  1  0     0  0
 22 27  1  0     0  0
 23 13  1  0     0  0
 24  6  1  0     0  0
 25  6  1  0     0  0
 26 21  1  0     0  0
 27 23  1  0     0  0
 28 24  1  0     0  0
 29 25  1  0     0  0
 30 29  1  0     0  0
 11  5  2  0     0  0
  8  3  1  0     0  0
 17 13  2  0     0  0
 30 28  1  0     0  0
M  END