
  CDK    9/16/09,10:0

 28 31  0  0  0  0  0  0  0  0999 V2000
    4.0822   -8.7201    0.0000 C   0  0  0  0  0  0  0  0  0  0  0  0
    3.5896   -9.3848    0.0000 C   0  0  0  0  0  0  0  0  0  0  0  0
    3.9192  -10.1417    0.0000 C   0  0  0  0  0  0  0  0  0  0  0  0
    4.9000   -8.8111    0.0000 C   0  0  0  0  0  0  0  0  0  0  0  0
    5.2322   -9.5653    0.0000 C   0  0  0  0  0  0  0  0  0  0  0  0
    4.7450  -10.2328    0.0000 C   0  0  0  0  0  0  0  0  0  0  0  0
    5.2294  -10.9025    0.0000 N   0  0  0  0  0  0  0  0  0  0  0  0
    6.0177   -9.8224    0.0000 C   0  0  0  0  0  0  0  0  0  0  0  0
    6.0134  -10.6449    0.0000 C   0  0  0  0  0  0  0  0  0  0  0  0
    6.7224  -11.0581    0.0000 C   0  0  0  0  0  0  0  0  0  0  0  0
    7.4362  -10.6498    0.0000 N   0  0  0  0  0  0  0  0  0  0  0  0
    7.4365   -9.8242    0.0000 N   0  0  0  0  0  0  0  0  0  0  0  0
    6.7269   -9.4148    0.0000 C   0  0  0  0  0  0  0  0  0  0  0  0
    6.7276   -8.5898    0.0000 C   0  0  0  0  0  0  0  0  0  0  0  0
    7.4424   -8.1778    0.0000 C   0  0  0  0  0  0  0  0  0  0  0  0
    7.4431   -7.3528    0.0000 O   0  0  0  0  0  0  0  0  0  0  0  0
    8.1565   -8.5909    0.0000 N   0  0  0  0  0  0  0  0  0  0  0  0
    8.1558   -9.4159    0.0000 C   0  0  0  0  0  0  0  0  0  0  0  0
    8.8713   -8.1790    0.0000 C   0  0  0  0  0  0  0  0  0  0  0  0
    6.7191  -11.8831    0.0000 O   0  0  0  0  0  0  0  0  0  0  0  0
    8.1498  -11.0639    0.0000 C   0  0  0  0  0  0  0  0  0  0  0  0
    8.1447  -11.8887    0.0000 C   0  0  0  0  0  0  0  0  0  0  0  0
    8.8574  -12.3027    0.0000 C   0  0  0  0  0  0  0  0  0  0  0  0
    9.5738  -11.8917    0.0000 C   0  0  0  0  0  0  0  0  0  0  0  0
    9.5730  -11.0625    0.0000 C   0  0  0  0  0  0  0  0  0  0  0  0
    8.8597  -10.6522    0.0000 C   0  0  0  0  0  0  0  0  0  0  0  0
    4.9749  -11.6873    0.0000 C   0  0  0  0  0  0  0  0  0  0  0  0
    2.7699   -9.2914    0.0000 Cl  0  0  0  0  0  0  0  0  0  0  0  0
 13  8  1  0  0  0  0 
  3  6  2  0  0  0  0 
 13 14  1  0  0  0  0 
  6  7  1  0  0  0  0 
 14 15  1  0  0  0  0 
  7  9  1  0  0  0  0 
 15 16  2  0  0  0  0 
  8  5  1  0  0  0  0 
 15 17  1  0  0  0  0 
  1  2  2  0  0  0  0 
 17 18  1  0  0  0  0 
  5  4  2  0  0  0  0 
 17 19  1  0  0  0  0 
  8  9  2  0  0  0  0 
 10 20  2  0  0  0  0 
  4  1  1  0  0  0  0 
 11 21  1  0  0  0  0 
  9 10  1  0  0  0  0 
 21 22  2  0  0  0  0 
  5  6  1  0  0  0  0 
 22 23  1  0  0  0  0 
 10 11  1  0  0  0  0 
 23 24  2  0  0  0  0 
 24 25  1  0  0  0  0 
 11 12  1  0  0  0  0 
 25 26  2  0  0  0  0 
 26 21  1  0  0  0  0 
  2  3  1  0  0  0  0 
  7 27  1  0  0  0  0 
 12 13  2  0  0  0  0 
  2 28  1  0  0  0  0 
M  END