
  SciTegic12231509382D

 24 27  0  0  0  0            999 V2000
    3.5959    2.7504    0.0000 O   0  0
    4.3104    2.3379    0.0000 C   0  0
    5.0249    2.7504    0.0000 C   0  0
    5.7393    2.3379    0.0000 C   0  0
    5.7393    1.5129    0.0000 C   0  0
    5.0249    1.1004    0.0000 C   0  0
    4.3104    1.5129    0.0000 C   0  0
    5.0249    0.2754    0.0000 C   0  0
    5.6923   -0.2095    0.0000 N   0  0
    5.4374   -0.9941    0.0000 C   0  0
    4.6124   -0.9941    0.0000 N   0  0
    4.3574   -0.2095    0.0000 C   0  0
    3.5728    0.0455    0.0000 C   0  0
    2.9597   -0.5066    0.0000 C   0  0
    2.1751   -0.2516    0.0000 C   0  0
    2.0036    0.5553    0.0000 N   0  0
    2.6167    1.1074    0.0000 C   0  0
    3.4013    0.8524    0.0000 C   0  0
    5.9223   -1.6615    0.0000 C   0  0
    6.7428   -1.5753    0.0000 C   0  0
    7.2277   -2.2427    0.0000 C   0  0
    6.8921   -2.9964    0.0000 C   0  0
    6.0717   -3.0827    0.0000 C   0  0
    5.5867   -2.4152    0.0000 C   0  0
  1  2  1  0
  2  3  2  0
  3  4  1  0
  4  5  2  0
  5  6  1  0
  6  7  2  0
  2  7  1  0
  6  8  1  0
  8  9  1  0
  9 10  2  0
 10 11  1  0
 11 12  1  0
  8 12  2  0
 12 13  1  0
 13 14  2  0
 14 15  1  0
 15 16  2  0
 16 17  1  0
 17 18  2  0
 13 18  1  0
 10 19  1  0
 19 20  2  0
 20 21  1  0
 21 22  2  0
 22 23  1  0
 23 24  2  0
 19 24  1  0
M  END