
  Mrv0541 04051115152D          

 19 20  0  0  0  0            999 V2000
   -3.6793    0.4643    0.0000 O   0  0  0  0  0  0  0  0  0  0  0  0
   -2.9649    0.0518    0.0000 C   0  0  0  0  0  0  0  0  0  0  0  0
   -2.9649   -0.7732    0.0000 O   0  0  0  0  0  0  0  0  0  0  0  0
   -2.2504    0.4643    0.0000 C   0  0  0  0  0  0  0  0  0  0  0  0
   -1.5359    0.0518    0.0000 N   0  0  0  0  0  0  0  0  0  0  0  0
   -0.8215    0.4643    0.0000 C   0  0  0  0  0  0  0  0  0  0  0  0
   -0.8215    1.2893    0.0000 O   0  0  0  0  0  0  0  0  0  0  0  0
   -0.1070    0.0518    0.0000 C   0  0  0  0  0  0  0  0  0  0  0  0
   -0.1070   -0.7732    0.0000 N   0  0  0  0  0  0  0  0  0  0  0  0
    0.6075   -1.1857    0.0000 C   0  0  0  0  0  0  0  0  0  0  0  0
    0.6075   -2.0107    0.0000 Cl  0  0  0  0  0  0  0  0  0  0  0  0
    1.3220   -0.7732    0.0000 C   0  0  0  0  0  0  0  0  0  0  0  0
    0.6075    0.4643    0.0000 C   0  0  0  0  0  0  0  0  0  0  0  0
    0.6075    1.2893    0.0000 O   0  0  0  0  0  0  0  0  0  0  0  0
    1.3220    0.0518    0.0000 C   0  0  0  0  0  0  0  0  0  0  0  0
    2.0364    0.4643    0.0000 C   0  0  0  0  0  0  0  0  0  0  0  0
    2.7509    0.0518    0.0000 C   0  0  0  0  0  0  0  0  0  0  0  0
    2.7509   -0.7732    0.0000 C   0  0  0  0  0  0  0  0  0  0  0  0
    2.0364   -1.1857    0.0000 C   0  0  0  0  0  0  0  0  0  0  0  0
  2  1  2  0  0  0  0
  2  3  1  0  0  0  0
  4  2  1  0  0  0  0
  4  5  1  0  0  0  0
  6  5  1  0  0  0  0
  6  7  2  0  0  0  0
  6  8  1  0  0  0  0
  8  9  1  0  0  0  0
 13  8  2  0  0  0  0
 10  9  2  0  0  0  0
 10 11  1  0  0  0  0
 12 10  1  0  0  0  0
 12 15  1  0  0  0  0
 19 12  2  0  0  0  0
 13 14  1  0  0  0  0
 13 15  1  0  0  0  0
 15 16  2  0  0  0  0
 16 17  1  0  0  0  0
 17 18  2  0  0  0  0
 19 18  1  0  0  0  0
M  END