
  SciTegic09171211542D

149143  0  0  0  0            999 V2000
    7.4375  -22.0167    0.0000 O   0  0
    6.7250  -22.4333    0.0000 S   0  0
    7.4421  -22.8420    0.0000 O   0  0
    5.5083  -22.4000    0.0000 S   0  0
    3.9708  -22.5958    0.0000 O   0  0
    4.5583  -22.0125    0.0000 S   0  0
    3.7594  -21.7954    0.0000 O   0  0
    1.6167  -22.1833    0.0000 O   0  0
    2.4167  -22.4000    0.0000 S   0  0
    2.2043  -21.5988    0.0000 O   0  0
   -1.2333  -22.1625    0.0000 O   0  0
   -0.4333  -22.3792    0.0000 S   0  0
   -0.6457  -21.5780    0.0000 O   0  0
   -2.4333  -20.1375    0.0000 O   0  0
   -1.8458  -20.7250    0.0000 S   0  0
   -1.6308  -19.9225    0.0000 O   0  0
   -1.7583  -19.2750    0.0000 O   0  0
   -2.5542  -19.4917    0.0000 S   0  0
   -2.8542  -18.1458    0.0000 O   0  0
   -3.2625  -17.4333    0.0000 S   0  0
   -3.6754  -18.1432    0.0000 O   0  0
   -2.2542  -16.5000    0.0000 O   0  0
   -1.8375  -15.7875    0.0000 S   0  0
   -2.6629  -15.7829    0.0000 O   0  0
    0.1958  -17.4333    0.0000 O   0  0
    1.0208  -17.4375    0.0000 S   0  0
    0.6119  -16.7209    0.0000 O   0  0
    1.8417  -15.7833    0.0000 O   0  0
    1.0167  -15.7833    0.0000 S   0  0
    1.4292  -16.4978    0.0000 O   0  0
    2.0292  -17.5625    0.0000 O   0  0
    2.4458  -18.2792    0.0000 S   0  0
    2.8582  -17.5600    0.0000 O   0  0
    7.8667  -19.4542    0.0000 O   0  0
    7.4583  -18.7417    0.0000 S   0  0
    7.0455  -19.4515    0.0000 O   0  0
   -0.4068  -17.4382    0.0000 C   0  0  2  0  0  0
   -1.1209  -17.0251    0.0000 C   0  0  2  0  0  0
   -1.8309  -17.4371    0.0000 C   0  0  1  0  0  0
   -1.8339  -18.2578    0.0000 C   0  0  2  0  0  0
   -1.1197  -18.6709    0.0000 C   0  0  2  0  0  0
   -0.4025  -18.2631    0.0000 O   0  0
   -1.1227  -19.4959    0.0000 O   0  0
   -2.5492  -18.6688    0.0000 O   0  0
   -2.5450  -17.0240    0.0000 O   0  0
   -1.1215  -16.2001    0.0000 O   0  0
    0.3068  -17.0241    0.0000 C   0  0
   -0.4098  -19.9110    0.0000 C   0  0  1  0  0  0
   -0.4153  -20.7346    0.0000 C   0  0  1  0  0  0
    0.2935  -21.1497    0.0000 C   0  0  2  0  0  0
    1.0119  -20.7433    0.0000 C   0  0  2  0  0  0
    1.0169  -19.9174    0.0000 O   0  0
    0.3036  -19.4978    0.0000 C   0  0  2  0  0  0
    0.3050  -16.1991    0.0000 O   0  0
    0.3063  -18.6728    0.0000 C   0  0
   -1.1324  -21.1426    0.0000 O   0  0
    0.2874  -21.9746    0.0000 O   0  0
    1.7233  -21.1611    0.0000 O   0  0
    2.4408  -20.7540    0.0000 C   0  0  1  0  0  0
    3.1465  -21.1746    0.0000 C   0  0  1  0  0  0
    3.8619  -20.7709    0.0000 C   0  0  2  0  0  0
    3.8723  -19.9456    0.0000 C   0  0  2  0  0  0
    3.1611  -19.5256    0.0000 O   0  0
    2.4395  -19.9309    0.0000 C   0  0  2  0  0  0
    1.7271  -19.5148    0.0000 C   0  0
    1.0222  -18.2627    0.0000 O   0  0
    1.7313  -18.6898    0.0000 O   0  0
    3.1367  -21.9995    0.0000 O   0  0
    4.5716  -21.1914    0.0000 O   0  0
    4.5913  -19.5412    0.0000 O   0  0
    5.3011  -19.9617    0.0000 C   0  0  1  0  0  0
    5.2925  -20.7834    0.0000 C   0  0  1  0  0  0
    5.9982  -21.2037    0.0000 C   0  0  2  0  0  0
    6.7196  -20.8028    0.0000 C   0  0  1  0  0  0
    6.7309  -19.9770    0.0000 O   0  0
    6.0207  -19.5520    0.0000 C   0  0  2  0  0  0
    5.2968  -21.6081    0.0000 O   0  0
    6.7191  -21.6124    0.0000 O   0  0
    7.4278  -21.2260    0.0000 O   0  0
    6.0296  -18.7270    0.0000 C   0  0
    6.7485  -18.3223    0.0000 O   0  0
   -0.4019  -19.0775    0.0000 H   0  0
    1.0168  -21.5682    0.0000 H   0  0
   -1.1215  -20.3219    0.0000 H   0  0
    4.5928  -20.3537    0.0000 H   0  0
    1.7338  -20.3368    0.0000 H   0  0
    7.4377  -20.3866    0.0000 H   0  0
    5.3107  -19.1372    0.0000 H   0  0
    8.1417  -19.9875    0.0000 C   0  0
    8.1417  -20.8125    0.0000 C   0  0  1  0  0  0
    8.8537  -21.2208    0.0000 C   0  0
    8.8537  -19.5708    0.0000 C   0  0
    9.5657  -19.9875    0.0000 C   0  0  1  0  0  0
    9.5622  -20.8125    0.0000 C   0  0  1  0  0  0
   10.2710  -21.2257    0.0000 C   0  0
   10.9878  -20.8185    0.0000 C   0  0
   10.2780  -19.5757    0.0000 C   0  0  2  0  0  0
   10.9874  -19.9961    0.0000 C   0  0  2  0  0  0
   11.0043  -18.3499    0.0000 C   0  0
   10.2833  -18.7534    0.0000 C   0  0
   11.7137  -18.7702    0.0000 C   0  0  1  0  0  0
   11.7048  -19.5917    0.0000 C   0  0  1  0  0  0
   12.4834  -19.8541    0.0000 C   0  0
   12.9735  -19.1947    0.0000 C   0  0
   12.4978  -18.5249    0.0000 C   0  0  2  0  0  0
    9.5583  -19.1625    0.0000 C   0  0
   10.2708  -20.4000    0.0000 H   0  0
   10.9792  -19.1708    0.0000 H   0  0
   11.7000  -20.4167    0.0000 H   0  0
   11.7083  -17.9417    0.0000 C   0  0
   12.7613  -17.7431    0.0000 C   0  0  1  0  0  0
   13.5700  -17.5803    0.0000 C   0  0
   12.2159  -17.1240    0.0000 C   0  0
   14.1154  -18.1994    0.0000 C   0  0
   14.9242  -18.0366    0.0000 C   0  0
   15.4695  -18.6557    0.0000 C   0  0
   16.2783  -18.4929    0.0000 C   0  0
   15.2061  -19.4375    0.0000 C   0  0
   13.3208  -18.5208    0.0000 H   0  0
    9.5542  -21.6333    0.0000 H   0  0
    8.1774  -18.3377    0.0000 O   0  5
    6.3050  -22.6142    0.0000 O   0  5
    3.1603  -18.6971    0.0000 O   0  5
    1.7408  -17.0275    0.0000 O   0  5
    1.0168  -14.9601    0.0000 O   0  5
   -1.8368  -14.9631    0.0000 O   0  5
   -3.9740  -17.0229    0.0000 O   0  5
   -3.2664  -19.9047    0.0000 O   0  5
   -2.5613  -21.1334    0.0000 O   0  5
   -0.4363  -23.2068    0.0000 O   0  5
    2.4076  -23.2285    0.0000 O   0  5
    4.7708  -22.8083    0.0000 O   0  5
   -3.2708  -19.0792    0.0000 O   0  0
    4.7917  -21.9875    0.0000 O   0  0
    5.2917  -23.1958    0.0000 O   0  0
    6.5083  -23.2292    0.0000 O   0  5
    3.8750  -15.1250    0.0000 Na  0  3
    5.2188  -15.1250    0.0000 Na  0  3
    6.1875  -15.1250    0.0000 Na  0  3
    7.5938  -15.1250    0.0000 Na  0  3
    9.1875  -15.0937    0.0000 Na  0  3
    4.7500  -15.9063    0.0000 Na  0  3
    5.9375  -15.9063    0.0000 Na  0  3
    7.0625  -15.9063    0.0000 Na  0  3
    8.4062  -15.9375    0.0000 Na  0  3
    5.3438  -16.6563    0.0000 Na  0  3
    6.3750  -16.6563    0.0000 Na  0  3
    7.4062  -16.6563    0.0000 Na  0  3
    5.9062  -17.4688    0.0000 Na  0  3
  6  5  2  0
 40 44  1  6
 71 76  1  0
 72 73  1  0
 73 74  1  0
 74 75  1  0
 75 76  1  0
  7  6  2  0
 72 77  1  1
 39 45  1  1
 73 78  1  6
 29 28  2  0
 74 79  1  0
 38 46  1  6
 76 80  1  1
 30 29  2  0
 80 81  1  0
 37 47  1  1
 41 82  1  1
 18 17  2  0
 51 83  1  1
 43 48  1  0
 48 84  1  1
 48 49  1  0
 62 85  1  1
  2  1  2  0
 59 86  1  1
 12 11  2  0
 74 87  1  6
 32 31  2  0
 71 88  1  1
 89 90  1  0
 33 32  2  0
 20 19  2  0
 48 53  1  0
 49 50  1  0
 89 92  1  0
 90 91  1  0
 91 94  1  0
 93 92  1  0
 93 94  1  0
 50 51  1  0
 51 52  1  0
 52 53  1  0
 21 20  2  0
 93 97  1  0
 94 95  1  0
 95 96  1  0
 96 98  1  0
 97 98  1  0
 47 54  1  0
 13 12  2  0
 53 55  1  1
 35 34  2  0
 97100  1  0
 98102  1  0
101 99  1  0
 99100  1  0
101102  1  0
 49 56  1  1
 36 35  2  0
 50 57  1  6
  3  2  2  0
 51 58  1  0
102103  1  0
103104  1  0
104105  1  0
105101  1  0
 90 79  1  1
 93106  1  1
 58 59  1  0
 97107  1  6
 59 60  1  0
 98108  1  1
 23 22  2  0
102109  1  6
 37 38  1  0
101110  1  1
 24 23  2  0
105111  1  0
  9  8  2  0
111112  1  0
 15 14  2  0
111113  1  6
 59 64  1  0
112114  1  0
 60 61  1  0
114115  1  0
 61 62  1  0
115116  1  0
 62 63  1  0
116117  1  0
 63 64  1  0
116118  1  0
 16 15  2  0
105119  1  6
 64 65  1  1
 94120  1  6
 81 35  1  0
 26 25  2  0
 35121  1  0
 69  6  1  0
 77  4  1  0
 55 66  1  0
  4122  1  0
 67 32  1  0
 27 26  2  0
 32123  1  0
 66 26  1  0
 65 67  1  0
 26124  1  0
 54 29  1  0
 37 42  1  0
 29125  1  0
 46 23  1  0
 60 68  1  1
 23126  1  0
 45 20  1  0
 38 39  1  0
 20127  1  0
 44 18  1  0
 61 69  1  6
 18128  1  0
 56 15  1  0
 39 40  1  0
 15129  1  0
 57 12  1  0
 62 70  1  0
 12130  1  0
 68  9  1  0
 40 41  1  0
  9131  1  0
 70 71  1  0
  6132  1  0
 71 72  1  0
 18133  2  0
 41 42  1  0
  4134  2  0
 10  9  2  0
  4135  2  0
 78  2  1  0
 41 43  1  0
  2136  1  0
M  CHG  8 121  -1 122  -1 123  -1 124  -1 125  -1 126  -1 127  -1 128  -1
M  CHG  8 129  -1 130  -1 131  -1 132  -1 136  -1 137   1 138   1 139   1
M  CHG  8 140   1 141   1 142   1 143   1 144   1 145   1 146   1 147   1
M  CHG  2 148   1 149   1
M  END