
  SciTegic06141115222D

 36 41  0  0  1  0            999 V2000
    7.4007   -3.8225    0.0000 C   0  0
    6.5894   -3.6940    0.0000 C   0  0
    7.1845   -5.2267    0.0000 C   0  0
    7.6972   -4.5908    0.0000 C   0  0
    6.3689   -5.1019    0.0000 C   0  0
    6.0703   -4.3364    0.0000 C   0  0
    5.2597   -4.2079    0.0000 C   0  0
    4.7414   -4.8470    0.0000 C   0  0
    6.1402   -3.0013    0.0000 N   0  0
    5.1301   -3.3949    0.0000 C   0  0
    5.8520   -5.7430    0.0000 C   0  0  2  0  0  0
    5.0355   -5.6158    0.0000 C   0  0  2  0  0  0
    4.5200   -6.2557    0.0000 N   0  0
    4.8157   -7.0267    0.0000 C   0  0
    5.6322   -7.1540    0.0000 C   0  0  1  0  0  0
    6.1530   -6.5102    0.0000 C   0  0
    4.2279   -5.4800    0.0000 H   0  0
    6.6685   -5.8627    0.0000 H   0  0
    3.7065   -6.1279    0.0000 C   0  0
    5.9285   -7.9222    0.0000 C   0  0
    6.7421   -8.0498    0.0000 O   0  0
    5.4112   -8.5630    0.0000 N   0  0
    4.5932   -8.4296    0.0000 C   0  0
    4.0767   -9.0664    0.0000 C   0  0
    4.3691   -9.8366    0.0000 N   0  0
    5.1834   -9.9661    0.0000 C   0  0
    5.7051   -9.3256    0.0000 C   0  0
    3.8495  -10.4754    0.0000 C   0  0
    3.0383  -10.3401    0.0000 C   0  0
    2.5188  -10.9780    0.0000 C   0  0
    2.8122  -11.7484    0.0000 C   0  0
    3.6298  -11.8771    0.0000 C   0  0
    4.1457  -11.2380    0.0000 N   0  0
    4.4156   -2.9855    0.0000 S   0  3
    3.7037   -3.3994    0.0000 C   0  0
    4.4131   -2.1619    0.0000 O   0  5
  6  7  1  0
 12 17  1  1
  7  8  1  0
 11 18  1  6
  8 12  1  0
 13 19  1  0
  3  4  2  0
 15 20  1  1
  2  9  1  0
 20 21  2  0
  4  1  1  0
 20 22  1  0
 22 23  1  0
  7 10  2  0
  9 10  1  0
 11 12  1  0
  5  6  2  0
  2  6  1  0
 22 27  1  0
 23 24  1  0
 24 25  1  0
 25 26  1  0
 26 27  1  0
 25 28  1  0
  5  3  1  0
 28 29  2  0
  1  2  2  0
 29 30  1  0
  5 11  1  0
 30 31  2  0
 11 16  1  0
 31 32  1  0
 12 13  1  0
 32 33  2  0
 33 28  1  0
 13 14  1  0
 10 34  1  0
 14 15  1  0
 34 35  1  0
 15 16  1  0
 34 36  1  0
M  CHG  2  34   1  36  -1
M  END