
  Mrv0541 04051115152D          

 32 34  0  0  0  0            999 V2000
   -4.4315   -1.9514    0.0000 N   0  0  0  0  0  0  0  0  0  0  0  0
   -5.1460   -1.5389    0.0000 C   0  0  0  0  0  0  0  0  0  0  0  0
   -5.8605   -1.9514    0.0000 N   0  0  0  0  0  0  0  0  0  0  0  0
   -5.1460   -0.7139    0.0000 N   0  0  0  0  0  0  0  0  0  0  0  0
   -4.4315   -0.3014    0.0000 C   0  0  0  0  0  0  0  0  0  0  0  0
   -4.4315    0.5236    0.0000 O   0  0  0  0  0  0  0  0  0  0  0  0
   -3.7171   -0.7139    0.0000 C   0  0  0  0  0  0  0  0  0  0  0  0
   -3.0026   -0.3014    0.0000 N   0  0  0  0  0  0  0  0  0  0  0  0
   -2.2881   -0.7139    0.0000 C   0  0  0  0  0  0  0  0  0  0  0  0
   -2.2881   -1.5389    0.0000 C   0  0  0  0  0  0  0  0  0  0  0  0
   -3.0026   -1.9514    0.0000 N   0  0  0  0  0  0  0  0  0  0  0  0
   -3.7171   -1.5389    0.0000 C   0  0  0  0  0  0  0  0  0  0  0  0
   -1.5737   -0.3014    0.0000 C   0  0  0  0  0  0  0  0  0  0  0  0
   -0.8592   -0.7139    0.0000 N   0  0  0  0  0  0  0  0  0  0  0  0
    1.2842    0.5236    0.0000 C   0  0  0  0  0  0  0  0  0  0  0  0
    1.2842   -0.3014    0.0000 C   0  0  0  0  0  0  0  0  0  0  0  0
    0.5697   -0.7139    0.0000 C   0  0  0  0  0  0  0  0  0  0  0  0
   -0.1447   -0.3014    0.0000 C   0  0  0  0  0  0  0  0  0  0  0  0
   -0.1447    0.5236    0.0000 C   0  0  0  0  0  0  0  0  0  0  0  0
    0.5697    0.9361    0.0000 C   0  0  0  0  0  0  0  0  0  0  0  0
    1.9987    0.9361    0.0000 C   0  0  0  0  0  0  0  0  0  0  0  0
    1.9987    1.7611    0.0000 O   0  0  0  0  0  0  0  0  0  0  0  0
    2.7132    0.5236    0.0000 N   0  0  0  0  0  0  0  0  0  0  0  0
    3.4276    0.9361    0.0000 C   0  0  1  0  0  0  0  0  0  0  0  0
    4.1421    0.5236    0.0000 C   0  0  0  0  0  0  0  0  0  0  0  0
    4.8566    0.9361    0.0000 C   0  0  0  0  0  0  0  0  0  0  0  0
    5.5710    0.5236    0.0000 C   0  0  0  0  0  0  0  0  0  0  0  0
    6.2855    0.9361    0.0000 O   0  0  0  0  0  0  0  0  0  0  0  0
    5.5710   -0.3014    0.0000 O   0  0  0  0  0  0  0  0  0  0  0  0
    3.4276    1.7611    0.0000 C   0  0  0  0  0  0  0  0  0  0  0  0
    4.1421    2.1736    0.0000 O   0  0  0  0  0  0  0  0  0  0  0  0
    2.7132    2.1736    0.0000 O   0  0  0  0  0  0  0  0  0  0  0  0
  2  1  1  0  0  0  0
 12  1  1  0  0  0  0
  2  3  1  0  0  0  0
  2  4  2  0  0  0  0
  5  4  1  0  0  0  0
  5  6  2  0  0  0  0
  5  7  1  0  0  0  0
  7  8  1  0  0  0  0
  7 12  2  0  0  0  0
  9  8  2  0  0  0  0
  9 10  1  0  0  0  0
  9 13  1  0  0  0  0
 10 11  1  0  0  0  0
 12 11  1  0  0  0  0
 13 14  1  0  0  0  0
 18 14  1  0  0  0  0
 15 16  2  0  0  0  0
 15 20  1  0  0  0  0
 21 15  1  0  0  0  0
 16 17  1  0  0  0  0
 17 18  2  0  0  0  0
 18 19  1  0  0  0  0
 19 20  2  0  0  0  0
 21 22  2  0  0  0  0
 21 23  1  0  0  0  0
 24 23  1  6  0  0  0
 24 25  1  0  0  0  0
 24 30  1  0  0  0  0
 25 26  1  0  0  0  0
 27 26  1  0  0  0  0
 27 28  2  0  0  0  0
 27 29  1  0  0  0  0
 30 31  2  0  0  0  0
 30 32  1  0  0  0  0
M  END