
  SciTegic11201309402D

 53 55  0  0  1  0            999 V2000
    1.6167   -1.5792    0.0000 N   0  0
    1.6167   -2.4375    0.0000 C   0  0
    1.6167   -3.2292    0.0000 C   0  0
    1.6042   -4.0542    0.0000 O   0  0
    3.0417   -1.5875    0.0000 C   0  0
    6.9542   -6.4292    0.0000 O   0  0
    1.8917   -4.8250    0.0000 C   0  0
    3.7542   -1.1750    0.0000 O   0  0
    2.3292   -1.1750    0.0000 C   0  0  2  0  0  0
    7.2042   -5.2792    0.0000 C   0  0
    5.7667   -6.9042    0.0000 C   0  0
    6.8667   -1.3125    0.0000 C   0  0
    3.7542   -0.3500    0.0000 C   0  0  1  0  0  0
    2.6917   -4.9750    0.0000 C   0  0
    6.9917    0.1125    0.0000 C   0  0
    7.3417   -0.6375    0.0000 C   0  0
    6.6167   -4.1625    0.0000 O   0  0
    2.4417   -2.4042    0.0000 O   0  0
    0.7917   -3.2250    0.0000 O   0  0
    7.2167   -2.0625    0.0000 C   0  0
    3.0417   -2.4125    0.0000 O   0  0
    1.3542   -5.4625    0.0000 O   0  0
    8.2000   -5.3125    0.0000 O   0  0
    5.7667   -7.6792    0.0000 O   0  0
    0.8792    1.2833    0.0000 N   0  0
    6.1667    0.1875    0.0000 C   0  0
    3.2292   -4.3375    0.0000 O   0  0
    7.4667    0.7875    0.0000 O   0  0
    4.7375    0.1875    0.0000 C   0  0  1  0  0  0
    3.0292    0.0625    0.0000 C   0  0
    5.7042   -0.3417    0.0000 C   0  0
    8.6292   -0.0292    0.0000 C   0  0
    9.4542   -0.1042    0.0000 C   0  0
    0.9042   -1.1750    0.0000 C   0  0
    3.0292    0.8875    0.0000 C   0  0
    7.0917   -3.4875    0.0000 C   0  0
    2.3042    1.2875    0.0000 C   0  0
    8.1542   -0.7125    0.0000 C   0  0
    2.3292   -0.3500    0.0000 C   0  0
    1.6042    0.8750    0.0000 C   0  0
    6.7417   -2.7375    0.0000 C   0  0
    5.0500   -6.4292    0.0000 C   0  0
    2.9792   -5.7417    0.0000 C   0  0
    0.8792    2.1083    0.0000 C   0  0
    8.0292   -2.1375    0.0000 C   0  0
    4.7292    1.2958    0.0000 C   0  0
    2.3042    2.1125    0.0000 C   0  0
    0.9042   -0.3500    0.0000 C   0  0
    1.5917    2.5250    0.0000 C   0  0
    1.6167    0.0708    0.0000 C   0  0
    4.0667   -6.6625    0.0000 C   0  0
    3.7917   -5.8875    0.0000 C   0  0
    3.1955   -0.6755    0.0000 H   0  0
  2  1  1  0
  3  2  1  0
  4  3  1  0
  9  5  1  0
  6 11  1  0
  7  4  1  0
  8  5  1  0
  9  1  1  0
 10  6  1  0
 11 42  1  0
 12 16  1  0
 13  8  1  0
 14  7  1  0
 15 26  1  0
 16 15  1  0
 17 10  1  0
 18  2  2  0
 19  3  2  0
 20 12  2  0
 21  5  2  0
 22  7  2  0
 23 10  2  0
 24 11  2  0
 25 40  2  0
 26 31  1  0
 27 14  2  0
 28 15  2  0
 29 13  1  0
 13 30  1  6
 31 29  1  0
 32 38  1  0
 33 32  2  0
 34  1  1  0
 35 30  1  0
 36 41  1  0
 37 35  1  0
 38 16  1  0
 39  9  1  0
 40 37  1  0
 41 20  1  0
 42 51  1  0
 43 14  1  0
 44 49  2  0
 45 20  1  0
 29 46  1  6
 47 37  2  0
 48 34  1  0
 49 47  1  0
 50 48  1  0
 51 52  1  0
 52 43  1  0
 39 50  1  0
 25 44  1  0
 17 36  1  0
  9 53  1  6
M  END