
  SciTegic04091415032D

 28 31  0  0  0  0            999 V2000
   11.2379  -22.4080    0.0000 C   0  0
   11.2379  -21.5830    0.0000 C   0  0
   11.9524  -21.1706    0.0000 C   0  0
   11.9524  -22.8206    0.0000 C   0  0
   12.6669  -22.4080    0.0000 C   0  0
   13.3812  -22.8206    0.0000 C   0  0
   14.0957  -22.4080    0.0000 C   0  0
   14.0957  -21.5830    0.0000 C   0  0  1  0  0  0
   14.8102  -21.1706    0.0000 C   0  0  2  0  0  0
   15.5948  -21.4255    0.0000 C   0  0
   16.0797  -20.7581    0.0000 C   0  0
   15.5948  -20.0906    0.0000 C   0  0  1  0  0  0
   14.8102  -20.3456    0.0000 C   0  0  2  0  0  0
   14.8102  -19.5206    0.0000 C   0  0
   14.0957  -19.9331    0.0000 C   0  0
   13.3812  -20.3456    0.0000 C   0  0
   13.3812  -21.1706    0.0000 C   0  0  2  0  0  0
   12.6669  -21.5830    0.0000 C   0  0
   15.8466  -19.3057    0.0000 C   0  0
   15.2994  -18.6854    0.0000 O   0  0
   16.6461  -19.0924    0.0000 O   0  0
   10.5234  -22.8206    0.0000 O   0  0
   16.8626  -18.3014    0.0000 C   0  0
   17.6621  -18.0882    0.0000 C   0  0
   17.8785  -17.2972    0.0000 C   0  0
   13.3812  -21.9956    0.0000 H   0  0
   14.0957  -20.7581    0.0000 H   0  0
   14.8102  -21.9956    0.0000 H   0  0
  1  2  1  0
  2  3  2  0
  1  4  2  0
  4  5  1  0
  5  6  1  0
  6  7  1  0
  7  8  1  0
  8  9  1  0
  9 10  1  0
 10 11  1  0
 11 12  1  0
 12 13  1  0
  9 13  1  0
 13 14  1  1
 13 15  1  0
 15 16  1  0
 16 17  1  0
  8 17  1  0
 17 18  1  0
  3 18  1  0
  5 18  2  0
 19 20  2  0
 19 21  1  0
 12 19  1  1
  1 22  1  0
 23 24  1  0
 24 25  1  0
 21 23  1  0
 17 26  1  6
  8 27  1  1
  9 28  1  6
M  END