
          11280715262D 1   1.00000     0.00000     0

 45 49  0     1  0            999 V2000
    5.9625   -2.1917    0.0000 S   0  0  3  0  0  0           0  0  0
    6.7625   -2.4792    0.0000 N   0  0  3  0  0  0           0  0  0
    5.2917   -2.6542    0.0000 N   0  0  3  0  0  0           0  0  0
    7.0250   -3.2792    0.0000 C   0  0  1  0  0  0           0  0  0
    5.2792   -3.3667    0.0000 C   0  0  1  0  0  0           0  0  0
    5.8625   -3.9417    0.0000 C   0  0  1  0  0  0           0  0  0
    6.5542   -3.9417    0.0000 C   0  0  1  0  0  0           0  0  0
    5.2417   -1.7792    0.0000 O   0  0  0  0  0  0           0  0  0
    6.5417   -1.6042    0.0000 O   0  0  0  0  0  0           0  0  0
    7.8375   -3.4042    0.0000 C   0  0  0  0  0  0           0  0  0
    4.5625   -3.7667    0.0000 C   0  0  0  0  0  0           0  0  0
    7.3542   -1.9042    0.0000 C   0  0  0  0  0  0           0  0  0
    4.5667   -2.2542    0.0000 C   0  0  0  0  0  0           0  0  0
    8.4250   -3.9917    0.0000 O   0  0  0  0  0  0           0  0  0
    4.1500   -4.4792    0.0000 O   0  0  0  0  0  0           0  0  0
    5.4500   -4.6542    0.0000 O   0  0  0  0  0  0           0  0  0
    6.9375   -4.6667    0.0000 O   0  0  0  0  0  0           0  0  0
    8.1500   -2.1167    0.0000 C   0  0  0  0  0  0           0  0  0
    3.8625   -2.6917    0.0000 C   0  0  0  0  0  0           0  0  0
    9.7375   -2.5417    0.0000 C   0  0  0  0  0  0           0  0  0
    2.4625   -3.5542    0.0000 C   0  0  0  0  0  0           0  0  0
    4.1417   -5.3042    0.0000 C   0  0  0  0  0  0           0  0  0
    8.4167   -4.8167    0.0000 C   0  0  0  0  0  0           0  0  0
    8.7250   -1.5417    0.0000 C   0  0  0  0  0  0           0  0  0
    3.1417   -2.2917    0.0000 C   0  0  0  0  0  0           0  0  0
    8.3625   -2.9167    0.0000 C   0  0  0  0  0  0           0  0  0
    3.8917   -3.5042    0.0000 C   0  0  0  0  0  0           0  0  0
    2.4417   -2.7292    0.0000 C   0  0  0  0  0  0           0  0  0
    9.1542   -3.1292    0.0000 C   0  0  0  0  0  0           0  0  0
    3.1917   -3.9417    0.0000 C   0  0  0  0  0  0           0  0  0
    9.5167   -1.7417    0.0000 C   0  0  0  0  0  0           0  0  0
    1.0375   -3.5917    0.0000 O   0  0  0  0  0  0           0  0  0
   11.1167   -2.1667    0.0000 O   0  0  0  0  0  0           0  0  0
    1.7625   -3.9792    0.0000 C   0  0  0  0  0  0           0  0  0
   10.5375   -2.7542    0.0000 C   0  0  0  0  0  0           0  0  0
    7.7000   -5.2167    0.0000 C   0  0  0  0  0  0           0  0  0
    9.1250   -5.2292    0.0000 C   0  0  0  0  0  0           0  0  0
    3.4250   -5.7167    0.0000 C   0  0  0  0  0  0           0  0  0
    4.8500   -5.7167    0.0000 C   0  0  0  0  0  0           0  0  0
    9.1250   -6.0542    0.0000 C   0  0  0  0  0  0           0  0  0
    3.4167   -6.5417    0.0000 C   0  0  0  0  0  0           0  0  0
    4.8500   -6.5417    0.0000 C   0  0  0  0  0  0           0  0  0
    7.6917   -6.0417    0.0000 C   0  0  0  0  0  0           0  0  0
    4.1292   -6.9542    0.0000 C   0  0  0  0  0  0           0  0  0
    8.4042   -6.4667    0.0000 C   0  0  0  0  0  0           0  0  0
  2  1  1  0     0  0
  3  1  1  0     0  0
  4  2  1  0     0  0
  5  3  1  0     0  0
  6  5  1  0     0  0
  7  4  1  0     0  0
  8  1  2  0     0  0
  9  1  2  0     0  0
  4 10  1  6     0  0
  5 11  1  1     0  0
 12  2  1  0     0  0
 13  3  1  0     0  0
 14 10  1  0     0  0
 15 11  1  0     0  0
  6 16  1  1     0  0
  7 17  1  6     0  0
 18 12  1  0     0  0
 19 13  1  0     0  0
 20 29  2  0     0  0
 21 30  1  0     0  0
 22 15  1  0     0  0
 23 14  1  0     0  0
 24 18  1  0     0  0
 25 19  2  0     0  0
 26 18  2  0     0  0
 27 19  1  0     0  0
 28 25  1  0     0  0
 29 26  1  0     0  0
 30 27  2  0     0  0
 31 24  2  0     0  0
 32 34  1  0     0  0
 33 35  1  0     0  0
 34 21  1  0     0  0
 35 20  1  0     0  0
 36 23  2  0     0  0
 37 23  1  0     0  0
 38 22  2  0     0  0
 39 22  1  0     0  0
 40 37  2  0     0  0
 41 38  1  0     0  0
 42 39  2  0     0  0
 43 36  1  0     0  0
 44 42  1  0     0  0
 45 40  1  0     0  0
  7  6  1  0     0  0
 21 28  2  0     0  0
 20 31  1  0     0  0
 44 41  2  0     0  0
 45 43  2  0     0  0
M  END