
  SciTegic09261414532D

 30 34  0  0  0  0            999 V2000
   10.5038  -10.8546    0.0000 C   0  0
   10.5038  -11.6718    0.0000 C   0  0
   11.2173  -12.0804    0.0000 C   0  0
   11.2173  -10.4460    0.0000 C   0  0
   11.9226  -10.8546    0.0000 C   0  0
   11.9210  -11.6741    0.0000 C   0  0
   12.6252  -12.0814    0.0000 C   0  0
   13.3357  -11.6744    0.0000 N   0  0
   13.3374  -10.8560    0.0000 C   0  0
   12.6285  -10.4482    0.0000 C   0  0
   11.2144  -12.9017    0.0000 C   0  0
   10.5114  -13.3072    0.0000 N   0  0
   10.5115  -14.1306    0.0000 C   0  0
   11.1215  -14.6836    0.0000 S   0  0
    9.8035  -14.5379    0.0000 N   0  0
    9.9759  -15.3384    0.0000 C   0  0
   10.7919  -15.4182    0.0000 C   0  0
   11.1320  -16.1618    0.0000 C   0  0
   10.6573  -16.8254    0.0000 C   0  0
    9.8464  -16.7497    0.0000 C   0  0
    9.5017  -16.0065    0.0000 C   0  0
   11.9268  -13.3093    0.0000 O   0  0
   14.0439  -12.0819    0.0000 C   0  0
   14.0434  -12.9027    0.0000 S   0  0
   14.8191  -13.1563    0.0000 C   0  0
   15.2981  -12.4960    0.0000 C   0  0
   14.8171  -11.8323    0.0000 N   0  0
   16.1152  -12.5007    0.0000 C   0  0
   16.5236  -13.2070    0.0000 O   0  0
   16.5238  -11.7908    0.0000 O   0  0
  1  2  2  0
  1  4  1  0
  2  3  1  0
  3  6  2  0
  5  4  2  0
  5  6  1  0
  6  7  1  0
  7  8  1  0
  8  9  1  0
  9 10  1  0
 10  5  1  0
  3 11  1  0
 11 12  1  0
 12 13  1  0
 13 14  1  0
 14 17  1  0
 16 15  1  0
 15 13  2  0
 16 17  2  0
 17 18  1  0
 18 19  2  0
 19 20  1  0
 20 21  2  0
 21 16  1  0
  8 23  1  0
 11 22  2  0
 23 24  1  0
 25 26  2  0
 26 27  1  0
 27 23  2  0
 26 28  1  0
 28 29  1  0
 28 30  2  0
 24 25  1  0
M  END