
  SciTegic11201309402D

 50 51  0  0  0  0            999 V2000
   -2.2107   -6.2796    0.0000 C   0  0
   -1.4878   -5.8873    0.0000 C   0  0  1  0  0  0
   -0.7841   -6.3179    0.0000 C   0  0
   -0.8033   -7.1409    0.0000 O   0  0
   -2.2341   -7.1027    0.0000 C   0  0
   -2.9606   -7.4961    0.0000 C   0  0
   -2.9803   -8.3178    0.0000 C   0  0
   -2.2758   -8.7499    0.0000 C   0  0
   -1.5489   -8.3507    0.0000 C   0  0
   -1.5306   -7.5309    0.0000 C   0  0
   -2.2975   -9.5729    0.0000 O   0  0
    0.6525   -6.3329    0.0000 C   0  0  2  0  0  0
    1.3640   -5.9213    0.0000 C   0  0
    0.6525   -7.1563    0.0000 C   0  0
    2.0798   -6.3329    0.0000 O   0  0
    1.3640   -7.5722    0.0000 C   0  0
    1.3640   -8.3956    0.0000 C   0  0
    2.0798   -8.8073    0.0000 O   0  0
    2.0798   -4.6838    0.0000 C   0  0  2  0  0  0
    2.0798   -3.8604    0.0000 C   0  0
    2.7914   -5.0954    0.0000 C   0  0
    2.7914   -3.4486    0.0000 O   0  0
    3.5072   -4.6838    0.0000 C   0  0
    3.5072   -3.8604    0.0000 O   0  0
    1.3640   -2.6252    0.0000 C   0  0  1  0  0  0
    2.0798   -2.2094    0.0000 C   0  0
   -2.1721   -4.6312    0.0000 C   0  0
   -2.1487   -3.8041    0.0000 C   0  0
   -2.8950   -5.0236    0.0000 O   0  0
    2.8153   -2.6370    0.0000 C   0  0
    2.0805   -1.3637    0.0000 C   0  0
    0.6285   -2.1980    0.0000 C   0  0
    0.6288   -1.3480    0.0000 O   0  0
   -0.8430   -2.1974    0.0000 C   0  0  1  0  0  0
   -1.5790   -2.6241    0.0000 C   0  0
   -1.5793   -3.4740    0.0000 S   0  0
   -0.8427   -1.3475    0.0000 C   0  0
   -1.5783   -0.9243    0.0000 O   0  0
   -3.0222   -9.9663    0.0000 P   0  0
   -3.0438  -10.7905    0.0000 O   0  0
   -3.7250   -9.5353    0.0000 O   0  0
   -2.2316  -10.2005    0.0000 O   0  0
    1.3653   -5.0963    0.0000 N   0  0
    0.6511   -8.7590    0.0000 O   0  0
    1.3640   -3.4502    0.0000 N   0  0
    4.2216   -5.0471    0.0000 N   0  0
   -0.1074   -2.5709    0.0000 N   0  0
   -0.1053   -0.9295    0.0000 N   0  0
   -1.4689   -5.0625    0.0000 N   0  0
   -0.0616   -5.9197    0.0000 N   0  0
 26 31  1  0
 25 32  1  0
 32 33  2  0
 34 35  1  0
 35 36  1  0
 34 37  1  1
 37 38  2  0
 28 36  1  0
 11 39  1  0
 39 40  1  0
 39 41  2  0
 39 42  1  0
  2  1  1  6
  2  3  1  0
  3  4  2  0
  1  5  1  0
  5  6  2  0
  6  7  1  0
  7  8  2  0
  8  9  1  0
  9 10  2  0
 10  5  1  0
  8 11  1  0
 12 13  1  0
 12 14  1  6
 13 15  2  0
 14 16  1  0
 16 17  1  0
 17 18  2  0
 19 20  1  0
 19 21  1  6
 20 22  2  0
 21 23  1  0
 23 24  2  0
 25 26  1  6
 27 28  1  0
 27 29  2  0
 26 30  1  0
 23 46  1  0
 17 44  1  0
 32 47  1  0
 47 34  1  0
 13 43  1  0
 43 19  1  0
 37 48  1  0
 20 45  1  0
 45 25  1  0
  2 49  1  0
 49 27  1  0
  3 50  1  0
 50 12  1  0
M  END