
  CDK    9/16/09,9:59

 18 19  0  0  0  0  0  0  0  0999 V2000
   11.1165  -24.3784    0.0000 C   0  0  0  0  0  0  0  0  0  0  0  0
   11.9421  -24.3750    0.0000 C   0  0  0  0  0  0  0  0  0  0  0  0
   10.7102  -22.2387    0.0000 C   0  0  0  0  0  0  0  0  0  0  0  0
   11.1221  -22.9535    0.0000 N   0  0  0  0  0  0  0  0  0  0  0  0
   10.7072  -23.6628    0.0000 C   0  0  0  0  0  0  0  0  0  0  0  0
   12.3524  -23.6638    0.0000 O   0  0  0  0  0  0  0  0  0  0  0  0
   11.1272  -21.5204    0.0000 C   0  0  0  0  0  0  0  0  0  0  0  0
   11.1284  -20.1872    0.0000 N   0  0  0  0  0  0  0  0  0  0  0  0
   10.6469  -20.8589    0.0000 C   0  0  0  0  0  0  0  0  0  0  0  0
   11.9136  -20.4430    0.0000 C   0  0  0  0  0  0  0  0  0  0  0  0
   11.9115  -21.2668    0.0000 C   0  0  0  0  0  0  0  0  0  0  0  0
   12.6269  -21.6828    0.0000 N   0  0  0  0  0  0  0  0  0  0  0  0
   13.3448  -21.2679    0.0000 C   0  0  0  0  0  0  0  0  0  0  0  0
   13.3429  -20.4409    0.0000 N   0  0  0  0  0  0  0  0  0  0  0  0
   12.6270  -20.0287    0.0000 C   0  0  0  0  0  0  0  0  0  0  0  0
   12.6253  -19.2029    0.0000 O   0  0  0  0  0  0  0  0  0  0  0  0
   10.7037  -25.0935    0.0000 C   0  0  0  0  0  0  0  0  0  0  0  0
    9.8779  -25.0935    0.0000 O   0  0  0  0  0  0  0  0  0  0  0  0
  8  9  1  0  0  0  0 
  9  7  2  0  0  0  0 
  5  1  1  0  0  0  0 
  1  2  1  0  0  0  0 
 10 11  2  0  0  0  0 
  2  6  1  0  0  0  0 
 11 12  1  0  0  0  0 
 12 13  2  0  0  0  0 
  3  7  1  0  0  0  0 
 13 14  1  0  0  0  0 
  7 11  1  0  0  0  0 
 14 15  1  0  0  0  0 
 15 10  1  0  0  0  0 
  3  4  1  0  0  0  0 
 15 16  2  0  0  0  0 
  4  5  1  0  0  0  0 
  1 17  1  0  0  0  0 
 10  8  1  0  0  0  0 
 17 18  1  0  0  0  0 
M  END