
  SciTegic12231509382D

 40 43  0  0  0  0            999 V2000
   14.6448   -6.5219    0.0000 C   0  0
   15.3592   -6.9344    0.0000 C   0  0
   16.0737   -6.5219    0.0000 C   0  0
   16.0737   -5.6969    0.0000 C   0  0
   15.3592   -5.2844    0.0000 C   0  0
   14.6448   -5.6969    0.0000 N   0  0
   13.9303   -6.9344    0.0000 C   0  0
   13.9303   -7.7594    0.0000 O   0  0
   13.2158   -6.5219    0.0000 N   0  0
   16.7882   -5.2844    0.0000 O   0  0
   18.9316   -6.5219    0.0000 N   0  0
   18.9316   -5.6969    0.0000 C   0  0
   18.2171   -5.2844    0.0000 C   0  0
   17.5026   -5.6969    0.0000 C   0  0
   17.5026   -6.5219    0.0000 C   0  0
   18.2171   -6.9344    0.0000 C   0  0
   17.6868   -7.5664    0.0000 C   0  0
   18.7474   -7.5664    0.0000 C   0  0
   19.2138   -4.9217    0.0000 C   0  0
   19.7441   -5.8402    0.0000 C   0  0
   19.6461   -6.9344    0.0000 C   0  0
   12.5014   -6.9344    0.0000 C   0  0
   11.7869   -6.5219    0.0000 C   0  0
   11.0724   -6.9344    0.0000 C   0  0
   11.0724   -7.7594    0.0000 C   0  0
   11.7869   -8.1719    0.0000 C   0  0
   12.5014   -7.7594    0.0000 C   0  0
   10.3579   -8.1719    0.0000 N   0  0
    9.6435   -7.7594    0.0000 C   0  0
    9.6435   -6.9344    0.0000 O   0  0
    8.9290   -8.1719    0.0000 N   0  0
    6.9088   -7.4819    0.0000 O   0  0
    7.4609   -8.0950    0.0000 N   0  0
    8.2145   -7.7594    0.0000 C   0  0
    8.1283   -6.9389    0.0000 C   0  0
    7.3213   -6.7674    0.0000 C   0  0
    6.9858   -6.0137    0.0000 C   0  0
    7.3983   -5.2993    0.0000 C   0  0
    6.6371   -5.2660    0.0000 C   0  0
    6.1608   -6.0137    0.0000 C   0  0
  1  2  1  0
  2  3  2  0
  3  4  1  0
  4  5  2  0
  5  6  1  0
  1  6  2  0
  1  7  1  0
  7  8  2  0
  7  9  1  0
 11 12  1  0
 12 13  1  0
 13 14  1  0
 14 15  1  0
 15 16  1  0
 11 16  1  0
 10 14  1  0
 16 17  1  0
 16 18  1  0
 12 19  1  0
 12 20  1  0
 11 21  1  0
  4 10  1  0
 22 23  1  0
 23 24  2  0
 24 25  1  0
 25 26  2  0
 26 27  1  0
 22 27  2  0
 28 29  1  0
 29 30  2  0
 29 31  1  0
 32 33  1  0
 33 34  2  0
 34 35  1  0
 35 36  2  0
 32 36  1  0
 37 38  1  0
 37 40  1  0
 37 39  1  0
 36 37  1  0
 31 34  1  0
 25 28  1  0
  9 22  1  0
M  END