
  SciTegic04091511462D

 80 84  0  0  1  0            999 V2000
    4.4996   -6.0313    0.0000 N   0  0
   -0.1956   -2.9387    0.0000 N   0  0
    4.7493   -5.2446    0.0000 C   0  0
    0.0167   -3.7336    0.0000 C   0  0
    0.1416   -1.3486    0.0000 C   0  0
    4.1999   -4.6244    0.0000 C   0  0  1  0  0  0
    4.7118   -3.9834    0.0000 N   0  0
    0.6660   -0.7035    0.0000 N   0  0
   -0.1581   -2.1145    0.0000 C   0  0  2  0  0  0
    4.8492   -1.5859    0.0000 N   0  0
    2.9761   -0.0791    0.0000 N   0  0
    5.0115   -3.2134    0.0000 C   0  0
    2.1520   -0.0292    0.0000 C   0  0
    5.8107   -6.6931    0.0000 C   0  0
    4.3997   -0.8991    0.0000 C   0  0
    5.0490   -2.3892    0.0000 C   0  0  2  0  0  0
    4.9866   -6.6931    0.0000 C   0  0  2  0  0  0
    1.3528   -0.2497    0.0000 C   0  0  2  0  0  0
    0.4662   -4.4329    0.0000 C   0  0
    6.2228   -7.4049    0.0000 N   0  0
    5.8731   -2.3018    0.0000 C   0  0
    3.7503   -0.3746    0.0000 C   0  0  2  0  0  0
    7.4590   -8.1208    0.0000 C   0  0
    9.9439   -5.2613    0.0000 C   0  0
    2.7139   -5.2945    0.0000 S   0  0
    1.9397   -5.3819    0.0000 S   0  0
    6.5849   -1.8856    0.0000 C   0  0
    1.1155   -4.9491    0.0000 C   0  0
    8.2831   -8.1208    0.0000 N   0  0
    7.0469   -7.4049    0.0000 C   0  0  2  0  0  0
    9.5194   -8.8409    0.0000 C   0  0
    5.3986    1.0489    0.0000 C   0  0
   10.7681   -5.2613    0.0000 N   0  0
    5.5610   -5.0698    0.0000 O   0  0
   -0.9573   -1.9480    0.0000 C   0  0
   -0.7325   -4.0625    0.0000 O   0  0
   -0.5702   -0.9365    0.0000 O   0  0
    3.5006   -5.0740    0.0000 C   0  0
    6.2228   -5.9813    0.0000 O   0  0
    5.8232   -3.3840    0.0000 O   0  0
    2.1145    0.6576    0.0000 O   0  0
    4.9990   -0.3496    0.0000 O   0  0
    1.0281    0.4995    0.0000 C   0  0
    7.0469   -8.8409    0.0000 O   0  0
    6.5849   -1.0614    0.0000 O   0  0
    9.9439   -8.1208    0.0000 O   0  0
    4.9866    1.7607    0.0000 O   0  0
    4.1624    0.3372    0.0000 C   0  0
    9.5194   -5.9813    0.0000 N   0  0
    8.6952   -8.8409    0.0000 C   0  0
    9.5194   -4.5453    0.0000 N   0  0
    3.7129   -6.2810    0.0000 C   0  0
    7.3092   -2.2976    0.0000 N   0  0
    4.9866    0.3372    0.0000 C   0  0
   -1.2195   -1.1613    0.0000 C   0  0
    6.2228    1.0614    0.0000 N   0  0
    9.9314   -9.5526    0.0000 N   0  0
   -1.0197   -3.0261    0.0000 C   0  0
   -1.7315    0.4121    0.0000 C   0  0
    1.5026    1.1738    0.0000 C   0  0
   -2.0312   -0.9865    0.0000 C   0  0
   -0.6701   -0.5494    0.0000 C   0  0
   -2.2809   -0.1998    0.0000 C   0  0
   -0.9199    0.2373    0.0000 C   0  0
    4.4996   -7.3674    0.0000 C   0  0
   -1.9813    1.1988    0.0000 O   0  0
    3.7129   -7.1094    0.0000 C   0  0
    0.3413   -4.8575    0.0000 C   0  0
    1.5776   -5.5692    0.0000 C   0  0
    7.4590   -6.6931    0.0000 C   0  0
    8.6952   -5.9813    0.0000 C   0  0
    2.3268    1.0822    0.0000 C   0  0
    1.1780    1.9230    0.0000 C   0  0
    8.2831   -6.6931    0.0000 C   0  0
    1.1655   -6.2852    0.0000 C   0  0
   -0.0707   -5.5692    0.0000 C   0  0
    2.8138    1.7482    0.0000 C   0  0
    1.6525    2.5973    0.0000 C   0  0
    0.3413   -6.2852    0.0000 C   0  0
    2.4766    2.5057    0.0000 C   0  0
  2  4  1  0
  3  1  1  0
  4 19  1  0
  5  9  1  0
  6  3  1  6
  7  6  1  0
  8  5  1  0
  9  2  1  0
 10 16  1  0
 11 22  1  0
 12  7  1  0
 13 11  1  0
 17 14  1  6
 15 10  1  0
 16 12  1  0
 17  1  1  0
 18 13  1  0
 19 28  1  0
 20 14  1  0
 16 21  1  1
 22 15  1  0
 23 30  1  0
 24 49  2  0
 25 38  1  0
 26 25  1  0
 27 21  1  0
 28 26  1  0
 29 23  1  0
 30 20  1  1
 31 50  1  0
 32 54  1  0
 33 24  1  0
 34  3  2  0
  9 35  1  1
 36  4  2  0
 37  5  2  0
  6 38  1  0
 39 14  2  0
 40 12  2  0
 41 13  2  0
 42 15  2  0
 18 43  1  1
 44 23  2  0
 45 27  2  0
 46 31  2  0
 47 32  2  0
 22 48  1  1
 49 71  1  0
 50 29  1  0
 51 24  1  0
 52  1  1  0
 53 27  1  0
 54 48  1  0
 55 35  1  0
 56 32  1  0
 57 31  1  0
 58  2  1  0
 59 64  2  0
 60 43  1  0
 61 55  1  0
 62 55  2  0
 63 61  2  0
 64 62  1  0
 17 65  1  0
 66 59  1  0
 67 52  1  0
 68 28  1  0
 69 28  1  0
 30 70  1  0
 71 74  1  0
 72 60  2  0
 73 60  1  0
 74 70  1  0
 75 69  1  0
 76 68  1  0
 77 72  1  0
 78 73  2  0
 79 75  1  0
 80 78  1  0
 65 67  1  0
 79 76  1  0
  8 18  1  0
 59 63  1  0
 80 77  2  0
M  END