
  SciTegic04181614082D

 27 29  0  0  0  0            999 V2000
    1.7138    1.2033    0.0000 N   0  0
    2.1749    2.6315    0.0000 C   0  0  1  0  0  0
    0.2917    0.7475    0.0000 C   0  0
    2.5889    0.0182    0.0000 C   0  0
    3.5533    3.1779    0.0000 C   0  0  1  0  0  0
    1.1949    3.7514    0.0000 O   0  0
    0.2917   -0.7475    0.0000 C   0  0
   -1.0028    1.5132    0.0000 N   0  0
    1.7138   -1.2033    0.0000 N   0  0
    3.4400    4.6736    0.0000 C   0  0  1  0  0  0
    4.5707    2.5416    0.0000 O   0  0
    1.9824    5.0281    0.0000 C   0  0  1  0  0  0
   -1.0028   -1.5132    0.0000 C   0  0
   -2.3155    0.7475    0.0000 C   0  0
    4.3547    5.4503    0.0000 O   0  0
    1.4103    6.4127    0.0000 C   0  0
   -2.3155   -0.7475    0.0000 N   0  0
   -0.9991   -2.7132    0.0000 N   0  0
   -0.0774    6.6109    0.0000 S   0  0
   -0.6506    7.9979    0.0000 C   0  0
   -2.1383    8.1960    0.0000 C   0  0
   -2.7114    9.5831    0.0000 N   0  0
   -4.1991    9.7812    0.0000 C   0  0
   -4.7723   11.1683    0.0000 N   0  0
   -4.9308    8.8300    0.0000 O   0  0
   -6.2600   11.3664    0.0000 C   0  0
   -6.7183   12.4754    0.0000 C   0  0
  2  1  1  6
  1  3  1  0
  1  4  1  0
  5  2  1  0
  2  6  1  0
  3  7  2  0
  3  8  1  0
  4  9  2  0
  5 10  1  0
  5 11  1  1
  6 12  1  0
  7 13  1  0
  8 14  2  0
 10 15  1  1
 12 16  1  6
 13 17  2  0
 13 18  1  0
 16 19  1  0
  7  9  1  0
 10 12  1  0
 14 17  1  0
 19 20  1  0
 20 21  1  0
 21 22  1  0
 22 23  1  0
 23 24  1  0
 23 25  2  0
 24 26  1  0
 26 27  1  0
M  END