
  SciTegic04091414152D

 20 22  0  0  0  0            999 V2000
    7.6310   -8.4804    0.0000 N   0  0
    8.3908   -8.1635    0.0000 C   0  0
    8.3222   -7.3430    0.0000 C   0  0
    7.5202   -7.1516    0.0000 C   0  0
    7.0918   -7.8567    0.0000 C   0  0
    9.0958   -8.5919    0.0000 C   0  0
    9.0765   -9.4180    0.0000 O   0  0
    9.8202   -8.1944    0.0000 N   0  0
    6.2677   -7.9232    0.0000 Br  0  0
    7.1998   -6.3897    0.0000 Br  0  0
   12.7431   -8.4214    0.0000 S   0  0
   13.2111   -9.0960    0.0000 C   0  0
   12.7136   -9.7512    0.0000 N   0  0
   11.9353   -9.4799    0.0000 C   0  0
   11.9524   -8.6575    0.0000 C   0  0
   11.2474   -8.2290    0.0000 C   0  0
   10.5252   -8.6229    0.0000 C   0  0  2  0  0  0
   10.5059   -9.4489    0.0000 C   0  0
   11.2110   -9.8775    0.0000 C   0  0
   14.0371   -9.1153    0.0000 N   0  0
  1  2  1  0
  2  3  2  0
  3  4  1  0
  4  5  2  0
  1  5  1  0
  6  7  2  0
  6  8  1  0
  2  6  1  0
  5  9  1  0
  4 10  1  0
 11 12  1  0
 12 13  2  0
 13 14  1  0
 14 15  2  0
 11 15  1  0
 16 17  1  0
 17 18  1  0
 18 19  1  0
 14 19  1  0
 15 16  1  0
 12 20  1  0
 17  8  1  6
M  END