
          08180812492D 1   1.00000     0.00000     0

 30 33  0     0  0            999 V2000
    0.4319  -24.6500    0.0000 C   0  0  0  0  0  0           0  0  0
    0.4307  -25.4773    0.0000 C   0  0  0  0  0  0           0  0  0
    1.1456  -25.8902    0.0000 C   0  0  0  0  0  0           0  0  0
    1.8620  -25.4769    0.0000 C   0  0  0  0  0  0           0  0  0
    1.8591  -24.6463    0.0000 C   0  0  0  0  0  0           0  0  0
    1.1438  -24.2372    0.0000 C   0  0  0  0  0  0           0  0  0
   -0.2839  -25.8890    0.0000 C   0  0  0  0  0  0           0  0  0
   -1.0264  -25.5294    0.0000 N   0  0  3  0  0  0           0  0  0
   -0.2847  -26.7143    0.0000 O   0  0  0  0  0  0           0  0  0
    2.5721  -24.2311    0.0000 O   0  0  0  0  0  0           0  0  0
    2.5689  -23.4061    0.0000 C   0  0  0  0  0  0           0  0  0
    3.2836  -22.9958    0.0000 C   0  0  0  0  0  0           0  0  0
    3.2809  -22.1716    0.0000 C   0  0  0  0  0  0           0  0  0
    2.5643  -21.7609    0.0000 C   0  0  0  0  0  0           0  0  0
    1.8490  -22.1806    0.0000 C   0  0  0  0  0  0           0  0  0
    1.8553  -23.0034    0.0000 C   0  0  0  0  0  0           0  0  0
    2.5771  -25.8882    0.0000 C   0  0  0  0  0  0           0  0  0
    3.2909  -25.4746    0.0000 N   0  0  0  0  0  0           0  0  0
    4.0061  -25.8860    0.0000 C   0  0  0  0  0  0           0  0  0
   -1.6703  -26.0420    0.0000 C   0  0  0  0  0  0           0  0  0
   -2.4765  -25.8580    0.0000 C   0  0  0  0  0  0           0  0  0
   -1.0256  -24.7053    0.0000 C   0  0  0  0  0  0           0  0  0
   -2.8366  -25.1172    0.0000 C   0  0  0  0  0  0           0  0  0
   -1.6718  -24.1901    0.0000 C   0  0  0  0  0  0           0  0  0
   -2.4766  -24.3762    0.0000 N   0  0  3  0  0  0           0  0  0
   -2.9907  -23.7310    0.0000 C   0  0  3  0  0  0           0  0  0
   -3.1159  -22.9119    0.0000 C   0  0  0  0  0  0           0  0  0
   -3.7611  -23.4261    0.0000 C   0  0  0  0  0  0           0  0  0
    2.5601  -20.9359    0.0000 Cl  0  0  0  0  0  0           0  0  0
    3.9940  -21.7567    0.0000 Cl  0  0  0  0  0  0           0  0  0
 14 15  1  0     0  0
  3  4  2  0     0  0
 15 16  2  0     0  0
 16 11  1  0     0  0
  7  8  1  0     0  0
  4 17  1  0     0  0
 17 18  1  0     0  0
  7  9  2  0     0  0
 18 19  1  0     0  0
  4  5  1  0     0  0
  8 20  1  0     0  0
  5 10  1  0     0  0
 20 21  1  0     0  0
  2  3  1  0     0  0
  8 22  1  0     0  0
 10 11  1  0     0  0
 21 23  1  0     0  0
  5  6  2  0     0  0
 22 24  1  0     0  0
 11 12  2  0     0  0
 23 25  1  0     0  0
 24 25  1  0     0  0
  6  1  1  0     0  0
 25 26  1  0     0  0
 27 26  1  0     0  0
 28 27  1  0     0  0
 26 28  1  0     0  0
 12 13  1  0     0  0
  1  2  2  0     0  0
 13 14  2  0     0  0
 14 29  1  0     0  0
  2  7  1  0     0  0
 13 30  1  0     0  0
M  END