
  SciTegic10311217562D

 51 47  0  0  0  0            999 V2000
   -2.3292    0.6750    0.0000 Na  0  3
   -0.5417   -1.1583    0.0000 C   0  0  2  0  0  0
   -0.5417   -1.9833    0.0000 C   0  0  1  0  0  0
    0.1703   -2.3917    0.0000 C   0  0  2  0  0  0
    0.8823   -1.9833    0.0000 O   0  0
    0.8823   -1.1583    0.0000 C   0  0  1  0  0  0
    0.1703   -0.7417    0.0000 C   0  0  1  0  0  0
    1.5980   -0.7479    0.0000 C   0  0
   -1.2574   -0.7479    0.0000 O   0  0
   -1.2556   -2.3969    0.0000 O   0  0
    0.1703    0.0833    0.0000 O   0  0
    0.1703   -3.2167    0.0000 O   0  0
    2.3113   -1.1625    0.0000 N   0  0
    0.8848   -3.6292    0.0000 C   0  0
    3.0269   -0.7521    0.0000 C   0  0
    3.7402   -1.1667    0.0000 C   0  0
    3.0294    0.0729    0.0000 O   0  0
    4.4559   -0.7563    0.0000 N   0  0
    5.1691   -1.1709    0.0000 C   0  0
    5.8848   -0.7605    0.0000 O   0  0
   -0.5442    0.4958    0.0000 S   0  0
   -1.2586    0.0833    0.0000 O   0  5
   -0.9625    1.2125    0.0000 O   0  0
   -0.1375    1.2125    0.0000 O   0  0
   -1.9706   -1.1625    0.0000 S   0  0
   -2.6863   -0.7521    0.0000 O   0  5
   -2.3875   -1.8750    0.0000 O   0  0
   -1.5625   -1.8750    0.0000 O   0  0
   -1.2544   -3.2219    0.0000 S   0  0
   -1.9682   -3.6354    0.0000 O   0  5
   -0.4334   -3.2208    0.0000 O   0  0
   -0.8500   -3.9333    0.0000 O   0  0
    4.4571    0.0664    0.0000 C   0  0
    5.1667   -1.9959    0.0000 C   0  0
    5.1722    0.4778    0.0000 C   0  0
    5.8800   -2.4105    0.0000 C   0  0
    5.8776   -3.2355    0.0000 C   0  0
    6.5908   -3.6501    0.0000 C   0  0
    7.3065   -3.2397    0.0000 C   0  0
    8.0198   -3.6543    0.0000 C   0  0
    8.7354   -3.2439    0.0000 C   0  0
    9.4487   -3.6584    0.0000 C   0  0
   10.1644   -3.2480    0.0000 C   0  0
   10.8776   -3.6626    0.0000 O   0  0
   11.5933   -3.2522    0.0000 S   0  0
   12.3066   -3.6668    0.0000 O   0  5
   11.1750   -2.5333    0.0000 O   0  0
   12.0000   -2.5333    0.0000 O   0  0
   13.2250   -3.4125    0.0000 Na  0  3
   -3.7042   -1.4167    0.0000 Na  0  3
   -3.3000   -3.7583    0.0000 Na  0  3
  6  7  1  0
 25 26  1  0
 12 14  1  0
 25 27  2  0
 25 28  2  0
 13 15  1  0
  6  8  1  1
 10 29  1  0
 15 16  1  0
 29 30  1  0
  2  3  1  0
 29 31  2  0
 15 17  2  0
 29 32  2  0
  2  9  1  1
 16 18  1  0
 18 33  1  0
  2  7  1  0
 19 34  1  0
 18 19  1  0
 33 35  1  0
  3 10  1  1
 34 36  1  0
 19 20  2  0
 36 37  1  0
  3  4  1  0
 37 38  1  0
 11 21  1  0
 38 39  1  0
  7 11  1  6
 39 40  1  0
 21 22  1  0
 40 41  1  0
  4  5  1  0
 41 42  1  0
 42 43  1  0
  4 12  1  6
 43 44  1  0
 21 23  2  0
 44 45  1  0
  5  6  1  0
 45 46  1  0
 21 24  2  0
  8 13  1  0
 45 47  2  0
  9 25  1  0
 45 48  2  0
M  CHG  8   1   1  22  -1  26  -1  30  -1  46  -1  49   1  50   1  51   1
M  END