
  SciTegic10311316212D

 26 29  0  0  0  0            999 V2000
   12.1533  -19.3979    0.0000 C   0  0
   12.1521  -20.2175    0.0000 C   0  0
   12.8602  -20.6264    0.0000 C   0  0
   12.8584  -18.9891    0.0000 C   0  0
   13.5670  -19.3943    0.0000 C   0  0
   13.5673  -20.2130    0.0000 C   0  0
   14.3459  -20.4657    0.0000 S   0  0
   14.8269  -19.8032    0.0000 C   0  0
   14.3455  -19.1412    0.0000 C   0  0
   11.4486  -20.6246    0.0000 N   0  0
   10.7024  -20.2917    0.0000 C   0  0
   10.1551  -20.8986    0.0000 N   0  0
   10.5631  -21.6066    0.0000 N   0  0
   11.3625  -21.4372    0.0000 C   0  0
   11.9682  -21.9813    0.0000 C   0  0
   11.7962  -22.7813    0.0000 C   0  0
   12.4023  -23.3283    0.0000 C   0  0
   13.1806  -23.0765    0.0000 C   0  0
   13.3494  -22.2726    0.0000 C   0  0
   12.7420  -21.7291    0.0000 C   0  0
   10.5331  -19.4922    0.0000 S   0  0
   15.6421  -19.8008    0.0000 C   0  0
   16.0509  -20.5084    0.0000 O   0  0
   16.0504  -19.0930    0.0000 O   0  0
   14.5977  -18.3639    0.0000 Cl  0  0
   14.1259  -22.0179    0.0000 C   0  0
  1  2  2  0
  2  3  1  0
  3  6  2  0
  5  4  2  0
  4  1  1  0
  5  6  1  0
  6  7  1  0
  7  8  1  0
  8  9  2  0
  9  5  1  0
 10 11  1  0
 11 12  2  0
 12 13  1  0
 13 14  2  0
 14 10  1  0
  2 10  1  0
 15 16  2  0
 16 17  1  0
 17 18  2  0
 18 19  1  0
 19 20  2  0
 20 15  1  0
 14 15  1  0
 11 21  1  0
 22 23  1  0
 22 24  2  0
  8 22  1  0
  9 25  1  0
 19 26  1  0
M  END