
  SciTegic05281310212D

 32 32  0  0  0  0            999 V2000
    5.0542   -1.7167    0.0000 C   0  0  2  0  0  0
    6.0042   -1.5042    0.0000 C   0  0  2  0  0  0
    6.6042   -1.8125    0.0000 C   0  0  1  0  0  0
    4.7417   -0.9542    0.0000 C   0  0  1  0  0  0
    7.9667   -2.2417    0.0000 S   0  0
    5.8542   -3.0917    0.0000 S   0  0
    6.7125   -0.2667    0.0000 S   0  0
    3.8792   -2.3625    0.0000 S   0  0
    4.1542    0.5583    0.0000 S   0  0
    7.1542   -2.4167    0.0000 O   0  0
    6.2917   -1.0375    0.0000 O   0  0
    5.3875   -1.2542    0.0000 C   0  0  1  0  0  0
    5.2667   -2.5125    0.0000 O   0  0
    6.0042   -0.6792    0.0000 O   0  0
    4.3250   -1.6667    0.0000 O   0  0
    5.1667   -0.4542    0.0000 C   0  0
    4.3667   -0.2417    0.0000 O   0  0
    8.7625   -2.0250    0.0000 O   0  0
    7.4917    0.0000    0.0000 O   0  0
    3.4375   -3.0542    0.0000 O   0  0
    6.4375   -3.6792    0.0000 O   0  0
    3.8750    1.3333    0.0000 O   0  0
    7.7500   -1.4417    0.0000 O   0  0
    8.3750   -2.9542    0.0000 O   0  0
    4.4375   -2.9667    0.0000 O   0  0
    6.6500   -2.8792    0.0000 O   0  0
    5.0542   -3.3042    0.0000 O   0  0
    3.3167   -1.7542    0.0000 O   0  0
    6.2542    0.4250    0.0000 O   0  0
    7.1667   -0.9500    0.0000 O   0  0
    3.3667    0.2708    0.0000 O   0  0
    4.9375    0.8250    0.0000 O   0  0
  2  1  1  0
  3  2  1  0
  4  1  1  0
  5 10  1  0
  6 13  1  0
  7 14  1  0
  8 15  1  0
  9 17  1  0
  3 10  1  6
 12  4  1  0
  1 13  1  1
  4 15  1  6
 12 16  1  1
 17 16  1  0
 18  5  1  0
 19  7  1  0
 20  8  1  0
 21  6  1  0
 22  9  1  0
 23  5  2  0
 24  5  2  0
 25  8  2  0
 26  6  2  0
 27  6  2  0
 28  8  2  0
 29  7  2  0
 30  7  2  0
 31  9  2  0
 32  9  2  0
  3 11  1  0
 11 12  1  0
  2 14  1  1
M  END