
  SciTegic12231509382D

 20 22  0  0  0  0            999 V2000
    1.1906    6.2435    0.0000 C   0  0
    6.0003    4.6254    0.0000 C   0  0
    6.0003    3.6254    0.0000 C   0  0
    5.1343    5.1254    0.0000 C   0  0
    5.1343    3.1254    0.0000 C   0  0
    2.9373    1.5292    0.0000 C   0  0
    2.1942    0.8601    0.0000 C   0  0
    3.6805    5.4344    0.0000 C   0  0
    1.1906    3.6254    0.0000 C   0  0
    2.7294    5.7435    0.0000 C   0  0
    1.1906    4.6254    0.0000 C   0  0
    3.6805    2.8164    0.0000 C   0  0
    1.0352    2.1473    0.0000 C   0  0
    4.2683    4.6254    0.0000 C   0  0
    4.2683    3.6254    0.0000 C   0  0
    2.7294    2.5074    0.0000 C   0  0
    1.7784    2.8164    0.0000 C   0  0
    1.2431    1.1691    0.0000 C   0  0
    1.7784    5.4344    0.0000 N   0  0
    0.5000    0.5000    0.0000 O   0  0
  1 19  1  0
  2  3  2  0
  2  4  1  0
  3  5  1  0
  4 14  2  0
  5 15  2  0
  6  7  1  0
  6 16  2  0
  7 18  2  0
  8 10  1  0
  8 14  1  0
  9 11  1  0
  9 17  1  0
 10 19  1  0
 11 19  1  0
 12 15  1  0
 12 16  1  0
 13 17  2  0
 13 18  1  0
 14 15  1  0
 16 17  1  0
 18 20  1  0
M  END