
          11280715372D 1   1.00000     0.00000     0

 13 15  0     0  0            999 V2000
    0.9417   -3.4750    0.0000 C   0  0  0  0  0  0           0  0  0
    0.9417   -2.8667    0.0000 C   0  0  0  0  0  0           0  0  0
   -0.0958   -3.4750    0.0000 C   0  0  0  0  0  0           0  0  0
   -0.1000   -2.8667    0.0000 C   0  0  0  0  0  0           0  0  0
    0.4167   -3.7750    0.0000 C   0  0  0  0  0  0           0  0  0
    0.4167   -2.5667    0.0000 C   0  0  0  0  0  0           0  0  0
   -0.6750   -2.6875    0.0000 O   0  0  0  0  0  0           0  0  0
   -0.6708   -3.6625    0.0000 O   0  0  0  0  0  0           0  0  0
    1.4542   -2.5667    0.0000 C   0  0  0  0  0  0           0  0  0
    1.9792   -3.4625    0.0000 C   0  0  0  0  0  0           0  0  0
   -1.0250   -3.1750    0.0000 C   0  0  0  0  0  0           0  0  0
    1.9792   -2.8625    0.0000 C   0  0  3  0  0  0           0  0  0
    2.4917   -2.5625    0.0000 N   0  0  0  0  0  0           0  0  0
  2  1  1  0     0  0
  3  5  1  0     0  0
  4  3  2  0     0  0
  5  1  2  0     0  0
  6  2  2  0     0  0
  7  4  1  0     0  0
  8  3  1  0     0  0
  9  2  1  0     0  0
 10  1  1  0     0  0
 11  8  1  0     0  0
 12 10  1  0     0  0
 12 13  1  0     0  0
  9 12  1  0     0  0
  6  4  1  0     0  0
  7 11  1  0     0  0
M  END