
  SciTegic06051313522D

 21 22  0  0  0  0            999 V2000
   10.4611   -3.0995    0.0000 C   0  0
   10.4600   -3.9190    0.0000 C   0  0
   11.1680   -4.3280    0.0000 C   0  0
   11.8777   -3.9186    0.0000 C   0  0
   11.8748   -3.0959    0.0000 C   0  0
   11.1662   -2.6906    0.0000 C   0  0
    9.7533   -2.6911    0.0000 O   0  0
    9.7531   -1.8739    0.0000 C   0  0
    9.0453   -1.4655    0.0000 C   0  0
    9.0439   -0.6487    0.0000 O   0  0
    8.3365   -1.8747    0.0000 O   0  0
   11.1678   -5.1452    0.0000 F   0  0
   12.5780   -2.6859    0.0000 C   0  0
   13.2875   -3.0936    0.0000 N   0  0
   13.9932   -2.6830    0.0000 C   0  0
   13.9906   -1.8649    0.0000 C   0  0
   13.2763   -1.4592    0.0000 C   0  0
   12.5736   -1.8721    0.0000 C   0  0
   14.6994   -1.4509    0.0000 C   0  0
   15.4091   -1.8559    0.0000 O   0  0
   14.6952   -0.6337    0.0000 O   0  0
  1  2  2  0
  2  3  1  0
  3  4  2  0
  4  5  1  0
  5  6  2  0
  6  1  1  0
  1  7  1  0
  7  8  1  0
  8  9  1  0
  9 10  1  0
  9 11  2  0
  3 12  1  0
 13 14  2  0
 14 15  1  0
 15 16  2  0
 16 17  1  0
 17 18  2  0
 18 13  1  0
  5 13  1  0
 19 20  1  0
 19 21  2  0
 16 19  1  0
M  END