
          11280715262D 1   1.00000     0.00000     0

 24 28  0     0  0            999 V2000
   -0.1125   -2.1667    0.0000 C   0  0  3  0  0  0           0  0  0
    5.4375   -1.7292    0.0000 N   0  0  0  0  0  0           0  0  0
    4.1667   -1.3292    0.0000 C   0  0  0  0  0  0           0  0  0
    4.9500   -1.0667    0.0000 N   0  0  0  0  0  0           0  0  0
    4.1667   -2.1542    0.0000 C   0  0  0  0  0  0           0  0  0
    3.4542   -0.9167    0.0000 C   0  0  0  0  0  0           0  0  0
    1.3125   -1.3292    0.0000 C   0  0  0  0  0  0           0  0  0
    2.0250   -0.9167    0.0000 N   0  0  0  0  0  0           0  0  0
    0.6042   -3.4042    0.0000 C   0  0  3  0  0  0           0  0  0
   -0.5708   -3.8417    0.0000 C   0  0  3  0  0  0           0  0  0
   -0.8625   -3.4667    0.0000 C   0  0  3  0  0  0           0  0  0
    2.7375   -1.3292    0.0000 C   0  0  0  0  0  0           0  0  0
    4.9500   -2.4042    0.0000 C   0  0  0  0  0  0           0  0  0
   -0.5708   -2.8000    0.0000 C   0  0  0  0  0  0           0  0  0
   -0.8708   -2.5667    0.0000 C   0  0  0  0  0  0           0  0  0
    0.6042   -2.5875    0.0000 C   0  0  0  0  0  0           0  0  0
    1.3167   -2.1542    0.0000 O   0  0  0  0  0  0           0  0  0
    3.4542   -2.5667    0.0000 C   0  0  0  0  0  0           0  0  0
    0.2500   -4.1167    0.0000 C   0  0  0  0  0  0           0  0  0
   -1.2125   -4.1167    0.0000 C   0  0  0  0  0  0           0  0  0
   -0.0875   -3.7667    0.0000 C   0  0  0  0  0  0           0  0  0
   -0.1125   -1.3417    0.0000 C   0  0  0  0  0  0           0  0  0
    0.5917   -0.9250    0.0000 C   0  0  0  0  0  0           0  0  0
    2.7375   -2.1542    0.0000 C   0  0  0  0  0  0           0  0  0
  2  4  1  0     0  0
  3  6  1  0     0  0
  4  3  2  0     0  0
  5 18  1  0     0  0
  6 12  2  0     0  0
  7 23  1  0     0  0
  8  7  1  0     0  0
  9 16  1  0     0  0
 10 14  1  0     0  0
 11 15  1  0     0  0
 12  8  1  0     0  0
 13  5  2  0     0  0
 14  1  1  0     0  0
 15  1  1  0     0  0
 16  1  1  0     0  0
 17  7  2  0     0  0
 18 24  2  0     0  0
 19  9  1  0     0  0
 20 11  1  0     0  0
 21  9  1  0     0  0
 22  1  1  0     0  0
 23 22  1  0     0  0
 24 12  1  0     0  0
 21 11  1  0     0  0
 19 10  1  0     0  0
 20 10  1  0     0  0
  3  5  1  0     0  0
  2 13  1  0     0  0
M  END