
  SciTegic06051313552D

 55 61  0  0  0  0            999 V2000
    5.2044  -22.2416    0.0000 O   0  0
    4.8000  -21.5359    0.0000 S   0  0
    4.3910  -22.2390    0.0000 O   0  0
    2.3360  -32.2997    0.0000 O   0  0
    3.0459  -32.7083    0.0000 S   0  0
    3.0448  -31.8892    0.0000 O   0  0
    3.3837  -27.2541    0.0000 N   0  0
    2.7264  -27.7330    0.0000 N   0  0
    2.9778  -28.5106    0.0000 N   0  0
    3.7950  -28.5118    0.0000 C   0  0
    4.0486  -27.7350    0.0000 C   0  0
    4.2745  -29.1736    0.0000 C   0  0
    5.0889  -29.1713    0.0000 N   0  0
    5.4969  -29.8772    0.0000 C   0  0
    6.3077  -29.8768    0.0000 N   0  0
    5.4917  -28.4650    0.0000 C   0  0
    6.3087  -28.4662    0.0000 C   0  0
    6.7146  -29.1722    0.0000 C   0  0
    7.5244  -29.1737    0.0000 C   0  0
    7.9346  -28.4709    0.0000 C   0  0
    7.5287  -27.7649    0.0000 C   0  0
    6.7127  -27.7617    0.0000 C   0  0
    5.0818  -27.7580    0.0000 O   0  0
    5.0886  -30.5851    0.0000 C   0  0
    4.2726  -30.5830    0.0000 C   0  0
    3.8644  -31.2900    0.0000 C   0  0
    4.2734  -31.9985    0.0000 C   0  0
    5.0948  -31.9955    0.0000 C   0  0
    5.4993  -31.2879    0.0000 C   0  0
    0.5567  -23.9751    0.0000 C   0  0
    1.2620  -23.5706    0.0000 N   0  0
    1.2620  -22.7534    0.0000 C   0  0
    0.5567  -22.3407    0.0000 N   0  0
   -0.1486  -23.5706    0.0000 C   0  0
   -0.1486  -22.7534    0.0000 C   0  0
   -0.8563  -22.3471    0.0000 C   0  0
   -1.5677  -22.7534    0.0000 C   0  0
   -1.5677  -23.5706    0.0000 C   0  0
   -0.8563  -23.9815    0.0000 C   0  0
    1.9709  -22.3469    0.0000 C   0  0
    0.5567  -24.7923    0.0000 O   0  0
    1.9691  -23.9802    0.0000 C   0  0
    1.9679  -24.7974    0.0000 C   0  0
    2.6740  -22.7613    0.0000 C   0  0
    3.3825  -22.3555    0.0000 C   0  0
    3.3853  -21.5374    0.0000 C   0  0
    2.6738  -21.1269    0.0000 C   0  0
    1.9683  -21.5351    0.0000 C   0  0
    2.6750  -25.2070    0.0000 C   0  0
    2.6738  -26.0242    0.0000 C   0  0
    3.3810  -26.4338    0.0000 C   0  0
    3.8661  -32.7070    0.0000 O   0  0
    2.6415  -33.4169    0.0000 O   0  0
    4.0937  -21.1300    0.0000 O   0  0
    5.5091  -21.1322    0.0000 O   0  0
  2  1  2  0
  3  2  2  0
  5  4  2  0
  6  5  2  0
  7  8  1  0
  8  9  2  0
  9 10  1  0
 10 11  2  0
 11  7  1  0
 10 12  1  0
 12 13  1  0
 13 14  1  0
 13 16  1  0
 14 15  2  0
 15 18  1  0
 17 16  1  0
 17 18  2  0
 17 22  1  0
 18 19  1  0
 19 20  2  0
 20 21  1  0
 21 22  2  0
 16 23  2  0
 14 24  1  0
 24 25  2  0
 25 26  1  0
 26 27  2  0
 27 28  1  0
 28 29  2  0
 29 24  1  0
 35 33  1  0
 34 30  1  0
 30 31  1  0
 31 32  1  0
 32 33  2  0
 34 35  1  0
 34 39  2  0
 35 36  2  0
 36 37  1  0
 37 38  2  0
 38 39  1  0
 32 40  1  0
 30 41  2  0
 31 42  1  0
 42 43  1  0
 40 44  2  0
 44 45  1  0
 45 46  2  0
 46 47  1  0
 47 48  2  0
 48 40  1  0
 43 49  1  0
 49 50  1  0
 50 51  1  0
 51  7  1  0
 27 52  1  0
 52  5  1  0
  5 53  1  0
 46 54  1  0
 54  2  1  0
  2 55  1  0
M  END