
          03140815512D 1   1.00000     0.00000     0

 28 30  0     0  0            999 V2000
    0.1819   -0.5583    0.0000 C   0  0  0  0  0  0           0  0  0
    0.1807   -1.3857    0.0000 C   0  0  0  0  0  0           0  0  0
    0.8956   -1.7985    0.0000 C   0  0  0  0  0  0           0  0  0
    1.6120   -1.3852    0.0000 C   0  0  0  0  0  0           0  0  0
    1.6091   -0.5547    0.0000 C   0  0  0  0  0  0           0  0  0
    0.8938   -0.1455    0.0000 C   0  0  0  0  0  0           0  0  0
    2.3221   -0.1395    0.0000 O   0  0  0  0  0  0           0  0  0
    2.3189    0.6855    0.0000 C   0  0  0  0  0  0           0  0  0
    3.0336    1.0959    0.0000 C   0  0  0  0  0  0           0  0  0
    3.0309    1.9201    0.0000 C   0  0  0  0  0  0           0  0  0
    2.3143    2.3307    0.0000 C   0  0  0  0  0  0           0  0  0
    1.5990    1.9111    0.0000 C   0  0  0  0  0  0           0  0  0
    1.6053    1.0883    0.0000 C   0  0  0  0  0  0           0  0  0
    2.3271   -1.7966    0.0000 C   0  0  0  0  0  0           0  0  0
    2.3284   -2.6216    0.0000 N   0  0  0  0  0  0           0  0  0
    3.0435   -3.0329    0.0000 C   0  0  0  0  0  0           0  0  0
   -0.5341   -1.7976    0.0000 C   0  0  0  0  0  0           0  0  0
   -1.2542   -2.2042    0.0000 C   0  0  0  0  0  0           0  0  0
   -1.9708   -2.6125    0.0000 C   0  0  0  0  0  0           0  0  0
   -2.6829   -2.1959    0.0000 C   0  0  0  0  0  0           0  0  0
   -3.3998   -2.6043    0.0000 N   0  0  3  0  0  0           0  0  0
   -4.1137   -2.1894    0.0000 C   0  0  0  0  0  0           0  0  0
   -4.8283   -2.5943    0.0000 C   0  0  0  0  0  0           0  0  0
   -4.8373   -3.4196    0.0000 C   0  0  0  0  0  0           0  0  0
   -4.1254   -3.8384    0.0000 C   0  0  0  0  0  0           0  0  0
   -3.4045   -3.4318    0.0000 C   0  0  0  0  0  0           0  0  0
    2.3101    3.1557    0.0000 S   0  0  0  0  0  0           0  0  0
    3.0225    3.5719    0.0000 C   0  0  0  0  0  0           0  0  0
  1  2  2  0     0  0
  4 14  1  0     0  0
  5  7  1  0     0  0
 14 15  1  0     0  0
  3  4  2  0     0  0
 15 16  1  0     0  0
  7  8  1  0     0  0
  2 17  1  0     0  0
 17 18  3  0     0  0
  8  9  2  0     0  0
 18 19  1  0     0  0
  4  5  1  0     0  0
 19 20  1  0     0  0
  9 10  1  0     0  0
 20 21  1  0     0  0
 21 22  1  0     0  0
  2  3  1  0     0  0
 10 11  2  0     0  0
  5  6  2  0     0  0
 11 12  1  0     0  0
  6  1  1  0     0  0
 21 26  1  0     0  0
 22 23  1  0     0  0
 23 24  1  0     0  0
 24 25  1  0     0  0
 25 26  1  0     0  0
 12 13  2  0     0  0
 11 27  1  0     0  0
 13  8  1  0     0  0
 27 28  1  0     0  0
M  END