
  SciTegic10191216002D

 30 33  0  0  0  0            999 V2000
    6.3509  -24.4931    0.0000 C   0  0
    6.3496  -25.3207    0.0000 C   0  0
    7.0626  -25.7336    0.0000 C   0  0
    7.0606  -24.0803    0.0000 C   0  0
    7.7787  -24.4891    0.0000 C   0  0
    7.7778  -25.3227    0.0000 C   0  0
    8.4953  -25.7380    0.0000 C   0  0
    9.2184  -25.3243    0.0000 N   0  0
    9.2192  -24.4906    0.0000 C   0  0
    8.4971  -24.0708    0.0000 C   0  0
    8.4969  -23.2458    0.0000 C   0  0
    9.2103  -22.8362    0.0000 C   0  0
    9.2104  -22.0120    0.0000 C   0  0
    8.4952  -21.5990    0.0000 C   0  0
    7.7786  -22.0161    0.0000 C   0  0
    7.7820  -22.8390    0.0000 C   0  0
    9.9318  -25.7386    0.0000 C   0  0
    5.6346  -25.7322    0.0000 O   0  0
    4.9207  -25.3186    0.0000 C   0  0
    4.9219  -24.4936    0.0000 C   0  0
    4.2080  -24.0801    0.0000 C   0  0
    4.2092  -23.2551    0.0000 N   0  0
    4.9274  -22.8461    0.0000 C   0  0
    4.9305  -22.0247    0.0000 C   0  0
    4.2185  -21.6073    0.0000 C   0  0
    3.5016  -22.0175    0.0000 C   0  0
    3.4968  -22.8452    0.0000 C   0  0
    4.2228  -20.7823    0.0000 F   0  0
    9.9250  -21.5997    0.0000 Cl  0  0
    8.4939  -20.7740    0.0000 Cl  0  0
  1  2  2  0
 14 15  1  0
  5  4  2  0
 15 16  2  0
 16 11  1  0
  4  1  1  0
  8 17  1  0
  5 10  1  0
  2 18  1  0
  6  7  1  0
 18 19  1  0
  7  8  1  0
 19 20  1  0
  8  9  1  0
 20 21  1  0
  9 10  1  0
 21 22  1  0
 22 23  1  0
  5  6  1  0
 10 11  1  0
 11 12  2  0
  2  3  1  0
 22 27  1  0
 23 24  1  0
 24 25  1  0
 25 26  1  0
 26 27  1  0
 12 13  1  0
 25 28  1  0
  3  6  2  0
 13 29  1  0
 13 14  2  0
 14 30  1  0
M  END