
          11280715522D 1   1.00000     0.00000     0

 29 32  0     0  0            999 V2000
    7.3111   -0.5083    0.0000 C   0  0  0  0  0  0           0  0  0
    7.3099   -1.3357    0.0000 C   0  0  0  0  0  0           0  0  0
    8.0247   -1.7485    0.0000 C   0  0  0  0  0  0           0  0  0
    8.0229   -0.0955    0.0000 C   0  0  0  0  0  0           0  0  0
    8.7383   -0.5047    0.0000 C   0  0  0  0  0  0           0  0  0
    8.7391   -1.3315    0.0000 C   0  0  0  0  0  0           0  0  0
    9.4544   -1.7425    0.0000 N   0  0  0  0  0  0           0  0  0
   10.1694   -1.3277    0.0000 C   0  0  0  0  0  0           0  0  0
   10.1646   -0.4977    0.0000 C   0  0  0  0  0  0           0  0  0
    9.4487   -0.0905    0.0000 N   0  0  0  0  0  0           0  0  0
   10.8855   -1.7374    0.0000 O   0  0  0  0  0  0           0  0  0
   10.8766   -0.0809    0.0000 C   0  0  0  0  0  0           0  0  0
   11.5935   -0.4890    0.0000 N   0  0  0  0  0  0           0  0  0
   10.8716    0.7441    0.0000 O   0  0  0  0  0  0           0  0  0
   12.3055   -0.0722    0.0000 C   0  0  0  0  0  0           0  0  0
   13.0202   -0.4838    0.0000 C   0  0  0  0  0  0           0  0  0
   13.7317   -0.0676    0.0000 C   0  0  0  0  0  0           0  0  0
   13.7271    0.7583    0.0000 C   0  0  0  0  0  0           0  0  0
   13.0051    1.1662    0.0000 C   0  0  0  0  0  0           0  0  0
   12.2966    0.7477    0.0000 C   0  0  0  0  0  0           0  0  0
   14.4385    1.1760    0.0000 O   0  0  0  0  0  0           0  0  0
   10.8887   -2.5624    0.0000 C   0  0  0  0  0  0           0  0  0
   12.9972    1.9912    0.0000 C   0  0  0  0  0  0           0  0  0
   13.7076    2.4105    0.0000 N   0  0  3  0  0  0           0  0  0
   14.4261    1.9982    0.0000 C   0  0  0  0  0  0           0  0  0
   15.1345    2.4141    0.0000 C   0  0  0  0  0  0           0  0  0
   15.1308    3.2394    0.0000 C   0  0  0  0  0  0           0  0  0
   14.4125    3.6472    0.0000 C   0  0  0  0  0  0           0  0  0
   13.6979    3.2297    0.0000 C   0  0  0  0  0  0           0  0  0
 12 14  2  0     0  0
  6  7  2  0     0  0
 13 15  1  0     0  0
  1  2  1  0     0  0
 15 16  2  0     0  0
  7  8  1  0     0  0
 16 17  1  0     0  0
  5  4  1  0     0  0
 17 18  2  0     0  0
  8  9  2  0     0  0
 18 19  1  0     0  0
  4  1  2  0     0  0
 19 20  2  0     0  0
 20 15  1  0     0  0
  9 10  1  0     0  0
 18 21  1  0     0  0
 10  5  2  0     0  0
 11 22  1  0     0  0
 19 23  1  0     0  0
  8 11  1  0     0  0
 23 24  1  0     0  0
 24 25  1  0     0  0
  2  3  2  0     0  0
  9 12  1  0     0  0
  5  6  1  0     0  0
 12 13  1  0     0  0
  3  6  1  0     0  0
 24 29  1  0     0  0
 25 26  1  0     0  0
 26 27  1  0     0  0
 27 28  1  0     0  0
 28 29  1  0     0  0
M  END