
          11280715072D 1   1.00000     0.00000     0

 26 28  0     1  0            999 V2000
    0.2917   -3.9417    0.0000 C   0  0  0  0  0  0           0  0  0
   -0.2250   -3.6417    0.0000 C   0  0  0  0  0  0           0  0  0
    0.2917   -2.7292    0.0000 S   0  0  0  0  0  0           0  0  0
    0.8250   -3.6417    0.0000 C   0  0  1  0  0  0           0  0  0
    3.9417   -3.6500    0.0000 C   0  0  0  0  0  0           0  0  0
   -0.2250   -3.0375    0.0000 C   0  0  0  0  0  0           0  0  0
    0.8250   -3.0375    0.0000 C   0  0  0  0  0  0           0  0  0
    0.2917   -4.5417    0.0000 O   0  0  0  0  0  0           0  0  0
    3.9417   -3.0542    0.0000 C   0  0  0  0  0  0           0  0  0
    4.4542   -3.9500    0.0000 C   0  0  0  0  0  0           0  0  0
    3.4167   -3.9417    0.0000 O   0  0  0  0  0  0           0  0  0
    1.8625   -3.6417    0.0000 N   0  0  0  0  0  0           0  0  0
    1.3417   -3.9417    0.0000 C   0  0  0  0  0  0           0  0  0
   -0.7458   -3.9417    0.0000 C   0  0  0  0  0  0           0  0  0
    4.4542   -4.5500    0.0000 O   0  0  0  0  0  0           0  0  0
    3.4167   -2.7542    0.0000 O   0  0  0  0  0  0           0  0  0
    4.9792   -3.0542    0.0000 C   0  0  0  0  0  0           0  0  0
    4.9792   -3.6542    0.0000 C   0  0  0  0  0  0           0  0  0
    4.4542   -2.7500    0.0000 C   0  0  0  0  0  0           0  0  0
   -0.7458   -2.7375    0.0000 C   0  0  0  0  0  0           0  0  0
    2.3792   -3.9417    0.0000 C   0  0  0  0  0  0           0  0  0
    2.9000   -3.6417    0.0000 C   0  0  0  0  0  0           0  0  0
    4.9750   -4.8500    0.0000 C   0  0  0  0  0  0           0  0  0
    2.9000   -3.0542    0.0000 C   0  0  0  0  0  0           0  0  0
   -1.2625   -3.6417    0.0000 C   0  0  0  0  0  0           0  0  0
   -1.2625   -3.0417    0.0000 C   0  0  0  0  0  0           0  0  0
  2  1  1  0     0  0
  3  7  1  0     0  0
  4  1  1  0     0  0
  5 11  1  0     0  0
  6  2  2  0     0  0
  7  4  1  0     0  0
  8  1  2  0     0  0
  9  5  1  0     0  0
 10  5  2  0     0  0
 11 22  1  0     0  0
 12 13  1  0     0  0
  4 13  1  1     0  0
 14  2  1  0     0  0
 15 10  1  0     0  0
 16  9  1  0     0  0
 17 18  2  0     0  0
 18 10  1  0     0  0
 19  9  2  0     0  0
 20  6  1  0     0  0
 21 12  1  0     0  0
 22 21  1  0     0  0
 23 15  1  0     0  0
 24 16  1  0     0  0
 25 14  2  0     0  0
 26 25  1  0     0  0
  3  6  1  0     0  0
 26 20  2  0     0  0
 17 19  1  0     0  0
M  END