
  SciTegic12231509382D

 42 46  0  0  0  0            999 V2000
    0.2852    0.4581    0.0000 C   0  0
   -0.4581   -0.8294    0.0000 C   0  0  1  0  0  0
   -1.2465   -0.5862    0.0000 C   0  0  1  0  0  0
   -1.5479    0.1818    0.0000 C   0  0  2  0  0  0
   -1.1354    0.8963    0.0000 C   0  0  1  0  0  0
    0.9380   -0.7771    0.0000 C   0  0
    0.9380   -1.6021    0.0000 C   0  0
    1.6525   -2.0146    0.0000 C   0  0
    1.6525   -2.8396    0.0000 C   0  0
    0.9380   -3.2521    0.0000 C   0  0
    0.2235   -2.8396    0.0000 C   0  0
    0.2235   -2.0146    0.0000 C   0  0
    0.9380   -4.0771    0.0000 C   0  0
   -0.3352   -1.6451    0.0000 C   0  0
   -0.9802   -2.1595    0.0000 C   0  0
   -0.8572   -2.9753    0.0000 C   0  0
   -1.5022   -3.4897    0.0000 C   0  0
   -2.2702   -3.1883    0.0000 C   0  0
   -2.3932   -2.3725    0.0000 C   0  0
   -1.7481   -1.8581    0.0000 C   0  0
   -1.6001    1.5779    0.0000 C   0  0
   -1.2422    2.3212    0.0000 C   0  0
   -1.7069    3.0029    0.0000 C   0  0
   -1.3489    3.7462    0.0000 C   0  0
   -0.5263    3.8078    0.0000 C   0  0
   -0.0615    3.1262    0.0000 C   0  0
   -0.4195    2.3829    0.0000 C   0  0
   -0.0764    1.8076    0.0000 C   0  0
    0.7279    1.9911    0.0000 C   0  0
    0.9711    2.7795    0.0000 C   0  0
    1.7754    2.9631    0.0000 C   0  0
    2.3365    2.3583    0.0000 C   0  0
    2.0934    1.5700    0.0000 C   0  0
    1.2890    1.3864    0.0000 C   0  0
    3.1408    2.5419    0.0000 C   0  0
    0.2235   -0.3646    0.0000 N   0  0
   -0.3196    1.0192    0.0000 N   0  0
    1.0532    0.7595    0.0000 O   0  0
   -1.8076   -1.1910    0.0000 O   0  0
   -2.3706    0.2434    0.0000 O   0  0
    0.2235   -4.4896    0.0000 O   0  0
    3.3840    3.3302    0.0000 O   0  0
  1 36  1  0
  1 37  1  0
  1 38  2  0
  2  3  1  0
  2 14  1  6
  2 36  1  0
  3  4  1  0
  3 39  1  6
  4  5  1  0
  4 40  1  1
  5 21  1  1
  5 37  1  0
  6  7  1  0
  6 36  1  0
  7  8  2  0
  7 12  1  0
  8  9  1  0
  9 10  2  0
 10 11  1  0
 10 13  1  0
 11 12  2  0
 13 41  1  0
 14 15  1  0
 15 16  2  0
 15 20  1  0
 16 17  1  0
 17 18  2  0
 18 19  1  0
 19 20  2  0
 21 22  1  0
 22 23  2  0
 22 27  1  0
 23 24  1  0
 24 25  2  0
 25 26  1  0
 26 27  2  0
 28 29  1  0
 28 37  1  0
 29 30  2  0
 29 34  1  0
 30 31  1  0
 31 32  2  0
 32 33  1  0
 32 35  1  0
 33 34  2  0
 35 42  1  0
M  END