
  SciTegic12231509382D

 20 22  0  0  0  0            999 V2000
    9.0943   -1.8541    0.0000 C   0  0
    9.0932   -2.6814    0.0000 C   0  0
    9.8079   -3.0944    0.0000 C   0  0
    9.8061   -1.4413    0.0000 C   0  0
   10.5216   -1.8505    0.0000 C   0  0
   10.5218   -2.6815    0.0000 C   0  0
   11.3122   -2.9381    0.0000 N   0  0
   11.8006   -2.2656    0.0000 C   0  0
   11.3118   -1.5935    0.0000 N   0  0
    8.3783   -3.0934    0.0000 I   0  0
   12.6256   -2.2653    0.0000 C   0  0
   13.0377   -1.5507    0.0000 C   0  0
   13.8627   -1.5505    0.0000 C   0  0
   14.2730   -2.2669    0.0000 C   0  0
   15.0973   -2.2669    0.0000 C   0  0
   15.5103   -1.5519    0.0000 C   0  0
   15.0932   -0.8351    0.0000 C   0  0
   14.2703   -0.8386    0.0000 C   0  0
   16.3353   -1.5505    0.0000 N   0  0
   16.7466   -0.8353    0.0000 C   0  0
  1  2  2  0
  2  3  1  0
  3  6  2  0
  5  4  2  0
  4  1  1  0
  5  6  1  0
  6  7  1  0
  7  8  1  0
  8  9  2  0
  9  5  1  0
  2 10  1  0
  8 11  1  0
 11 12  2  0
 12 13  1  0
 13 14  2  0
 14 15  1  0
 15 16  2  0
 16 17  1  0
 17 18  2  0
 18 13  1  0
 16 19  1  0
 19 20  1  0
M  END