
  SciTegic01111613442D

 26 29  0  0  0  0            999 V2000
   -5.2209   -2.4390    0.0000 O   0  0
   -4.1792   -1.8432    0.0000 C   0  0
   -4.1792   -0.4015    0.0000 C   0  0
   -2.9382   -2.5732    0.0000 C   0  0
   -1.6790   -1.8250    0.0000 C   0  0
   -0.4197   -2.5550    0.0000 C   0  0
   -1.6790   -0.3832    0.0000 C   0  0  2  0  0  0
   -2.9565    0.3102    0.0000 C   0  0
   -0.4380    0.3285    0.0000 C   0  0  2  0  0  0
    0.8030   -0.3650    0.0000 C   0  0  1  0  0  0
    0.8212   -1.8067    0.0000 C   0  0
   -0.4562    1.7885    0.0000 C   0  0
    0.8030    2.5185    0.0000 C   0  0
    2.0440    1.7885    0.0000 C   0  0  2  0  0  0
    2.0440    0.3467    0.0000 C   0  0  1  0  0  0
    2.0413    2.9885    0.0000 C   0  0
    3.3032    2.5367    0.0000 C   0  0  1  0  0  0
    3.3371    1.3372    0.0000 O   0  0
    4.5625    1.8067    0.0000 C   0  0
    4.5625    0.3285    0.0000 C   0  0
    4.5984    3.2544    0.0000 C   0  0
    5.6339    3.8610    0.0000 C   0  0
   -1.3064    0.8243    0.0000 H   0  0
   -2.5391   -0.8933    0.0000 H   0  0
    1.6715   -0.8608    0.0000 H   0  0
    2.2979   -0.6205    0.0000 H   0  0
  2  1  2  0
  3  2  1  0
  4  2  1  0
  8  3  1  0
  5  4  2  0
  6  5  1  0
  7  5  1  0
  6 11  1  0
  7  8  1  0
  7  9  1  0
 10  9  1  0
  9 12  1  0
 10 11  1  0
 15 10  1  0
 12 13  1  0
 14 13  1  0
 15 14  1  0
 14 16  1  1
 14 17  1  0
 15 20  1  0
 17 18  1  0
 19 17  1  0
 17 21  1  1
 19 20  1  0
 21 22  3  0
  9 23  1  6
  7 24  1  1
 10 25  1  1
 15 26  1  6
M  END