
          11280715012D 1   1.00000     0.00000     0

 27 29  0     0  0            999 V2000
    9.2042   -5.7042    0.0000 N   0  0  0  0  0  0           0  0  0
    5.5292   -4.4542    0.0000 C   0  0  0  0  0  0           0  0  0
   10.4292   -5.1542    0.0000 N   0  0  0  0  0  0           0  0  0
   10.0167   -5.8750    0.0000 C   0  0  0  0  0  0           0  0  0
    9.1167   -4.8750    0.0000 C   0  0  0  0  0  0           0  0  0
    5.5292   -3.6292    0.0000 N   0  0  0  0  0  0           0  0  0
    1.9417   -5.6917    0.0000 N   0  0  0  0  0  0           0  0  0
    9.8792   -4.5375    0.0000 C   0  0  0  0  0  0           0  0  0
    2.6625   -4.4542    0.0000 C   0  0  3  0  0  0           0  0  0
    1.9417   -4.8750    0.0000 C   0  0  0  0  0  0           0  0  0
    4.8125   -4.8750    0.0000 N   0  0  0  0  0  0           0  0  0
    6.2500   -4.8750    0.0000 N   0  0  0  0  0  0           0  0  0
    2.6625   -3.6292    0.0000 C   0  0  0  0  0  0           0  0  0
    4.0917   -4.4542    0.0000 C   0  0  0  0  0  0           0  0  0
    3.3792   -4.8750    0.0000 C   0  0  0  0  0  0           0  0  0
    8.4000   -4.4542    0.0000 C   0  0  0  0  0  0           0  0  0
    1.2292   -6.1125    0.0000 C   0  0  0  0  0  0           0  0  0
    1.2250   -4.4542    0.0000 C   0  0  0  0  0  0           0  0  0
    6.9667   -4.4542    0.0000 C   0  0  0  0  0  0           0  0  0
    1.9417   -3.2167    0.0000 C   0  0  0  0  0  0           0  0  0
    3.3792   -3.2167    0.0000 C   0  0  0  0  0  0           0  0  0
    7.6875   -4.8750    0.0000 C   0  0  0  0  0  0           0  0  0
    0.5042   -5.7000    0.0000 C   0  0  0  0  0  0           0  0  0
    1.9417   -2.3917    0.0000 C   0  0  0  0  0  0           0  0  0
    0.5042   -4.8667    0.0000 C   0  0  0  0  0  0           0  0  0
    3.3792   -2.3917    0.0000 C   0  0  0  0  0  0           0  0  0
    2.6667   -1.9667    0.0000 C   0  0  0  0  0  0           0  0  0
  2 12  1  0     0  0
  3  4  1  0     0  0
  4  1  2  0     0  0
  5  1  1  0     0  0
  6  2  2  0     0  0
  7 10  1  0     0  0
  8  5  2  0     0  0
  9 15  1  0     0  0
 10  9  1  0     0  0
 11  2  1  0     0  0
 12 19  1  0     0  0
 13  9  1  0     0  0
 14 11  1  0     0  0
 15 14  1  0     0  0
 16  5  1  0     0  0
 17  7  2  0     0  0
 18 10  2  0     0  0
 19 22  1  0     0  0
 20 13  1  0     0  0
 21 13  2  0     0  0
 22 16  1  0     0  0
 23 25  2  0     0  0
 24 20  2  0     0  0
 25 18  1  0     0  0
 26 21  1  0     0  0
 27 26  2  0     0  0
  3  8  1  0     0  0
 27 24  1  0     0  0
 23 17  1  0     0  0
M  END