
  SciTegic06051315212D

 53 55  0  0  0  0            999 V2000
   10.8413  -14.3287    0.0000 C   0  0
   11.5559  -13.9162    0.0000 C   0  0
   10.8413  -15.1537    0.0000 C   0  0
   12.2703  -14.3287    0.0000 C   0  0
   11.5559  -13.0913    0.0000 C   0  0
   12.2703  -15.1537    0.0000 O   0  0
   12.9847  -13.9162    0.0000 O   0  0
   13.6294  -14.4304    0.0000 C   0  0  1  0  0  0
   13.5921  -15.2544    0.0000 C   0  0
   14.4217  -14.2093    0.0000 C   0  0  2  0  0  0
   12.9036  -15.7090    0.0000 C   0  0
   14.3702  -15.5461    0.0000 C   0  0
   14.8790  -14.8970    0.0000 C   0  0  1  0  0  0
   15.7096  -14.8873    0.0000 C   0  0  1  0  0  0
   16.2353  -15.5260    0.0000 C   0  0
   16.0580  -16.3337    0.0000 C   0  0  1  0  0  0
   15.2137  -17.5333    0.0000 C   0  0  2  0  0  0
   15.3157  -16.7051    0.0000 C   0  0  2  0  0  0
   14.5585  -16.3527    0.0000 C   0  0  1  0  0  0
   13.9904  -16.9653    0.0000 O   0  0
   14.3985  -17.6940    0.0000 C   0  0
   14.0524  -18.4430    0.0000 O   0  0
   15.2079  -18.3579    0.0000 C   0  0
   16.0079  -17.7454    0.0000 O   0  0
   16.1079  -16.9161    0.0000 O   0  0
   15.4912  -14.0871    0.0000 C   0  0
   16.4204  -14.4705    0.0000 O   0  0
   16.4148  -13.6455    0.0000 C   0  0
   17.1264  -13.2281    0.0000 O   0  0
   15.6975  -13.2378    0.0000 C   0  0
   16.8834  -16.3380    0.0000 O   0  0
   17.2998  -15.6258    0.0000 C   0  0
   18.1247  -15.6302    0.0000 C   0  0
   16.8911  -14.9091    0.0000 O   0  0
   18.5410  -14.9180    0.0000 C   0  0
   19.3660  -14.9224    0.0000 C   0  0
   14.6996  -13.4332    0.0000 O   0  0
   14.2836  -12.7209    0.0000 C   0  0
   14.6925  -12.0043    0.0000 O   0  0
   13.4586  -12.7250    0.0000 C   0  0
   15.0912  -15.6912    0.0000 H   0  0
   13.0426  -12.0126    0.0000 C   0  0
   12.2176  -12.0167    0.0000 C   0  0
   11.8016  -11.3043    0.0000 C   0  0
   10.9766  -11.3084    0.0000 C   0  0
   10.5606  -10.5961    0.0000 C   0  0
    9.7356  -10.6002    0.0000 C   0  0
   16.8472  -17.2814    0.0000 C   0  0
   16.8214  -18.1060    0.0000 O   0  0
   17.5703  -16.8835    0.0000 C   0  0
   18.2761  -17.3107    0.0000 C   0  0
   17.5874  -16.0587    0.0000 C   0  0
   13.7329  -16.3454    0.0000 H   0  0
  1  2  2  0
  1  3  1  0
  2  4  1  0
  2  5  1  0
  4  6  2  0
  4  7  1  0
  8  7  1  6
  9 12  2  0
  8  9  1  0
 13 10  1  0
 10  8  1  0
  9 11  1  0
 12 13  1  0
 13 14  1  0
 12 19  1  0
 14 15  1  0
 15 16  1  0
 18 16  1  0
 18 19  1  0
 17 18  1  0
 19 20  1  0
 20 21  1  0
 21 17  1  0
 21 22  2  0
 17 23  1  1
 17 24  1  0
 18 25  1  1
 14 26  1  0
 14 27  1  1
 27 28  1  0
 28 29  2  0
 28 30  1  0
 16 31  1  6
 31 32  1  0
 32 33  1  0
 32 34  2  0
 33 35  1  0
 35 36  1  0
 10 37  1  1
 37 38  1  0
 38 39  2  0
 38 40  1  0
 13 41  1  1
 40 42  1  0
 42 43  1  0
 43 44  1  0
 44 45  1  0
 45 46  1  0
 46 47  1  0
 25 48  1  0
 48 49  2  0
 48 50  1  0
 50 51  1  0
 50 52  1  0
 19 53  1  6
M  END