
  SciTegic09261414482D

 14 14  0  0  0  0            999 V2000
    2.2768   -4.7174    0.0000 C   0  0
    2.2757   -5.5369    0.0000 C   0  0
    2.9837   -5.9459    0.0000 C   0  0
    3.6934   -5.5364    0.0000 C   0  0
    3.6905   -4.7138    0.0000 C   0  0
    2.9819   -4.3085    0.0000 C   0  0
    4.4017   -5.9439    0.0000 C   0  0
    4.4030   -6.7611    0.0000 O   0  0
    5.1088   -5.5342    0.0000 C   0  0
    5.8171   -5.9417    0.0000 N   0  0
    6.5242   -5.5320    0.0000 C   0  0
    7.2326   -5.9395    0.0000 C   0  0
    6.5229   -4.7148    0.0000 C   0  0
    1.5676   -5.9450    0.0000 Br  0  0
  1  2  2  0
  2  3  1  0
  3  4  2  0
  4  5  1  0
  5  6  2  0
  6  1  1  0
  4  7  1  0
  7  8  1  0
  7  9  1  0
  9 10  1  0
 10 11  1  0
 11 12  1  0
 11 13  1  0
  2 14  1  0
M  END