
          11280714522D 1   1.00000     0.00000     0

 51 55  0     1  0            999 V2000
    0.6250    4.9042    0.0000 N   0  0  0  0  0  0           0  0  0
    1.3917    5.2167    0.0000 C   0  0  2  0  0  0           0  0  0
    1.1417    6.6750    0.0000 N   0  0  3  0  0  0           0  0  0
    1.6167    6.0042    0.0000 C   0  0  0  0  0  0           0  0  0
   -0.0958    5.3042    0.0000 C   0  0  0  0  0  0           0  0  0
    0.8292   -6.0667    0.0000 C   0  0  0  0  0  0           0  0  0
   -0.2333    6.1042    0.0000 C   0  0  0  0  0  0           0  0  0
    2.0042    4.6667    0.0000 N   0  0  0  0  0  0           0  0  0
    1.0792   -6.8542    0.0000 N   0  0  0  0  0  0           0  0  0
    0.3167    6.7167    0.0000 C   0  0  0  0  0  0           0  0  0
    1.3167   -5.3917    0.0000 N   0  0  0  0  0  0           0  0  0
    1.8542    3.8708    0.0000 C   0  0  0  0  0  0           0  0  0
    0.5167   -7.4625    0.0000 C   0  0  0  0  0  0           0  0  0
    0.0542   -5.8167    0.0000 S   0  0  0  0  0  0           0  0  0
    0.8292   -4.7292    0.0000 C   0  0  0  0  0  0           0  0  0
    0.0500   -4.9917    0.0000 C   0  0  0  0  0  0           0  0  0
    2.4750    3.3333    0.0000 N   0  0  0  0  0  0           0  0  0
   -0.5250   -0.6792    0.0000 C   0  0  0  0  0  0           0  0  0
   -0.0333    1.7375    0.0000 C   0  0  0  0  0  0           0  0  0
    2.4292    6.1375    0.0000 O   0  0  0  0  0  0           0  0  0
   -0.7208    4.7750    0.0000 C   0  0  0  0  0  0           0  0  0
    1.0667    3.6083    0.0000 O   0  0  0  0  0  0           0  0  0
   -0.3583    0.1250    0.0000 C   0  0  0  0  0  0           0  0  0
    2.3125    2.5208    0.0000 C   0  0  0  0  0  0           0  0  0
   -1.3083   -0.9417    0.0000 O   0  0  0  0  0  0           0  0  0
    0.1292    2.5458    0.0000 O   0  0  0  0  0  0           0  0  0
    1.3667    1.4583    0.0000 C   0  0  0  0  0  0           0  0  0
   -0.8083    1.4833    0.0000 N   0  0  0  0  0  0           0  0  0
    0.7667   -8.2500    0.0000 N   0  0  0  0  0  0           0  0  0
   -0.2875   -7.2792    0.0000 N   0  0  0  0  0  0           0  0  0
    0.5792    1.1958    0.0000 C   0  0  0  0  0  0           0  0  0
    0.0917   -1.2250    0.0000 N   0  0  0  0  0  0           0  0  0
    1.5292    2.2708    0.0000 C   0  0  0  0  0  0           0  0  0
    1.5500    7.3917    0.0000 C   0  0  0  0  0  0           0  0  0
   -0.9750    0.6708    0.0000 C   0  0  0  0  0  0           0  0  0
   -1.0333    6.2792    0.0000 C   0  0  0  0  0  0           0  0  0
    0.3792   -3.3792    0.0000 S   0  0  0  0  0  0           0  0  0
    0.9917   -3.9250    0.0000 C   0  0  0  0  0  0           0  0  0
    0.0667    7.5042    0.0000 C   0  0  0  0  0  0           0  0  0
    2.7667    1.1708    0.0000 C   0  0  0  0  0  0           0  0  0
    2.9292    1.9750    0.0000 C   0  0  0  0  0  0           0  0  0
    1.9875    0.9083    0.0000 C   0  0  0  0  0  0           0  0  0
   -0.5875    3.9708    0.0000 C   0  0  0  0  0  0           0  0  0
   -1.5000    5.0667    0.0000 C   0  0  0  0  0  0           0  0  0
   -0.0708   -2.0292    0.0000 C   0  0  0  0  0  0           0  0  0
    0.5417   -2.5750    0.0000 C   0  0  0  0  0  0           0  0  0
   -1.2958    7.0542    0.0000 C   0  0  0  0  0  0           0  0  0
   -0.7375    7.6792    0.0000 C   0  0  0  0  0  0           0  0  0
   -2.1375    4.5292    0.0000 C   0  0  0  0  0  0           0  0  0
   -1.2250    3.4458    0.0000 C   0  0  0  0  0  0           0  0  0
   -2.0000    3.7333    0.0000 C   0  0  0  0  0  0           0  0  0
  2  1  1  0     0  0
  3  4  1  0     0  0
  4  2  1  0     0  0
  5  1  2  0     0  0
  6 11  2  0     0  0
  7  5  1  0     0  0
  2  8  1  6     0  0
  9  6  1  0     0  0
 10  7  1  0     0  0
 11 15  1  0     0  0
 12  8  1  0     0  0
 13  9  2  0     0  0
 14 16  1  0     0  0
 15 38  1  0     0  0
 16 15  2  0     0  0
 17 12  1  0     0  0
 18 23  1  0     0  0
 19 31  1  0     0  0
 20  4  2  0     0  0
 21  5  1  0     0  0
 22 12  2  0     0  0
 23 35  1  0     0  0
 24 17  1  0     0  0
 25 18  2  0     0  0
 26 19  2  0     0  0
 27 33  1  0     0  0
 28 19  1  0     0  0
 29 13  1  0     0  0
 30 13  1  0     0  0
 31 27  1  0     0  0
 32 18  1  0     0  0
 33 24  2  0     0  0
 34  3  1  0     0  0
 35 28  1  0     0  0
 36  7  2  0     0  0
 37 46  1  0     0  0
 38 37  1  0     0  0
 39 10  2  0     0  0
 40 41  2  0     0  0
 41 24  1  0     0  0
 42 40  1  0     0  0
 43 21  1  0     0  0
 44 21  2  0     0  0
 45 32  1  0     0  0
 46 45  1  0     0  0
 47 36  1  0     0  0
 48 47  2  0     0  0
 49 44  1  0     0  0
 50 43  2  0     0  0
 51 49  2  0     0  0
 10  3  1  0     0  0
 50 51  1  0     0  0
 39 48  1  0     0  0
 27 42  2  0     0  0
 14  6  1  0     0  0
M  END