
  SciTegic04201611242D

 46 49  0  0  0  0            999 V2000
    2.6000    0.0000    0.0000 N   0  3
    1.3000    0.7500    0.0000 C   0  0
    3.9000    0.7500    0.0000 C   0  0
    2.6031   -1.5008    0.0000 C   0  0
    0.2606    0.1503    0.0000 C   0  0
    4.9394    0.1503    0.0000 C   0  0
    3.6432   -2.0994    0.0000 C   0  0
   12.1903    0.9309    0.0000 C   0  0  2  0  0  0
   13.6267    1.3465    0.0000 O   0  0
   13.9852    2.8030    0.0000 C   0  0  1  0  0  0
   12.9031    3.8418    0.0000 C   0  0
   11.4624    3.4240    0.0000 N   0  0
   11.1039    1.9675    0.0000 C   0  0
   26.0416   -4.2025    0.0000 C   0  0
   25.3303   -2.8687    0.0000 N   0  0
   27.5067   -3.9602    0.0000 N   0  0
   26.3948   -1.7895    0.0000 C   0  0  1  0  0  0
   27.7180   -2.4634    0.0000 C   0  0  2  0  0  0
   28.0880   -0.0733    0.0000 S   0  0
   26.6029   -0.3261    0.0000 C   0  0  1  0  0  0
   28.7595   -1.4009    0.0000 C   0  0
   25.5105   -5.2786    0.0000 O   0  0
   25.5216    0.7147    0.0000 C   0  0
   28.6151   -2.9054    0.0000 H   0  0
   25.4987   -1.3456    0.0000 H   0  0
   24.0794    0.2997    0.0000 C   0  0
   22.9981    1.3406    0.0000 C   0  0
   21.5558    0.9255    0.0000 C   0  0
   20.4746    1.9664    0.0000 C   0  0
   19.0323    1.5514    0.0000 N   0  5
   20.7634    3.1311    0.0000 O   0  0
   17.9510    2.5922    0.0000 S   0  0
   16.5087    2.1772    0.0000 O   0  0
   17.0869    3.4249    0.0000 O   0  0
   18.2399    3.7570    0.0000 O   0  0
   15.4275    3.2181    0.0000 C   0  0
   11.7292   -0.4973    0.0000 N   0  0
   11.7292   -2.9039    0.0000 N   0  0
   12.6043   -1.6824    0.0000 C   0  0
   10.3071   -2.4481    0.0000 C   0  0
   10.3071   -0.9531    0.0000 C   0  0
    9.0127   -0.1874    0.0000 N   0  0
    7.7000   -0.9531    0.0000 C   0  0
    7.7000   -2.4481    0.0000 N   0  0
    9.0127   -3.2139    0.0000 C   0  0
    9.0163   -4.4139    0.0000 N   0  0
  1  2  1  0
  1  3  1  0
  1  4  1  0
  2  5  1  0
  3  6  1  0
  4  7  1  0
  8  9  1  0
  8 13  1  0
  9 10  1  0
 10 11  1  0
 11 12  1  0
 12 13  1  0
 15 14  1  0
 16 14  1  0
 17 15  1  0
 18 16  1  0
 19 21  1  0
 20 17  1  0
 21 18  1  0
 22 14  2  0
 20 23  1  6
 18 24  1  1
 17 25  1  1
 18 17  1  0
 19 20  1  0
 23 26  1  0
 26 27  1  0
 27 28  1  0
 28 29  1  0
 29 30  1  0
 29 31  2  0
 30 32  1  0
 32 33  1  0
 32 34  2  0
 32 35  2  0
 33 36  1  0
 10 36  1  1
  8 37  1  1
 37 41  1  0
 40 38  1  0
 38 39  2  0
 39 37  1  0
 40 41  2  0
 40 45  1  0
 41 42  1  0
 42 43  2  0
 43 44  1  0
 44 45  2  0
 45 46  1  0
M  CHG  2   1   1  30  -1
M  END