
          11280715032D 1   1.00000     0.00000     0

 33 35  0     0  0            999 V2000
    0.3667   -0.7500    0.0000 S   0  0  3  0  0  0           0  0  0
   -0.1500   -0.4500    0.0000 C   0  0  0  0  0  0           0  0  0
   -0.1250   -1.3750    0.0000 O   0  0  0  0  0  0           0  0  0
    0.7167   -1.3417    0.0000 O   0  0  0  0  0  0           0  0  0
    3.4792   -0.7167    0.0000 C   0  0  0  0  0  0           0  0  0
    0.8792   -0.4417    0.0000 N   0  0  0  0  0  0           0  0  0
    4.5167   -0.7042    0.0000 C   0  0  0  0  0  0           0  0  0
    3.4917   -3.1250    0.0000 C   0  0  0  0  0  0           0  0  0
    3.9917   -0.4167    0.0000 C   0  0  0  0  0  0           0  0  0
    5.0292   -0.4000    0.0000 C   0  0  0  0  0  0           0  0  0
    2.9792   -3.4292    0.0000 O   0  0  0  0  0  0           0  0  0
    2.9667   -1.6292    0.0000 C   0  0  0  0  0  0           0  0  0
    2.4417   -0.7292    0.0000 C   0  0  0  0  0  0           0  0  0
   -0.6708   -0.7500    0.0000 C   0  0  0  0  0  0           0  0  0
   -0.1500    0.1583    0.0000 C   0  0  0  0  0  0           0  0  0
    3.4792   -1.3250    0.0000 C   0  0  0  0  0  0           0  0  0
    2.9542   -0.4292    0.0000 C   0  0  0  0  0  0           0  0  0
    2.4417   -1.3292    0.0000 C   0  0  0  0  0  0           0  0  0
    3.4917   -2.5250    0.0000 C   0  0  0  0  0  0           0  0  0
   -1.1875    0.1500    0.0000 C   0  0  0  0  0  0           0  0  0
    2.9667   -2.2292    0.0000 C   0  0  0  0  0  0           0  0  0
    4.0167   -3.4167    0.0000 O   0  0  0  0  0  0           0  0  0
   -1.1875   -0.4500    0.0000 C   0  0  0  0  0  0           0  0  0
   -0.6708    0.4583    0.0000 C   0  0  0  0  0  0           0  0  0
   -1.7083    0.4583    0.0000 Cl  0  0  0  0  0  0           0  0  0
    1.4042   -0.7417    0.0000 C   0  0  0  0  0  0           0  0  0
    5.0250    0.2000    0.0000 O   0  0  0  0  0  0           0  0  0
    1.9167   -0.4375    0.0000 C   0  0  0  0  0  0           0  0  0
    4.5250   -1.3042    0.0000 C   0  0  0  0  0  0           0  0  0
    5.5542   -0.6917    0.0000 C   0  0  0  0  0  0           0  0  0
    5.6042    0.3583    0.0000 C   0  0  0  0  0  0           0  0  0
    5.0417   -1.6000    0.0000 C   0  0  0  0  0  0           0  0  0
    5.5625   -1.2917    0.0000 C   0  0  0  0  0  0           0  0  0
  2  1  1  0     0  0
  3  1  2  0     0  0
  4  1  2  0     0  0
  5 17  2  0     0  0
  6  1  1  0     0  0
  7  9  1  0     0  0
  8 19  1  0     0  0
  9  5  1  0     0  0
 10  7  1  0     0  0
 11  8  2  0     0  0
 12 18  1  0     0  0
 13 28  1  0     0  0
 14  2  2  0     0  0
 15  2  1  0     0  0
 16 12  2  0     0  0
 17 13  1  0     0  0
 18 13  2  0     0  0
 19 21  1  0     0  0
 20 24  1  0     0  0
 21 12  1  0     0  0
 22  8  1  0     0  0
 23 14  1  0     0  0
 24 15  2  0     0  0
 25 20  1  0     0  0
 26  6  1  0     0  0
 27 10  1  0     0  0
 28 26  1  0     0  0
 29  7  2  0     0  0
 30 10  2  0     0  0
 31 27  1  0     0  0
 32 29  1  0     0  0
 33 32  2  0     0  0
 20 23  2  0     0  0
  5 16  1  0     0  0
 33 30  1  0     0  0
M  END