
  SciTegic08161218152D

 34 34  0  0  0  0            999 V2000
   -0.8997    1.5889    0.0000 C   0  0  2  0  0  0
   -0.1852    1.1764    0.0000 C   0  0  1  0  0  0
   -0.1852    0.3514    0.0000 C   0  0  1  0  0  0
   -0.8997   -0.0611    0.0000 C   0  0  1  0  0  0
   -1.6142    0.3514    0.0000 C   0  0  1  0  0  0
   -1.6142    1.1764    0.0000 O   0  0
   -2.3286   -0.0611    0.0000 O   0  0
   -0.8997   -0.8861    0.0000 O   0  0
    0.5292   -0.0611    0.0000 O   0  0
    0.5292    1.5889    0.0000 O   0  0
   -0.8997    2.4139    0.0000 C   0  0
   -1.6142    2.8264    0.0000 O   0  0
   -3.0431    0.3514    0.0000 C   0  0
    1.2437    0.3514    0.0000 C   0  0
    1.9582   -0.0611    0.0000 C   0  0
    1.2437    1.1764    0.0000 O   0  0
    2.6727    0.3514    0.0000 C   0  0
    3.3871   -0.0611    0.0000 C   0  0
    3.3871   -0.8861    0.0000 C   0  0
    2.6727   -1.2986    0.0000 C   0  0
    1.9582   -0.8861    0.0000 C   0  0
   -1.6142   -1.2986    0.0000 P   0  0
   -2.3286   -1.7111    0.0000 O   0  0
   -1.2017   -2.0131    0.0000 O   0  0
   -2.0267   -0.5841    0.0000 O   0  0
   -2.3286   -2.5361    0.0000 C   0  0
    7.5784   -0.1021    0.0000 N   0  0
    8.4034   -0.1021    0.0000 C   0  0
    7.1659   -0.8165    0.0000 C   0  0
    7.1659    0.6124    0.0000 C   0  0
    6.3409   -0.8165    0.0000 C   0  0
    8.8159    0.6124    0.0000 C   0  0
    6.3409    0.6124    0.0000 C   0  0
    4.1016   -1.2986    0.0000 C   0  0
 14 16  2  0
 15 17  2  0
  4  8  1  6
 17 18  1  0
  1  2  1  0
 18 19  2  0
  3  9  1  6
 19 20  1  0
  1  6  1  0
 20 21  2  0
 21 15  1  0
  2 10  1  6
  8 22  1  0
  2  3  1  0
 22 23  1  0
  1 11  1  6
 22 24  1  0
  3  4  1  0
 22 25  2  0
 11 12  1  0
 23 26  1  0
  4  5  1  0
  7 13  1  0
 27 28  1  0
  5  6  1  0
 27 29  1  0
  9 14  1  0
 27 30  1  0
 29 31  1  0
 14 15  1  0
 28 32  1  0
  5  7  1  6
 30 33  1  0
 19 34  1  0
M  END