
  SciTegic12201611072D

225230  0  0  0  0            999 V2000
   -1.4522    5.0301    0.0000 N   0  0
   -0.6544    5.9265    0.0000 C   0  0  2  0  0  0
    1.6131    6.5189    0.0000 O   0  0
    0.8153    5.6225    0.0000 C   0  0
   -1.1269    7.3510    0.0000 C   0  0
   -2.5967    7.6550    0.0000 C   0  0
   -3.0692    9.0795    0.0000 C   0  0
   -4.2443    9.3225    0.0000 O   0  0
   -2.2714    9.9759    0.0000 N   0  0
    1.2878    4.1980    0.0000 N   0  0
    2.7575    3.8940    0.0000 C   0  0  2  0  0  0
    2.4322    1.5731    0.0000 O   0  0
    3.2300    2.4695    0.0000 C   0  0
    3.7576    5.0131    0.0000 C   0  0
    5.2270    4.7075    0.0000 C   0  0
    6.2270    5.8265    0.0000 C   0  0
    7.4019    5.5822    0.0000 O   0  0
    5.8516    6.9663    0.0000 O   0  0
    4.6997    2.1655    0.0000 N   0  0
    5.1721    0.7409    0.0000 C   0  0  2  0  0  0
    3.1970   -0.1817    0.0000 O   0  0
    4.1767   -0.3822    0.0000 C   0  0
    6.6419    0.4370    0.0000 C   0  0
    7.1144   -0.9875    0.0000 C   0  0
    8.5842   -1.2915    0.0000 C   0  0
    9.0567   -2.7160    0.0000 C   0  0
   10.2318   -2.9590    0.0000 N   0  0
    4.6507   -1.8062    0.0000 N   0  0
    3.6552   -2.9294    0.0000 C   0  0  2  0  0  0
    3.3299   -5.2503    0.0000 O   0  0
    4.1277   -4.3539    0.0000 C   0  0
    2.1855   -2.6254    0.0000 C   0  0
    2.5889    0.0182    0.0000 C   0  0
    1.7138   -1.2033    0.0000 C   0  0
    1.7138    1.2033    0.0000 N   0  0
    0.2917   -0.7475    0.0000 C   0  0
    0.2917    0.7475    0.0000 C   0  0
   -1.0028    1.5132    0.0000 C   0  0
   -2.3155    0.7475    0.0000 C   0  0
   -2.3155   -0.7475    0.0000 C   0  0
   -1.0028   -1.5132    0.0000 C   0  0
    5.5974   -4.6579    0.0000 N   0  0
    6.0699   -6.0824    0.0000 C   0  0  2  0  0  0
    8.3374   -5.4901    0.0000 O   0  0
    7.5396   -6.3865    0.0000 C   0  0
    5.0744   -7.2056    0.0000 C   0  0
    4.5551   -9.7536    0.0000 C   0  0
    5.5484   -8.6296    0.0000 C   0  0
    7.0185   -8.9280    0.0000 C   0  0
    7.4952  -10.3502    0.0000 C   0  0
    6.5018  -11.4742    0.0000 C   0  0
    5.0318  -11.1759    0.0000 C   0  0
    8.0120   -7.8110    0.0000 N   0  0
    9.4817   -8.1150    0.0000 C   0  0  1  0  0  0
    9.1564  -10.4359    0.0000 O   0  0
   10.2795   -7.2186    0.0000 C   0  0
    9.9542   -9.5395    0.0000 C   0  0
   11.4239   -9.8435    0.0000 N   0  0
   11.8964  -11.2681    0.0000 C   0  0  2  0  0  0
   14.1639  -10.6757    0.0000 O   0  0
   13.3661  -11.5721    0.0000 C   0  0
   10.9009  -12.3912    0.0000 C   0  0
   11.3749  -13.8152    0.0000 C   0  0
   10.3795  -14.9384    0.0000 C   0  0
   10.7585  -16.0769    0.0000 O   0  0
    9.2038  -14.6977    0.0000 O   0  0
   13.8386  -12.9966    0.0000 N   0  0
   15.3083  -13.3006    0.0000 C   0  0  2  0  0  0
   14.9829  -15.6215    0.0000 O   0  0
   15.7807  -14.7251    0.0000 C   0  0
   16.3084  -12.1816    0.0000 C   0  0
   17.7777  -12.4872    0.0000 C   0  0
   18.7778  -11.3682    0.0000 C   0  0
   19.9527  -11.6125    0.0000 O   0  0
   18.4024  -10.2284    0.0000 N   0  0
   17.2504  -15.0292    0.0000 N   0  0
   17.7229  -16.4537    0.0000 C   0  0  2  0  0  0
   19.9904  -15.8613    0.0000 O   0  0
   19.1926  -16.7577    0.0000 C   0  0
   16.7274  -17.5768    0.0000 C   0  0
   16.2081  -20.1249    0.0000 C   0  0
   17.2015  -19.0008    0.0000 C   0  0
   18.6716  -19.2992    0.0000 C   0  0
   19.1482  -20.7215    0.0000 C   0  0
   18.1549  -21.8454    0.0000 C   0  0
   16.6848  -21.5471    0.0000 C   0  0
   18.5362  -22.9832    0.0000 O   0  0
   19.6651  -18.1822    0.0000 N   0  0
   21.1348  -18.4862    0.0000 C   0  0  1  0  0  0
   20.8095  -20.8072    0.0000 O   0  0
   21.9326  -17.5898    0.0000 C   0  0
   21.6073  -19.9108    0.0000 C   0  0
   22.5066  -26.7336    0.0000 N   0  0
   21.5111  -27.8568    0.0000 C   0  0
   20.3355  -27.6161    0.0000 N   0  0
   21.8901  -28.9953    0.0000 N   0  0
   23.0770  -20.2148    0.0000 N   0  0
   23.5494  -21.6393    0.0000 C   0  0  2  0  0  0
   25.8169  -21.0469    0.0000 O   0  0
   25.0191  -21.9433    0.0000 C   0  0
   22.5539  -22.7625    0.0000 C   0  0
   23.0280  -24.1865    0.0000 C   0  0
   22.0325  -25.3096    0.0000 C   0  0
   25.4916  -23.3678    0.0000 N   0  0
   26.9613  -23.6719    0.0000 C   0  0  2  0  0  0
   26.6360  -25.9928    0.0000 O   0  0
   27.4338  -25.0964    0.0000 C   0  0
   27.9614  -22.5528    0.0000 C   0  0
   29.4308  -22.8584    0.0000 C   0  0
   30.4309  -21.7394    0.0000 S   0  0
   31.6057  -21.9838    0.0000 C   0  0
   28.9035  -25.4004    0.0000 N   0  0
   29.3760  -26.8249    0.0000 C   0  0  2  0  0  0
   31.6435  -26.2325    0.0000 O   0  0
   30.8457  -27.1289    0.0000 C   0  0
   28.3805  -27.9481    0.0000 C   0  0
   28.7595  -29.0867    0.0000 C   0  0
   27.2049  -27.7074    0.0000 C   0  0
   31.3181  -28.5535    0.0000 N   0  0
   32.7878  -28.8575    0.0000 C   0  0  2  0  0  0
   32.4625  -31.1784    0.0000 O   0  0
   33.2603  -30.2820    0.0000 C   0  0
   33.7879  -27.7384    0.0000 C   0  0
   35.2573  -28.0441    0.0000 C   0  0
   36.0570  -27.1493    0.0000 C   0  0
   35.6327  -29.1838    0.0000 C   0  0
   34.7300  -30.5860    0.0000 N   0  0
   35.2025  -32.0105    0.0000 C   0  0  2  0  0  0
   37.4700  -31.4182    0.0000 O   0  0
   36.6722  -32.3146    0.0000 C   0  0
   34.2070  -33.1337    0.0000 C   0  0
   34.6810  -34.5577    0.0000 C   0  0
   33.6856  -35.6809    0.0000 C   0  0
   34.0646  -36.8194    0.0000 O   0  0
   32.5099  -35.4402    0.0000 O   0  0
   37.1447  -33.7391    0.0000 N   0  0
   38.6144  -34.0431    0.0000 C   0  0  2  0  0  0
   39.2391  -31.7843    0.0000 O   0  0
   39.6145  -32.9240    0.0000 C   0  0
   39.0868  -35.4676    0.0000 C   0  0
   41.6462  -34.7562    0.0000 C   0  0
   40.5565  -35.7716    0.0000 C   0  0
   42.9252  -35.4873    0.0000 N   0  0
   41.1533  -37.1270    0.0000 C   0  0
   42.6382  -36.9528    0.0000 C   0  0
   43.5495  -38.1493    0.0000 C   0  0
   42.9419  -39.5423    0.0000 C   0  0
   41.4571  -39.7164    0.0000 C   0  0
   40.5436  -38.5019    0.0000 C   0  0
   41.0838  -33.2297    0.0000 N   0  0
   42.0839  -32.1106    0.0000 C   0  0  2  0  0  0
   43.9287  -33.5560    0.0000 O   0  0
   43.5533  -32.4163    0.0000 C   0  0
   41.6173  -30.6842    0.0000 C   0  0  1  0  0  0
   40.4430  -30.4374    0.0000 C   0  0
   42.6187  -29.5662    0.0000 C   0  0
   42.2456  -28.4257    0.0000 C   0  0
   44.5534  -31.2972    0.0000 N   0  0
   46.0228  -31.6029    0.0000 C   0  0  2  0  0  0
   46.6475  -29.3441    0.0000 O   0  0
   47.0229  -30.4838    0.0000 C   0  0
   46.4952  -33.0274    0.0000 C   0  0
   47.9650  -33.3314    0.0000 C   0  0
   48.4374  -34.7559    0.0000 C   0  0
   49.6125  -34.9990    0.0000 O   0  0
   47.6396  -35.6523    0.0000 O   0  0
   48.4922  -30.7895    0.0000 N   0  0
   49.4923  -29.6704    0.0000 C   0  0  2  0  0  0
   51.3371  -31.1158    0.0000 O   0  0
   50.9617  -29.9761    0.0000 C   0  0
   49.0257  -28.2440    0.0000 C   0  0
   50.0271  -27.1260    0.0000 C   0  0
   49.5605  -25.6996    0.0000 C   0  0
   50.5618  -24.5816    0.0000 C   0  0
   50.1887  -23.4411    0.0000 N   0  0
   51.9618  -28.8570    0.0000 N   0  0
   53.4312  -29.1627    0.0000 C   0  0  2  0  0  0
   54.0559  -26.9038    0.0000 O   0  0
   54.4313  -28.0436    0.0000 C   0  0
   53.9037  -30.5872    0.0000 C   0  0
   55.3734  -30.8912    0.0000 C   0  0
   55.8458  -32.3157    0.0000 C   0  0
   57.0209  -32.5588    0.0000 O   0  0
   55.0480  -33.2121    0.0000 O   0  0
   55.9006  -28.3493    0.0000 N   0  0
   56.9007  -27.2302    0.0000 C   0  0  2  0  0  0
   58.7455  -28.6756    0.0000 O   0  0
   58.3701  -27.5359    0.0000 C   0  0
   56.4341  -25.8037    0.0000 C   0  0
   57.4355  -24.6858    0.0000 C   0  0
   57.0624  -23.5453    0.0000 C   0  0
   58.6098  -24.9326    0.0000 C   0  0
   59.3702  -26.4168    0.0000 N   0  0
   60.8396  -26.7224    0.0000 C   0  0  2  0  0  0
   61.4643  -24.4636    0.0000 O   0  0
   61.8397  -25.6034    0.0000 C   0  0
   61.3121  -28.1470    0.0000 C   0  0
   62.7818  -28.4510    0.0000 C   0  0
   63.2542  -29.8755    0.0000 C   0  0
   64.7239  -30.1795    0.0000 C   0  0
   65.1017  -31.3185    0.0000 N   0  0
   63.3091  -25.9090    0.0000 N   0  0
   64.3091  -24.7900    0.0000 C   0  0  2  0  0  0
   66.1539  -26.2354    0.0000 O   0  0
   65.7785  -25.0956    0.0000 C   0  0
   63.8425  -23.3635    0.0000 C   0  0
   64.8439  -22.2456    0.0000 C   0  0
   64.3773  -20.8191    0.0000 C   0  0
   65.1779  -19.9253    0.0000 O   0  0
   63.2029  -20.5723    0.0000 O   0  0
   66.7786  -23.9766    0.0000 N   0  0
   68.2480  -24.2822    0.0000 C   0  0  2  0  0  0
   68.8727  -22.0234    0.0000 O   0  0
   69.2481  -23.1632    0.0000 C   0  0
   68.7205  -25.7068    0.0000 C   0  0
   69.8956  -25.9498    0.0000 O   0  0
   70.7175  -23.4688    0.0000 N   0  0
   71.7175  -22.3498    0.0000 C   0  0  2  0  0  0
   72.0516  -20.0294    0.0000 O   0  0
   71.2509  -20.9233    0.0000 C   0  0
   73.1869  -22.6554    0.0000 C   0  0
   74.1870  -21.5364    0.0000 C   0  0
   75.3619  -21.7808    0.0000 C   0  0
   73.8116  -20.3966    0.0000 C   0  0
   70.0766  -20.6765    0.0000 O   0  0
  4 10  1  0
 13 19  1  0
 22 28  1  0
 31 42  1  0
 45 53  1  0
 57 58  1  0
 61 67  1  0
 70 76  1  0
 79 88  1  0
 92 97  1  0
100104  1  0
107112  1  0
115119  1  0
122127  1  0
130136  1  0
139150  1  0
153158  1  0
161167  1  0
170176  1  0
179185  1  0
188193  1  0
196202  1  0
205211  1  0
214217  1  0
220225  1  0
  2  1  1  1
  2  4  1  0
  4  3  2  0
  2  5  1  0
  5  6  1  0
  6  7  1  0
  7  8  2  0
  7  9  1  0
 10 11  1  0
 11 13  1  0
 13 12  2  0
 11 14  1  1
 14 15  1  0
 15 16  1  0
 16 17  2  0
 16 18  1  0
 20 19  1  1
 20 22  1  0
 22 21  2  0
 20 23  1  0
 23 24  1  0
 24 25  1  0
 25 26  1  0
 26 27  1  0
 28 29  1  0
 29 31  1  0
 31 30  2  0
 29 32  1  6
 32 34  1  0
 33 34  2  0
 34 36  1  0
 35 33  1  0
 37 35  1  0
 36 37  2  0
 37 38  1  0
 38 39  2  0
 39 40  1  0
 40 41  2  0
 41 36  1  0
 42 43  1  0
 43 45  1  0
 45 44  2  0
 43 46  1  6
 46 48  1  0
 47 48  2  0
 48 49  1  0
 49 50  2  0
 50 51  1  0
 51 52  2  0
 52 47  1  0
 53 54  1  0
 54 57  1  0
 57 55  2  0
 54 56  1  1
 58 59  1  0
 59 61  1  0
 61 60  2  0
 59 62  1  6
 62 63  1  0
 63 64  1  0
 64 65  2  0
 64 66  1  0
 68 67  1  1
 68 70  1  0
 70 69  2  0
 68 71  1  0
 71 72  1  0
 72 73  1  0
 73 74  2  0
 73 75  1  0
 76 77  1  0
 77 79  1  0
 79 78  2  0
 77 80  1  6
 80 82  1  0
 81 82  2  0
 82 83  1  0
 83 84  2  0
 84 85  1  0
 85 86  2  0
 86 81  1  0
 85 87  1  0
 88 89  1  0
 89 92  1  0
 92 90  2  0
 89 91  1  1
 93 94  1  0
 94 95  1  0
 94 96  2  0
 97 98  1  0
 98100  1  0
100 99  2  0
 98101  1  6
101102  1  0
102103  1  0
103 93  1  0
104105  1  0
105107  1  0
107106  2  0
105108  1  1
108109  1  0
109110  1  0
110111  1  0
112113  1  0
113115  1  0
115114  2  0
113116  1  6
116117  1  0
116118  1  0
119120  1  0
120122  1  0
122121  2  0
120123  1  1
123124  1  0
124125  1  0
124126  1  0
127128  1  0
128130  1  0
130129  2  0
128131  1  6
131132  1  0
132133  1  0
133134  2  0
133135  1  0
136137  1  0
137139  1  0
139138  2  0
137140  1  6
140142  1  0
141142  2  0
142144  1  0
143141  1  0
145143  1  0
144145  2  0
145146  1  0
146147  2  0
147148  1  0
148149  2  0
149144  1  0
151150  1  1
151153  1  0
153152  2  0
151154  1  0
154155  1  1
154156  1  0
156157  1  0
158159  1  0
159161  1  0
161160  2  0
159162  1  6
162163  1  0
163164  1  0
164165  2  0
164166  1  0
167168  1  0
168170  1  0
170169  2  0
168171  1  1
171172  1  0
172173  1  0
173174  1  0
174175  1  0
176177  1  0
177179  1  0
179178  2  0
177180  1  6
180181  1  0
181182  1  0
182183  2  0
182184  1  0
185186  1  0
186188  1  0
188187  2  0
186189  1  1
189190  1  0
190191  1  0
190192  1  0
193194  1  0
194196  1  0
196195  2  0
194197  1  6
197198  1  0
198199  1  0
199200  1  0
200201  1  0
202203  1  0
203205  1  0
205204  2  0
203206  1  1
206207  1  0
207208  1  0
208209  2  0
208210  1  0
211212  1  0
212214  1  0
214213  2  0
212215  1  6
215216  1  0
217218  1  0
218220  1  0
220219  2  0
218221  1  6
221222  1  0
222223  1  0
222224  1  0
M  END