
  SciTegic10011413212D

 27 31  0  0  0  0            999 V2000
   15.7274  -20.6072    0.0000 C   0  0
   15.7263  -21.4268    0.0000 C   0  0
   16.4344  -21.8357    0.0000 C   0  0
   17.1440  -21.4263    0.0000 C   0  0
   17.1412  -20.6036    0.0000 C   0  0
   16.4326  -20.1984    0.0000 C   0  0
   15.0196  -20.1988    0.0000 Cl  0  0
   15.0183  -21.8348    0.0000 Cl  0  0
   17.8469  -20.1899    0.0000 C   0  0
   18.5947  -20.5194    0.0000 C   0  0
   19.1393  -19.9100    0.0000 N   0  0
   18.7280  -19.2038    0.0000 C   0  0
   17.9293  -19.3769    0.0000 N   0  0
   18.7693  -21.3178    0.0000 C   0  0
   19.4348  -22.4604    0.0000 N   0  0
   19.5170  -21.6474    0.0000 C   0  0
   18.6361  -22.6333    0.0000 C   0  0
   18.2267  -21.9272    0.0000 C   0  0
   17.4123  -21.9298    0.0000 C   0  0
   17.0065  -22.6376    0.0000 C   0  0
   17.4209  -23.3444    0.0000 C   0  0
   18.2339  -23.3384    0.0000 C   0  0
   17.0173  -24.0550    0.0000 Cl  0  0
   19.9523  -19.9924    0.0000 C   0  0
   20.2875  -20.7377    0.0000 C   0  0
   20.2081  -21.5486    0.0000 C   0  0
   20.9534  -21.2134    0.0000 C   0  0
  1  2  2  0
  2  3  1  0
  3  4  2  0
  4  5  1  0
  5  6  2  0
  6  1  1  0
  1  7  1  0
  2  8  1  0
  9 10  2  0
 10 11  1  0
 11 12  1  0
 12 13  2  0
 13  9  1  0
  5  9  1  0
 14 18  1  0
 17 15  1  0
 15 16  1  0
 16 14  2  0
 10 14  1  0
 17 18  2  0
 18 19  1  0
 19 20  2  0
 20 21  1  0
 21 22  2  0
 22 17  1  0
 21 23  1  0
 11 24  1  0
 24 25  1  0
 26 25  1  0
 27 26  1  0
 25 27  1  0
M  END