
          11280714522D 1   1.00000     0.00000     0

 53 57  0     0  0            999 V2000
    3.5750   -1.1917    0.0000 N   0  0  0  0  0  0           0  0  0
    3.9292   -0.4542    0.0000 C   0  0  3  0  0  0           0  0  0
    2.7750    0.4750    0.0000 N   0  0  3  0  0  0           0  0  0
    2.7750   -1.3750    0.0000 C   0  0  0  0  0  0           0  0  0
    3.5750    0.2958    0.0000 C   0  0  0  0  0  0           0  0  0
   11.3292   -8.6125    0.0000 C   0  0  0  0  0  0           0  0  0
    2.1292   -0.8625    0.0000 C   0  0  0  0  0  0           0  0  0
    4.7542   -0.4625    0.0000 N   0  0  0  0  0  0           0  0  0
   11.6292   -9.3917    0.0000 N   0  0  0  0  0  0           0  0  0
    2.1292   -0.0292    0.0000 C   0  0  0  0  0  0           0  0  0
   10.5375   -8.4000    0.0000 N   0  0  0  0  0  0           0  0  0
    5.1667   -1.1792    0.0000 C   0  0  0  0  0  0           0  0  0
   11.1125  -10.0375    0.0000 C   0  0  0  0  0  0           0  0  0
   11.7792   -7.9167    0.0000 S   0  0  0  0  0  0           0  0  0
   10.4917   -7.5792    0.0000 C   0  0  0  0  0  0           0  0  0
    2.6500   -2.1917    0.0000 C   0  0  0  0  0  0           0  0  0
   11.2625   -7.2792    0.0000 C   0  0  0  0  0  0           0  0  0
    5.9917   -1.1792    0.0000 N   0  0  0  0  0  0           0  0  0
    7.1542   -5.8125    0.0000 C   0  0  0  0  0  0           0  0  0
    5.2292   -4.2542    0.0000 C   0  0  0  0  0  0           0  0  0
    4.0875    0.9500    0.0000 O   0  0  0  0  0  0           0  0  0
    4.7500   -1.8917    0.0000 O   0  0  0  0  0  0           0  0  0
    3.2917   -2.7042    0.0000 C   0  0  0  0  0  0           0  0  0
    6.5125   -5.2917    0.0000 C   0  0  0  0  0  0           0  0  0
    6.4042   -1.8917    0.0000 C   0  0  0  0  0  0           0  0  0
    7.9167   -5.5125    0.0000 O   0  0  0  0  0  0           0  0  0
    5.9917   -3.9625    0.0000 O   0  0  0  0  0  0           0  0  0
    5.1000   -5.0792    0.0000 N   0  0  0  0  0  0           0  0  0
   10.2917   -9.9042    0.0000 N   0  0  0  0  0  0           0  0  0
   11.4125  -10.8042    0.0000 N   0  0  0  0  0  0           0  0  0
    7.0250   -6.6292    0.0000 N   0  0  0  0  0  0           0  0  0
    3.8167   -4.0417    0.0000 O   0  0  0  0  0  0           0  0  0
    2.5917    1.2875    0.0000 C   0  0  0  0  0  0           0  0  0
    4.5875   -3.7417    0.0000 C   0  0  0  0  0  0           0  0  0
    3.1667   -3.5250    0.0000 C   0  0  0  0  0  0           0  0  0
    7.2292   -1.8917    0.0000 C   0  0  0  0  0  0           0  0  0
    5.7417   -5.5917    0.0000 C   0  0  0  0  0  0           0  0  0
    1.4167   -1.2750    0.0000 C   0  0  0  0  0  0           0  0  0
    9.0792   -7.3625    0.0000 S   0  0  0  0  0  0           0  0  0
    9.8500   -7.0625    0.0000 C   0  0  0  0  0  0           0  0  0
    1.4167    0.3750    0.0000 C   0  0  0  0  0  0           0  0  0
    7.6417   -2.6042    0.0000 C   0  0  0  0  0  0           0  0  0
    1.8792   -2.4917    0.0000 C   0  0  0  0  0  0           0  0  0
    1.7625   -3.3125    0.0000 C   0  0  0  0  0  0           0  0  0
    6.4042   -3.3250    0.0000 C   0  0  0  0  0  0           0  0  0
    5.9917   -2.6042    0.0000 C   0  0  0  0  0  0           0  0  0
    7.6667   -7.1417    0.0000 C   0  0  0  0  0  0           0  0  0
    2.4042   -3.8250    0.0000 C   0  0  0  0  0  0           0  0  0
    7.2292   -3.3250    0.0000 C   0  0  0  0  0  0           0  0  0
    8.4375   -6.8417    0.0000 C   0  0  0  0  0  0           0  0  0
    8.4750   -2.6042    0.0000 C   0  0  0  0  0  0           0  0  0
    0.7042   -0.8625    0.0000 C   0  0  0  0  0  0           0  0  0
    0.7042   -0.0292    0.0000 C   0  0  0  0  0  0           0  0  0
  2  1  1  0     0  0
  3  5  1  0     0  0
  4  1  2  0     0  0
  5  2  1  0     0  0
  6 11  2  0     0  0
  7  4  1  0     0  0
  8  2  1  0     0  0
  9  6  1  0     0  0
 10  7  1  0     0  0
 11 15  1  0     0  0
 12  8  1  0     0  0
 13  9  2  0     0  0
 14 17  1  0     0  0
 15 40  1  0     0  0
 16  4  1  0     0  0
 17 15  2  0     0  0
 18 12  1  0     0  0
 19 24  1  0     0  0
 20 34  1  0     0  0
 21  5  2  0     0  0
 22 12  2  0     0  0
 23 16  1  0     0  0
 24 37  1  0     0  0
 25 18  1  0     0  0
 26 19  2  0     0  0
 27 20  2  0     0  0
 28 20  1  0     0  0
 29 13  1  0     0  0
 30 13  1  0     0  0
 31 19  1  0     0  0
 32 35  1  0     0  0
 33  3  1  0     0  0
 34 32  1  0     0  0
 35 23  2  0     0  0
 36 25  1  0     0  0
 37 28  1  0     0  0
 38  7  2  0     0  0
 39 50  1  0     0  0
 40 39  1  0     0  0
 41 10  2  0     0  0
 42 36  2  0     0  0
 43 16  2  0     0  0
 44 43  1  0     0  0
 45 46  1  0     0  0
 46 25  2  0     0  0
 47 31  1  0     0  0
 48 44  2  0     0  0
 49 45  2  0     0  0
 50 47  1  0     0  0
 51 42  1  0     0  0
 52 38  1  0     0  0
 53 52  2  0     0  0
  3 10  1  0     0  0
 48 35  1  0     0  0
 53 41  1  0     0  0
 42 49  1  0     0  0
  6 14  1  0     0  0
M  END