
          11280715002D 1   1.00000     0.00000     0

 36 39  0     1  0            999 V2000
    9.5042   -7.3792    0.0000 S   0  0  3  0  0  0           0  0  0
    4.5042   -6.1167    0.0000 C   0  0  0  0  0  0           0  0  0
    5.2250   -5.7125    0.0000 N   0  0  3  0  0  0           0  0  0
    3.8000   -5.7125    0.0000 C   0  0  0  0  0  0           0  0  0
    8.7917   -6.9625    0.0000 N   0  0  0  0  0  0           0  0  0
    8.7917   -6.1375    0.0000 C   0  0  2  0  0  0           0  0  0
    3.0875   -6.1292    0.0000 C   0  0  0  0  0  0           0  0  0
    1.6625   -6.1250    0.0000 N   0  0  3  0  0  0           0  0  0
    2.3792   -5.7125    0.0000 C   0  0  0  0  0  0           0  0  0
    9.5042   -5.7292    0.0000 C   0  0  0  0  0  0           0  0  0
    5.9375   -6.1250    0.0000 C   0  0  0  0  0  0           0  0  0
    8.7875   -7.7792    0.0000 O   0  0  0  0  0  0           0  0  0
    9.7125   -8.1667    0.0000 O   0  0  0  0  0  0           0  0  0
    6.6542   -5.7167    0.0000 C   0  0  0  0  0  0           0  0  0
   10.3250   -7.3792    0.0000 C   0  0  0  0  0  0           0  0  0
    3.8042   -4.8917    0.0000 C   0  0  0  0  0  0           0  0  0
    5.2250   -4.8917    0.0000 C   0  0  0  0  0  0           0  0  0
    4.5042   -6.9417    0.0000 O   0  0  0  0  0  0           0  0  0
    7.3667   -6.1292    0.0000 N   0  0  0  0  0  0           0  0  0
    8.0792   -5.7167    0.0000 C   0  0  0  0  0  0           0  0  0
    0.2292   -6.9417    0.0000 N   0  0  0  0  0  0           0  0  0
    9.5125   -4.9042    0.0000 O   0  0  0  0  0  0           0  0  0
    2.3667   -4.8917    0.0000 C   0  0  0  0  0  0           0  0  0
    6.6542   -4.8917    0.0000 O   0  0  0  0  0  0           0  0  0
    4.5125   -4.4792    0.0000 C   0  0  0  0  0  0           0  0  0
    3.0792   -4.4792    0.0000 C   0  0  0  0  0  0           0  0  0
   10.2250   -6.1417    0.0000 O   0  0  0  0  0  0           0  0  0
    0.9500   -5.7125    0.0000 C   0  0  0  0  0  0           0  0  0
    1.6667   -6.9500    0.0000 C   0  0  0  0  0  0           0  0  0
    0.9500   -7.3542    0.0000 C   0  0  0  0  0  0           0  0  0
    0.2375   -6.1167    0.0000 C   0  0  0  0  0  0           0  0  0
   10.7292   -6.6667    0.0000 C   0  0  0  0  0  0           0  0  0
   10.7375   -8.0917    0.0000 C   0  0  0  0  0  0           0  0  0
   11.5542   -8.0917    0.0000 C   0  0  0  0  0  0           0  0  0
   11.5542   -6.6625    0.0000 C   0  0  0  0  0  0           0  0  0
   11.9667   -7.3792    0.0000 C   0  0  0  0  0  0           0  0  0
  2  3  1  0     0  0
  3 11  1  0     0  0
  4  2  1  0     0  0
  5  1  1  0     0  0
  6  5  1  1     0  0
  7  4  1  0     0  0
  8  9  1  0     0  0
  9  7  2  0     0  0
 10  6  1  0     0  0
 11 14  1  0     0  0
 12  1  2  0     0  0
 13  1  2  0     0  0
 14 19  1  0     0  0
 15  1  1  0     0  0
 16 25  1  0     0  0
 17  3  1  0     0  0
 18  2  2  0     0  0
 19 20  1  0     0  0
 20  6  1  0     0  0
 21 30  1  0     0  0
 22 10  2  0     0  0
 23 26  2  0     0  0
 24 14  2  0     0  0
 25 17  1  0     0  0
 26 16  1  0     0  0
 27 10  1  0     0  0
 28  8  1  0     0  0
 29  8  1  0     0  0
 30 29  1  0     0  0
 31 28  1  0     0  0
 32 15  1  0     0  0
 33 15  2  0     0  0
 34 33  1  0     0  0
 35 32  2  0     0  0
 36 34  2  0     0  0
 36 35  1  0     0  0
 16  4  2  0     0  0
 23  9  1  0     0  0
 31 21  1  0     0  0
M  END