
          11280715072D 1   1.00000     0.00000     0

 34 37  0     0  0            999 V2000
    2.9042   -1.0667    0.0000 C   0  0  0  0  0  0           0  0  0
    6.4625   -0.5667    0.0000 C   0  0  0  0  0  0           0  0  0
    2.9250   -1.8875    0.0000 C   0  0  0  0  0  0           0  0  0
    6.4375    0.2583    0.0000 C   0  0  0  0  0  0           0  0  0
    7.1875   -0.9625    0.0000 C   0  0  0  0  0  0           0  0  0
    2.1792   -0.6667    0.0000 C   0  0  0  0  0  0           0  0  0
    1.4750   -1.1000    0.0000 C   0  0  0  0  0  0           0  0  0
    7.8875   -0.5292    0.0000 C   0  0  0  0  0  0           0  0  0
    2.2250   -2.3167    0.0000 C   0  0  0  0  0  0           0  0  0
    7.1417    0.6875    0.0000 C   0  0  0  0  0  0           0  0  0
    7.8667    0.2958    0.0000 C   0  0  0  0  0  0           0  0  0
    1.4917   -1.9250    0.0000 C   0  0  0  0  0  0           0  0  0
    5.0292   -0.6042    0.0000 N   0  0  0  0  0  0           0  0  0
    4.3292   -1.0292    0.0000 N   0  0  0  0  0  0           0  0  0
    5.7542   -0.9917    0.0000 C   0  0  0  0  0  0           0  0  0
    3.6042   -0.6375    0.0000 C   0  0  0  0  0  0           0  0  0
    0.7125   -2.2000    0.0000 O   0  0  0  0  0  0           0  0  0
    8.6500    0.5625    0.0000 O   0  0  0  0  0  0           0  0  0
    8.6750   -0.7667    0.0000 C   0  0  0  0  0  0           0  0  0
    0.6792   -0.8542    0.0000 C   0  0  0  0  0  0           0  0  0
    9.1500   -0.0917    0.0000 C   0  0  0  0  0  0           0  0  0
    0.2125   -1.5417    0.0000 C   0  0  0  0  0  0           0  0  0
    3.6417   -2.2792    0.0000 O   0  0  0  0  0  0           0  0  0
    5.7125    0.6500    0.0000 O   0  0  0  0  0  0           0  0  0
    7.2042   -1.7792    0.0000 O   0  0  0  0  0  0           0  0  0
    2.1667    0.1583    0.0000 O   0  0  0  0  0  0           0  0  0
    7.1167    1.5125    0.0000 O   0  0  0  0  0  0           0  0  0
    2.2500   -3.1417    0.0000 O   0  0  0  0  0  0           0  0  0
    3.5875    0.1875    0.0000 C   0  0  0  0  0  0           0  0  0
    5.7792   -1.8167    0.0000 C   0  0  0  0  0  0           0  0  0
    1.4417    0.5500    0.0000 C   0  0  0  0  0  0           0  0  0
    7.9292   -2.1792    0.0000 C   0  0  0  0  0  0           0  0  0
    6.3917    1.9083    0.0000 C   0  0  0  0  0  0           0  0  0
    2.9750   -3.5375    0.0000 C   0  0  0  0  0  0           0  0  0
  2 15  1  0     0  0
  3  1  1  0     0  0
  4  2  1  0     0  0
  5  2  2  0     0  0
  6  1  2  0     0  0
  7  6  1  0     0  0
  8  5  1  0     0  0
  9  3  2  0     0  0
 10  4  2  0     0  0
 11  8  2  0     0  0
 12  7  2  0     0  0
 13 14  1  0     0  0
 14 16  2  0     0  0
 15 13  2  0     0  0
 16  1  1  0     0  0
 17 12  1  0     0  0
 18 11  1  0     0  0
 19  8  1  0     0  0
 20  7  1  0     0  0
 21 19  2  0     0  0
 22 20  2  0     0  0
 23  3  1  0     0  0
 24  4  1  0     0  0
 25  5  1  0     0  0
 26  6  1  0     0  0
 27 10  1  0     0  0
 28  9  1  0     0  0
 29 16  1  0     0  0
 30 15  1  0     0  0
 31 26  1  0     0  0
 32 25  1  0     0  0
 33 27  1  0     0  0
 34 28  1  0     0  0
  9 12  1  0     0  0
 17 22  1  0     0  0
 11 10  1  0     0  0
 18 21  1  0     0  0
M  END