
  SciTegic12201110432D

 26 25  0  0  0  0            999 V2000
   -3.2376   -1.6441    0.0000 N   0  0
   -3.2376   -0.8191    0.0000 C   0  0  2  0  0  0
   -3.9520   -0.4066    0.0000 C   0  0
   -4.6665   -0.8191    0.0000 O   0  0
   -3.9520    0.4184    0.0000 O   0  0
   -2.5231   -0.4066    0.0000 C   0  0
   -1.8086   -0.8191    0.0000 C   0  0
   -1.0941   -0.4066    0.0000 C   0  0
   -1.0941    0.4184    0.0000 O   0  0
   -0.3797   -0.8191    0.0000 N   0  0
    0.3348   -0.4066    0.0000 C   0  0  2  0  0  0
    0.3348    0.4184    0.0000 C   0  0
    1.0493    0.8309    0.0000 O   0  0
    1.0493   -0.8191    0.0000 C   0  0
    1.7637   -0.4066    0.0000 S   0  0
    2.4782   -0.8191    0.0000 C   0  0
    3.1927   -0.4066    0.0000 C   0  0
    3.9072   -0.8191    0.0000 C   0  0
    4.6216   -0.4066    0.0000 C   0  0
    5.3361   -0.8191    0.0000 C   0  0
    6.0506   -0.4066    0.0000 C   0  0
   -0.3797    0.8309    0.0000 N   0  0
   -0.3797    1.6559    0.0000 C   0  0
   -1.0941    2.0684    0.0000 C   0  0
   -1.8086    1.6559    0.0000 O   0  0
   -1.0941    2.8934    0.0000 O   0  0
  2  1  1  6
  3  2  1  0
  2  6  1  0
  3  4  2  0
  3  5  1  0
  6  7  1  0
  8  7  1  0
  8  9  2  0
  8 10  1  0
 11 10  1  6
 12 11  1  0
 11 14  1  0
 12 13  2  0
 12 22  1  0
 14 15  1  0
 16 15  1  0
 16 17  1  0
 17 18  1  0
 18 19  1  0
 19 20  1  0
 20 21  1  0
 23 22  1  0
 24 23  1  0
 24 25  2  0
 24 26  1  0
M  END