
          11280714552D 1   1.00000     0.00000     0

 40 44  0     0  0            999 V2000
    1.9417   -3.9000    0.0000 C   0  0  0  0  0  0           0  0  0
    3.3750   -3.9042    0.0000 C   0  0  0  0  0  0           0  0  0
    2.6542   -4.3167    0.0000 C   0  0  0  0  0  0           0  0  0
    1.9417   -3.0750    0.0000 C   0  0  0  0  0  0           0  0  0
    3.3750   -3.0750    0.0000 C   0  0  0  0  0  0           0  0  0
    2.6542   -2.6542    0.0000 O   0  0  0  0  0  0           0  0  0
    6.2167   -3.0875    0.0000 O   0  0  0  0  0  0           0  0  0
    1.2292   -2.6625    0.0000 C   0  0  0  0  0  0           0  0  0
    1.2292   -4.3167    0.0000 C   0  0  0  0  0  0           0  0  0
    6.9417   -2.6792    0.0000 C   0  0  3  0  0  0           0  0  0
    6.2292   -1.4375    0.0000 O   0  0  0  0  0  0           0  0  0
    5.5125   -2.6667    0.0000 C   0  0  0  0  0  0           0  0  0
    6.9417   -1.8542    0.0000 C   0  0  3  0  0  0           0  0  0
    4.0917   -2.6667    0.0000 C   0  0  0  0  0  0           0  0  0
    0.5167   -3.0750    0.0000 C   0  0  0  0  0  0           0  0  0
    0.5167   -3.9042    0.0000 C   0  0  0  0  0  0           0  0  0
    7.6500   -3.1042    0.0000 C   0  0  0  0  0  0           0  0  0
    5.5167   -1.8417    0.0000 C   0  0  0  0  0  0           0  0  0
    1.2250   -1.8375    0.0000 C   0  0  0  0  0  0           0  0  0
    4.8042   -3.0792    0.0000 C   0  0  0  0  0  0           0  0  0
    8.3667   -2.6917    0.0000 C   0  0  0  0  0  0           0  0  0
    9.0750   -3.1125    0.0000 C   0  0  0  0  0  0           0  0  0
    1.9417   -1.4250    0.0000 C   0  0  0  0  0  0           0  0  0
    2.6542   -5.1417    0.0000 O   0  0  0  0  0  0           0  0  0
    9.0667   -3.9417    0.0000 C   0  0  0  0  0  0           0  0  0
    4.0917   -1.8417    0.0000 C   0  0  0  0  0  0           0  0  0
    7.6417   -3.9292    0.0000 C   0  0  0  0  0  0           0  0  0
    4.0875   -4.3167    0.0000 O   0  0  0  0  0  0           0  0  0
    4.8042   -1.4292    0.0000 C   0  0  0  0  0  0           0  0  0
    1.9375   -0.6000    0.0000 C   0  0  0  0  0  0           0  0  0
    8.3500   -4.3417    0.0000 C   0  0  0  0  0  0           0  0  0
    1.2292   -5.1417    0.0000 O   0  0  0  0  0  0           0  0  0
   -0.1958   -2.6667    0.0000 O   0  0  0  0  0  0           0  0  0
    9.7917   -2.7042    0.0000 O   0  0  0  0  0  0           0  0  0
    7.6667   -1.4542    0.0000 C   0  0  0  0  0  0           0  0  0
    9.7792   -4.3542    0.0000 O   0  0  0  0  0  0           0  0  0
    8.3750   -1.8667    0.0000 O   0  0  0  0  0  0           0  0  0
    2.6500   -0.1792    0.0000 C   0  0  0  0  0  0           0  0  0
    1.2167   -0.1875    0.0000 C   0  0  0  0  0  0           0  0  0
   10.5000   -3.1250    0.0000 C   0  0  0  0  0  0           0  0  0
  2  3  1  0     0  0
  3  1  1  0     0  0
  4  1  1  0     0  0
  5  6  1  0     0  0
  6  4  1  0     0  0
  7 12  1  0     0  0
  8  4  2  0     0  0
  9  1  2  0     0  0
 10  7  1  0     0  0
 11 18  1  0     0  0
 12 20  1  0     0  0
 13 11  1  0     0  0
 14  5  1  0     0  0
 15 16  2  0     0  0
 16  9  1  0     0  0
 17 10  1  0     0  0
 18 29  1  0     0  0
 19  8  1  0     0  0
 20 14  2  0     0  0
 21 17  1  0     0  0
 22 21  2  0     0  0
 23 19  1  0     0  0
 24  3  2  0     0  0
 25 31  2  0     0  0
 26 14  1  0     0  0
 27 17  2  0     0  0
 28  2  1  0     0  0
 29 26  2  0     0  0
 30 23  2  0     0  0
 31 27  1  0     0  0
 32  9  1  0     0  0
 33 15  1  0     0  0
 34 22  1  0     0  0
 35 13  1  0     0  0
 36 25  1  0     0  0
 37 35  1  0     0  0
 38 30  1  0     0  0
 39 30  1  0     0  0
 40 34  1  0     0  0
 15  8  1  0     0  0
  5  2  2  0     0  0
 18 12  2  0     0  0
 13 10  1  0     0  0
 25 22  1  0     0  0
M  END