
  SciTegic07221113202D

 30 31  0  0  0  0            999 V2000
    1.4143  -18.1205    0.0000 C   0  0
    2.2393  -18.1205    0.0000 C   0  0
    1.0018  -18.8350    0.0000 C   0  0
    2.6518  -18.8350    0.0000 C   0  0
    3.4768  -18.8350    0.0000 O   0  0
    2.2393  -19.5495    0.0000 O   0  0
    0.1768  -18.8350    0.0000 O   0  0
    1.4143  -19.5495    0.0000 O   0  0
    6.4922  -22.2605    0.0000 N   0  0
    5.7360  -22.5929    0.0000 C   0  0
    3.5989  -22.1804    0.0000 C   0  0
    4.3094  -22.5929    0.0000 N   0  0
    6.6125  -23.5897    0.0000 N   0  0
    7.0364  -22.8793    0.0000 C   0  0
    2.8828  -22.5929    0.0000 C   0  0
    5.8219  -23.4179    0.0000 C   0  0
    3.5875  -21.3554    0.0000 O   0  0
    5.0255  -22.1804    0.0000 C   0  0
    2.1610  -22.1804    0.0000 C   0  0
    2.8828  -23.4179    0.0000 C   0  0
    2.1610  -21.3554    0.0000 C   0  0
    1.4563  -22.5929    0.0000 C   0  0
    2.1781  -23.8304    0.0000 C   0  0
    3.5989  -23.8304    0.0000 C   0  0
    0.7458  -22.1918    0.0000 C   0  0
    1.4563  -20.9429    0.0000 C   0  0
    3.5989  -24.6554    0.0000 C   0  0
    2.1781  -24.6554    0.0000 C   0  0
    2.8828  -25.0679    0.0000 C   0  0
    0.7344  -21.3554    0.0000 C   0  0
  1  2  2  0
  1  3  1  0
  2  4  1  0
  4  5  2  0
  4  6  1  0
  3  7  1  0
  3  8  2  0
 10  9  1  0
 11 12  1  0
 12 18  1  0
 13 14  1  0
 14  9  2  0
 15 11  1  0
 16 10  2  0
 17 11  2  0
 18 10  1  0
 19 15  1  0
 20 15  1  0
 21 19  2  0
 22 19  1  0
 23 20  1  0
 24 20  1  0
 25 22  2  0
 26 21  1  0
 27 24  1  0
 28 23  1  0
 29 27  1  0
 30 25  1  0
 13 16  1  0
 29 28  1  0
 30 26  2  0
M  END