
  SciTegic01161211252D

 45 48  0  0  0  0            999 V2000
    9.3524   -5.5554    0.0000 N   0  0
   10.6833   -5.5840    0.0000 N   0  0
   10.0028   -6.0493    0.0000 C   0  0
   10.4493   -4.7908    0.0000 C   0  0
    9.6230   -4.7780    0.0000 C   0  0
    9.2233   -4.0506    0.0000 N   0  0
    9.6471   -3.3552    0.0000 C   0  0
   10.4777   -3.3646    0.0000 N   0  0
   10.8758   -4.0846    0.0000 C   0  0
   11.7000   -4.0962    0.0000 N   0  0
    4.1970   -3.1466    0.0000 C   0  0
    5.0192   -3.1589    0.0000 C   0  0
    5.4261   -3.8755    0.0000 C   0  0
    5.0043   -4.5795    0.0000 C   0  0
    4.1794   -4.5713    0.0000 C   0  0
    3.7787   -3.8543    0.0000 C   0  0
    2.9538   -3.8447    0.0000 O   0  0
    3.7590   -5.2824    0.0000 C   0  0
    4.1639   -6.0014    0.0000 N   0  0
    2.9387   -5.2755    0.0000 O   0  0
    4.9956   -6.0116    0.0000 S   0  0
    5.8163   -6.0191    0.0000 O   0  0
    5.0031   -5.1813    0.0000 O   0  0
    4.9883   -6.8417    0.0000 O   0  0
    6.4513   -5.4810    0.0000 C   0  0
    7.2405   -5.7612    0.0000 C   0  0  2  0  0  0
    7.9254   -5.2965    0.0000 O   0  0
    8.5706   -5.8074    0.0000 C   0  0  2  0  0  0
    8.2822   -6.5841    0.0000 C   0  0  2  0  0  0
    7.4556   -6.5470    0.0000 C   0  0  1  0  0  0
    6.9389   -7.1946    0.0000 O   0  0
    8.7428   -7.2820    0.0000 O   0  0
    9.2442   -2.6331    0.0000 C   0  0
    8.4191   -2.6246    0.0000 C   0  0
    8.0206   -1.9033    0.0000 C   0  0
    8.4431   -1.1940    0.0000 C   0  0
    9.2724   -1.2103    0.0000 C   0  0
    9.6715   -1.9321    0.0000 C   0  0
    2.7105   -8.7770    0.0000 N   0  0
    3.4250   -8.3645    0.0000 C   0  0
    4.1394   -8.7770    0.0000 C   0  0
    2.7105   -9.6020    0.0000 C   0  0
    1.9960  -10.0145    0.0000 C   0  0
    1.9960   -8.3645    0.0000 C   0  0
    1.9960   -7.5395    0.0000 C   0  0
  9 10  1  0
 21 22  1  0
  4  5  2  0
 21 23  2  0
  4  2  1  0
 21 24  2  0
 11 12  2  0
 22 25  1  0
  5  6  1  0
 26 25  1  1
 26 27  1  0
 12 13  1  0
  2  3  2  0
 13 14  2  0
  6  7  2  0
 27 28  1  0
 28 29  1  0
 29 30  1  0
 30 26  1  0
 28  1  1  1
 14 15  1  0
 30 31  1  6
  3  1  1  0
 29 32  1  6
 15 16  2  0
  7 33  1  0
 16 11  1  0
 33 34  2  0
  7  8  1  0
 34 35  1  0
 16 17  1  0
 35 36  2  0
  1  5  1  0
 36 37  1  0
 15 18  1  0
 37 38  2  0
 38 33  1  0
  8  9  2  0
 18 19  1  0
  9  4  1  0
 18 20  2  0
 19 21  1  0
 39 42  1  0
 39 44  1  0
 39 40  1  0
 40 41  1  0
 42 43  1  0
 44 45  1  0
M  END