
  SciTegic12231509382D

  6  6  0  0  0  0            999 V2000
    3.2484    0.8250    0.0000 N   0  0
    3.9629    0.4125    0.0000 C   0  0
    2.5339    0.4125    0.0000 C   0  0
    3.9629   -0.4125    0.0000 C   0  0
    2.5339   -0.4125    0.0000 C   0  0
    3.2484   -0.8250    0.0000 C   0  0
  1  2  2  0
  1  3  1  0
  2  4  1  0
  3  5  2  0
  4  6  2  0
  5  6  1  0
M  END