
  CDK    9/16/09,9:50

 22 25  0  0  0  0  0  0  0  0999 V2000
   13.3939  -23.7343    0.0000 C   0  0  0  0  0  0  0  0  0  0  0  0
   13.3927  -24.5618    0.0000 C   0  0  0  0  0  0  0  0  0  0  0  0
   14.1055  -24.9747    0.0000 N   0  0  0  0  0  0  0  0  0  0  0  0
   14.1036  -23.3216    0.0000 C   0  0  0  0  0  0  0  0  0  0  0  0
   14.8217  -23.7303    0.0000 C   0  0  0  0  0  0  0  0  0  0  0  0
   14.8222  -24.5618    0.0000 C   0  0  0  0  0  0  0  0  0  0  0  0
   15.6132  -24.8183    0.0000 N   0  0  0  0  0  0  0  0  0  0  0  0
   16.1016  -24.1452    0.0000 N   0  0  0  0  0  0  0  0  0  0  0  0
   15.6124  -23.4729    0.0000 C   0  0  0  0  0  0  0  0  0  0  0  0
   15.8667  -22.6882    0.0000 N   0  0  0  0  0  0  0  0  0  0  0  0
   16.6735  -22.5162    0.0000 C   0  0  0  0  0  0  0  0  0  0  0  0
   16.9278  -21.7315    0.0000 C   0  0  0  0  0  0  0  0  0  0  0  0
   17.2259  -23.1288    0.0000 O   0  0  0  0  0  0  0  0  0  0  0  0
   12.6804  -24.9714    0.0000 C   0  0  0  0  0  0  0  0  0  0  0  0
   11.9664  -24.5562    0.0000 C   0  0  0  0  0  0  0  0  0  0  0  0
   11.2518  -24.9669    0.0000 C   0  0  0  0  0  0  0  0  0  0  0  0
   11.2502  -25.7927    0.0000 C   0  0  0  0  0  0  0  0  0  0  0  0
   11.9690  -26.2060    0.0000 C   0  0  0  0  0  0  0  0  0  0  0  0
   12.6805  -25.7929    0.0000 C   0  0  0  0  0  0  0  0  0  0  0  0
   17.5349  -21.1782    0.0000 C   0  0  0  0  0  0  0  0  0  0  0  0
   16.7502  -20.9239    0.0000 C   0  0  0  0  0  0  0  0  0  0  0  0
   11.9708  -27.0309    0.0000 O   0  0  0  0  0  0  0  0  0  0  0  0
  5  6  1  0  0  0  0 
 10 11  1  0  0  0  0 
 11 12  1  0  0  0  0 
  2  3  1  0  0  0  0 
 11 13  2  0  0  0  0 
  3  6  2  0  0  0  0 
  1  2  2  0  0  0  0 
 14 15  2  0  0  0  0 
  5  4  2  0  0  0  0 
 15 16  1  0  0  0  0 
  6  7  1  0  0  0  0 
 16 17  2  0  0  0  0 
  7  8  1  0  0  0  0 
 17 18  1  0  0  0  0 
  8  9  2  0  0  0  0 
 18 19  2  0  0  0  0 
 19 14  1  0  0  0  0 
  2 14  1  0  0  0  0 
 20 12  1  0  0  0  0 
 21 20  1  0  0  0  0 
 12 21  1  0  0  0  0 
  9  5  1  0  0  0  0 
  4  1  1  0  0  0  0 
  9 10  1  0  0  0  0 
 18 22  1  0  0  0  0 
M  END