
          11280714512D 1   1.00000     0.00000     0

 33 37  0     0  0            999 V2000
    0.5542   -2.4250    0.0000 C   0  0  0  0  0  0           0  0  0
    1.2167   -1.9417    0.0000 N   0  0  0  0  0  0           0  0  0
    1.8917   -2.4250    0.0000 C   0  0  0  0  0  0           0  0  0
    0.2917   -1.7500    0.0000 C   0  0  3  0  0  0           0  0  0
    0.4417   -1.0625    0.0000 C   0  0  3  0  0  0           0  0  0
   -1.0208   -1.8292    0.0000 C   0  0  3  0  0  0           0  0  0
    2.5542   -2.1500    0.0000 C   0  0  0  0  0  0           0  0  0
   -0.6833   -2.6250    0.0000 O   0  0  0  0  0  0           0  0  0
    0.8042   -3.2125    0.0000 O   0  0  0  0  0  0           0  0  0
   -0.3458   -1.2875    0.0000 C   0  0  3  0  0  0           0  0  0
    1.6292   -3.2125    0.0000 C   0  0  0  0  0  0           0  0  0
    0.9167   -1.5375    0.0000 C   0  0  0  0  0  0           0  0  0
    3.2042   -2.5542    0.0000 N   0  0  0  0  0  0           0  0  0
    1.3917   -1.0625    0.0000 C   0  0  0  0  0  0           0  0  0
   -0.9375    0.4125    0.0000 C   0  0  0  0  0  0           0  0  0
   -1.2958   -1.2917    0.0000 C   0  0  0  0  0  0           0  0  0
    2.6417   -1.4000    0.0000 O   0  0  0  0  0  0           0  0  0
   -0.8208   -0.8125    0.0000 C   0  0  0  0  0  0           0  0  0
    0.9542   -0.3542    0.0000 C   0  0  0  0  0  0           0  0  0
   -1.7375    0.2000    0.0000 O   0  0  0  0  0  0           0  0  0
    0.3667    0.2333    0.0000 C   0  0  0  0  0  0           0  0  0
   -0.3458   -0.1792    0.0000 C   0  0  0  0  0  0           0  0  0
   -0.7208    1.2125    0.0000 O   0  0  0  0  0  0           0  0  0
    3.9417   -2.1917    0.0000 C   0  0  3  0  0  0           0  0  0
    2.2167   -1.0375    0.0000 C   0  0  0  0  0  0           0  0  0
    1.3542    0.3750    0.0000 C   0  0  0  0  0  0           0  0  0
    4.6292   -2.6542    0.0000 C   0  0  0  0  0  0           0  0  0
    3.9917   -1.3667    0.0000 C   0  0  0  0  0  0           0  0  0
    2.6167   -0.3125    0.0000 C   0  0  0  0  0  0           0  0  0
    2.1792    0.3875    0.0000 C   0  0  0  0  0  0           0  0  0
    4.7375   -1.0042    0.0000 C   0  0  0  0  0  0           0  0  0
    5.3667   -2.2917    0.0000 C   0  0  0  0  0  0           0  0  0
    5.4250   -1.4667    0.0000 C   0  0  0  0  0  0           0  0  0
  2  1  2  0     0  0
  3  2  1  0     0  0
  4  1  1  0     0  0
  5  4  1  0     0  0
  6  4  1  0     0  0
  7  3  1  0     0  0
  8  6  1  0     0  0
  9  1  1  0     0  0
 10  5  1  0     0  0
 11  9  1  0     0  0
 12  5  1  0     0  0
 13  7  1  0     0  0
 14 12  1  0     0  0
 15 22  1  0     0  0
 16  6  1  0     0  0
 17  7  2  0     0  0
 18 16  1  0     0  0
 19 14  2  0     0  0
 20 15  2  0     0  0
 21 19  1  0     0  0
 22 21  1  0     0  0
 23 15  1  0     0  0
 24 13  1  0     0  0
 25 14  1  0     0  0
 26 19  1  0     0  0
 27 24  1  0     0  0
 28 24  1  0     0  0
 29 25  2  0     0  0
 30 29  1  0     0  0
 31 28  1  0     0  0
 32 27  1  0     0  0
 33 31  1  0     0  0
 11  3  2  0     0  0
 10  8  1  0     0  0
 10 18  1  0     0  0
 30 26  2  0     0  0
 33 32  1  0     0  0
M  END