
  SciTegic10311316262D

 38 42  0  0  0  0            999 V2000
   19.0129  -29.9163    0.0000 C   0  0  2  0  0  0
   19.0050  -31.2537    0.0000 N   0  0
   19.4917  -30.5879    0.0000 C   0  0
   19.8431  -29.9140    0.0000 C   0  0  1  0  0  0
   20.0988  -29.1290    0.0000 N   0  0
   19.4282  -28.6443    0.0000 C   0  0  2  0  0  0
   18.7662  -29.1288    0.0000 C   0  0  2  0  0  0
   17.9544  -28.9780    0.0000 C   0  0
   17.6805  -28.1997    0.0000 C   0  0
   16.8695  -28.0487    0.0000 C   0  0
   16.3341  -28.6773    0.0000 C   0  0
   16.6113  -29.4595    0.0000 C   0  0
   17.4216  -29.6068    0.0000 C   0  0
   18.2204  -27.5768    0.0000 F   0  0
   16.5966  -27.2696    0.0000 Cl  0  0
   18.2211  -30.9952    0.0000 C   0  0
   18.2287  -30.1736    0.0000 C   0  0
   17.5216  -29.7559    0.0000 C   0  0
   16.8064  -30.1628    0.0000 C   0  0
   16.8026  -30.9875    0.0000 C   0  0
   17.5105  -31.3974    0.0000 C   0  0
   16.0853  -31.3953    0.0000 Cl  0  0
   20.3174  -30.5927    0.0000 O   0  0
   20.6647  -29.9140    0.0000 C   0  0
   21.0755  -30.6297    0.0000 C   0  0
   21.9013  -30.6297    0.0000 C   0  0
   20.6648  -31.3454    0.0000 C   0  0
   21.4863  -31.3415    0.0000 C   0  0
   19.4269  -27.8185    0.0000 C   0  0
   20.1419  -27.4024    0.0000 N   0  0
   18.7105  -27.4047    0.0000 O   0  0
   20.1407  -26.5767    0.0000 C   0  0  2  0  0  0
   20.8562  -26.1705    0.0000 C   0  0
   20.8569  -25.3484    0.0000 C   0  0
   20.1425  -24.9307    0.0000 C   0  0  2  0  0  0
   19.4255  -25.3455    0.0000 C   0  0
   19.4232  -26.1738    0.0000 C   0  0
   20.1443  -24.1049    0.0000 O   0  0
  1 17  1  0
 16  2  1  0
  2  3  1  0
  1  3  1  1
  1  4  1  0
  4  5  1  0
  5  6  1  0
  6  7  1  0
  7  1  1  0
  7  8  1  1
  8  9  2  0
  9 10  1  0
 10 11  2  0
 11 12  1  0
 12 13  2  0
 13  8  1  0
  9 14  1  0
 10 15  1  0
 16 17  2  0
 17 18  1  0
 18 19  2  0
 19 20  1  0
 20 21  2  0
 21 16  1  0
 20 22  1  0
  3 23  2  0
  4 24  1  1
 24 25  1  0
 25 26  1  0
 25 27  1  0
 25 28  1  0
  6 29  1  6
 29 30  1  0
 29 31  2  0
 32 30  1  1
 32 33  1  0
 32 37  1  0
 33 34  1  0
 34 35  1  0
 35 36  1  0
 36 37  1  0
 35 38  1  6
M  END