
          11280714552D 1   1.00000     0.00000     0

 28 29  0     0  0            999 V2000
    6.1125   -5.5000    0.0000 N   0  0  0  0  0  0           0  0  0
    4.0375   -5.5125    0.0000 O   0  0  0  0  0  0           0  0  0
    5.0750   -5.5042    0.0000 C   0  0  3  0  0  0           0  0  0
    4.0417   -6.1125    0.0000 C   0  0  0  0  0  0           0  0  0
    5.5917   -5.2042    0.0000 C   0  0  0  0  0  0           0  0  0
    8.2042   -7.2667    0.0000 C   0  0  0  0  0  0           0  0  0
    4.5542   -5.2042    0.0000 C   0  0  0  0  0  0           0  0  0
    4.0500   -7.3042    0.0000 C   0  0  0  0  0  0           0  0  0
    8.7167   -6.9625    0.0000 F   0  0  0  0  0  0           0  0  0
    7.1750   -7.8792    0.0000 C   0  0  0  0  0  0           0  0  0
    3.5250   -6.4167    0.0000 C   0  0  0  0  0  0           0  0  0
    4.5542   -6.4042    0.0000 C   0  0  0  0  0  0           0  0  0
    7.6792   -6.9750    0.0000 C   0  0  0  0  0  0           0  0  0
    8.2125   -7.8667    0.0000 C   0  0  0  0  0  0           0  0  0
    3.5292   -7.0167    0.0000 C   0  0  0  0  0  0           0  0  0
    4.5625   -7.0042    0.0000 C   0  0  0  0  0  0           0  0  0
    7.1625   -7.2792    0.0000 C   0  0  0  0  0  0           0  0  0
    7.6917   -8.1750    0.0000 C   0  0  0  0  0  0           0  0  0
    5.0792   -6.1042    0.0000 O   0  0  0  0  0  0           0  0  0
    4.0542   -7.9042    0.0000 O   0  0  0  0  0  0           0  0  0
    6.6292   -5.1917    0.0000 C   0  0  3  0  0  0           0  0  0
    5.6167   -8.1917    0.0000 O   0  0  0  0  0  0           0  0  0
    6.6542   -8.1792    0.0000 C   0  0  0  0  0  0           0  0  0
    4.5792   -8.2042    0.0000 C   0  0  0  0  0  0           0  0  0
    6.1292   -7.8875    0.0000 C   0  0  0  0  0  0           0  0  0
    5.0917   -7.9000    0.0000 C   0  0  0  0  0  0           0  0  0
    6.6250   -4.5917    0.0000 C   0  0  0  0  0  0           0  0  0
    7.1542   -5.4917    0.0000 C   0  0  0  0  0  0           0  0  0
  2  7  1  0     0  0
  3  5  1  0     0  0
  4  2  1  0     0  0
  5  1  1  0     0  0
  6 14  2  0     0  0
  7  3  1  0     0  0
  8 16  1  0     0  0
  9  6  1  0     0  0
 10 23  1  0     0  0
 11  4  2  0     0  0
 12  4  1  0     0  0
 13 17  2  0     0  0
 14 18  1  0     0  0
 15 11  1  0     0  0
 16 12  2  0     0  0
 17 10  1  0     0  0
 18 10  2  0     0  0
 19  3  1  0     0  0
 20  8  1  0     0  0
 21  1  1  0     0  0
 22 26  1  0     0  0
 23 25  1  0     0  0
 24 20  1  0     0  0
 25 22  1  0     0  0
 26 24  1  0     0  0
 27 21  1  0     0  0
 28 21  1  0     0  0
  8 15  2  0     0  0
  6 13  1  0     0  0
M  END