
  SciTegic06011109532D

157164  0  0  0  0            999 V2000
    3.3466  -13.9082    0.0000 C   0  0  2  0  0  0
    4.0613  -15.1478    0.0000 O   0  0
    4.0519  -14.3178    0.0000 C   0  0
    3.3446  -13.0928    0.0000 C   0  0
    4.0490  -11.8523    0.0000 C   0  0
    4.0503  -12.6778    0.0000 C   0  0
    4.7622  -13.0895    0.0000 C   0  0
    5.4812  -12.6665    0.0000 C   0  0
    5.4799  -11.8368    0.0000 C   0  0
    4.7552  -11.4264    0.0000 C   0  0
    5.4795  -14.3117    0.0000 C   0  0  2  0  0  0
    6.2016  -13.0729    0.0000 O   0  0
    6.2061  -13.8948    0.0000 C   0  0
    5.4891  -15.1361    0.0000 C   0  0
    6.2094  -15.5596    0.0000 C   0  0
    2.6305  -14.3253    0.0000 N   0  0
    4.7772  -13.9013    0.0000 N   0  0
    6.2038  -16.3970    0.0000 O   0  0
    6.9350  -15.1436    0.0000 O   0  0
    8.3108  -19.3475    0.0000 C   0  0  2  0  0  0
    7.5950  -18.1058    0.0000 O   0  0
    7.5950  -18.9308    0.0000 C   0  0
    8.3108  -20.1725    0.0000 C   0  0
    9.0260  -18.9362    0.0000 N   0  0
   10.4545  -18.1074    0.0000 C   0  0
   10.4545  -18.9336    0.0000 C   0  0  1  0  0  0
    9.7746  -15.1495    0.0000 C   0  0
    9.0415  -15.5628    0.0000 C   0  0  2  0  0  0
    9.0361  -16.3941    0.0000 C   0  0
    9.7565  -16.8235    0.0000 S   0  0
    9.7480  -17.6692    0.0000 S   0  0
   12.5985  -15.2033    0.0000 C   0  0
   11.1823  -14.3609    0.0000 C   0  0
   10.4598  -13.9390    0.0000 C   0  0  2  0  0  0
    9.7367  -19.3475    0.0000 C   0  0
    9.7364  -20.1694    0.0000 O   0  0
   10.4945  -15.5473    0.0000 O   0  0
   12.6069  -14.3820    0.0000 C   0  0  2  0  0  0
   10.4704  -13.1145    0.0000 C   0  0
   11.1731  -15.1876    0.0000 O   0  0
   13.3185  -13.9767    0.0000 C   0  0
   13.3293  -13.1522    0.0000 C   0  0
   11.8795  -15.6099    0.0000 O   0  0
   11.1642  -20.1793    0.0000 C   0  0
   10.4485  -20.5853    0.0000 O   0  0
   11.8778  -20.5896    0.0000 C   0  0  2  0  0  0
   11.8692  -21.4205    0.0000 C   0  0
   11.1523  -21.8311    0.0000 C   0  0
   13.3007  -20.5980    0.0000 C   0  0
   13.2985  -21.4248    0.0000 O   0  0
   14.0257  -19.3669    0.0000 N   0  0
   14.0241  -20.1880    0.0000 C   0  0  1  0  0  0
   14.8078  -20.4433    0.0000 C   0  0
   15.2958  -19.7833    0.0000 C   0  0
   14.8093  -19.1119    0.0000 C   0  0
   13.3062  -18.9603    0.0000 C   0  0
   13.3025  -18.1357    0.0000 C   0  0  2  0  0  0
   12.5964  -19.3699    0.0000 O   0  0
   12.5913  -17.7249    0.0000 C   0  0
   11.8755  -18.1387    0.0000 C   0  0
   11.1620  -17.7279    0.0000 C   0  0
   11.8769  -18.9633    0.0000 C   0  0
   14.0128  -16.8910    0.0000 C   0  0
   13.2975  -16.4843    0.0000 O   0  0
   14.7268  -16.4730    0.0000 C   0  0  1  0  0  0
   15.4371  -15.2366    0.0000 C   0  0
   15.4292  -14.4056    0.0000 C   0  0  2  0  0  0
   16.1524  -15.6432    0.0000 O   0  0
   16.1473  -13.9877    0.0000 C   0  0
   16.1437  -13.1673    0.0000 C   0  0
   16.8585  -14.4027    0.0000 C   0  0
   14.0241  -21.0126    0.0000 H   0  0
   11.1686  -19.3525    0.0000 N   0  0
    9.7434  -14.3536    0.0000 N   0  0
   11.8964  -13.9561    0.0000 N   0  0
   12.5935  -20.1836    0.0000 N   0  0
   14.0207  -17.7155    0.0000 N   0  0
   14.7395  -15.6423    0.0000 N   0  0
    9.7473  -12.6937    0.0000 C   0  0
    9.7539  -11.8583    0.0000 O   0  0
   10.4778  -21.3639    0.0000 C   0  0
   10.9202  -22.6253    0.0000 N   0  0
   10.0975  -22.6439    0.0000 C   0  0
   13.3126  -15.6253    0.0000 N   0  0
    8.3328  -15.1480    0.0000 N   0  0
    9.0218  -13.1041    0.0000 N   0  0
    9.8241  -21.8656    0.0000 N   0  0
   14.0062  -12.6814    0.0000 C   0  0
   13.7620  -11.8948    0.0000 N   0  0
    6.8791  -19.3475    0.0000 N   0  0
   15.4393  -16.8888    0.0000 C   0  0  1  0  0  0
   15.4355  -17.7138    0.0000 C   0  0
   16.1557  -16.4796    0.0000 O   0  0
   14.7208  -17.2958    0.0000 H   0  0
    9.0253  -20.5850    0.0000 C   0  0
    9.0253  -21.4100    0.0000 C   0  0
    8.3108  -21.8225    0.0000 C   0  0
    8.3108  -22.6475    0.0000 N   0  0
    9.0253  -23.0600    0.0000 C   0  0
    9.0253  -23.8850    0.0000 C   0  0
    9.7398  -22.6475    0.0000 O   0  0
    8.3377  -14.3230    0.0000 C   0  0
    7.6256  -13.9063    0.0000 C   0  0  2  0  0  0
    9.0546  -13.9147    0.0000 O   0  0
    7.6305  -13.0813    0.0000 C   0  0
    6.9185  -12.6646    0.0000 C   0  0
    8.3474  -12.6730    0.0000 C   0  0
    6.9088  -14.3146    0.0000 N   0  0
    1.9145  -13.9155    0.0000 C   0  0
    1.2016  -14.3308    0.0000 C   0  0
    1.9113  -13.0905    0.0000 O   0  0
    6.1632  -18.9375    0.0000 C   0  0  1  0  0  0
    5.4502  -19.3525    0.0000 C   0  0
    6.1603  -18.1125    0.0000 C   0  0
    6.8733  -17.6975    0.0000 O   0  0
    5.4444  -17.7025    0.0000 N   0  0
    5.4531  -20.1775    0.0000 C   0  0
    4.7400  -20.5925    0.0000 C   0  0
    4.7429  -21.4175    0.0000 C   0  0
    4.0299  -21.8325    0.0000 N   0  0
    4.7313  -18.1175    0.0000 C   0  0  2  0  0  0
    4.0154  -17.7075    0.0000 C   0  0
    4.7342  -18.9425    0.0000 C   0  0
    4.0212  -19.3575    0.0000 C   0  0
    4.0241  -20.1825    0.0000 S   0  0
    3.3111  -20.5975    0.0000 C   0  0
    3.3024  -18.1225    0.0000 N   0  0
    4.0125  -16.8825    0.0000 O   0  0
    4.0328  -22.6575    0.0000 C   0  0
    3.3198  -23.0725    0.0000 C   0  0
    4.7487  -23.0675    0.0000 O   0  0
    2.6039  -22.6625    0.0000 O   0  0
    1.8909  -23.0775    0.0000 C   0  0
    1.1750  -22.6675    0.0000 C   0  0
    0.4619  -23.0825    0.0000 N   0  0
    1.1721  -21.8425    0.0000 O   0  0
   -0.2540  -22.6725    0.0000 C   0  0
   -0.2539  -21.8482    0.0000 C   0  0
   -0.9690  -21.4383    0.0000 C   0  0
   -1.6830  -21.8533    0.0000 C   0  0
   -1.6774  -22.6826    0.0000 C   0  0
   -0.9618  -23.0888    0.0000 C   0  0
   -2.3994  -21.4443    0.0000 C   0  0
   -2.4034  -20.6193    0.0000 C   0  0
   -3.1199  -20.2103    0.0000 C   0  0
   -3.1239  -19.3853    0.0000 O   0  0
   -3.8324  -20.6262    0.0000 N   0  0
   -4.6298  -20.4203    0.0000 C   0  0
   -4.8395  -21.2182    0.0000 C   0  0
   -4.0416  -21.4279    0.0000 C   0  0
   -5.0473  -19.7087    0.0000 O   0  0
   12.6716  -12.6639    0.0000 C   0  0
   12.9385  -11.8841    0.0000 C   0  0
   12.3970  -11.2651    0.0000 C   0  0
   11.5887  -11.4248    0.0000 C   0  0
   11.3246  -12.2089    0.0000 C   0  0
   11.8678  -12.8245    0.0000 C   0  0
 69 71  1  0
 67 84  1  0
 52 72  1  6
 39 79  1  0
 79 80  2  0
 79 86  1  0
 48 81  2  0
 81 87  1  0
 87 83  2  0
 82 48  1  0
 82 83  1  0
 17 11  1  0
 15 18  2  0
  1  3  1  0
 42 88  2  0
 15 19  1  0
  3  2  2  0
 88 89  1  0
152 42  1  0
  1  4  1  0
  4  6  1  0
153 89  1  0
  5  6  2  0
 22 90  1  0
 20 22  1  0
 22 21  2  0
 35 24  1  0
 20 23  1  1
  6  7  1  0
 65 91  1  0
 20 24  1  0
 91 92  1  0
  7  8  2  0
 91 93  1  6
  8  9  1  0
 65 94  1  6
  9 10  2  0
 23 95  1  0
 10  5  1  0
 95 96  1  0
 11 13  1  0
 96 97  1  0
 13 12  2  0
 97 98  1  0
 11 14  1  6
 98 99  1  0
 14 15  1  0
 99100  1  0
  1 16  1  1
 99101  2  0
  3 17  1  0
 85102  1  0
 25 26  1  0
102103  1  0
 26 73  1  0
102104  2  0
 27 28  1  0
103105  1  0
 28 29  1  0
105106  1  0
 29 30  1  0
105107  1  0
 31 30  1  0
103108  1  1
108 13  1  0
 32 84  1  0
 16109  1  0
 75 33  1  0
109110  1  0
 32 38  1  0
109111  2  0
 34 74  1  0
 90112  1  0
 33 34  1  0
112113  1  1
 74 27  1  0
112114  1  0
 31 25  1  0
114115  2  0
 26 35  1  6
114116  1  0
 35 36  2  0
113117  1  0
 28 85  1  6
117118  1  0
 27 37  2  0
118119  1  0
 75 38  1  0
119120  1  0
 34 39  1  1
116121  1  0
 33 40  2  0
121122  1  0
 38 41  1  1
121123  1  1
 41 42  1  0
123124  1  0
 32 43  2  0
124125  1  0
 73 44  1  0
125126  1  0
 44 45  2  0
122127  1  0
 44 46  1  0
122128  2  0
 46 47  1  1
120129  1  0
 46 76  1  0
129130  1  0
 47 48  1  0
129131  2  0
 76 49  1  0
130132  1  0
 52 49  1  0
132133  1  0
 49 50  2  0
133134  1  0
 51 52  1  0
134135  1  0
 52 53  1  0
134136  2  0
 53 54  1  0
135137  1  0
 54 55  1  0
137138  2  0
 55 51  1  0
138139  1  0
 51 56  1  0
139140  2  0
 56 57  1  0
140141  1  0
 56 58  2  0
141142  2  0
142137  1  0
 57 77  1  0
140143  1  0
 57 59  1  6
143144  1  0
 59 60  1  0
144145  1  0
 60 61  1  0
145146  2  0
 60 62  1  0
145147  1  0
147148  1  0
 77 63  1  0
 63 64  2  0
 63 65  1  0
148149  1  0
149150  1  0
150147  1  0
 65 78  1  0
148151  2  0
 78 66  1  0
152153  2  0
 66 67  1  0
153154  1  0
 66 68  2  0
154155  2  0
 67 69  1  1
155156  1  0
 69 70  1  0
156157  2  0
157152  1  0
M  END