
          11280714452D 1   1.00000     0.00000     0

 34 38  0     0  0            999 V2000
   -2.0458   -0.9875    0.0000 C   0  0  0  0  0  0           0  0  0
   -2.8125   -1.2917    0.0000 N   0  0  3  0  0  0           0  0  0
   -1.5208   -1.6250    0.0000 N   0  0  3  0  0  0           0  0  0
   -2.7625   -2.1125    0.0000 C   0  0  0  0  0  0           0  0  0
   -1.9708   -2.3167    0.0000 C   0  0  0  0  0  0           0  0  0
   -0.4708    2.0208    0.0000 C   0  0  0  0  0  0           0  0  0
   -1.6958    1.5000    0.0000 N   0  0  0  0  0  0           0  0  0
   -0.8875    1.3208    0.0000 N   0  0  0  0  0  0           0  0  0
   -1.7708    2.3083    0.0000 N   0  0  0  0  0  0           0  0  0
   -1.0208    2.6458    0.0000 N   0  0  0  0  0  0           0  0  0
    0.3542    2.0708    0.0000 C   0  0  0  0  0  0           0  0  0
    0.8042    1.3708    0.0000 C   0  0  0  0  0  0           0  0  0
   -0.3958    0.5875    0.0000 N   0  0  0  0  0  0           0  0  0
   -0.6958   -1.5792    0.0000 C   0  0  0  0  0  0           0  0  0
    0.4292    0.6375    0.0000 C   0  0  0  0  0  0           0  0  0
   -1.8333   -0.1875    0.0000 O   0  0  0  0  0  0           0  0  0
   -3.5250   -0.8792    0.0000 C   0  0  0  0  0  0           0  0  0
   -0.3208   -0.8417    0.0000 C   0  0  0  0  0  0           0  0  0
   -0.7708   -0.1500    0.0000 C   0  0  0  0  0  0           0  0  0
    0.8792   -0.0667    0.0000 C   0  0  0  0  0  0           0  0  0
    0.5042   -0.8000    0.0000 C   0  0  0  0  0  0           0  0  0
   -1.6708   -3.1000    0.0000 C   0  0  0  0  0  0           0  0  0
    0.7292    2.8083    0.0000 C   0  0  0  0  0  0           0  0  0
    1.6292    1.4208    0.0000 C   0  0  0  0  0  0           0  0  0
   -3.5250   -0.0500    0.0000 C   0  0  0  0  0  0           0  0  0
   -4.2458   -1.2917    0.0000 C   0  0  0  0  0  0           0  0  0
   -0.8458   -3.2292    0.0000 C   0  0  0  0  0  0           0  0  0
   -0.5458   -3.9917    0.0000 C   0  0  0  0  0  0           0  0  0
    1.5542    2.8583    0.0000 C   0  0  0  0  0  0           0  0  0
    2.0042    2.1500    0.0000 C   0  0  0  0  0  0           0  0  0
    0.2750   -4.1167    0.0000 C   0  0  0  0  0  0           0  0  0
   -4.9583   -0.8792    0.0000 C   0  0  0  0  0  0           0  0  0
   -4.2458    0.3625    0.0000 C   0  0  0  0  0  0           0  0  0
   -4.9583   -0.0500    0.0000 C   0  0  0  0  0  0           0  0  0
  2  1  1  0     0  0
  3  1  1  0     0  0
  4  2  1  0     0  0
  5  3  1  0     0  0
  6 11  1  0     0  0
  7  8  2  0     0  0
  8  6  1  0     0  0
  9 10  1  0     0  0
 10  6  2  0     0  0
 11 12  2  0     0  0
 12 15  1  0     0  0
 13 19  2  0     0  0
 14  3  1  0     0  0
 15 20  2  0     0  0
 16  1  2  0     0  0
 17  2  1  0     0  0
 18 14  1  0     0  0
 19 18  1  0     0  0
 20 21  1  0     0  0
 21 18  2  0     0  0
 22  5  1  0     0  0
 23 11  1  0     0  0
 24 12  1  0     0  0
 25 17  2  0     0  0
 26 17  1  0     0  0
 27 22  1  0     0  0
 28 27  1  0     0  0
 29 30  1  0     0  0
 30 24  2  0     0  0
 31 28  1  0     0  0
 32 26  2  0     0  0
 33 25  1  0     0  0
 34 32  1  0     0  0
  4  5  2  0     0  0
 33 34  2  0     0  0
 13 15  1  0     0  0
 23 29  2  0     0  0
  9  7  1  0     0  0
M  END