
  SciTegic02011310402D

 26 29  0  0  0  0            999 V2000
    1.6736   -4.2375    0.0000 C   0  0
    1.6724   -5.0648    0.0000 N   0  0
    2.3872   -5.4777    0.0000 C   0  0
    2.3854   -3.8247    0.0000 C   0  0
    3.1008   -4.2338    0.0000 C   0  0
    3.0996   -5.0669    0.0000 C   0  0
    3.8165   -5.4822    0.0000 C   0  0
    4.5392   -5.0690    0.0000 N   0  0
    4.5404   -4.2359    0.0000 N   0  0
    3.8189   -3.8160    0.0000 C   0  0
    3.8142   -6.3072    0.0000 C   0  0
    3.0985   -6.7177    0.0000 C   0  0
    2.3879   -6.2984    0.0000 C   0  0
    1.6728   -6.7081    0.0000 C   0  0
    1.6700   -7.5340    0.0000 C   0  0
    2.3883   -7.9484    0.0000 C   0  0
    3.1005   -7.5362    0.0000 C   0  0
    0.9549   -7.9455    0.0000 Cl  0  0
    3.8189   -2.9910    0.0000 O   0  0
    5.2558   -3.8251    0.0000 C   0  0
    5.9693   -4.2394    0.0000 C   0  0  1  0  0  0
    5.9822   -5.0616    0.0000 C   0  0
    6.7715   -5.3016    0.0000 C   0  0
    7.2437   -4.6251    0.0000 C   0  0
    6.7462   -3.9670    0.0000 N   0  0
    6.9845   -3.1772    0.0000 C   0  0
  2  3  1  0
 12 13  2  0
  3  6  2  0
 13 14  1  0
  1  2  2  0
 14 15  2  0
  5  4  2  0
 15 16  1  0
  4  1  1  0
 16 17  2  0
 17 12  1  0
  5 10  1  0
 15 18  1  0
  6  7  1  0
 10 19  2  0
  7  8  2  0
  9 20  1  0
  8  9  1  0
 21 20  1  6
 21 22  1  0
  9 10  1  0
  5  6  1  0
  7 11  1  0
 22 23  1  0
 23 24  1  0
 24 25  1  0
 25 21  1  0
 11 12  1  0
 25 26  1  0
M  END