
  SciTegic04201614442D

101105  0  0  0  0            999 V2000
   -1.2630    8.2591    0.0000 C   0  0
   -2.2990    8.8648    0.0000 S   0  0
    0.0000    1.5002    0.0000 C   0  0
    0.0000   -1.5002    0.0000 O   0  0
   -1.2989   -0.7501    0.0000 C   0  0
   -1.2989    0.7501    0.0000 C   0  0
   -2.5978    1.5002    0.0000 C   0  0
   -3.8968    0.7501    0.0000 C   0  0
   -3.8968   -0.7501    0.0000 C   0  0
   -2.5978   -1.5002    0.0000 C   0  0
    1.2806    0.7501    0.0000 C   0  0
    1.2806   -0.7501    0.0000 C   0  0
    2.5978   -1.5002    0.0000 C   0  0
    3.8968   -0.7501    0.0000 C   0  0
    3.8968    0.7501    0.0000 C   0  0
    2.5978    1.5002    0.0000 C   0  0
    4.9360   -1.3500    0.0000 O   0  0
   -4.9360   -1.3500    0.0000 O   0  0
    0.0046    3.0009    0.0000 C   0  0
    1.3089    3.7420    0.0000 C   0  0
    1.3192    5.2419    0.0000 C   0  0
    0.0254    6.0008    0.0000 C   0  0
   -1.2788    5.2598    0.0000 C   0  0
   -1.2891    3.7598    0.0000 C   0  0
   -2.5955    3.0210    0.0000 C   0  0
   -2.6041    2.0211    0.0000 O   0  0
    0.0326    7.5017    0.0000 N   0  0
   -3.8890    3.7822    0.0000 N   0  0
   -5.1954    3.0434    0.0000 C   0  0  2  0  0  0
   -6.4785    5.0046    0.0000 O   0  0
   -6.4889    3.8046    0.0000 C   0  0
   -5.2114    1.5427    0.0000 C   0  0
   -6.5186    0.8054    0.0000 C   0  0
   -6.5315   -0.3946    0.0000 C   0  0
   -7.5516    1.4161    0.0000 C   0  0
   -7.7953    3.0658    0.0000 N   0  0
   -9.0888    3.8270    0.0000 C   0  0  2  0  0  0
  -10.4055    1.8883    0.0000 O   0  0
  -10.3952    3.0882    0.0000 C   0  0
   -9.0789    5.3278    0.0000 C   0  0
  -10.3732    6.0876    0.0000 C   0  0
  -10.3654    7.2875    0.0000 O   0  0
  -11.4166    5.4947    0.0000 O   0  0
  -11.6887    3.8494    0.0000 N   0  0
  -12.9951    3.1107    0.0000 C   0  0  2  0  0  0
  -14.2782    5.0718    0.0000 O   0  0
  -14.2885    3.8718    0.0000 C   0  0
  -13.0111    1.6099    0.0000 C   0  0
  -14.3183    0.8726    0.0000 C   0  0
  -14.3343   -0.6282    0.0000 C   0  0
  -15.3795   -1.2177    0.0000 O   0  0
  -13.3014   -1.2389    0.0000 O   0  0
  -15.5949    3.1331    0.0000 N   0  0
  -16.8884    3.8942    0.0000 C   0  0  2  0  0  0
  -18.2052    1.9555    0.0000 O   0  0
  -18.1948    3.1555    0.0000 C   0  0
  -16.8786    5.3950    0.0000 C   0  0
  -18.1729    6.1548    0.0000 C   0  0
  -18.1631    7.6556    0.0000 C   0  0
  -19.1979    8.2630    0.0000 O   0  0
  -17.1197    8.2484    0.0000 O   0  0
  -19.4883    3.9166    0.0000 N   0  0
  -20.7947    3.1779    0.0000 C   0  0  2  0  0  0
  -22.0778    5.1390    0.0000 O   0  0
  -22.0882    3.9390    0.0000 C   0  0
  -20.8107    1.6771    0.0000 C   0  0  2  0  0  0
  -21.8559    1.0876    0.0000 O   0  0
  -19.7778    1.0664    0.0000 C   0  0
  -23.3946    3.2003    0.0000 N   0  0
  -24.6881    3.9614    0.0000 C   0  0
  -26.0048    2.0227    0.0000 O   0  0
  -25.9945    3.2227    0.0000 C   0  0
  -27.2880    3.9838    0.0000 N   0  0
  -28.5944    3.2451    0.0000 C   0  0  2  0  0  0
  -29.8775    5.2062    0.0000 O   0  0
  -29.8878    4.0063    0.0000 C   0  0
  -28.6104    1.7443    0.0000 C   0  0
  -29.9176    1.0070    0.0000 C   0  0
  -29.9336   -0.4937    0.0000 C   0  0
  -30.9788   -1.0833    0.0000 O   0  0
  -28.9007   -1.1045    0.0000 O   0  0
  -31.1942    3.2675    0.0000 N   0  0
  -32.4877    4.0287    0.0000 C   0  0  2  0  0  0
  -31.4345    6.1223    0.0000 O   0  0
  -32.4779    5.5295    0.0000 C   0  0
  -33.7941    3.2899    0.0000 C   0  0
  -36.3944    3.3146    0.0000 C   0  0
  -35.0876    4.0511    0.0000 C   0  0
  -35.0722    5.5510    0.0000 C   0  0
  -36.3634    6.3144    0.0000 C   0  0
  -37.6701    5.5779    0.0000 C   0  0
  -37.6856    4.0780    0.0000 C   0  0
  -33.7722    6.2892    0.0000 N   0  0
  -33.7624    7.7900    0.0000 C   0  0  2  0  0  0
  -32.4524    9.7341    0.0000 O   0  0
  -32.4590    8.5341    0.0000 C   0  0
  -35.0567    8.5497    0.0000 C   0  0
  -35.0468   10.0505    0.0000 C   0  0
  -36.0817   10.6580    0.0000 C   0  0
  -34.0035   10.6434    0.0000 C   0  0
  -31.4229    7.9288    0.0000 N   0  0
  1  2  2  0
 12  4  1  0
 11  3  2  0
  3  6  1  0
  5  4  1  0
  5  6  2  0
  6  7  1  0
  7  8  2  0
  8  9  1  0
  9 10  2  0
 10  5  1  0
 11 12  1  0
 11 16  1  0
 12 13  2  0
 13 14  1  0
 14 15  1  0
 15 16  2  0
 14 17  2  0
  9 18  1  0
  3 19  1  0
 19 20  2  0
 20 21  1  0
 21 22  2  0
 22 23  1  0
 23 24  2  0
 24 19  1  0
 24 25  1  0
 25 26  2  0
 22 27  1  0
 27  1  2  0
 31 36  1  0
 39 44  1  0
 47 53  1  0
 56 62  1  0
 65 69  1  0
 72 73  1  0
 76 82  1  0
 85 93  1  0
 96101  1  0
 28 29  1  0
 29 31  1  0
 31 30  2  0
 29 32  1  1
 32 33  1  0
 33 34  1  0
 33 35  1  0
 36 37  1  0
 37 39  1  0
 39 38  2  0
 37 40  1  6
 40 41  1  0
 41 42  2  0
 41 43  1  0
 44 45  1  0
 45 47  1  0
 47 46  2  0
 45 48  1  1
 48 49  1  0
 49 50  1  0
 50 51  2  0
 50 52  1  0
 53 54  1  0
 54 56  1  0
 56 55  2  0
 54 57  1  6
 57 58  1  0
 58 59  1  0
 59 60  2  0
 59 61  1  0
 63 62  1  1
 63 65  1  0
 65 64  2  0
 63 66  1  0
 66 67  1  1
 66 68  1  0
 69 70  1  0
 70 72  1  0
 72 71  2  0
 73 74  1  0
 74 76  1  0
 76 75  2  0
 74 77  1  1
 77 78  1  0
 78 79  1  0
 79 80  2  0
 79 81  1  0
 82 83  1  0
 83 85  1  0
 85 84  2  0
 83 86  1  1
 86 88  1  0
 87 88  2  0
 88 89  1  0
 89 90  2  0
 90 91  1  0
 91 92  2  0
 92 87  1  0
 93 94  1  0
 94 96  1  0
 96 95  2  0
 94 97  1  1
 97 98  1  0
 98 99  1  0
 98100  1  0
 28 25  1  0
M  END