
  CDK    9/16/09,10:9

 17 16  0  0  0  0  0  0  0  0999 V2000
   -1.0247   -6.9772    0.0000 C   0  0  0  0  0  0  0  0  0  0  0  0
   -0.3087   -6.5604    0.0000 S   0  0  0  0  0  0  0  0  0  0  0  0
   -1.7385   -6.5677    0.0000 C   0  0  0  0  0  0  0  0  0  0  0  0
   -2.4530   -6.9795    0.0000 C   0  0  0  0  0  0  0  0  0  0  0  0
   -3.1650   -7.3922    0.0000 C   0  0  0  0  0  0  0  0  0  0  0  0
   -2.0403   -7.6956    0.0000 C   0  0  0  0  0  0  0  0  0  0  0  0
   -3.1650   -8.2176    0.0000 C   0  0  0  0  0  0  0  0  0  0  0  0
   -2.4530   -8.6303    0.0000 O   0  0  0  0  0  0  0  0  0  0  0  0
    0.4093   -6.9741    0.0000 C   0  0  0  0  0  0  0  0  0  0  0  0
    1.1236   -6.5582    0.0000 C   0  0  0  0  0  0  0  0  0  0  0  0
    1.8376   -6.9677    0.0000 C   0  0  0  0  0  0  0  0  0  0  0  0
    2.5519   -6.5518    0.0000 C   0  0  0  0  0  0  0  0  0  0  0  0
    2.5482   -5.7264    0.0000 O   0  0  0  0  0  0  0  0  0  0  0  0
   -2.8657   -6.2675    0.0000 C   0  0  0  0  0  0  0  0  0  0  0  0
   -3.8811   -8.6303    0.0000 O   0  0  0  0  0  0  0  0  0  0  0  0
    1.8413   -7.7931    0.0000 N   0  0  0  0  0  0  0  0  0  0  0  0
    3.2657   -6.9654    0.0000 O   0  0  0  0  0  0  0  0  0  0  0  0
  3  4  1  0  0  0  0 
  4  5  1  0  0  0  0 
  4  6  1  0  0  0  0 
  5  7  1  0  0  0  0 
  7  8  2  0  0  0  0 
  2  9  1  0  0  0  0 
  9 10  1  0  0  0  0 
 10 11  1  0  0  0  0 
 11 12  1  0  0  0  0 
 12 13  2  0  0  0  0 
  4 14  1  0  0  0  0 
  1  2  1  0  0  0  0 
  1  3  1  0  0  0  0 
 11 16  1  1  0  0  0 
  7 15  1  0  0  0  0 
 12 17  1  0  0  0  0 
M  END