
  SciTegic04091414352D

 24 26  0  0  0  0            999 V2000
   10.1804   -9.1079    0.0000 C   0  0
   13.1816   -8.6735    0.0000 C   0  0  1  0  0  0
   13.9853   -8.5037    0.0000 C   0  0  2  0  0  0
   14.0721   -7.6878    0.0000 C   0  0  1  0  0  0
   13.3215   -7.3463    0.0000 O   0  0
   12.7766   -7.9609    0.0000 C   0  0  2  0  0  0
   14.7822   -7.2761    0.0000 N   0  0
   11.9618   -7.8757    0.0000 C   0  0
   15.4963   -7.6883    0.0000 C   0  0
   16.2082   -7.2827    0.0000 C   0  0
   16.2160   -6.4634    0.0000 C   0  0
   15.5028   -6.0463    0.0000 N   0  0
   14.7908   -6.4505    0.0000 C   0  0
   14.0808   -6.0429    0.0000 O   0  0
   16.9260   -6.0559    0.0000 N   0  0
   14.5949   -9.0536    0.0000 O   0  0
   12.8483   -9.4215    0.0000 O   0  0
   11.4786   -8.5393    0.0000 N   0  0
   10.6645   -8.4480    0.0000 C   0  0
   10.3385   -7.6967    0.0000 O   0  0
    9.3649   -9.1078    0.0000 C   0  0
    9.1085   -9.8851    0.0000 S   0  0
    9.7685  -10.3692    0.0000 C   0  0
   10.4327   -9.8910    0.0000 N   0  0
  2  3  1  0
  3  4  1  0
  4  5  1  0
  5  6  1  0
  6  2  1  0
  4  7  1  1
  6  8  1  1
  7  9  1  0
  7 13  1  0
  9 10  2  0
 10 11  1  0
 11 12  2  0
 12 13  1  0
 13 14  2  0
 11 15  1  0
  3 16  1  6
  2 17  1  6
  8 18  1  0
 18 19  1  0
 19  1  1  0
 19 20  2  0
  1 21  2  0
 21 22  1  0
 22 23  1  0
 23 24  2  0
 24  1  1  0
M  END