
          11280715132D 1   1.00000     0.00000     0

 25 27  0     0  0            999 V2000
    0.0792   -1.5417    0.0000 C   0  0  0  0  0  0           0  0  0
    0.0792   -0.9417    0.0000 C   0  0  0  0  0  0           0  0  0
   -0.4458   -1.8417    0.0000 N   0  0  3  0  0  0           0  0  0
   -0.9583   -0.9417    0.0000 N   0  0  3  0  0  0           0  0  0
   -0.9583   -1.5417    0.0000 C   0  0  0  0  0  0           0  0  0
   -0.4458   -0.6417    0.0000 C   0  0  0  0  0  0           0  0  0
    0.6500   -1.7292    0.0000 N   0  0  0  0  0  0           0  0  0
    1.8917   -1.8042    0.0000 N   0  0  3  0  0  0           0  0  0
    0.6500   -0.7542    0.0000 N   0  0  0  0  0  0           0  0  0
    1.0042   -1.2417    0.0000 C   0  0  0  0  0  0           0  0  0
    2.5167   -1.9000    0.0000 C   0  0  0  0  0  0           0  0  0
    1.6042   -2.3667    0.0000 C   0  0  0  0  0  0           0  0  0
    1.6042   -1.2417    0.0000 C   0  0  0  0  0  0           0  0  0
    2.0542   -2.8125    0.0000 C   0  0  0  0  0  0           0  0  0
    2.6167   -2.5250    0.0000 C   0  0  0  0  0  0           0  0  0
   -1.4750   -1.8417    0.0000 O   0  0  0  0  0  0           0  0  0
   -0.4458   -0.0417    0.0000 O   0  0  0  0  0  0           0  0  0
    1.0167   -2.4625    0.0000 O   0  0  0  0  0  0           0  0  0
    2.9417   -1.4750    0.0000 O   0  0  0  0  0  0           0  0  0
   -0.4458   -2.4417    0.0000 C   0  0  0  0  0  0           0  0  0
   -1.4750   -0.6417    0.0000 C   0  0  0  0  0  0           0  0  0
   -0.9625   -2.7417    0.0000 C   0  0  0  0  0  0           0  0  0
   -1.4833   -0.0417    0.0000 C   0  0  0  0  0  0           0  0  0
   -0.9625   -3.3417    0.0000 C   0  0  0  0  0  0           0  0  0
   -1.9958    0.2583    0.0000 C   0  0  0  0  0  0           0  0  0
  2  1  2  0     0  0
  3  1  1  0     0  0
  4  5  1  0     0  0
  5  3  1  0     0  0
  6  2  1  0     0  0
  7  1  1  0     0  0
  8 13  1  0     0  0
  9  2  1  0     0  0
 10  7  1  0     0  0
 11  8  1  0     0  0
 12  8  1  0     0  0
 13 10  1  0     0  0
 14 12  1  0     0  0
 15 11  1  0     0  0
 16  5  2  0     0  0
 17  6  2  0     0  0
 18 12  2  0     0  0
 19 11  2  0     0  0
 20  3  1  0     0  0
 21  4  1  0     0  0
 22 20  1  0     0  0
 23 21  1  0     0  0
 24 22  1  0     0  0
 25 23  1  0     0  0
  9 10  2  0     0  0
  6  4  1  0     0  0
 15 14  2  0     0  0
M  END