
  SciTegic12191611232D

 15 15  0  0  0  0            999 V2000
    1.1385   -3.3418    0.0000 C   0  0
    1.6281   -2.2462    0.0000 C   0  0
    0.7500   -1.0323    0.0000 C   0  0
    1.2135    0.3943    0.0000 C   0  0
    0.0000    1.2760    0.0000 N   0  0
   -1.2135    0.3943    0.0000 C   0  0
   -0.7500   -1.0323    0.0000 C   0  0
   -1.6281   -2.2462    0.0000 C   0  0
   -1.1385   -3.3418    0.0000 O   0  0
   -2.8218   -2.1229    0.0000 C   0  0
   -2.3548    0.7651    0.0000 C   0  0
    2.6375    0.8603    0.0000 C   0  0
    2.9474    2.3287    0.0000 N   0  0
    3.5307    0.0589    0.0000 O   0  0
    4.0879    2.7019    0.0000 C   0  0
  1  2  1  0
  2  3  1  0
  3  4  2  0
  5  4  1  0
  6  5  1  0
  7  6  2  0
  3  7  1  0
  7  8  1  0
  8  9  2  0
  8 10  1  0
  6 11  1  0
  4 12  1  0
 12 13  1  0
 12 14  2  0
 13 15  1  0
M  END