
  SciTegic07121116592D

 20 22  0  0  0  0            999 V2000
    2.7637   -3.0679    0.0000 O   0  0
    3.9197   -2.2280    0.0000 O   0  0
    2.2018   -0.3772    0.0000 N   0  0
    2.8693   -0.8621    0.0000 N   0  0
    1.5344   -0.8621    0.0000 C   0  0
    2.6143   -1.6468    0.0000 C   0  0
    1.7893   -1.6468    0.0000 C   0  0
    2.2018    0.4478    0.0000 C   0  0
    0.7498   -0.6072    0.0000 C   0  0
    3.0993   -2.3142    0.0000 C   0  0
    1.4874    0.8603    0.0000 C   0  0
    2.9163    0.8603    0.0000 C   0  0
    0.1367   -1.1592    0.0000 C   0  0
    0.5782    0.1998    0.0000 C   0  0
    1.4874    1.6853    0.0000 C   0  0
    2.9163    1.6853    0.0000 C   0  0
   -0.6479   -0.9043    0.0000 C   0  0
   -0.2064    0.4547    0.0000 C   0  0
    2.2018    2.0978    0.0000 C   0  0
   -0.8195   -0.0973    0.0000 C   0  0
  1 10  2  0
  2 10  1  0
  3  4  1  0
  3  5  1  0
  3  8  1  0
  4  6  2  0
  5  7  2  0
  5  9  1  0
  6  7  1  0
  6 10  1  0
  8 11  2  0
  8 12  1  0
  9 13  2  0
  9 14  1  0
 11 15  1  0
 12 16  2  0
 13 17  1  0
 14 18  2  0
 15 19  2  0
 16 19  1  0
 17 20  2  0
 18 20  1  0
M  END