
  SciTegic01111613442D

 51 55  0  0  0  0            999 V2000
    3.9112   12.0085    0.0000 C   0  0
    5.2100   12.7535    0.0000 C   0  0
    6.5135   11.9855    0.0000 C   0  0
    3.9159   10.4957    0.0000 C   0  0
    5.2103    9.7435    0.0000 C   0  0
    6.5091   10.4885    0.0000 C   0  0
    7.8036    9.7364    0.0000 C   0  0
    7.7992    8.2393    0.0000 C   0  0
    6.5003    7.4944    0.0000 C   0  0
    5.2059    8.2465    0.0000 N   0  0
    6.4992    5.9935    0.0000 C   0  0
    5.4593    5.3947    0.0000 O   0  0
    7.7966    3.7404    0.0000 C   0  0  2  0  0  0
    9.0953    2.9882    0.0000 C   0  0
    6.4945    2.9941    0.0000 C   0  0
    5.1967    3.7478    0.0000 C   0  0
    4.1555    3.1511    0.0000 O   0  0
   10.1352    3.5870    0.0000 O   0  0
   10.3928    0.7351    0.0000 C   0  0  2  0  0  0
   11.6941    1.4828    0.0000 C   0  0  1  0  0  0
   10.3871   -0.7658    0.0000 C   0  0
    9.0850   -1.5121    0.0000 C   0  0
    9.0771   -3.0121    0.0000 C   0  0
    7.7742   -3.7553    0.0000 C   0  0
    6.4791   -2.9985    0.0000 C   0  0
    6.4869   -1.4986    0.0000 C   0  0
    7.7898   -0.7553    0.0000 C   0  0
   12.9928    0.7305    0.0000 C   0  0
   14.2941    1.4783    0.0000 N   0  0
   15.5911    0.7298    0.0000 C   0  0  1  0  0  0
   16.8960    1.4954    0.0000 C   0  0
   14.3011    2.9899    0.0000 C   0  0
   15.5968    3.7397    0.0000 C   0  0  2  0  0  0
   16.8943    2.9924    0.0000 C   0  0  1  0  0  0
   18.1901    3.7422    0.0000 C   0  0
   18.1883    5.2393    0.0000 C   0  0
   16.8909    5.9866    0.0000 C   0  0
   15.5951    5.2368    0.0000 C   0  0
   15.5894   -0.7709    0.0000 C   0  0
   16.6280   -1.3719    0.0000 O   0  0
   14.2873   -3.0214    0.0000 C   0  0
   13.2477   -3.6207    0.0000 C   0  0
   14.2864   -4.2214    0.0000 C   0  0
   15.3260   -3.6223    0.0000 C   0  0
   17.7609    2.4934    0.0000 H   0  0
   14.7303    4.2388    0.0000 H   0  0
    7.7978    5.2412    0.0000 N   0  0
    5.2001    4.9478    0.0000 N   0  0
    9.0941    1.4873    0.0000 N   0  0
   11.6962    2.6828    0.0000 O   0  0
   14.2892   -1.5205    0.0000 N   0  0
  9 10  2  0
 10  5  1  0
  9 11  1  0
 11 12  2  0
 13 14  1  0
 13 15  1  6
 15 16  1  0
 16 17  2  0
 14 18  2  0
 19 20  1  0
 19 21  1  6
 21 22  1  0
 22 23  2  0
 23 24  1  0
 24 25  2  0
 25 26  1  0
 26 27  2  0
 27 22  1  0
 20 28  1  0
 28 29  1  0
 29 30  1  0
 29 32  1  0
 30 31  1  0
 31 34  1  0
 33 32  1  0
 33 34  1  0
 33 38  1  0
 34 35  1  0
 35 36  1  0
 36 37  1  0
 37 38  1  0
 30 39  1  1
 39 40  2  0
 41 42  1  0
 41 43  1  0
 41 44  1  0
 34 45  1  6
 33 46  1  6
  1  2  2  0
  2  3  1  0
  3  6  2  0
  5  4  2  0
 11 47  1  0
 47 13  1  0
 14 49  1  0
 49 19  1  0
 20 50  1  6
 16 48  1  0
 39 51  1  0
 51 41  1  0
  4  1  1  0
  5  6  1  0
  6  7  1  0
  7  8  2  0
  8  9  1  0
M  END