
          11280715362D 1   1.00000     0.00000     0

 57 63  0     1  0            999 V2000
    8.4542   -4.9625    0.0000 N   0  0  0  0  0  0           0  0  0
    7.6792   -4.6625    0.0000 C   0  0  0  0  0  0           0  0  0
    7.1792   -3.3250    0.0000 C   0  0  0  0  0  0           0  0  0
    9.2625   -6.3625    0.0000 C   0  0  0  0  0  0           0  0  0
    6.1417   -5.1292    0.0000 N   0  0  0  0  0  0           0  0  0
    4.3667   -7.4250    0.0000 C   0  0  0  0  0  0           0  0  0
    9.1375   -7.1792    0.0000 N   0  0  0  0  0  0           0  0  0
    3.6542   -7.8375    0.0000 N   0  0  3  0  0  0           0  0  0
    6.8542   -4.7250    0.0000 C   0  0  1  0  0  0           0  0  0
    9.0167   -5.5667    0.0000 C   0  0  1  0  0  0           0  0  0
    6.3542   -8.0292    0.0000 C   0  0  0  0  0  0           0  0  0
    5.6792   -5.8167    0.0000 C   0  0  0  0  0  0           0  0  0
    7.7417   -2.1125    0.0000 N   0  0  0  0  0  0           0  0  0
    7.1292   -8.3292    0.0000 N   0  0  0  0  0  0           0  0  0
    7.0167   -2.5125    0.0000 C   0  0  0  0  0  0           0  0  0
    5.8000   -7.4292    0.0000 C   0  0  2  0  0  0           0  0  0
    1.5042   -9.0667    0.0000 N   0  0  3  0  0  0           0  0  0
    6.6167   -3.9292    0.0000 C   0  0  0  0  0  0           0  0  0
    8.0000   -3.4250    0.0000 C   0  0  0  0  0  0           0  0  0
    5.0792   -7.8417    0.0000 C   0  0  0  0  0  0           0  0  0
    8.3417   -2.6750    0.0000 C   0  0  0  0  0  0           0  0  0
    2.2167   -8.6542    0.0000 C   0  0  3  0  0  0           0  0  0
    5.5542   -6.6375    0.0000 C   0  0  0  0  0  0           0  0  0
    2.9292   -9.0750    0.0000 C   0  0  0  0  0  0           0  0  0
    2.2250   -7.8292    0.0000 C   0  0  0  0  0  0           0  0  0
    3.6500   -8.6667    0.0000 C   0  0  0  0  0  0           0  0  0
    2.9375   -7.4250    0.0000 C   0  0  0  0  0  0           0  0  0
    8.6667   -7.8625    0.0000 C   0  0  1  0  0  0           0  0  0
    7.8042   -3.8417    0.0000 O   0  0  0  0  0  0           0  0  0
   10.0792   -6.2917    0.0000 O   0  0  0  0  0  0           0  0  0
    9.7292   -5.1542    0.0000 C   0  0  0  0  0  0           0  0  0
    4.3667   -6.6000    0.0000 O   0  0  0  0  0  0           0  0  0
    5.8917   -8.7167    0.0000 O   0  0  0  0  0  0           0  0  0
    4.9042   -5.5167    0.0000 O   0  0  0  0  0  0           0  0  0
    7.9542   -8.2750    0.0000 C   0  0  0  0  0  0           0  0  0
    9.2375   -8.4667    0.0000 C   0  0  0  0  0  0           0  0  0
   10.4500   -5.5667    0.0000 C   0  0  0  0  0  0           0  0  0
    8.9917   -9.2542    0.0000 C   0  0  0  0  0  0           0  0  0
    0.7917   -8.6500    0.0000 C   0  0  0  0  0  0           0  0  0
    1.5000   -9.8917    0.0000 C   0  0  0  0  0  0           0  0  0
    8.4750   -4.1000    0.0000 C   0  0  0  0  0  0           0  0  0
    9.1667   -2.6000    0.0000 C   0  0  0  0  0  0           0  0  0
   10.4500   -6.3917    0.0000 C   0  0  0  0  0  0           0  0  0
   11.1667   -5.1542    0.0000 C   0  0  0  0  0  0           0  0  0
    8.1792   -9.4417    0.0000 C   0  0  0  0  0  0           0  0  0
    9.5542   -9.8625    0.0000 C   0  0  0  0  0  0           0  0  0
    0.7792  -10.3000    0.0000 C   0  0  0  0  0  0           0  0  0
    0.0792   -9.0542    0.0000 C   0  0  0  0  0  0           0  0  0
    9.3000   -4.0292    0.0000 C   0  0  0  0  0  0           0  0  0
    9.6417   -3.2750    0.0000 C   0  0  0  0  0  0           0  0  0
    9.3042  -10.6542    0.0000 C   0  0  0  0  0  0           0  0  0
    7.9417  -10.2292    0.0000 C   0  0  0  0  0  0           0  0  0
   11.8792   -5.5667    0.0000 C   0  0  0  0  0  0           0  0  0
   11.1667   -6.8125    0.0000 C   0  0  0  0  0  0           0  0  0
    0.0667   -9.8792    0.0000 C   0  0  0  0  0  0           0  0  0
    8.5042  -10.8375    0.0000 C   0  0  0  0  0  0           0  0  0
   11.8792   -6.3917    0.0000 C   0  0  0  0  0  0           0  0  0
  2  1  1  0     0  0
  3 18  1  0     0  0
  4 10  1  0     0  0
  5  9  1  0     0  0
  6 20  1  0     0  0
  7  4  1  0     0  0
  8  6  1  0     0  0
  9  2  1  0     0  0
 10  1  1  0     0  0
 11 14  1  0     0  0
 12  5  1  0     0  0
 13 15  1  0     0  0
 14 35  1  0     0  0
 15  3  2  0     0  0
 16 23  1  0     0  0
 17 22  1  0     0  0
  9 18  1  1     0  0
 19  3  1  0     0  0
 16 20  1  6     0  0
 21 19  2  0     0  0
 22 25  1  0     0  0
 23 12  1  0     0  0
 24 26  1  0     0  0
 25 27  1  0     0  0
 26  8  1  0     0  0
 27  8  1  0     0  0
 28  7  1  0     0  0
 29  2  2  0     0  0
 30  4  2  0     0  0
 10 31  1  6     0  0
 32  6  2  0     0  0
 33 11  2  0     0  0
 34 12  2  0     0  0
 35 28  1  0     0  0
 28 36  1  6     0  0
 37 31  1  0     0  0
 38 36  1  0     0  0
 39 17  1  0     0  0
 40 17  1  0     0  0
 41 19  1  0     0  0
 42 21  1  0     0  0
 43 37  2  0     0  0
 44 37  1  0     0  0
 45 38  1  0     0  0
 46 38  2  0     0  0
 47 40  1  0     0  0
 48 39  1  0     0  0
 49 41  2  0     0  0
 50 49  1  0     0  0
 51 46  1  0     0  0
 52 45  2  0     0  0
 53 44  2  0     0  0
 54 43  1  0     0  0
 55 47  1  0     0  0
 56 51  2  0     0  0
 57 53  1  0     0  0
 54 57  2  0     0  0
 13 21  1  0     0  0
 11 16  1  0     0  0
 50 42  2  0     0  0
 56 52  1  0     0  0
 22 24  1  0     0  0
 55 48  1  0     0  0
M  END