
          11280715452D 1   1.00000     0.00000     0

 36 36  0     1  0            999 V2000
    1.2667   -0.0542    0.0000 C   0  0  0  0  0  0           0  0  0
    1.9792    0.3583    0.0000 N   0  0  3  0  0  0           0  0  0
   -0.8750    0.3458    0.0000 C   0  0  0  0  0  0           0  0  0
    3.4125    0.3583    0.0000 C   0  0  0  0  0  0           0  0  0
   -0.1625   -0.0667    0.0000 N   0  0  0  0  0  0           0  0  0
    0.5500    0.3583    0.0000 C   0  0  1  0  0  0           0  0  0
    2.7000   -0.0542    0.0000 C   0  0  2  0  0  0           0  0  0
   -2.3000    0.3458    0.0000 C   0  0  3  0  0  0           0  0  0
    4.1250   -0.0417    0.0000 C   0  0  0  0  0  0           0  0  0
   -1.5875   -0.0667    0.0000 C   0  0  2  0  0  0           0  0  0
    4.8375    0.3708    0.0000 C   0  0  0  0  0  0           0  0  0
    0.5500    1.1833    0.0000 C   0  0  3  0  0  0           0  0  0
   -3.0208   -0.0667    0.0000 C   0  0  0  0  0  0           0  0  0
    1.2667   -0.8792    0.0000 O   0  0  0  0  0  0           0  0  0
   -0.8833    1.1708    0.0000 O   0  0  0  0  0  0           0  0  0
    4.8375    1.1958    0.0000 O   0  0  0  0  0  0           0  0  0
   -3.7375    0.3583    0.0000 C   0  0  0  0  0  0           0  0  0
   -3.0333   -0.8792    0.0000 C   0  0  0  0  0  0           0  0  0
   -1.5875   -0.9000    0.0000 N   0  0  0  0  0  0           0  0  0
    2.7000   -0.8792    0.0000 C   0  0  3  0  0  0           0  0  0
    5.5500   -0.0417    0.0000 O   0  0  0  0  0  0           0  0  0
   -4.4708   -0.8792    0.0000 C   0  0  0  0  0  0           0  0  0
   -3.7458   -1.3000    0.0000 C   0  0  0  0  0  0           0  0  0
   -4.4583   -0.0542    0.0000 C   0  0  0  0  0  0           0  0  0
    1.9792    1.1833    0.0000 C   0  0  0  0  0  0           0  0  0
   -2.8958    0.9333    0.0000 C   0  0  0  0  0  0           0  0  0
   -1.7208    0.9333    0.0000 C   0  0  0  0  0  0           0  0  0
    4.1250   -0.8667    0.0000 C   0  0  0  0  0  0           0  0  0
   -5.1750   -1.2792    0.0000 O   0  0  0  0  0  0           0  0  0
    1.2625    1.5958    0.0000 C   0  0  0  0  0  0           0  0  0
   -0.1708    1.5833    0.0000 C   0  0  0  0  0  0           0  0  0
    1.3417    0.9708    0.0000 C   0  0  0  0  0  0           0  0  0
   -2.3000   -1.3042    0.0000 C   0  0  0  0  0  0           0  0  0
    1.9875   -1.3000    0.0000 C   0  0  0  0  0  0           0  0  0
    3.4125   -1.2917    0.0000 C   0  0  0  0  0  0           0  0  0
   -5.8958   -0.8542    0.0000 C   0  0  0  0  0  0           0  0  0
  2  1  1  0     0  0
  3  5  1  0     0  0
  4  7  1  0     0  0
  5  6  1  0     0  0
  6  1  1  0     0  0
  7  2  1  0     0  0
  8 10  1  0     0  0
  9  4  2  0     0  0
 10  3  1  0     0  0
 11  9  1  0     0  0
  6 12  1  1     0  0
 13  8  1  0     0  0
 14  1  2  0     0  0
 15  3  2  0     0  0
 16 11  2  0     0  0
 17 13  2  0     0  0
 18 13  1  0     0  0
 10 19  1  1     0  0
  7 20  1  6     0  0
 21 11  1  0     0  0
 22 23  1  0     0  0
 23 18  2  0     0  0
 24 17  1  0     0  0
 25  2  1  0     0  0
 26  8  1  0     0  0
 27  8  1  0     0  0
 28  9  1  0     0  0
 29 22  1  0     0  0
 30 12  1  0     0  0
 31 12  1  0     0  0
 32 12  1  0     0  0
 33 19  1  0     0  0
 34 20  1  0     0  0
 35 20  1  0     0  0
 36 29  1  0     0  0
 24 22  2  0     0  0
M  END