
  SciTegic02271514512D

 38 41  0  0  0  0            999 V2000
   -0.3989   -1.7417    0.0000 C   0  0
   -0.3978   -2.5612    0.0000 C   0  0
    0.3134   -2.9702    0.0000 C   0  0
    1.0231   -2.5607    0.0000 C   0  0
    1.0202   -1.7381    0.0000 C   0  0
    0.3116   -1.3328    0.0000 C   0  0
    1.7264   -1.3268    0.0000 C   0  0
    2.4356   -1.7327    0.0000 N   0  0
    1.7233   -0.5096    0.0000 O   0  0
    3.1418   -1.3215    0.0000 C   0  0
    3.8510   -1.7274    0.0000 C   0  0
    3.8510   -2.5434    0.0000 C   0  0
    4.5594   -2.9493    0.0000 C   0  0
    5.2666   -2.5380    0.0000 C   0  0
    5.2609   -1.7166    0.0000 C   0  0
    4.5519   -1.3144    0.0000 C   0  0
    5.9656   -1.3028    0.0000 C   0  0
    6.6762   -1.7063    0.0000 C   0  0  2  0  0  0
    7.3809   -1.2925    0.0000 C   0  0
    3.1440   -2.9532    0.0000 O   0  0
    3.1454   -3.7704    0.0000 C   0  0
    2.4383   -4.1802    0.0000 C   0  0
    2.4397   -4.9974    0.0000 C   0  0
    8.0921   -1.6955    0.0000 O   0  0
    7.3755   -0.4749    0.0000 O   0  0
    6.6822   -2.5234    0.0000 C   0  0
    7.3929   -2.9268    0.0000 C   0  0
    7.3951   -3.7445    0.0000 C   0  0
    8.1049   -4.1478    0.0000 C   0  0
    8.8106   -3.7340    0.0000 C   0  0
    8.8020   -2.9126    0.0000 C   0  0
    8.0916   -2.5130    0.0000 C   0  0
   -1.1095   -2.9692    0.0000 N   0  0
   -1.8194   -2.5573    0.0000 C   0  0
   -2.5250   -2.9618    0.0000 C   0  0
   -2.5284   -3.7793    0.0000 C   0  0
   -1.8241   -4.1907    0.0000 C   0  0
   -1.1082   -3.7845    0.0000 C   0  0
  1  2  2  0
  2  3  1  0
  3  4  2  0
  4  5  1  0
  5  6  2  0
  6  1  1  0
  5  7  1  0
  7  8  1  0
  7  9  2  0
  8 10  1  0
 10 11  1  0
 11 12  2  0
 12 13  1  0
 13 14  2  0
 14 15  1  0
 15 16  2  0
 16 11  1  0
 15 17  1  0
 17 18  1  0
 18 19  1  0
 12 20  1  0
 20 21  1  0
 21 22  1  0
 22 23  1  0
 19 24  1  0
 19 25  2  0
 18 26  1  6
 26 27  1  0
 27 28  2  0
 28 29  1  0
 29 30  2  0
 30 31  1  0
 31 32  2  0
 32 27  1  0
  2 33  1  0
 33 34  1  0
 33 38  1  0
 34 35  1  0
 35 36  1  0
 36 37  1  0
 37 38  1  0
M  END