
  SciTegic12231509382D

 21 23  0  0  0  0            999 V2000
    4.3542   -5.1042    0.0000 C   0  0
    5.1417   -5.1000    0.0000 C   0  0
    5.5792   -4.4417    0.0000 N   0  0
    3.9917   -5.6792    0.0000 C   0  0
    4.0000   -4.5167    0.0000 C   0  0
    3.3000   -5.6792    0.0000 C   0  0
    6.3542   -4.4542    0.0000 C   0  0
    7.5042   -5.1375    0.0000 N   0  0
    3.3042   -4.5042    0.0000 C   0  0
    2.9292   -5.1000    0.0000 C   0  0
    6.7375   -5.1292    0.0000 C   0  0
    5.3917   -5.7042    0.0000 O   0  0
    6.7417   -3.7875    0.0000 C   0  0
    6.8250   -4.4667    0.0000 C   0  0
    7.5167   -3.7917    0.0000 C   0  0
    7.3875   -4.5792    0.0000 C   0  0
    7.9000   -4.4667    0.0000 C   0  0
    2.2417   -5.1000    0.0000 N   0  0
    2.9792   -3.9250    0.0000 Cl  0  0
    4.3375   -6.2667    0.0000 O   0  0
    4.0000   -6.8292    0.0000 C   0  0
  2  1  1  0
  3  2  1  0
  4  1  1  0
  5  1  2  0
  6  4  2  0
  7  3  1  0
  8 11  1  0
  9  5  1  0
 10  9  2  0
 11  7  1  0
 12  2  2  0
 13  7  1  0
 14 13  1  0
 15 13  1  0
 16 14  1  0
 17 15  1  0
 18 10  1  0
 19  9  1  0
 20  4  1  0
 21 20  1  0
  6 10  1  0
  8 17  1  0
  8 16  1  0
M  END