
  Mrv0541 05211314572D          

 88 89  0  0  0  0            999 V2000
   -8.5918    1.0395    0.0000 C   0  0  0  0  0  0  0  0  0  0  0  0
   -8.6596    0.2173    0.0000 N   0  0  0  0  0  0  0  0  0  0  0  0
   -9.4056   -0.1350    0.0000 C   0  0  0  0  0  0  0  0  0  0  0  0
  -10.0837    0.3348    0.0000 C   0  0  0  0  0  0  0  0  0  0  0  0
  -10.8297   -0.0176    0.0000 C   0  0  0  0  0  0  0  0  0  0  0  0
  -11.5078    0.4522    0.0000 C   0  0  0  0  0  0  0  0  0  0  0  0
  -12.2538    0.0999    0.0000 C   0  0  0  0  0  0  0  0  0  0  0  0
  -12.9320    0.5697    0.0000 C   0  0  0  0  0  0  0  0  0  0  0  0
  -13.6779    0.2173    0.0000 N   0  0  0  0  0  0  0  0  0  0  0  0
   -7.9815   -0.2525    0.0000 C   0  0  0  0  0  0  0  0  0  0  0  0
   -7.2355    0.0999    0.0000 C   0  0  0  0  0  0  0  0  0  0  0  0
   -6.5574   -0.3700    0.0000 C   0  0  0  0  0  0  0  0  0  0  0  0
   -5.8114   -0.0176    0.0000 C   0  0  0  0  0  0  0  0  0  0  0  0
   -5.1333   -0.4874    0.0000 C   0  0  0  0  0  0  0  0  0  0  0  0
   -4.3873   -0.1350    0.0000 C   0  0  0  0  0  0  0  0  0  0  0  0
   -3.7092   -0.6049    0.0000 C   0  0  0  0  0  0  0  0  0  0  0  0
   -2.9632   -0.2525    0.0000 C   0  0  0  0  0  0  0  0  0  0  0  0
   -2.2851   -0.7223    0.0000 N   0  0  0  0  0  0  0  0  0  0  0  0
   -2.3529   -1.5445    0.0000 C   0  0  0  0  0  0  0  0  0  0  0  0
   -1.5391   -0.3700    0.0000 C   0  0  0  0  0  0  0  0  0  0  0  0
   -0.8610   -0.8398    0.0000 C   0  0  0  0  0  0  0  0  0  0  0  0
   -0.1150   -0.4874    0.0000 C   0  0  0  0  0  0  0  0  0  0  0  0
    0.5631   -0.9572    0.0000 C   0  0  0  0  0  0  0  0  0  0  0  0
    1.3091   -0.6049    0.0000 C   0  0  0  0  0  0  0  0  0  0  0  0
    1.9873   -1.0747    0.0000 C   0  0  0  0  0  0  0  0  0  0  0  0
    2.7332   -0.7223    0.0000 N   0  0  0  0  0  0  0  0  0  0  0  0
    3.4114   -1.1922    0.0000 C   0  0  0  0  0  0  0  0  0  0  0  0
    4.1573   -0.8398    0.0000 C   0  0  0  0  0  0  0  0  0  0  0  0
    4.2251   -0.0176    0.0000 O   0  0  0  0  0  0  0  0  0  0  0  0
    4.8355   -1.3096    0.0000 N   0  0  0  0  0  0  0  0  0  0  0  0
    5.5530   -0.9025    0.0000 C   0  0  0  0  0  0  0  0  0  0  0  0
    5.4362   -0.0858    0.0000 C   0  0  0  0  0  0  0  0  0  0  0  0
    6.0850    0.4237    0.0000 C   0  0  0  0  0  0  0  0  0  0  0  0
    6.8507    0.1166    0.0000 C   0  0  0  0  0  0  0  0  0  0  0  0
    6.9675   -0.7001    0.0000 C   0  0  0  0  0  0  0  0  0  0  0  0
    6.3187   -1.2096    0.0000 C   0  0  0  0  0  0  0  0  0  0  0  0
    6.5560   -1.9998    0.0000 C   0  0  0  0  0  0  0  0  0  0  0  0
    7.3708   -2.1289    0.0000 O   0  0  0  0  0  0  0  0  0  0  0  0
    6.0861   -2.6779    0.0000 N   0  0  0  0  0  0  0  0  0  0  0  0
    5.2630   -2.7334    0.0000 C   0  0  0  0  0  0  0  0  0  0  0  0
    5.0139   -3.5199    0.0000 C   0  0  0  0  0  0  0  0  0  0  0  0
    4.2083   -3.6975    0.0000 C   0  0  0  0  0  0  0  0  0  0  0  0
    3.6517   -3.0885    0.0000 C   0  0  0  0  0  0  0  0  0  0  0  0
    3.9007   -2.3020    0.0000 N   0  0  0  0  0  0  0  0  0  0  0  0
    4.7064   -2.1245    0.0000 C   0  0  0  0  0  0  0  0  0  0  0  0
    2.8010    0.0999    0.0000 C   0  0  0  0  0  0  0  0  0  0  0  0
    2.1229    0.5697    0.0000 C   0  0  0  0  0  0  0  0  0  0  0  0
    1.3769    0.2173    0.0000 O   0  0  0  0  0  0  0  0  0  0  0  0
    2.1907    1.3919    0.0000 N   0  0  0  0  0  0  0  0  0  0  0  0
    1.4793    1.8098    0.0000 C   0  0  0  0  0  0  0  0  0  0  0  0
    0.8305    1.3002    0.0000 C   0  0  0  0  0  0  0  0  0  0  0  0
    0.0648    1.6074    0.0000 C   0  0  0  0  0  0  0  0  0  0  0  0
   -0.0520    2.4241    0.0000 C   0  0  0  0  0  0  0  0  0  0  0  0
    0.5968    2.9336    0.0000 C   0  0  0  0  0  0  0  0  0  0  0  0
    1.3625    2.6264    0.0000 C   0  0  0  0  0  0  0  0  0  0  0  0
    1.9282    3.2270    0.0000 C   0  0  0  0  0  0  0  0  0  0  0  0
    1.6325    3.9972    0.0000 O   0  0  0  0  0  0  0  0  0  0  0  0
    2.7504    3.1592    0.0000 N   0  0  0  0  0  0  0  0  0  0  0  0
    3.2100    2.4741    0.0000 C   0  0  0  0  0  0  0  0  0  0  0  0
    4.0156    2.6516    0.0000 C   0  0  0  0  0  0  0  0  0  0  0  0
    4.5722    2.0427    0.0000 C   0  0  0  0  0  0  0  0  0  0  0  0
    4.3232    1.2562    0.0000 C   0  0  0  0  0  0  0  0  0  0  0  0
    3.5175    1.0786    0.0000 N   0  0  0  0  0  0  0  0  0  0  0  0
    2.9609    1.6876    0.0000 C   0  0  0  0  0  0  0  0  0  0  0  0
   10.3172    1.0717    0.0000 O   0  0  0  0  0  0  0  0  0  0  0  0
   10.7297    0.3572    0.0000 C   0  0  0  0  0  0  0  0  0  0  0  0
   11.5547    0.3572    0.0000 O   0  0  0  0  0  0  0  0  0  0  0  0
   10.3172   -0.3572    0.0000 C   0  0  0  0  0  0  0  0  0  0  0  0
   10.7297   -1.0717    0.0000 O   0  0  0  0  0  0  0  0  0  0  0  0
    9.4922   -0.3572    0.0000 O   0  0  0  0  0  0  0  0  0  0  0  0
   14.5012    1.0717    0.0000 O   0  0  0  0  0  0  0  0  0  0  0  0
   14.9137    0.3572    0.0000 C   0  0  0  0  0  0  0  0  0  0  0  0
   15.7387    0.3572    0.0000 O   0  0  0  0  0  0  0  0  0  0  0  0
   14.5012   -0.3572    0.0000 C   0  0  0  0  0  0  0  0  0  0  0  0
   14.9137   -1.0717    0.0000 O   0  0  0  0  0  0  0  0  0  0  0  0
   13.6762   -0.3572    0.0000 O   0  0  0  0  0  0  0  0  0  0  0  0
   -0.2063   -5.3475    0.0000 O   0  0  0  0  0  0  0  0  0  0  0  0
    0.2062   -6.0619    0.0000 C   0  0  0  0  0  0  0  0  0  0  0  0
    1.0312   -6.0619    0.0000 O   0  0  0  0  0  0  0  0  0  0  0  0
   -0.2063   -6.7764    0.0000 C   0  0  0  0  0  0  0  0  0  0  0  0
    0.2062   -7.4909    0.0000 O   0  0  0  0  0  0  0  0  0  0  0  0
   -1.0313   -6.7764    0.0000 O   0  0  0  0  0  0  0  0  0  0  0  0
    3.9777   -5.3475    0.0000 O   0  0  0  0  0  0  0  0  0  0  0  0
    4.3902   -6.0619    0.0000 C   0  0  0  0  0  0  0  0  0  0  0  0
    5.2152   -6.0619    0.0000 O   0  0  0  0  0  0  0  0  0  0  0  0
    3.9777   -6.7764    0.0000 C   0  0  0  0  0  0  0  0  0  0  0  0
    4.3902   -7.4909    0.0000 O   0  0  0  0  0  0  0  0  0  0  0  0
    3.1527   -6.7764    0.0000 O   0  0  0  0  0  0  0  0  0  0  0  0
  1  2  1  0  0  0  0
  2  3  1  0  0  0  0
  3  4  1  0  0  0  0
  4  5  1  0  0  0  0
  5  6  1  0  0  0  0
  6  7  1  0  0  0  0
  7  8  1  0  0  0  0
  8  9  1  0  0  0  0
  2 10  1  0  0  0  0
 10 11  1  0  0  0  0
 11 12  1  0  0  0  0
 12 13  1  0  0  0  0
 13 14  1  0  0  0  0
 14 15  1  0  0  0  0
 15 16  1  0  0  0  0
 16 17  1  0  0  0  0
 17 18  1  0  0  0  0
 18 19  1  0  0  0  0
 18 20  1  0  0  0  0
 20 21  1  0  0  0  0
 21 22  1  0  0  0  0
 22 23  1  0  0  0  0
 23 24  1  0  0  0  0
 24 25  1  0  0  0  0
 25 26  1  0  0  0  0
 26 27  1  0  0  0  0
 27 28  1  0  0  0  0
 28 29  2  0  0  0  0
 28 30  1  0  0  0  0
 30 31  1  0  0  0  0
 31 32  2  0  0  0  0
 32 33  1  0  0  0  0
 33 34  2  0  0  0  0
 34 35  1  0  0  0  0
 35 36  2  0  0  0  0
 36 31  1  0  0  0  0
 36 37  1  0  0  0  0
 37 38  2  0  0  0  0
 37 39  1  0  0  0  0
 39 40  1  0  0  0  0
 40 41  2  0  0  0  0
 41 42  1  0  0  0  0
 42 43  2  0  0  0  0
 43 44  1  0  0  0  0
 44 45  2  0  0  0  0
 45 30  1  0  0  0  0
 45 40  1  0  0  0  0
 26 46  1  0  0  0  0
 46 47  1  0  0  0  0
 47 48  2  0  0  0  0
 47 49  1  0  0  0  0
 49 50  1  0  0  0  0
 50 51  2  0  0  0  0
 51 52  1  0  0  0  0
 52 53  2  0  0  0  0
 53 54  1  0  0  0  0
 54 55  2  0  0  0  0
 55 50  1  0  0  0  0
 55 56  1  0  0  0  0
 56 57  2  0  0  0  0
 56 58  1  0  0  0  0
 58 59  1  0  0  0  0
 59 60  2  0  0  0  0
 60 61  1  0  0  0  0
 61 62  2  0  0  0  0
 62 63  1  0  0  0  0
 63 64  2  0  0  0  0
 64 49  1  0  0  0  0
 64 59  1  0  0  0  0
 65 66  1  0  0  0  0
 66 67  2  0  0  0  0
 66 68  1  0  0  0  0
 68 69  2  0  0  0  0
 68 70  1  0  0  0  0
 71 72  1  0  0  0  0
 72 73  2  0  0  0  0
 72 74  1  0  0  0  0
 74 75  2  0  0  0  0
 74 76  1  0  0  0  0
 77 78  1  0  0  0  0
 78 79  2  0  0  0  0
 78 80  1  0  0  0  0
 80 81  2  0  0  0  0
 80 82  1  0  0  0  0
 83 84  1  0  0  0  0
 84 85  2  0  0  0  0
 84 86  1  0  0  0  0
 86 87  2  0  0  0  0
 86 88  1  0  0  0  0
M  END