
  SciTegic02271514412D

 48 54  0  0  0  0            999 V2000
    9.0856  -11.5423    0.0000 N   0  0
    9.1041   -9.9061    0.0000 C   0  0
    8.3833  -11.1286    0.0000 C   0  0
    8.3920  -10.3146    0.0000 C   0  0
    7.6925   -9.9019    0.0000 C   0  0
    6.9839  -10.3020    0.0000 C   0  0
    6.9791  -11.1192    0.0000 C   0  0
    7.6792  -11.5282    0.0000 C   0  0
    9.8091  -10.3235    0.0000 C   0  0
    9.8002  -11.1411    0.0000 C   0  0
   10.5028  -11.5558    0.0000 C   0  0
   11.2146  -11.1540    0.0000 C   0  0
   11.2196  -10.3333    0.0000 C   0  0
   10.5164   -9.9223    0.0000 C   0  0
    9.1097   -9.0889    0.0000 N   0  0
    9.8202   -8.6852    0.0000 C   0  0
    9.8258   -7.8680    0.0000 C   0  0
   10.5363   -7.4643    0.0000 N   0  0
   11.2804   -7.8011    0.0000 N   0  0
   11.8314   -7.1975    0.0000 N   0  0
   11.4276   -6.4870    0.0000 C   0  0
   10.6272   -6.6515    0.0000 C   0  0
   10.0236   -6.1007    0.0000 C   0  0
    9.2447   -6.3480    0.0000 C   0  0
    8.6411   -5.7972    0.0000 C   0  0
    7.8622   -6.0445    0.0000 C   0  0
    7.2586   -5.4936    0.0000 C   0  0
    6.4797   -5.7410    0.0000 C   0  0
    5.8761   -5.1901    0.0000 N   0  0
    5.1028   -5.4412    0.0000 C   0  0  1  0  0  0
    4.9294   -6.2400    0.0000 C   0  0
    4.1503   -6.4904    0.0000 C   0  0
    3.9790   -7.2887    0.0000 C   0  0
    4.5859   -7.8373    0.0000 C   0  0
    5.3666   -7.5822    0.0000 C   0  0
    5.5342   -6.7845    0.0000 C   0  0
    4.4986   -4.8941    0.0000 C   0  0
    4.6718   -4.0939    0.0000 C   0  0
    4.0662   -3.5458    0.0000 C   0  0
    3.2871   -3.7967    0.0000 C   0  0
    3.1171   -4.6007    0.0000 C   0  0
    3.7241   -5.1453    0.0000 C   0  0
    5.4520   -3.8441    0.0000 C   0  0
    6.0517   -4.3951    0.0000 C   0  0
    2.6803   -3.2494    0.0000 O   0  0
    2.8509   -2.4502    0.0000 C   0  0
    2.3403   -4.8543    0.0000 O   0  0
    1.7322   -4.3083    0.0000 C   0  0
  1 10  1  0
  9  2  1  0
  2  4  2  0
  3  1  2  0
  3  4  1  0
  4  5  1  0
  5  6  2  0
  6  7  1  0
  7  8  2  0
  8  3  1  0
  9 10  2  0
 10 11  1  0
 11 12  1  0
 12 13  1  0
 13 14  1  0
 14  9  1  0
  2 15  1  0
 15 16  1  0
 16 17  1  0
 17 18  1  0
 18 19  1  0
 19 20  2  0
 20 21  1  0
 21 22  2  0
 22 18  1  0
 22 23  1  0
 23 24  1  0
 24 25  1  0
 25 26  1  0
 26 27  1  0
 27 28  1  0
 28 29  1  0
 29 44  1  0
 43 38  1  0
 37 30  1  0
 30 29  1  0
 31 32  2  0
 32 33  1  0
 33 34  2  0
 34 35  1  0
 35 36  2  0
 36 31  1  0
 30 31  1  1
 37 38  1  0
 38 39  2  0
 39 40  1  0
 40 41  2  0
 41 42  1  0
 42 37  2  0
 43 44  1  0
 40 45  1  0
 45 46  1  0
 41 47  1  0
 47 48  1  0
M  END