
          11280715272D 1   1.00000     0.00000     0

 66 71  0     0  0            999 V2000
   13.7792   -6.7875    0.0000 N   0  0  3  0  0  0           0  0  0
   -0.4958   -5.9292    0.0000 N   0  0  3  0  0  0           0  0  0
   13.0250   -7.1000    0.0000 C   0  0  0  0  0  0           0  0  0
   -0.5583   -6.7500    0.0000 C   0  0  0  0  0  0           0  0  0
   -2.0208   -6.9792    0.0000 C   0  0  0  0  0  0           0  0  0
   13.2625   -8.5625    0.0000 C   0  0  0  0  0  0           0  0  0
   12.7875   -7.8792    0.0000 C   0  0  0  0  0  0           0  0  0
   -1.2333   -7.2167    0.0000 C   0  0  0  0  0  0           0  0  0
   14.5042   -7.1875    0.0000 C   0  0  0  0  0  0           0  0  0
   -1.1000   -5.3667    0.0000 C   0  0  0  0  0  0           0  0  0
   -2.3250   -6.2125    0.0000 N   0  0  0  0  0  0           0  0  0
   14.0875   -8.6125    0.0000 N   0  0  0  0  0  0           0  0  0
   -1.9208   -5.4917    0.0000 C   0  0  0  0  0  0           0  0  0
   14.6417   -8.0000    0.0000 C   0  0  0  0  0  0           0  0  0
    0.2167   -5.5167    0.0000 C   0  0  0  0  0  0           0  0  0
   13.7875   -5.9625    0.0000 C   0  0  0  0  0  0           0  0  0
    3.0875   -3.0542    0.0000 C   0  0  0  0  0  0           0  0  0
   10.9292   -3.4792    0.0000 C   0  0  0  0  0  0           0  0  0
   15.1375   -6.6625    0.0000 N   0  0  0  0  0  0           0  0  0
   -0.8000   -4.6042    0.0000 N   0  0  0  0  0  0           0  0  0
   12.8625   -9.2792    0.0000 O   0  0  0  0  0  0           0  0  0
   -2.5833   -7.5875    0.0000 O   0  0  0  0  0  0           0  0  0
    3.8000   -3.4667    0.0000 N   0  0  3  0  0  0           0  0  0
   10.2167   -3.0667    0.0000 N   0  0  3  0  0  0           0  0  0
    0.2250   -4.6917    0.0000 O   0  0  0  0  0  0           0  0  0
   13.0667   -5.5500    0.0000 O   0  0  0  0  0  0           0  0  0
    3.0875   -2.2292    0.0000 O   0  0  0  0  0  0           0  0  0
   10.9292   -4.3042    0.0000 O   0  0  0  0  0  0           0  0  0
   11.9917   -8.0667    0.0000 C   0  0  0  0  0  0           0  0  0
   -1.1583   -8.0292    0.0000 C   0  0  0  0  0  0           0  0  0
   12.4667   -6.5042    0.0000 C   0  0  0  0  0  0           0  0  0
    0.1792   -7.0917    0.0000 C   0  0  0  0  0  0           0  0  0
    1.6500   -5.5250    0.0000 N   0  0  0  0  0  0           0  0  0
   14.5000   -4.7250    0.0000 N   0  0  0  0  0  0           0  0  0
    0.9292   -5.9375    0.0000 C   0  0  0  0  0  0           0  0  0
   14.5000   -5.5500    0.0000 C   0  0  0  0  0  0           0  0  0
   -2.4333   -4.8542    0.0000 C   0  0  0  0  0  0           0  0  0
   15.4042   -8.2917    0.0000 C   0  0  0  0  0  0           0  0  0
    2.3667   -3.4667    0.0000 C   0  0  0  0  0  0           0  0  0
   11.6417   -3.0667    0.0000 C   0  0  0  0  0  0           0  0  0
   15.9125   -6.9542    0.0000 C   0  0  0  0  0  0           0  0  0
   -1.3208   -3.9625    0.0000 C   0  0  0  0  0  0           0  0  0
    9.5042   -3.4792    0.0000 C   0  0  0  0  0  0           0  0  0
    4.5167   -3.0542    0.0000 C   0  0  0  0  0  0           0  0  0
   10.2167   -2.2417    0.0000 C   0  0  0  0  0  0           0  0  0
    3.8000   -4.2917    0.0000 C   0  0  0  0  0  0           0  0  0
    1.6542   -4.7000    0.0000 C   0  0  0  0  0  0           0  0  0
   13.7875   -4.3125    0.0000 C   0  0  0  0  0  0           0  0  0
    1.6625   -3.0500    0.0000 C   0  0  0  0  0  0           0  0  0
   12.3542   -3.4792    0.0000 C   0  0  0  0  0  0           0  0  0
    5.2292   -3.4667    0.0000 C   0  0  0  0  0  0           0  0  0
    8.7917   -3.0667    0.0000 C   0  0  0  0  0  0           0  0  0
   13.7875   -3.4875    0.0000 C   0  0  0  0  0  0           0  0  0
    0.9417   -4.2875    0.0000 C   0  0  0  0  0  0           0  0  0
   16.0417   -7.7667    0.0000 C   0  0  0  0  0  0           0  0  0
   -2.1375   -4.0917    0.0000 C   0  0  0  0  0  0           0  0  0
   11.4292   -7.4750    0.0000 C   0  0  0  0  0  0           0  0  0
   -0.4208   -8.3792    0.0000 C   0  0  0  0  0  0           0  0  0
   11.6667   -6.6875    0.0000 C   0  0  0  0  0  0           0  0  0
    0.2542   -7.9042    0.0000 C   0  0  0  0  0  0           0  0  0
    6.6542   -3.4750    0.0000 C   0  0  0  0  0  0           0  0  0
    5.9417   -3.0625    0.0000 C   0  0  0  0  0  0           0  0  0
   13.0750   -3.0750    0.0000 C   0  0  0  0  0  0           0  0  0
    0.9417   -3.4625    0.0000 C   0  0  0  0  0  0           0  0  0
    8.0792   -3.4750    0.0000 C   0  0  0  0  0  0           0  0  0
    7.3667   -3.0625    0.0000 C   0  0  0  0  0  0           0  0  0
  2 15  1  0     0  0
  3  1  1  0     0  0
  4  2  1  0     0  0
  5  8  1  0     0  0
  6  7  1  0     0  0
  7  3  2  0     0  0
  8  4  2  0     0  0
  9  1  1  0     0  0
 10  2  1  0     0  0
 11 13  1  0     0  0
 12 14  1  0     0  0
 13 10  2  0     0  0
 14  9  2  0     0  0
 15 35  1  0     0  0
 16  1  1  0     0  0
 17 23  1  0     0  0
 18 40  1  0     0  0
 19  9  1  0     0  0
 20 10  1  0     0  0
 21  6  2  0     0  0
 22  5  2  0     0  0
 23 44  1  0     0  0
 24 18  1  0     0  0
 25 15  2  0     0  0
 26 16  2  0     0  0
 27 17  2  0     0  0
 28 18  2  0     0  0
 29  7  1  0     0  0
 30  8  1  0     0  0
 31  3  1  0     0  0
 32  4  1  0     0  0
 33 47  1  0     0  0
 34 36  1  0     0  0
 35 33  1  0     0  0
 36 16  1  0     0  0
 37 13  1  0     0  0
 38 14  1  0     0  0
 39 17  1  0     0  0
 40 50  1  0     0  0
 41 19  2  0     0  0
 42 20  2  0     0  0
 43 24  1  0     0  0
 44 51  1  0     0  0
 45 24  1  0     0  0
 46 23  1  0     0  0
 47 54  1  0     0  0
 48 34  1  0     0  0
 49 39  1  0     0  0
 50 63  1  0     0  0
 51 62  1  0     0  0
 52 43  1  0     0  0
 53 48  1  0     0  0
 54 64  1  0     0  0
 55 41  1  0     0  0
 56 42  1  0     0  0
 57 59  1  0     0  0
 58 60  1  0     0  0
 59 31  2  0     0  0
 60 32  2  0     0  0
 61 66  1  0     0  0
 62 61  1  0     0  0
 63 53  1  0     0  0
 64 49  1  0     0  0
 65 52  1  0     0  0
 66 65  1  0     0  0
  6 12  1  0     0  0
 55 38  2  0     0  0
 29 57  2  0     0  0
  5 11  1  0     0  0
 56 37  2  0     0  0
 30 58  2  0     0  0
M  END