
  SciTegic12231509382D

 18 18  0  0  0  0            999 V2000
    6.5622    2.5000    0.0000 C   0  0
    7.0622    4.3660    0.0000 C   0  0
    7.5622    3.5000    0.0000 C   0  0
    2.2321    4.0000    0.0000 C   0  0
    1.3660    3.5000    0.0000 C   0  0
    3.0981    2.5000    0.0000 C   0  0
    4.8301    3.5000    0.0000 C   0  0
    3.0981    3.5000    0.0000 C   0  0
    2.2321    2.0000    0.0000 C   0  0
    1.3660    2.5000    0.0000 C   0  0
    3.9641    4.0000    0.0000 C   0  0
    2.2321    1.0000    0.0000 C   0  0
    6.5622    3.5000    0.0000 C   0  0
    3.0981    0.5000    0.0000 N   0  0
    5.6962    4.0000    0.0000 N   0  0
    0.5000    2.0000    0.0000 O   0  0
    3.9641    5.0000    0.0000 O   0  0
    1.3660    0.5000    0.0000 O   0  0
  1 13  1  0
  2 13  1  0
  3 13  1  0
  4  5  2  0
  4  8  1  0
  5 10  1  0
  6  8  2  0
  6  9  1  0
  7 11  1  0
  7 15  1  0
  8 11  1  0
  9 10  2  0
  9 12  1  0
 10 16  1  0
 11 17  1  0
 12 14  2  0
 12 18  1  0
 13 15  1  0
M  END