
          11280715092D 1   1.00000     0.00000     0

 30 33  0     0  0            999 V2000
    0.3792   -1.2292    0.0000 C   0  0  0  0  0  0           0  0  0
    0.3917   -1.8375    0.0000 C   0  0  0  0  0  0           0  0  0
    0.9000   -0.9250    0.0000 C   0  0  0  0  0  0           0  0  0
    1.9375   -0.9167    0.0000 C   0  0  0  0  0  0           0  0  0
    1.4167   -1.2167    0.0000 C   0  0  0  0  0  0           0  0  0
    2.4542   -1.2042    0.0000 C   0  0  0  0  0  0           0  0  0
   -0.1333   -0.9375    0.0000 C   0  0  3  0  0  0           0  0  0
    5.0667   -2.0667    0.0000 C   0  0  0  0  0  0           0  0  0
   -0.1250   -2.1417    0.0000 C   0  0  3  0  0  0           0  0  0
    4.5417   -1.7792    0.0000 C   0  0  0  0  0  0           0  0  0
    2.9792   -0.9000    0.0000 C   0  0  0  0  0  0           0  0  0
    0.9167   -2.1292    0.0000 C   0  0  0  0  0  0           0  0  0
    4.0292   -2.0875    0.0000 C   0  0  0  0  0  0           0  0  0
    3.5000   -1.1917    0.0000 C   0  0  0  0  0  0           0  0  0
    3.5042   -1.7917    0.0000 C   0  0  0  0  0  0           0  0  0
    1.9250   -0.3125    0.0000 N   0  0  0  0  0  0           0  0  0
    1.4292   -1.8167    0.0000 C   0  0  0  0  0  0           0  0  0
    2.4667   -1.8125    0.0000 C   0  0  0  0  0  0           0  0  0
   -0.6583   -1.2417    0.0000 C   0  0  0  0  0  0           0  0  0
    5.0792   -2.6750    0.0000 O   0  0  0  0  0  0           0  0  0
   -0.6458   -1.8417    0.0000 C   0  0  0  0  0  0           0  0  0
    4.5375   -1.1750    0.0000 C   0  0  0  0  0  0           0  0  0
    2.9875   -2.0917    0.0000 C   0  0  0  0  0  0           0  0  0
    4.0125   -0.8875    0.0000 C   0  0  0  0  0  0           0  0  0
    2.3375    0.1250    0.0000 N   0  0  0  0  0  0           0  0  0
    5.5792   -1.7667    0.0000 O   0  0  0  0  0  0           0  0  0
   -0.6708   -0.6417    0.0000 C   0  0  0  0  0  0           0  0  0
    0.2667   -0.5042    0.0000 C   0  0  0  0  0  0           0  0  0
   -0.6458   -2.4417    0.0000 C   0  0  0  0  0  0           0  0  0
    0.3917   -2.4292    0.0000 C   0  0  0  0  0  0           0  0  0
  2  1  2  0     0  0
  3  1  1  0     0  0
  4  5  1  0     0  0
  5  3  2  0     0  0
  6  4  1  0     0  0
  7  1  1  0     0  0
  8 10  1  0     0  0
  9  2  1  0     0  0
 10 13  2  0     0  0
 11  6  1  0     0  0
 12  2  1  0     0  0
 13 15  1  0     0  0
 14 11  2  0     0  0
 15 23  2  0     0  0
 16  4  2  0     0  0
 17  5  1  0     0  0
 18  6  2  0     0  0
 19  7  1  0     0  0
 20  8  2  0     0  0
 21 19  1  0     0  0
 22 24  2  0     0  0
 23 18  1  0     0  0
 24 14  1  0     0  0
 25 16  1  0     0  0
 26  8  1  0     0  0
 27  7  1  0     0  0
 28  7  1  0     0  0
 29  9  1  0     0  0
 30  9  1  0     0  0
 21  9  1  0     0  0
 12 17  2  0     0  0
 15 14  1  0     0  0
 10 22  1  0     0  0
M  END