
  Mrv0541 04051115152D          

 32 34  0  0  0  0            999 V2000
    0.9918    0.2981    0.0000 C   0  0  0  0  0  0  0  0  0  0  0  0
    0.9918   -0.5269    0.0000 C   0  0  0  0  0  0  0  0  0  0  0  0
    0.2774   -0.9394    0.0000 C   0  0  0  0  0  0  0  0  0  0  0  0
    0.2774   -1.7644    0.0000 C   0  0  0  0  0  0  0  0  0  0  0  0
   -1.1516    1.5356    0.0000 C   0  0  0  0  0  0  0  0  0  0  0  0
   -1.8661    2.7731    0.0000 C   0  0  0  0  0  0  0  0  0  0  0  0
   -1.1516    3.1856    0.0000 C   0  0  0  0  0  0  0  0  0  0  0  0
    0.9918   -3.0019    0.0000 C   0  0  0  0  0  0  0  0  0  0  0  0
    1.7063   -3.4144    0.0000 C   0  0  0  0  0  0  0  0  0  0  0  0
    2.4208   -2.1769    0.0000 C   0  0  0  0  0  0  0  0  0  0  0  0
    1.7063    0.7106    0.0000 C   0  0  0  0  0  0  0  0  0  0  0  0
    0.2774    0.7106    0.0000 C   0  0  0  0  0  0  0  0  0  0  0  0
    0.2774    1.5356    0.0000 N   0  0  0  0  0  0  0  0  0  0  0  0
   -0.4371    1.9481    0.0000 C   0  0  0  0  0  0  0  0  0  0  0  0
    0.9918   -2.1769    0.0000 N   0  0  0  0  0  0  0  0  0  0  0  0
   -0.4371   -0.5269    0.0000 C   0  0  0  0  0  0  0  0  0  0  0  0
   -1.1516   -0.9394    0.0000 F   0  0  0  0  0  0  0  0  0  0  0  0
   -0.4371    0.2981    0.0000 C   0  0  0  0  0  0  0  0  0  0  0  0
   -1.1516    0.7106    0.0000 F   0  0  0  0  0  0  0  0  0  0  0  0
   -1.8661    1.9481    0.0000 C   0  0  0  0  0  0  0  0  0  0  0  0
   -2.5805    3.1856    0.0000 I   0  0  0  0  0  0  0  0  0  0  0  0
   -0.4371    2.7731    0.0000 C   0  0  0  0  0  0  0  0  0  0  0  0
    0.2774    3.1856    0.0000 F   0  0  0  0  0  0  0  0  0  0  0  0
    0.2774   -3.4144    0.0000 O   0  0  0  0  0  0  0  0  0  0  0  0
    2.4208   -3.0019    0.0000 C   0  0  0  0  0  0  0  0  0  0  0  0
    1.7063   -1.7644    0.0000 O   0  0  0  0  0  0  0  0  0  0  0  0
    1.7063    1.5356    0.0000 O   0  0  0  0  0  0  0  0  0  0  0  0
    2.4208    0.2981    0.0000 N   0  0  0  0  0  0  0  0  0  0  0  0
    3.1352    0.7106    0.0000 O   0  0  0  0  0  0  0  0  0  0  0  0
    3.8497    0.2981    0.0000 C   0  0  0  0  0  0  0  0  0  0  0  0
    4.5642    0.7106    0.0000 C   0  0  0  0  0  0  0  0  0  0  0  0
    5.2787    0.2981    0.0000 O   0  0  0  0  0  0  0  0  0  0  0  0
 11  1  1  0  0  0  0
 12  1  2  0  0  0  0
  1  2  1  0  0  0  0
  2  3  2  0  0  0  0
  3 16  1  0  0  0  0
  3  4  1  0  0  0  0
  4 15  1  0  0  0  0
  5 14  2  0  0  0  0
  5 20  1  0  0  0  0
  6  7  1  0  0  0  0
  6 21  1  0  0  0  0
 20  6  2  0  0  0  0
  7 22  2  0  0  0  0
  8 24  2  0  0  0  0
  8 15  1  0  0  0  0
  8  9  1  0  0  0  0
  9 25  1  0  0  0  0
 10 26  1  0  0  0  0
 25 10  1  0  0  0  0
 11 27  2  0  0  0  0
 11 28  1  0  0  0  0
 12 13  1  0  0  0  0
 12 18  1  0  0  0  0
 14 13  1  0  0  0  0
 22 14  1  0  0  0  0
 15 26  1  0  0  0  0
 18 16  2  0  0  0  0
 16 17  1  0  0  0  0
 18 19  1  0  0  0  0
 22 23  1  0  0  0  0
 28 29  1  0  0  0  0
 30 29  1  0  0  0  0
 30 31  1  0  0  0  0
 31 32  1  0  0  0  0
M  END