
          11280715482D 1   1.00000     0.00000     0

 36 41  0     0  0            999 V2000
    4.2417   -0.9667    0.0000 C   0  0  0  0  0  0           0  0  0
    3.4917   -0.6250    0.0000 N   0  0  0  0  0  0           0  0  0
    2.9375   -1.2375    0.0000 C   0  0  0  0  0  0           0  0  0
    4.1500   -1.7875    0.0000 C   0  0  0  0  0  0           0  0  0
    3.3417   -1.9542    0.0000 N   0  0  0  0  0  0           0  0  0
    4.9625   -0.5542    0.0000 C   0  0  0  0  0  0           0  0  0
    5.1917   -3.7042    0.0000 C   0  0  3  0  0  0           0  0  0
    5.6750   -0.9750    0.0000 N   0  0  0  0  0  0           0  0  0
    8.5250   -1.0000    0.0000 C   0  0  0  0  0  0           0  0  0
    7.8167   -0.5792    0.0000 C   0  0  0  0  0  0           0  0  0
    5.7917   -5.1917    0.0000 C   0  0  3  0  0  0           0  0  0
    6.5000   -4.0417    0.0000 C   0  0  3  0  0  0           0  0  0
    5.3667   -4.9625    0.0000 C   0  0  3  0  0  0           0  0  0
    4.9667    0.2708    0.0000 O   0  0  0  0  0  0           0  0  0
    4.7542   -2.3417    0.0000 C   0  0  0  0  0  0           0  0  0
    6.3917   -0.5667    0.0000 C   0  0  0  0  0  0           0  0  0
    7.1000   -0.9917    0.0000 C   0  0  0  0  0  0           0  0  0
    2.1167   -1.1417    0.0000 C   0  0  3  0  0  0           0  0  0
    5.9542   -3.4292    0.0000 C   0  0  0  0  0  0           0  0  0
    5.2167   -4.5667    0.0000 C   0  0  0  0  0  0           0  0  0
    4.8292   -4.3792    0.0000 C   0  0  0  0  0  0           0  0  0
    8.5167   -1.8250    0.0000 O   0  0  0  0  0  0           0  0  0
    4.5792   -3.1500    0.0000 C   0  0  0  0  0  0           0  0  0
    5.3542   -5.9000    0.0000 C   0  0  0  0  0  0           0  0  0
    6.0667   -4.6792    0.0000 C   0  0  0  0  0  0           0  0  0
    6.5542   -4.9125    0.0000 C   0  0  0  0  0  0           0  0  0
    9.2417   -0.5917    0.0000 O   0  0  0  0  0  0           0  0  0
    7.8167    0.2458    0.0000 C   0  0  0  0  0  0           0  0  0
    7.1042    0.6583    0.0000 C   0  0  0  0  0  0           0  0  0
    6.3917    0.2500    0.0000 C   0  0  0  0  0  0           0  0  0
    1.6750   -1.8417    0.0000 C   0  0  0  0  0  0           0  0  0
    1.8375   -0.3667    0.0000 C   0  0  0  0  0  0           0  0  0
    0.8542   -1.9375    0.0000 C   0  0  0  0  0  0           0  0  0
    1.0542   -0.0917    0.0000 C   0  0  0  0  0  0           0  0  0
    0.2667   -1.3542    0.0000 C   0  0  0  0  0  0           0  0  0
    0.3542   -0.5417    0.0000 C   0  0  0  0  0  0           0  0  0
  2  1  1  0     0  0
  3  2  1  0     0  0
  4  1  2  0     0  0
  5  4  1  0     0  0
  6  1  1  0     0  0
  7 23  1  0     0  0
  8  6  1  0     0  0
  9 10  1  0     0  0
 10 17  2  0     0  0
 11 20  1  0     0  0
 12 19  1  0     0  0
 13 21  1  0     0  0
 14  6  2  0     0  0
 15  4  1  0     0  0
 16  8  1  0     0  0
 17 16  1  0     0  0
 18  3  1  0     0  0
 19  7  1  0     0  0
 20  7  1  0     0  0
 21  7  1  0     0  0
 22  9  2  0     0  0
 23 15  1  0     0  0
 24 13  1  0     0  0
 25 13  1  0     0  0
 26 11  1  0     0  0
 27  9  1  0     0  0
 28 29  2  0     0  0
 29 30  1  0     0  0
 30 16  2  0     0  0
 31 18  1  0     0  0
 32 18  1  0     0  0
 33 31  1  0     0  0
 34 32  1  0     0  0
 35 33  1  0     0  0
 36 34  1  0     0  0
  3  5  2  0     0  0
 10 28  1  0     0  0
 35 36  1  0     0  0
 25 12  1  0     0  0
 11 24  1  0     0  0
 26 12  1  0     0  0
M  END