
  SciTegic03291108482D

 21 24  0  0  0  0            999 V2000
   -1.3486    3.1802    0.0000 S   0  0
    0.1505    0.8628    0.0000 S   0  0
   -2.3881    0.8058    0.0000 S   0  0
    0.8650    2.1003    0.0000 N   0  0
    0.1505    3.3378    0.0000 N   0  0
    1.6187    0.7858    0.0000 N   0  0
    0.9512   -0.3702    0.0000 N   0  0
    2.1707    0.1727    0.0000 N   0  0
    1.7582   -0.5417    0.0000 N   0  0
   -0.5640    2.1003    0.0000 C   0  0
   -1.3486    1.8453    0.0000 C   0  0
    0.1505    1.6878    0.0000 C   0  0
   -0.5640    2.9253    0.0000 C   0  0
   -1.6035    1.0607    0.0000 C   0  0
   -1.8335    2.5128    0.0000 C   0  0
    0.8650    0.4503    0.0000 C   0  0
    0.8650    2.9253    0.0000 C   0  0
   -1.1186    0.3933    0.0000 C   0  0
   -2.3881   -0.0192    0.0000 C   0  0
   -1.6035   -0.2742    0.0000 C   0  0
    1.7902    1.5928    0.0000 C   0  0
  1 13  1  0
  1 15  1  0
  2 12  1  0
  2 16  1  0
  3 14  1  0
  3 19  1  0
  4 12  2  0
  4 17  1  0
  5 13  1  0
  5 17  2  0
  6  8  1  0
  6 16  1  0
  6 21  1  0
  7  9  1  0
  7 16  2  0
  8  9  2  0
 10 11  1  0
 10 12  1  0
 10 13  2  0
 11 14  1  0
 11 15  2  0
 14 18  2  0
 18 20  1  0
 19 20  2  0
M  END