
          11280715122D 1   1.00000     0.00000     0

 29 31  0     0  0            999 V2000
    8.5625   -6.4667    0.0000 C   0  0  0  0  0  0           0  0  0
    7.8500   -6.0542    0.0000 C   0  0  0  0  0  0           0  0  0
    3.8042   -6.5667    0.0000 N   0  0  3  0  0  0           0  0  0
    8.5625   -7.2917    0.0000 C   0  0  0  0  0  0           0  0  0
    3.0875   -6.1542    0.0000 C   0  0  0  0  0  0           0  0  0
    5.1667   -7.4917    0.0000 N   0  0  3  0  0  0           0  0  0
    7.8500   -5.2292    0.0000 N   0  0  3  0  0  0           0  0  0
    9.2750   -7.7042    0.0000 N   0  0  0  0  0  0           0  0  0
    7.1292   -6.4667    0.0000 O   0  0  0  0  0  0           0  0  0
    3.7417   -7.3917    0.0000 C   0  0  0  0  0  0           0  0  0
    4.5417   -6.2042    0.0000 C   0  0  0  0  0  0           0  0  0
    3.0875   -5.3292    0.0000 C   0  0  0  0  0  0           0  0  0
    7.8500   -7.7042    0.0000 N   0  0  0  0  0  0           0  0  0
    5.2250   -6.6667    0.0000 C   0  0  0  0  0  0           0  0  0
    4.4250   -7.8500    0.0000 C   0  0  0  0  0  0           0  0  0
    3.8000   -4.9125    0.0000 S   0  0  0  0  0  0           0  0  0
    9.2750   -6.0500    0.0000 C   0  0  0  0  0  0           0  0  0
    5.8417   -7.9542    0.0000 C   0  0  0  0  0  0           0  0  0
    6.5542   -7.5417    0.0000 C   0  0  0  0  0  0           0  0  0
    2.3667   -6.5667    0.0000 C   0  0  0  0  0  0           0  0  0
    9.9917   -7.2917    0.0000 C   0  0  0  0  0  0           0  0  0
    7.1375   -8.1250    0.0000 C   0  0  0  0  0  0           0  0  0
    8.5625   -4.8167    0.0000 C   0  0  0  0  0  0           0  0  0
    7.1292   -4.8167    0.0000 C   0  0  0  0  0  0           0  0  0
    2.3667   -4.9167    0.0000 C   0  0  0  0  0  0           0  0  0
    4.5167   -5.3167    0.0000 C   0  0  0  0  0  0           0  0  0
    9.9917   -6.4625    0.0000 C   0  0  0  0  0  0           0  0  0
    1.6542   -6.1542    0.0000 C   0  0  0  0  0  0           0  0  0
    1.6542   -5.3292    0.0000 C   0  0  0  0  0  0           0  0  0
  2  1  1  0     0  0
  3 10  1  0     0  0
  4  1  2  0     0  0
  5  3  1  0     0  0
  6 18  1  0     0  0
  7  2  1  0     0  0
  8  4  1  0     0  0
  9  2  2  0     0  0
 10 15  1  0     0  0
 11 14  1  0     0  0
 12  5  1  0     0  0
 13  4  1  0     0  0
 14  6  1  0     0  0
 15  6  1  0     0  0
 16 12  1  0     0  0
 17  1  1  0     0  0
 18 19  1  0     0  0
 19 22  1  0     0  0
 20  5  2  0     0  0
 21 27  1  0     0  0
 22 13  1  0     0  0
 23  7  1  0     0  0
 24  7  1  0     0  0
 25 12  2  0     0  0
 26 16  1  0     0  0
 27 17  2  0     0  0
 28 20  1  0     0  0
 29 28  2  0     0  0
 21  8  2  0     0  0
  3 11  1  0     0  0
 29 25  1  0     0  0
M  END