
          11280715112D 1   1.00000     0.00000     0

 28 31  0     0  0            999 V2000
    0.8000    3.1458    0.0000 C   0  0  0  0  0  0           0  0  0
    0.0417    2.8083    0.0000 N   0  0  3  0  0  0           0  0  0
   -0.5083    3.4250    0.0000 N   0  0  0  0  0  0           0  0  0
    0.7125    3.9708    0.0000 C   0  0  0  0  0  0           0  0  0
   -0.0958    4.1375    0.0000 C   0  0  0  0  0  0           0  0  0
    1.5167    2.7333    0.0000 N   0  0  0  0  0  0           0  0  0
    2.2292    3.1458    0.0000 C   0  0  0  0  0  0           0  0  0
    2.9417    2.7333    0.0000 N   0  0  0  0  0  0           0  0  0
    3.6625    3.1458    0.0000 C   0  0  3  0  0  0           0  0  0
   -0.4333    4.8917    0.0000 C   0  0  3  0  0  0           0  0  0
    4.5542    4.1292    0.0000 C   0  0  0  0  0  0           0  0  0
    4.9667    3.4208    0.0000 C   0  0  0  0  0  0           0  0  0
   -0.1875    2.0208    0.0000 C   0  0  0  0  0  0           0  0  0
    4.4125    2.8000    0.0000 C   0  0  0  0  0  0           0  0  0
    3.7500    3.9583    0.0000 C   0  0  0  0  0  0           0  0  0
    2.2292    3.9708    0.0000 O   0  0  0  0  0  0           0  0  0
   -0.8458    5.6042    0.0000 C   0  0  0  0  0  0           0  0  0
    0.0542    5.5542    0.0000 C   0  0  0  0  0  0           0  0  0
   -1.2500    4.9792    0.0000 C   0  0  0  0  0  0           0  0  0
    5.7875    3.4083    0.0000 C   0  0  0  0  0  0           0  0  0
    4.9750    4.8292    0.0000 C   0  0  0  0  0  0           0  0  0
    0.3792    1.4333    0.0000 C   0  0  0  0  0  0           0  0  0
   -0.9875    1.8333    0.0000 C   0  0  0  0  0  0           0  0  0
    5.7917    4.8292    0.0000 C   0  0  0  0  0  0           0  0  0
    6.2042    4.1042    0.0000 C   0  0  0  0  0  0           0  0  0
   -1.2250    1.0458    0.0000 C   0  0  0  0  0  0           0  0  0
    0.1500    0.6375    0.0000 C   0  0  0  0  0  0           0  0  0
   -0.6583    0.4458    0.0000 C   0  0  0  0  0  0           0  0  0
  2  1  1  0     0  0
  3  2  1  0     0  0
  4  1  2  0     0  0
  5  4  1  0     0  0
  6  1  1  0     0  0
  7  6  1  0     0  0
  8  7  1  0     0  0
  9  8  1  0     0  0
 10  5  1  0     0  0
 11 15  1  0     0  0
 12 14  1  0     0  0
 13  2  1  0     0  0
 14  9  1  0     0  0
 15  9  1  0     0  0
 16  7  2  0     0  0
 17 10  1  0     0  0
 18 10  1  0     0  0
 19 10  1  0     0  0
 20 12  1  0     0  0
 21 11  1  0     0  0
 22 13  1  0     0  0
 23 13  2  0     0  0
 24 21  2  0     0  0
 25 20  2  0     0  0
 26 23  1  0     0  0
 27 22  2  0     0  0
 28 26  2  0     0  0
  3  5  2  0     0  0
 27 28  1  0     0  0
 12 11  2  0     0  0
 24 25  1  0     0  0
M  END