
  SciTegic06051315212D

 53 56  0  0  0  0            999 V2000
   15.8455  -17.2370    0.0000 C   0  0
   16.5599  -16.8245    0.0000 C   0  0
   15.8455  -18.0620    0.0000 C   0  0
   17.2744  -17.2370    0.0000 C   0  0
   16.5599  -15.9996    0.0000 C   0  0
   17.2744  -18.0620    0.0000 O   0  0
   17.9888  -16.8245    0.0000 O   0  0
   18.6335  -17.3387    0.0000 C   0  0  1  0  0  0
   18.5962  -18.1627    0.0000 C   0  0
   19.4258  -17.1176    0.0000 C   0  0  2  0  0  0
   17.9078  -18.6173    0.0000 C   0  0
   19.3743  -18.4544    0.0000 C   0  0
   19.8831  -17.8053    0.0000 C   0  0  1  0  0  0
   20.7136  -17.7956    0.0000 C   0  0  1  0  0  0
   21.2394  -18.4343    0.0000 C   0  0
   21.0621  -19.2420    0.0000 C   0  0  1  0  0  0
   20.3198  -19.6134    0.0000 C   0  0  2  0  0  0
   19.5626  -19.2610    0.0000 C   0  0  1  0  0  0
   18.9945  -19.8736    0.0000 O   0  0
   21.1120  -19.8245    0.0000 O   0  0
   20.4953  -16.9954    0.0000 C   0  0
   21.4245  -17.3788    0.0000 O   0  0
   21.4189  -16.5538    0.0000 C   0  0
   22.1305  -16.1364    0.0000 O   0  0
   20.7016  -16.1461    0.0000 C   0  0
   21.8875  -19.2463    0.0000 O   0  0
   22.3039  -18.5341    0.0000 C   0  0
   23.1288  -18.5385    0.0000 C   0  0
   21.8952  -17.8174    0.0000 O   0  0
   23.5451  -17.8263    0.0000 C   0  0
   24.3701  -17.8307    0.0000 C   0  0
   19.7037  -16.3416    0.0000 O   0  0
   19.2877  -15.6291    0.0000 C   0  0
   19.6965  -14.9127    0.0000 O   0  0
   18.4627  -15.6333    0.0000 C   0  0
   20.0953  -18.5995    0.0000 H   0  0
   18.0467  -14.9209    0.0000 C   0  0
   17.2217  -14.9250    0.0000 C   0  0
   16.8056  -14.2127    0.0000 C   0  0
   15.9807  -14.2167    0.0000 C   0  0
   15.5646  -13.5044    0.0000 C   0  0
   14.7396  -13.5085    0.0000 C   0  0
   20.6173  -21.1648    0.0000 O   0  0
   20.2178  -20.4416    0.0000 C   0  0  2  0  0  0
   19.4060  -20.5994    0.0000 C   0  0  2  0  0  0
   19.3067  -21.4205    0.0000 N   0  0
   20.0572  -21.7674    0.0000 C   0  0
   20.2167  -22.5768    0.0000 C   0  0
   21.0120  -20.6537    0.0000 C   0  0
   19.5955  -23.1197    0.0000 C   0  0
   18.7370  -19.2579    0.0000 H   0  0
   18.5787  -20.5953    0.0000 H   0  0
   19.7564  -23.9368    0.0000 C   0  0
  1  2  2  0
  1  3  1  0
  2  4  1  0
  2  5  1  0
  4  6  2  0
  4  7  1  0
  8  7  1  6
  9 12  2  0
  8  9  1  0
 13 10  1  0
 10  8  1  0
  9 11  1  0
 12 13  1  0
 13 14  1  0
 12 18  1  0
 14 15  1  0
 15 16  1  0
 17 16  1  0
 17 18  1  0
 44 17  1  0
 18 19  1  0
 19 45  1  0
 17 20  1  1
 14 21  1  0
 14 22  1  1
 22 23  1  0
 23 24  2  0
 23 25  1  0
 16 26  1  6
 26 27  1  0
 27 28  1  0
 27 29  2  0
 28 30  1  0
 30 31  1  0
 10 32  1  1
 32 33  1  0
 33 34  2  0
 33 35  1  0
 13 36  1  1
 35 37  1  0
 37 38  1  0
 38 39  1  0
 39 40  1  0
 40 41  1  0
 41 42  1  0
 44 45  1  0
 43 44  1  0
 45 46  1  0
 46 47  2  0
 47 43  1  0
 47 48  1  0
 44 49  1  1
 48 50  1  0
 18 51  1  6
 45 52  1  1
 50 53  1  0
M  END