
          11280715502D 1   1.00000     0.00000     0

 19 21  0     0  0            999 V2000
    9.0819   -3.8375    0.0000 C   0  0  0  0  0  0           0  0  0
    9.0807   -4.6648    0.0000 C   0  0  0  0  0  0           0  0  0
    9.7956   -5.0777    0.0000 C   0  0  0  0  0  0           0  0  0
    9.7938   -3.4247    0.0000 C   0  0  0  0  0  0           0  0  0
   10.5091   -3.8338    0.0000 C   0  0  0  0  0  0           0  0  0
   10.5099   -4.6607    0.0000 C   0  0  0  0  0  0           0  0  0
   11.2252   -5.0716    0.0000 N   0  0  0  0  0  0           0  0  0
   11.9402   -4.6569    0.0000 C   0  0  0  0  0  0           0  0  0
   11.9355   -3.8269    0.0000 C   0  0  0  0  0  0           0  0  0
   11.2196   -3.4197    0.0000 C   0  0  0  0  0  0           0  0  0
   12.6563   -5.0666    0.0000 N   0  0  0  0  0  0           0  0  0
   13.3692   -4.6513    0.0000 C   0  0  0  0  0  0           0  0  0
   13.3660   -3.8263    0.0000 C   0  0  0  0  0  0           0  0  0
   14.0797   -3.4130    0.0000 C   0  0  0  0  0  0           0  0  0
   14.0768   -2.5888    0.0000 C   0  0  0  0  0  0           0  0  0
   13.3602   -2.1782    0.0000 C   0  0  0  0  0  0           0  0  0
   12.6450   -2.5979    0.0000 C   0  0  0  0  0  0           0  0  0
   12.6514   -3.4208    0.0000 C   0  0  0  0  0  0           0  0  0
   13.3559   -1.3532    0.0000 O   0  0  0  0  0  0           0  0  0
  4  1  2  0     0  0
  9 10  1  0     0  0
 10  5  2  0     0  0
  8 11  1  0     0  0
  2  3  2  0     0  0
 11 12  1  0     0  0
  5  6  1  0     0  0
 12 13  1  0     0  0
  3  6  1  0     0  0
 13 14  2  0     0  0
  6  7  2  0     0  0
 14 15  1  0     0  0
  1  2  1  0     0  0
 15 16  2  0     0  0
  7  8  1  0     0  0
 16 17  1  0     0  0
  5  4  1  0     0  0
 17 18  2  0     0  0
 18 13  1  0     0  0
  8  9  2  0     0  0
 16 19  1  0     0  0
M  END