
  SciTegic05061116452D

 27 29  0  0  0  0            999 V2000
    0.9517  -15.1881    0.0000 N   0  0
    1.6633  -14.7795    0.0000 C   0  0
    1.6633  -13.9544    0.0000 N   0  0
    0.9517  -13.5381    0.0000 C   0  0
    0.2399  -14.7795    0.0000 C   0  0
    0.2400  -13.9499    0.0000 C   0  0
   -0.5489  -13.6935    0.0000 N   0  0
   -1.0366  -14.3646    0.0000 C   0  0
   -0.5494  -15.0357    0.0000 N   0  0
   -0.9525  -15.7556    0.0000 C   0  0
   -1.7774  -15.7665    0.0000 C   0  0
   -2.1805  -16.4862    0.0000 O   0  0
   -2.2032  -15.0568    0.0000 O   0  0
    0.9536  -12.7132    0.0000 N   0  0
    2.3772  -15.1928    0.0000 N   0  0
    3.0921  -14.7811    0.0000 C   0  0
    3.8061  -15.1945    0.0000 C   0  0
    4.5210  -14.7829    0.0000 C   0  0
    5.2350  -15.1963    0.0000 C   0  0
    5.9499  -14.7846    0.0000 C   0  0
    1.6690  -12.3023    0.0000 C   0  0
    2.3818  -12.7168    0.0000 C   0  0
    2.3642  -13.5436    0.0000 C   0  0
    3.1417  -13.8191    0.0000 C   0  0
    3.6441  -13.1647    0.0000 C   0  0
    3.1769  -12.4848    0.0000 O   0  0
    0.2400  -12.2990    0.0000 C   0  0
  6  4  1  0
 11 13  2  0
  5  1  1  0
  4 14  1  0
  1  2  2  0
  2 15  1  0
  2  3  1  0
 15 16  1  0
  6  7  1  0
 16 17  1  0
  7  8  2  0
 17 18  1  0
  8  9  1  0
 18 19  1  0
  9  5  1  0
 19 20  1  0
  3  4  2  0
 14 21  1  0
  9 10  1  0
 21 22  1  0
 22 23  2  0
  5  6  2  0
 10 11  1  0
 11 12  1  0
 23 24  1  0
 24 25  2  0
 25 26  1  0
 26 22  1  0
 14 27  1  0
M  END