
          11280715062D 1   1.00000     0.00000     0

 23 23  0     0  0            999 V2000
   -0.3250   -7.3125    0.0000 C   0  0  0  0  0  0           0  0  0
    0.3917   -6.9000    0.0000 C   0  0  0  0  0  0           0  0  0
   -1.0375   -6.8917    0.0000 C   0  0  0  0  0  0           0  0  0
   -0.3250   -8.1375    0.0000 C   0  0  3  0  0  0           0  0  0
    1.1042   -7.3167    0.0000 C   0  0  0  0  0  0           0  0  0
    1.8250   -6.0792    0.0000 C   0  0  0  0  0  0           0  0  0
    1.2417   -5.5000    0.0000 C   0  0  0  0  0  0           0  0  0
    1.8167   -6.9042    0.0000 C   0  0  0  0  0  0           0  0  0
    3.2500   -6.9042    0.0000 C   0  0  0  0  0  0           0  0  0
    0.4417   -5.7167    0.0000 O   0  0  0  0  0  0           0  0  0
    3.9625   -7.3250    0.0000 C   0  0  0  0  0  0           0  0  0
    1.4500   -4.7000    0.0000 O   0  0  0  0  0  0           0  0  0
    2.5292   -7.3167    0.0000 C   0  0  0  0  0  0           0  0  0
   -1.7458   -7.3125    0.0000 C   0  0  0  0  0  0           0  0  0
   -1.0375   -8.5417    0.0000 C   0  0  0  0  0  0           0  0  0
   -1.0375   -6.0667    0.0000 C   0  0  0  0  0  0           0  0  0
    0.0792   -8.8500    0.0000 C   0  0  0  0  0  0           0  0  0
    0.4667   -7.9167    0.0000 C   0  0  0  0  0  0           0  0  0
   -1.7458   -8.1375    0.0000 C   0  0  0  0  0  0           0  0  0
    4.6792   -6.9125    0.0000 C   0  0  3  0  0  0           0  0  0
    5.3917   -7.3292    0.0000 C   0  0  0  0  0  0           0  0  0
    4.6792   -6.0875    0.0000 C   0  0  0  0  0  0           0  0  0
    6.1042   -6.9167    0.0000 C   0  0  0  0  0  0           0  0  0
  2  1  1  0     0  0
  3  1  2  0     0  0
  4  1  1  0     0  0
  5  2  2  0     0  0
  6  8  2  0     0  0
  7  6  1  0     0  0
  8  5  1  0     0  0
  9 13  1  0     0  0
 10  7  2  0     0  0
 11  9  2  0     0  0
 12  7  1  0     0  0
 13  8  1  0     0  0
 14  3  1  0     0  0
 15  4  1  0     0  0
 16  3  1  0     0  0
 17  4  1  0     0  0
 18  4  1  0     0  0
 19 15  1  0     0  0
 20 11  1  0     0  0
 21 20  1  0     0  0
 22 20  1  0     0  0
 23 21  1  0     0  0
 19 14  1  0     0  0
M  END