
  SciTegic11201309402D

 70 72  0  0  0  0            999 V2000
   14.9228    0.8159    0.0000 C   0  0
   14.9228    1.6409    0.0000 O   0  0
   15.6373    0.4034    0.0000 N   0  0
   16.3517    0.8159    0.0000 C   0  0  1  0  0  0
   17.0662    0.4034    0.0000 C   0  0
   16.3517    1.6409    0.0000 C   0  0
   17.0662    2.0534    0.0000 C   0  0
   17.7791    1.6359    0.0000 C   0  0
   18.4931    2.0478    0.0000 C   0  0
   18.4935    2.8736    0.0000 C   0  0
   17.7740    3.2860    0.0000 C   0  0
   17.0630    2.8718    0.0000 C   0  0
   17.0662   -0.4216    0.0000 O   0  0
   17.7807    0.8159    0.0000 N   0  0
   18.4952    0.4034    0.0000 C   0  0  1  0  0  0
   19.2096    0.8159    0.0000 C   0  0  1  0  0  0
   18.4952   -0.4216    0.0000 C   0  0
   19.9241    0.4034    0.0000 C   0  0
   19.2096    1.6409    0.0000 C   0  0
   17.7807   -0.8341    0.0000 O   0  0
   19.2096   -0.8341    0.0000 N   0  0
   19.2096   -1.6591    0.0000 C   0  0  1  0  0  0
   19.9241   -2.0716    0.0000 C   0  0  1  0  0  0
   18.4952   -2.0716    0.0000 C   0  0
   17.7807   -1.6591    0.0000 O   0  0
   18.4952   -2.8966    0.0000 N   0  0
   17.7807   -3.3091    0.0000 C   0  0  1  0  0  0
   17.7807   -4.1341    0.0000 C   0  0
   17.0662   -2.8966    0.0000 C   0  0
   18.4952   -4.5466    0.0000 C   0  0
   18.4952   -5.3716    0.0000 O   0  0
   19.2096   -4.1341    0.0000 N   0  0
   17.0662   -2.0716    0.0000 O   0  0
   16.3517   -3.3091    0.0000 N   0  0
   15.6373   -2.8966    0.0000 C   0  0  2  0  0  0
   14.9228   -3.3091    0.0000 C   0  0
   15.6373   -2.0716    0.0000 C   0  0
   14.9228   -1.6591    0.0000 S   0  0
   14.9228   -0.8341    0.0000 S   0  0
   14.2084   -0.4216    0.0000 C   0  0
   14.2084    0.4034    0.0000 C   0  0
   14.9228   -4.1341    0.0000 O   0  0
   14.2084   -2.8966    0.0000 N   0  0
   14.1175   -2.0767    0.0000 C   0  0
   13.3105   -1.9052    0.0000 C   0  0
   13.4501   -3.2327    0.0000 C   0  0  2  0  0  0
   13.2780   -4.0395    0.0000 C   0  0
   12.4931   -4.2938    0.0000 N   0  0
   13.8907   -4.5921    0.0000 O   0  0
   11.8805   -3.7413    0.0000 C   0  0  2  0  0  0
   11.0957   -3.9957    0.0000 C   0  0
   12.0527   -2.9346    0.0000 C   0  0
   12.8374   -2.6801    0.0000 C   0  0
   11.4400   -2.3821    0.0000 C   0  0
   11.6121   -1.5752    0.0000 C   0  0
   10.4830   -3.4432    0.0000 N   0  0
   10.9235   -4.8025    0.0000 O   0  0
    9.6983   -3.6975    0.0000 C   0  0
    9.0856   -3.1450    0.0000 C   0  0
    8.3007   -3.3993    0.0000 N   0  0
    9.2577   -2.3382    0.0000 O   0  0
   19.2074    3.2871    0.0000 O   0  0
   19.9224    2.8755    0.0000 C   0  0
   20.6364    3.2890    0.0000 C   0  0
   19.9241    2.0534    0.0000 C   0  0
   20.6385   -1.6591    0.0000 C   0  0
   19.9241   -2.8966    0.0000 O   0  0
   10.9994   -1.0227    0.0000 N   0  0
   20.0756   -1.1591    0.0000 H   0  0
   18.4952    1.4034    0.0000 H   0  0
 15 16  1  0
 29 34  1  0
  7  8  2  0
 35 34  1  0
 15 17  1  0
 35 36  1  6
  4  3  1  0
 35 37  1  0
 16 18  1  6
 37 38  1  0
  8  9  1  0
 38 39  1  0
 16 19  1  0
 39 40  1  0
  1  2  2  0
 40 41  1  0
 17 20  2  0
 36 42  2  0
  9 10  2  0
 36 43  1  0
 43 44  1  0
 17 21  1  0
  4  5  1  0
 22 21  1  0
 44 45  1  0
 45 53  1  0
 53 46  1  0
 46 43  1  0
 10 11  1  0
 46 47  1  6
 22 23  1  0
 47 48  1  0
 41  1  1  0
 47 49  2  0
 22 24  1  0
 50 48  1  6
 11 12  2  0
 50 51  1  0
 24 25  2  0
 50 52  1  0
 12  7  1  0
 24 26  1  0
 52 54  1  0
  4  6  1  6
 54 55  1  0
 27 26  1  0
 51 56  1  0
  5 13  2  0
 51 57  2  0
 27 28  1  1
 56 58  1  0
  1  3  1  0
 58 59  1  0
 27 29  1  0
 59 60  1  0
  5 14  1  0
 59 61  2  0
 28 30  1  0
 10 62  1  0
  6  7  1  0
 62 63  1  0
 30 31  2  0
 63 64  1  0
 15 14  1  0
 19 65  1  0
 30 32  1  0
 23 66  1  1
 23 67  1  0
 29 33  2  0
 55 68  1  0
 22 69  1  6
 15 70  1  6
M  END