
  CDK    9/16/09,9:56

 26 29  0  0  0  0  0  0  0  0999 V2000
    9.1253  -16.1790    0.0000 C   0  0  0  0  0  0  0  0  0  0  0  0
    9.1253  -17.0086    0.0000 C   0  0  0  0  0  0  0  0  0  0  0  0
    9.8399  -17.4211    0.0000 N   0  0  0  0  0  0  0  0  0  0  0  0
   10.5588  -17.0086    0.0000 C   0  0  0  0  0  0  0  0  0  0  0  0
   10.5588  -16.1790    0.0000 C   0  0  0  0  0  0  0  0  0  0  0  0
    9.8399  -15.7620    0.0000 O   0  0  0  0  0  0  0  0  0  0  0  0
    9.8400  -18.2507    0.0000 C   0  0  0  0  0  0  0  0  0  0  0  0
    9.1719  -18.7347    0.0000 C   0  0  0  0  0  0  0  0  0  0  0  0
    9.4258  -19.5198    0.0000 C   0  0  0  0  0  0  0  0  0  0  0  0
   10.2508  -19.5209    0.0000 C   0  0  0  0  0  0  0  0  0  0  0  0
   10.5068  -18.7366    0.0000 C   0  0  0  0  0  0  0  0  0  0  0  0
   11.2737  -15.7673    0.0000 C   0  0  0  0  0  0  0  0  0  0  0  0
   11.9878  -16.1804    0.0000 O   0  0  0  0  0  0  0  0  0  0  0  0
   12.7027  -15.7687    0.0000 C   0  0  0  0  0  0  0  0  0  0  0  0
   13.4135  -16.1857    0.0000 C   0  0  0  0  0  0  0  0  0  0  0  0
   14.1278  -15.7746    0.0000 C   0  0  0  0  0  0  0  0  0  0  0  0
   14.1292  -14.9488    0.0000 C   0  0  0  0  0  0  0  0  0  0  0  0
   13.4101  -14.5357    0.0000 C   0  0  0  0  0  0  0  0  0  0  0  0
   12.6986  -14.9492    0.0000 C   0  0  0  0  0  0  0  0  0  0  0  0
   14.8435  -14.5360    0.0000 C   0  0  0  0  0  0  0  0  0  0  0  0
   15.5580  -14.9483    0.0000 N   0  0  0  0  0  0  0  0  0  0  0  0
   15.5540  -15.7721    0.0000 C   0  0  0  0  0  0  0  0  0  0  0  0
   16.2645  -16.1843    0.0000 C   0  0  0  0  0  0  0  0  0  0  0  0
   16.9812  -15.7751    0.0000 O   0  0  0  0  0  0  0  0  0  0  0  0
   16.9830  -14.9491    0.0000 C   0  0  0  0  0  0  0  0  0  0  0  0
   16.2679  -14.5323    0.0000 C   0  0  0  0  0  0  0  0  0  0  0  0
  5  6  1  0  0  0  0 
 12 13  1  0  0  0  0 
  7  8  1  0  0  0  0 
 13 14  1  0  0  0  0 
 14 15  2  0  0  0  0 
  1  2  1  0  0  0  0 
 15 16  1  0  0  0  0 
  1  6  1  0  0  0  0 
 16 17  2  0  0  0  0 
  2  3  1  0  0  0  0 
 17 18  1  0  0  0  0 
  3  4  1  0  0  0  0 
 18 19  2  0  0  0  0 
 19 14  1  0  0  0  0 
  8  9  1  0  0  0  0 
 17 20  1  0  0  0  0 
  9 10  1  0  0  0  0 
 20 21  1  0  0  0  0 
 21 22  1  0  0  0  0 
 10 11  1  0  0  0  0 
 11  7  1  0  0  0  0 
  3  7  1  0  0  0  0 
  4  5  1  0  0  0  0 
  5 12  1  6  0  0  0 
 21 26  1  0  0  0  0 
 22 23  1  0  0  0  0 
 23 24  1  0  0  0  0 
 24 25  1  0  0  0  0 
 25 26  1  0  0  0  0 
M  END