
  SciTegic10041313232D

 27 28  0  0  1  0            999 V2000
    4.4167   -2.9167    0.0000 C   0  0
    6.5625   -3.3417    0.0000 C   0  0
    5.1292   -3.3375    0.0000 N   0  0
    3.7042   -3.3292    0.0000 N   0  0
    7.2792   -2.9375    0.0000 N   0  0
    5.8500   -2.9250    0.0000 C   0  0  1  0  0  0
    9.5258   -2.4570    0.0000 N   0  0
    8.7042   -2.9375    0.0000 C   0  0
    7.9917   -3.3542    0.0000 C   0  0  2  0  0  0
    4.4167   -2.0917    0.0000 O   0  0
    6.5542   -4.1667    0.0000 O   0  0
    5.8500   -2.1042    0.0000 C   0  0
    2.2792   -4.1542    0.0000 O   0  0
    8.5750   -3.9375    0.0000 C   0  0
    3.7042   -4.1542    0.0000 C   0  0
    2.9917   -2.9167    0.0000 C   0  0
    6.2542   -1.3875    0.0000 C   0  0
    2.2792   -3.3292    0.0000 C   0  0
    2.9917   -4.5667    0.0000 C   0  0
    8.3542   -4.7292    0.0000 C   0  0
    9.3625   -3.7167    0.0000 C   0  0
    5.8375   -0.6750    0.0000 C   0  0
    7.0792   -1.3750    0.0000 C   0  0
    9.9417   -4.2917    0.0000 C   0  0
    8.9417   -5.3125    0.0000 C   0  0
    9.7375   -5.1000    0.0000 C   0  0
    7.5750   -4.0667    0.0000 H   0  0
  2  6  1  0
  3  1  1  0
  4  1  1  0
  5  2  1  0
  6  3  1  0
  7  8  3  0
  8  9  1  0
  9  5  1  0
 10  1  2  0
 11  2  2  0
  6 12  1  1
 13 18  1  0
  9 14  1  6
 15  4  1  0
 16  4  1  0
 17 12  1  0
 18 16  1  0
 19 15  1  0
 20 14  2  0
 21 14  1  0
 22 17  1  0
 23 17  1  0
 24 21  2  0
 25 20  1  0
 26 24  1  0
  9 27  1  1
 13 19  1  0
 25 26  2  0
M  END