
  SciTegic10191216002D

 27 30  0  0  0  0            999 V2000
   21.1775  -19.1398    0.0000 C   0  0
   21.1763  -19.9678    0.0000 C   0  0
   21.8917  -20.3810    0.0000 C   0  0
   22.6087  -19.9674    0.0000 C   0  0
   22.6058  -19.1361    0.0000 C   0  0
   21.8899  -18.7267    0.0000 C   0  0
   21.8943  -21.2056    0.0000 C   0  0
   21.8883  -22.8559    0.0000 C   0  0
   22.6052  -22.4445    0.0000 N   0  0
   22.6091  -21.6163    0.0000 C   0  0
   21.1752  -22.4391    0.0000 C   0  0
   21.1784  -21.6192    0.0000 C   0  0
   20.4711  -21.2081    0.0000 C   0  0
   19.7600  -21.6161    0.0000 N   0  0
   19.7607  -22.4391    0.0000 C   0  0
   20.4687  -22.8463    0.0000 C   0  0
   18.3307  -22.4409    0.0000 C   0  0
   17.6162  -22.8546    0.0000 C   0  0
   16.9007  -22.4427    0.0000 C   0  0
   16.1889  -22.8564    0.0000 N   0  0
   15.4746  -22.4480    0.0000 C   0  0
   14.7649  -22.8582    0.0000 C   0  0
   14.7631  -23.6819    0.0000 C   0  0
   15.4772  -24.0935    0.0000 C   0  0
   16.1929  -23.6817    0.0000 C   0  0
   23.3188  -22.8599    0.0000 C   0  0
   19.0463  -22.8528    0.0000 O   0  0
 12 13  1  0
  7 12  1  0
 13 14  2  0
  1  2  2  0
 14 15  1  0
  3  4  2  0
 15 16  2  0
 16 11  1  0
 15 27  1  0
  4  5  1  0
 27 17  1  0
  7 10  1  0
 17 18  1  0
 11  8  1  0
 18 19  1  0
  8  9  1  0
 19 20  1  0
 20 21  1  0
  9 10  1  0
  7  3  1  0
  2  3  1  0
  5  6  2  0
 11 12  2  0
 20 25  1  0
 21 22  1  0
 22 23  1  0
 23 24  1  0
 24 25  1  0
  6  1  1  0
  9 26  1  0
M  END