
          11280715182D 1   1.00000     0.00000     0

 29 31  0     1  0            999 V2000
    5.6250   -3.5750    0.0000 N   0  0  3  0  0  0           0  0  0
    4.7250   -3.0542    0.0000 C   0  0  0  0  0  0           0  0  0
    6.6667   -3.5750    0.0000 C   0  0  3  0  0  0           0  0  0
    3.8167   -3.5750    0.0000 C   0  0  2  0  0  0           0  0  0
    5.1042   -4.4792    0.0000 C   0  0  0  0  0  0           0  0  0
    2.0167   -3.5750    0.0000 C   0  0  0  0  0  0           0  0  0
    2.9167   -3.0542    0.0000 C   0  0  0  0  0  0           0  0  0
    7.1875   -4.4792    0.0000 C   0  0  0  0  0  0           0  0  0
    7.1875   -2.6750    0.0000 C   0  0  0  0  0  0           0  0  0
    2.0167   -4.6167    0.0000 C   0  0  0  0  0  0           0  0  0
    1.1167   -3.0542    0.0000 C   0  0  0  0  0  0           0  0  0
    5.6250   -5.3792    0.0000 C   0  0  0  0  0  0           0  0  0
    6.6667   -5.3792    0.0000 C   0  0  0  0  0  0           0  0  0
    4.7250   -2.0167    0.0000 O   0  0  0  0  0  0           0  0  0
    3.8167   -4.6167    0.0000 N   0  0  3  0  0  0           0  0  0
    0.2167   -3.5750    0.0000 C   0  0  0  0  0  0           0  0  0
    1.1167   -5.1375    0.0000 C   0  0  0  0  0  0           0  0  0
    0.2167   -4.6167    0.0000 C   0  0  0  0  0  0           0  0  0
    8.2292   -2.6792    0.0000 O   0  0  0  0  0  0           0  0  0
    6.6667   -1.7750    0.0000 N   0  0  0  0  0  0           0  0  0
   -0.6833   -5.1375    0.0000 O   0  0  0  0  0  0           0  0  0
    1.1167   -2.0167    0.0000 C   0  0  0  0  0  0           0  0  0
    2.9167   -5.1375    0.0000 C   0  0  0  0  0  0           0  0  0
    7.1875   -6.2792    0.0000 C   0  0  0  0  0  0           0  0  0
    5.1042   -6.2792    0.0000 C   0  0  0  0  0  0           0  0  0
    4.4667   -5.0542    0.0000 C   0  0  0  0  0  0           0  0  0
    3.0125   -4.6167    0.0000 C   0  0  0  0  0  0           0  0  0
    6.6667   -7.1917    0.0000 C   0  0  0  0  0  0           0  0  0
    5.6250   -7.1917    0.0000 C   0  0  0  0  0  0           0  0  0
  2  1  1  0     0  0
  3  1  1  0     0  0
  4  2  1  0     0  0
  5  1  1  0     0  0
  6  7  1  0     0  0
  4  7  1  1     0  0
  8  3  1  0     0  0
  9  3  1  0     0  0
 10  6  1  0     0  0
 11  6  2  0     0  0
 12  5  1  0     0  0
 13 12  2  0     0  0
 14  2  2  0     0  0
 15  4  1  0     0  0
 16 11  1  0     0  0
 17 10  2  0     0  0
 18 16  2  0     0  0
 19  9  2  0     0  0
 20  9  1  0     0  0
 21 18  1  0     0  0
 22 11  1  0     0  0
 23 10  1  0     0  0
 24 13  1  0     0  0
 25 12  1  0     0  0
 26 15  1  0     0  0
 27 15  1  0     0  0
 28 29  1  0     0  0
 29 25  2  0     0  0
 13  8  1  0     0  0
 24 28  2  0     0  0
 18 17  1  0     0  0
M  END