
  SciTegic04191613082D

183193  0  0  1  0            999 V2000
   -7.9763  -28.0912    0.0000 C   0  0  1  0  0  0
   -6.4815  -27.9661    0.0000 N   0  0
   -5.0352  -27.5684    0.0000 C   0  0
   -3.6866  -26.9117    0.0000 C   0  0
   -2.4816  -26.0183    0.0000 C   0  0
   -1.4613  -24.9188    0.0000 C   0  0
   -2.7429  -23.7793    0.0000 C   0  0
   -4.2109  -24.0872    0.0000 C   0  0
   -6.1521  -25.4809    0.0000 C   0  0
   -5.8328  -26.6376    0.0000 O   0  0
   -7.6468  -25.3550    0.0000 N   0  0
   -9.0855  -24.9308    0.0000 C   0  0
  -10.4095  -24.2256    0.0000 C   0  0  2  0  0  0
  -11.5643  -23.2684    0.0000 N   0  0
  -12.5029  -22.0983    0.0000 C   0  0
  -13.1867  -20.7632    0.0000 C   0  0  2  0  0  0
  -14.5947  -21.3157    0.0000 C   0  0
  -14.2983  -22.7870    0.0000 C   0  0
  -15.6954  -23.3352    0.0000 C   0  0
  -16.8694  -22.4001    0.0000 N   0  0
  -18.2665  -22.9484    0.0000 C   0  0
  -19.2044  -22.1998    0.0000 N   0  0
  -18.4462  -24.1349    0.0000 N   0  0
  -13.5877  -19.3178    0.0000 N   0  0
  -13.6896  -17.8213    0.0000 C   0  0
  -14.8889  -17.7812    0.0000 O   0  0
  -13.4881  -16.3349    0.0000 C   0  0  1  0  0  0
  -12.9916  -14.9194    0.0000 N   0  0
  -12.2203  -13.6329    0.0000 C   0  0
  -13.1818  -12.9149    0.0000 O   0  0
  -11.2058  -12.5280    0.0000 C   0  0  2  0  0  0
  -12.2129  -11.3995    0.0000 C   0  0
  -11.7437   -9.9739    0.0000 C   0  0
  -12.7430   -8.8541    0.0000 C   0  0
  -14.2126   -9.1587    0.0000 N   0  0
  -15.2119   -8.0390    0.0000 C   0  0
  -16.3869   -8.2825    0.0000 N   0  0
  -14.8357   -6.8995    0.0000 N   0  0
   -9.9896  -11.6500    0.0000 N   0  0
   -8.6216  -11.0347    0.0000 C   0  0
   -7.1578  -10.7073    0.0000 C   0  0  1  0  0  0
   -5.6580  -10.6814    0.0000 N   0  0
   -4.1837  -10.9579    0.0000 C   0  0
   -2.7953  -11.5255    0.0000 C   0  0  2  0  0  0
   -2.0868  -10.1891    0.0000 C   0  0
   -2.8829   -8.9168    0.0000 C   0  0
   -4.3796   -8.9666    0.0000 C   0  0
   -5.1704   -7.6768    0.0000 C   0  0
   -4.4641   -6.3568    0.0000 C   0  0
   -2.9676   -6.3083    0.0000 C   0  0
   -2.1774   -7.5798    0.0000 C   0  0
   -2.2614   -4.9883    0.0000 C   0  0
   -3.0516   -3.7168    0.0000 C   0  0
   -4.5481   -3.7653    0.0000 C   0  0
   -5.2544   -5.0853    0.0000 C   0  0
   -1.5495  -12.3609    0.0000 N   0  0
   -0.4974  -13.4301    0.0000 C   0  0
    0.3180  -14.6891    0.0000 C   0  0  1  0  0  0
    0.8632  -16.0865    0.0000 N   0  0
    1.1160  -17.5651    0.0000 C   0  0
    0.1958  -19.2848    0.0000 C   0  0  1  0  0  0
   -0.0668  -17.8079    0.0000 N   0  0
   -0.5962  -16.4045    0.0000 C   0  0
    0.3029  -15.9667    0.0000 O   0  0
   -1.3745  -15.1222    0.0000 C   0  0  2  0  0  0
   -2.3752  -14.0048    0.0000 N   0  0
   -3.5642  -13.0903    0.0000 C   0  0
   -4.9010  -12.4098    0.0000 C   0  0  2  0  0  0
   -4.5315  -11.4806    0.0000 C   0  0
   -6.3400  -11.9866    0.0000 N   0  0
   -7.8324  -11.8349    0.0000 C   0  0
   -7.8217  -10.6350    0.0000 O   0  0
   -9.3271  -11.9601    0.0000 C   0  0  1  0  0  0
  -10.7734  -12.3578    0.0000 N   0  0
  -12.1220  -13.0145    0.0000 C   0  0
  -12.7447  -11.9887    0.0000 O   0  0
  -13.3270  -13.9078    0.0000 C   0  0  1  0  0  0
  -14.3473  -15.0074    0.0000 N   0  0
  -15.1483  -16.2756    0.0000 C   0  0
  -15.7025  -17.6695    0.0000 C   0  0  1  0  0  0
  -16.8429  -16.6816    0.0000 C   0  0
  -18.2619  -17.1676    0.0000 C   0  0
  -18.5506  -18.6395    0.0000 C   0  0
  -17.4202  -19.6255    0.0000 C   0  0
  -15.9911  -19.1415    0.0000 N   0  0
  -16.0044  -20.6414    0.0000 C   0  0
  -15.7419  -22.1182    0.0000 C   0  0
  -15.2124  -23.5217    0.0000 C   0  0  2  0  0  0
  -14.4341  -24.8040    0.0000 N   0  0
  -13.4334  -25.9214    0.0000 C   0  0
  -14.2497  -26.8010    0.0000 O   0  0
  -12.2444  -26.8359    0.0000 C   0  0  1  0  0  0
  -10.9076  -27.5164    0.0000 N   0  0
   -9.4686  -27.9396    0.0000 C   0  0
   -9.6995  -29.1172    0.0000 O   0  0
  -13.0546  -28.1135    0.0000 C   0  0
  -14.5542  -28.0520    0.0000 C   0  0
  -14.8780  -29.5167    0.0000 C   0  0
  -16.3083  -29.9686    0.0000 C   0  0
  -17.4149  -28.9560    0.0000 C   0  0
  -18.5591  -29.3175    0.0000 F   0  0
  -17.0912  -27.4913    0.0000 C   0  0
  -15.6609  -27.0393    0.0000 C   0  0
  -16.5738  -24.1814    0.0000 C   0  0
  -16.6833  -25.6782    0.0000 C   0  0
  -18.0339  -26.3327    0.0000 C   0  0
  -19.0268  -25.6588    0.0000 O   0  0
  -18.1214  -27.5295    0.0000 O   0  0
  -17.2002  -20.7415    0.0000 O   0  0
  -16.2177  -15.7313    0.0000 O   0  0
  -14.3341  -12.7789    0.0000 C   0  0
  -15.8037  -13.0833    0.0000 C   0  0
  -16.2772  -14.5040    0.0000 C   0  0
  -17.7614  -14.7974    0.0000 C   0  0
  -18.7537  -13.6764    0.0000 C   0  0
  -20.2205  -13.9755    0.0000 C   0  0
  -21.2128  -12.8546    0.0000 C   0  0
  -20.7383  -11.4345    0.0000 C   0  0
  -19.2714  -11.1354    0.0000 C   0  0
  -18.2791  -12.2563    0.0000 C   0  0
  -16.8122  -11.9572    0.0000 C   0  0
   -9.5891  -10.4701    0.0000 C   0  0
  -10.9988   -9.9552    0.0000 C   0  0
  -11.2587   -8.4771    0.0000 C   0  0
  -12.6684   -7.9622    0.0000 N   0  0
  -12.9283   -6.4840    0.0000 C   0  0
  -13.8676   -6.1409    0.0000 N   0  0
  -12.0084   -5.7134    0.0000 N   0  0
   -2.9235  -12.0756    0.0000 O   0  0
   -0.4106  -14.4075    0.0000 C   0  0
    0.1825  -20.7847    0.0000 C   0  0
   -0.1061  -22.2567    0.0000 N   0  0
   -0.6604  -23.6505    0.0000 C   0  0
    0.4091  -24.1949    0.0000 O   0  0
    2.3004  -17.7575    0.0000 O   0  0
    1.6629  -13.9970    0.0000 C   0  0
    1.7363  -12.4980    0.0000 C   0  0
    3.0691  -11.8096    0.0000 C   0  0
    3.1394  -10.3113    0.0000 C   0  0
    1.8770   -9.5012    0.0000 C   0  0
    0.5442  -10.1894    0.0000 C   0  0
    0.4739  -11.6878    0.0000 C   0  0
    0.4387  -12.6793    0.0000 O   0  0
   -3.8443   -9.8069    0.0000 O   0  0
   -7.3397   -9.2058    0.0000 C   0  0
   -8.7199   -8.6163    0.0000 C   0  0
   -8.9005   -7.1264    0.0000 C   0  0
  -10.2807   -6.5369    0.0000 N   0  0
  -10.4613   -5.0470    0.0000 C   0  0
  -11.5648   -4.5756    0.0000 N   0  0
   -9.5015   -4.3266    0.0000 N   0  0
   -9.0006   -9.8961    0.0000 O   0  0
  -14.9594  -15.9840    0.0000 C   0  0
  -15.3887  -14.5458    0.0000 C   0  0
  -14.3586  -13.4544    0.0000 C   0  0
  -14.7879  -12.0162    0.0000 N   0  0
  -14.1932  -10.6383    0.0000 C   0  0
  -13.0013  -10.4995    0.0000 N   0  0
  -14.9091   -9.6751    0.0000 N   0  0
  -13.5101  -22.7506    0.0000 O   0  0
  -11.2544  -25.4802    0.0000 C   0  0
  -12.4515  -25.3970    0.0000 O   0  0
  -10.5963  -26.8291    0.0000 N   0  0
  -10.9583  -28.2856    0.0000 C   0  0  1  0  0  0
  -10.3002  -29.6344    0.0000 C   0  0
  -11.5138  -30.5175    0.0000 C   0  0
  -11.3567  -32.0101    0.0000 C   0  0
  -12.5702  -32.8931    0.0000 C   0  0
  -12.4447  -34.0866    0.0000 N   0  0
  -12.1703  -29.1708    0.0000 C   0  0
  -13.2676  -28.6850    0.0000 O   0  0
  -12.0426  -30.3639    0.0000 O   0  0
   -4.6783  -25.5126    0.0000 C   0  0
   -4.6116  -28.6911    0.0000 O   0  0
   -7.9868  -29.6040    0.0000 C   0  0
   -6.6927  -30.3643    0.0000 C   0  0
   -6.7010  -31.8643    0.0000 C   0  0
   -5.4061  -32.6214    0.0000 C   0  0
   -4.1029  -31.8786    0.0000 C   0  0
   -4.0946  -30.3787    0.0000 C   0  0
   -5.3895  -29.6215    0.0000 C   0  0
  -15.9394  -16.6980    0.0000 H   0  0
    0.3528  -18.2972    0.0000 H   0  0
  2  1  1  0
  2  3  1  0
  3  4  1  0
  5  4  1  0
  6  5  2  0
  7  6  1  0
  8  7  2  0
  8  9  1  0
  9 10  2  0
  9 11  1  0
 11 12  1  0
 13 12  1  0
 13 14  1  0
 14 15  1  0
 15 16  1  0
 16 17  1  6
 17 18  1  0
 18 19  1  0
 19 20  1  0
 20 21  1  0
 21 22  1  0
 21 23  2  0
 16 24  1  0
 24 25  1  0
 25 26  2  0
 25 27  1  0
 27 28  1  0
 29 28  1  0
 29 30  2  0
 31 29  1  0
 31 32  1  6
 32 33  1  0
 33 34  1  0
 34 35  1  0
 35 36  1  0
 36 37  2  0
 36 38  1  0
 39 31  1  0
 40 39  1  0
 41 40  1  0
 42 41  1  0
 43 42  1  0
 44 43  1  0
 44 45  1  6
 45 46  1  0
 47 46  1  0
 48 47  2  0
 49 48  1  0
 49 50  1  0
 51 50  1  0
 46 51  2  0
 50 52  2  0
 52 53  1  0
 53 54  2  0
 54 55  1  0
 55 49  2  0
 56 44  1  0
 57 56  1  0
 58 57  1  0
 59 58  1  0
 60 59  1  0
 61 60  1  0
 62 61  1  0
 63 62  1  0
 63 64  2  0
 65 63  1  0
 66 65  1  0
 67 66  1  0
 68 67  1  0
 68 69  1  1
 70 68  1  0
 71 70  1  0
 71 72  2  0
 73 71  1  0
 74 73  1  0
 75 74  1  0
 75 76  2  0
 77 75  1  0
 77 78  1  0
 78 79  1  0
 80 79  1  0
 80 81  1  0
 81 82  1  0
 82 83  1  0
 83 84  1  0
 84 85  1  0
 85 86  1  0
 86 87  1  0
 87 88  1  0
 89 88  1  0
 89 90  1  0
 90 91  2  0
 90 92  1  0
 92 93  1  0
 93 94  1  0
  1 94  1  0
 94 95  2  0
 92 96  1  1
 96 97  1  0
 97 98  2  0
 98 99  1  0
 99100  2  0
100101  1  0
100102  1  0
102103  2  0
103 97  1  0
 88104  1  6
104105  1  0
105106  1  0
106107  1  0
106108  2  0
 86109  2  0
 80 85  1  0
 79110  2  0
 77111  1  1
111112  1  0
113112  1  0
114113  2  0
115114  1  0
116115  2  0
117116  1  0
118117  2  0
119118  1  0
120119  2  0
121120  1  0
112121  2  0
115120  1  0
 73122  1  1
122123  1  0
123124  1  0
124125  1  0
125126  1  0
126127  2  0
126128  1  0
 67129  2  0
 65130  1  6
 61131  1  0
131132  1  0
133132  1  0
133134  2  0
  6133  1  0
 60135  2  0
 58136  1  6
136137  1  0
138137  1  0
139138  2  0
140139  1  0
141140  2  0
142141  1  0
137142  2  0
 57143  2  0
 43144  2  0
 41145  1  6
145146  1  0
146147  1  0
147148  1  0
148149  1  0
149150  2  0
149151  1  0
 40152  2  0
 27153  1  6
153154  1  0
154155  1  0
155156  1  0
156157  1  0
157158  1  0
157159  2  0
 15160  2  0
 13161  1  1
161162  2  0
161163  1  0
164163  1  1
164165  1  0
165166  1  0
166167  1  0
167168  1  0
168169  1  0
164170  1  0
170171  1  0
170172  2  0
173  8  1  0
  4173  2  0
  3174  2  0
  1175  1  6
175176  1  0
176177  2  0
177178  1  0
178179  2  0
179180  1  0
180181  2  0
181176  1  0
 80182  1  1
 61183  1  1
M  END