
  CDK    9/16/09,9:59

 20 21  0  0  0  0  0  0  0  0999 V2000
    2.1126  -20.7224    0.0000 C   0  0  0  0  0  0  0  0  0  0  0  0
    2.9376  -20.7172    0.0000 C   0  0  0  0  0  0  0  0  0  0  0  0
    1.7021  -18.5852    0.0000 C   0  0  0  0  0  0  0  0  0  0  0  0
    2.1151  -19.2986    0.0000 N   0  0  0  0  0  0  0  0  0  0  0  0
    1.7021  -20.0083    0.0000 C   0  0  0  0  0  0  0  0  0  0  0  0
    2.1172  -17.8665    0.0000 C   0  0  0  0  0  0  0  0  0  0  0  0
    2.1184  -16.5343    0.0000 N   0  0  0  0  0  0  0  0  0  0  0  0
    1.6372  -17.2055    0.0000 C   0  0  0  0  0  0  0  0  0  0  0  0
    2.9029  -16.7899    0.0000 C   0  0  0  0  0  0  0  0  0  0  0  0
    2.9008  -17.6131    0.0000 C   0  0  0  0  0  0  0  0  0  0  0  0
    3.6157  -18.0288    0.0000 N   0  0  0  0  0  0  0  0  0  0  0  0
    4.3332  -17.6142    0.0000 C   0  0  0  0  0  0  0  0  0  0  0  0
    4.3313  -16.7878    0.0000 N   0  0  0  0  0  0  0  0  0  0  0  0
    3.6158  -16.3758    0.0000 C   0  0  0  0  0  0  0  0  0  0  0  0
    3.6142  -15.5507    0.0000 O   0  0  0  0  0  0  0  0  0  0  0  0
    1.7016  -21.4380    0.0000 C   0  0  0  0  0  0  0  0  0  0  0  0
    0.8764  -21.4398    0.0000 O   0  0  0  0  0  0  0  0  0  0  0  0
    3.3456  -20.0001    0.0000 C   0  0  0  0  0  0  0  0  0  0  0  0
    3.3545  -21.4293    0.0000 O   0  0  0  0  0  0  0  0  0  0  0  0
    4.1708  -19.9949    0.0000 O   0  0  0  0  0  0  0  0  0  0  0  0
  9 10  2  0  0  0  0 
  1  2  1  0  0  0  0 
 10 11  1  0  0  0  0 
  3  6  1  0  0  0  0 
 11 12  2  0  0  0  0 
  6 10  1  0  0  0  0 
 12 13  1  0  0  0  0 
 13 14  1  0  0  0  0 
 14  9  1  0  0  0  0 
  3  4  1  0  0  0  0 
 14 15  2  0  0  0  0 
  9  7  1  0  0  0  0 
  1 16  1  0  0  0  0 
  7  8  1  0  0  0  0 
 16 17  1  0  0  0  0 
  8  6  2  0  0  0  0 
  2 18  1  0  0  0  0 
  4  5  1  0  0  0  0 
  2 19  1  0  0  0  0 
  5  1  1  0  0  0  0 
 18 20  1  0  0  0  0 
M  END