
  SciTegic12131615082D

 28 31  0  0  0  0            999 V2000
    2.5660   -3.2530    0.0000 C   0  0
    3.0032   -4.6878    0.0000 C   0  0
    4.4644   -5.0266    0.0000 C   0  0
    5.4884   -3.9306    0.0000 C   0  0
    5.0512   -2.4957    0.0000 C   0  0
    3.5900   -2.1568    0.0000 C   0  0
    4.9018   -6.4622    0.0000 C   0  0
    3.8796   -7.5600    0.0000 C   0  0
    4.3191   -8.9942    0.0000 C   0  0
    5.7808   -9.3307    0.0000 C   0  0
    6.8031   -8.2330    0.0000 C   0  0
    6.3636   -6.7988    0.0000 C   0  0
    3.1497   -0.7220    0.0000 C   0  0
    1.6852   -0.3846    0.0000 N   0  0
    1.3514    1.0778    0.0000 C   0  0
    0.0000    1.7286    0.0000 C   0  0
    0.7500   -1.5574    0.0000 C   0  0
   -1.3515    1.0777    0.0000 N   0  0
   -0.7500   -1.5574    0.0000 C   0  0
   -1.6852   -0.3847    0.0000 C   0  0
   -2.2897    1.8259    0.0000 C   0  0
    6.2205  -10.7656    0.0000 N   0  0
    5.2000  -11.8650    0.0000 C   0  0
    5.6418  -13.2985    0.0000 C   0  0
    7.1041  -13.6326    0.0000 N   0  0
    8.1246  -12.5333    0.0000 C   0  0
    7.6829  -11.0999    0.0000 C   0  0
    7.4575  -14.7794    0.0000 C   0  0
  1  2  2  0
  2  3  1  0
  3  4  2  0
  4  5  1  0
  5  6  2  0
  6  1  1  0
  7  8  2  0
  8  9  1  0
  9 10  2  0
 10 11  1  0
 11 12  2  0
 12  7  1  0
  3  7  1  0
  6 13  1  0
 13 14  1  0
 14 15  1  0
 15 16  1  0
 14 17  1  0
 16 18  1  0
 17 19  1  0
 18 20  1  0
 19 20  1  0
 18 21  1  0
 22 23  1  0
 22 27  1  0
 23 24  1  0
 24 25  1  0
 25 26  1  0
 26 27  1  0
 10 22  1  0
 25 28  1  0
M  END