
  SciTegic01161211242D

 27 30  0  0  0  0            999 V2000
   -2.3926    1.0818    0.0000 N   0  0
   -3.2177    1.9068    0.0000 C   0  0
   -3.2177    1.0818    0.0000 C   0  0
   -2.3926    1.9068    0.0000 C   0  0
   -1.8093    2.4902    0.0000 O   0  0
   -3.8011    0.4983    0.0000 O   0  0
   -3.2268    2.7364    0.0000 C   0  0
   -2.5169    3.1567    0.0000 C   0  0
   -4.0427    1.9022    0.0000 C   0  0
   -4.4592    2.6144    0.0000 C   0  0
   -1.9931    0.3596    0.0000 C   0  0
   -2.4210   -0.3446    0.0000 C   0  0
   -2.0221   -1.0663    0.0000 C   0  0
   -1.1961   -1.0818    0.0000 C   0  0
   -0.7706   -0.3696    0.0000 C   0  0
   -1.1719    0.3490    0.0000 C   0  0
   -0.7957   -1.8031    0.0000 C   0  0
    0.0293   -1.8170    0.0000 S   0  0
    0.4297   -2.5384    0.0000 C   0  0
    0.0861   -3.2848    0.0000 O   0  0
    1.2533   -2.6370    0.0000 N   0  0
    1.4114   -3.4466    0.0000 C   0  0
    0.6924   -3.8450    0.0000 C   0  0
    0.6790   -4.6650    0.0000 C   0  0
    1.3838   -5.0876    0.0000 C   0  0
    2.1035   -4.6842    0.0000 C   0  0
    2.1133   -3.8655    0.0000 C   0  0
  3  1  1  0
 13 14  2  0
  2  7  1  0
 14 15  1  0
  1  4  1  0
 15 16  2  0
 16 11  1  0
  7  8  1  0
 14 17  1  0
  4  2  1  0
 17 18  1  0
  2  9  1  0
 18 19  1  0
 19 20  1  0
  2  3  1  0
  9 10  1  0
 20 23  1  0
 22 21  1  0
 21 19  2  0
  4  5  2  0
  1 11  1  0
 22 23  1  0
 23 24  2  0
 11 12  2  0
 24 25  1  0
  3  6  2  0
 25 26  2  0
 12 13  1  0
 26 27  1  0
 27 22  2  0
M  END