
  SciTegic04191613082D

171180  0  0  1  0            999 V2000
   -2.5680   -8.9190    0.0000 C   0  0
   -3.1407   -7.5317    0.0000 C   0  0
   -2.2193   -6.3322    0.0000 C   0  0  1  0  0  0
   -0.7500   -6.6342    0.0000 C   0  0
    0.7500   -6.6342    0.0000 N   0  0
    2.2193   -6.3322    0.0000 C   0  0  1  0  0  0
    1.6358   -7.7277    0.0000 C   0  0
    2.0815   -9.1608    0.0000 C   0  0
    0.7480   -9.8494    0.0000 C   0  0
    0.6766  -11.3486    0.0000 N   0  0
   -0.6570  -12.0371    0.0000 C   0  0
   -0.7141  -13.2358    0.0000 N   0  0
   -1.6667  -11.3887    0.0000 N   0  0
    3.5978   -5.7407    0.0000 C   0  0
    4.8289   -4.8838    0.0000 N   0  0
    5.8624   -3.7966    0.0000 C   0  0  2  0  0  0
    6.6558   -2.5236    0.0000 C   0  0
    7.1767   -1.1170    0.0000 N   0  0
    7.4039    0.3657    0.0000 C   0  0  2  0  0  0
    8.7983   -0.2202    0.0000 C   0  0
    8.9485   -1.4108    0.0000 O   0  0
    9.9942    0.6866    0.0000 N   0  0
   11.3779    0.1052    0.0000 C   0  0  2  0  0  0
   11.5688   -1.3834    0.0000 C   0  0
   12.6756   -1.8470    0.0000 O   0  0
   10.6141   -2.1104    0.0000 O   0  0
   12.5738    1.0120    0.0000 C   0  0
   13.9574    0.4307    0.0000 C   0  0
   15.1533    1.3375    0.0000 C   0  0
   16.5369    0.7561    0.0000 C   0  0
   17.4931    1.4812    0.0000 N   0  0
    7.3279    1.8638    0.0000 C   0  0
    6.9519    3.3159    0.0000 N   0  0
    6.2913    4.6626    0.0000 C   0  0
    7.3097    5.2974    0.0000 O   0  0
    5.3731    5.8488    0.0000 C   0  0
    4.2350    6.8258    0.0000 C   0  0
    2.9363    7.5796    0.0000 C   0  0
    1.4936    7.9901    0.0000 C   0  0
    1.7141    9.1696    0.0000 O   0  0
    0.0000    8.1285    0.0000 N   0  0
   -1.4936    7.9901    0.0000 C   0  0
   -2.9364    7.5796    0.0000 C   0  0  1  0  0  0
   -4.2351    6.8258    0.0000 C   0  0
   -4.9300    7.8041    0.0000 O   0  0
   -5.3732    5.8487    0.0000 N   0  0
   -6.2914    4.6626    0.0000 C   0  0  2  0  0  0
   -6.9519    3.3159    0.0000 C   0  0
   -8.0772    3.7326    0.0000 O   0  0
   -7.3279    1.8637    0.0000 N   0  0
   -7.4039    0.3657    0.0000 C   0  0  1  0  0  0
   -8.7983   -0.2203    0.0000 C   0  0
   -9.9942    0.6865    0.0000 C   0  0
  -11.3758    0.1087    0.0000 C   0  0
  -12.5730    1.0337    0.0000 C   0  0
  -12.3813    2.5184    0.0000 C   0  0
  -10.9995    3.0950    0.0000 C   0  0
  -10.8078    4.5797    0.0000 C   0  0
  -11.9980    5.4879    0.0000 C   0  0
  -13.3798    4.9113    0.0000 C   0  0
  -13.5715    3.4265    0.0000 C   0  0
   -9.8093    2.1868    0.0000 C   0  0
   -7.1767   -1.1170    0.0000 C   0  0
   -6.6558   -2.5237    0.0000 N   0  0
   -5.8623   -3.7966    0.0000 C   0  0  2  0  0  0
   -4.8289   -4.8838    0.0000 C   0  0
   -5.6105   -5.7943    0.0000 O   0  0
   -3.5977   -5.7407    0.0000 N   0  0
   -7.0602   -4.7202    0.0000 C   0  0
   -8.4485   -4.1499    0.0000 C   0  0
   -9.6371   -5.0662    0.0000 C   0  0
  -11.0253   -4.4959    0.0000 N   0  0
  -11.2265   -3.0086    0.0000 C   0  0
  -12.3365   -2.5526    0.0000 N   0  0
  -10.2768   -2.2750    0.0000 N   0  0
   -8.3384   -1.4178    0.0000 O   0  0
   -7.7706    4.9782    0.0000 C   0  0
   -8.2341    6.4057    0.0000 C   0  0
   -9.7007    6.7209    0.0000 C   0  0
  -10.1610    8.1485    0.0000 C   0  0
   -9.1549    9.2610    0.0000 C   0  0
   -7.6883    8.9459    0.0000 C   0  0
   -7.2280    7.5183    0.0000 C   0  0
   -4.2791    6.9109    0.0000 N   0  0
   -5.4761    6.0070    0.0000 C   0  0
   -6.4867    4.8985    0.0000 C   0  0  1  0  0  0
   -7.2763    3.6231    0.0000 N   0  0
   -7.8182    2.2244    0.0000 C   0  0
   -8.0938    0.7500    0.0000 C   0  0
   -8.0938   -0.7500    0.0000 C   0  0
   -7.8182   -2.2245    0.0000 N   0  0
   -7.2763   -3.6232    0.0000 C   0  0
   -6.4866   -4.8985    0.0000 C   0  0  2  0  0  0
   -7.6957   -5.8079    0.0000 C   0  0
   -9.0770   -5.2211    0.0000 C   0  0
  -10.2764   -6.1232    0.0000 C   0  0
  -11.6578   -5.5364    0.0000 N   0  0
  -12.8572   -6.4385    0.0000 C   0  0
  -12.7117   -7.6296    0.0000 N   0  0
  -13.9617   -5.9693    0.0000 N   0  0
   -5.4761   -6.0070    0.0000 N   0  0
   -4.2791   -6.9110    0.0000 C   0  0
   -2.9363   -7.5796    0.0000 C   0  0  1  0  0  0
   -1.4936   -7.9901    0.0000 N   0  0
    0.0000   -8.1285    0.0000 C   0  0
    0.0000   -9.3285    0.0000 O   0  0
    1.4936   -7.9901    0.0000 C   0  0  2  0  0  0
    2.9364   -7.5796    0.0000 N   0  0
    4.2791   -6.9110    0.0000 C   0  0
    4.9108   -7.9312    0.0000 O   0  0
    5.4761   -6.0070    0.0000 C   0  0  1  0  0  0
    6.4932   -7.1270    0.0000 C   0  0
    6.0363   -8.5566    0.0000 C   0  0
    4.8637   -8.8114    0.0000 O   0  0
    6.8430   -9.4449    0.0000 O   0  0
    6.4867   -4.8985    0.0000 N   0  0
    7.2763   -3.6232    0.0000 C   0  0
    8.3505   -4.1580    0.0000 O   0  0
    7.8182   -2.2244    0.0000 C   0  0
    8.0938   -0.7500    0.0000 N   0  0
    9.2887   -0.8607    0.0000 C   0  0
    8.0938    0.7500    0.0000 C   0  0
    7.8182    2.2245    0.0000 C   0  0  2  0  0  0
    9.3245    2.3109    0.0000 C   0  0
    9.7083    3.7610    0.0000 C   0  0
    8.4478    4.5741    0.0000 C   0  0
    7.2763    3.6232    0.0000 N   0  0
    6.4867    4.8985    0.0000 C   0  0
    5.4761    6.0070    0.0000 C   0  0
    4.2791    6.9110    0.0000 C   0  0
    5.9389    5.6085    0.0000 C   0  0
    7.4443    5.6217    0.0000 O   0  0
    9.2887    0.8607    0.0000 O   0  0
    4.0160   -8.6335    0.0000 C   0  0
    3.6501  -10.0882    0.0000 C   0  0
    2.2074  -10.4987    0.0000 C   0  0
    1.1305   -9.4545    0.0000 C   0  0
   -3.9345   -8.7163    0.0000 C   0  0
   -5.4065   -8.4235    0.0000 C   0  0
   -6.4107   -9.5533    0.0000 C   0  0
   -7.8787   -9.2597    0.0000 C   0  0
   -8.3586   -7.8415    0.0000 C   0  0
   -7.3706   -6.7168    0.0000 C   0  0
   -5.8853   -7.0045    0.0000 C   0  0
   -9.8266   -7.5478    0.0000 C   0  0
  -10.8147   -8.6725    0.0000 C   0  0
  -10.3348  -10.0908    0.0000 C   0  0
   -8.8668  -10.3844    0.0000 C   0  0
   -4.9108   -7.9312    0.0000 O   0  0
   -8.3505   -4.1581    0.0000 O   0  0
   -8.9724    2.5528    0.0000 O   0  0
   -7.4443    5.6216    0.0000 C   0  0
   -6.2846    6.8938    0.0000 O   0  0
    7.7332   -3.0521    0.0000 O   0  0
    7.0567   -4.7247    0.0000 C   0  0
    6.8525   -6.2116    0.0000 C   0  0
    8.0376   -7.1326    0.0000 C   0  0
    7.8334   -8.6195    0.0000 N   0  0
    9.0185   -9.5404    0.0000 C   0  0
   10.1298   -9.0877    0.0000 N   0  0
    8.8553  -10.7293    0.0000 N   0  0
    4.1801   -6.7899    0.0000 O   0  0
   -0.8714   -7.8280    0.0000 O   0  0
   -3.4823  -10.1092    0.0000 C   0  0
   -2.9095  -11.4964    0.0000 N   0  0
   -3.8238  -12.6866    0.0000 C   0  0
   -5.0134  -12.5290    0.0000 N   0  0
   -3.3658  -13.7958    0.0000 N   0  0
    8.6055    1.6079    0.0000 H   0  0
    0.7353   -8.6420    0.0000 H   0  0
   -3.8169    7.1055    0.0000 H   0  0
  2  1  1  0
  3  2  1  6
  3  4  1  0
  4  5  1  0
  6  5  1  0
  6  7  1  6
  7  8  1  0
  8  9  1  0
  9 10  1  0
 10 11  1  0
 11 12  2  0
 11 13  1  0
 14  6  1  0
 15 14  1  0
 16 15  1  0
 17 16  1  0
 18 17  1  0
 19 18  1  0
 19 20  1  1
 20 21  2  0
 20 22  1  0
 23 22  1  1
 23 24  1  0
 24 25  2  0
 24 26  1  0
 23 27  1  0
 27 28  1  0
 28 29  1  0
 29 30  1  0
 30 31  1  0
 19 32  1  0
 33 32  1  0
 34 33  1  0
 34 35  2  0
 36 34  1  0
 36 37  2  0
 37 38  1  0
 38 39  1  0
 39 40  2  0
 39 41  1  0
 42 41  1  0
 43 42  1  0
 43 44  1  0
 44 45  2  0
 44 46  1  0
 46 47  1  0
 47 48  1  0
 48 49  2  0
 48 50  1  0
 50 51  1  0
 51 52  1  6
 52 53  1  0
 54 53  1  0
 55 54  2  0
 56 55  1  0
 56 57  1  0
 57 58  2  0
 58 59  1  0
 59 60  2  0
 60 61  1  0
 61 56  2  0
 62 57  1  0
 53 62  2  0
 51 63  1  0
 63 64  1  0
 64 65  1  0
 65 66  1  0
 66 67  2  0
 66 68  1  0
 68  3  1  0
 65 69  1  6
 69 70  1  0
 70 71  1  0
 71 72  1  0
 72 73  1  0
 73 74  2  0
 73 75  1  0
 63 76  2  0
 47 77  1  6
 77 78  1  0
 79 78  1  0
 80 79  2  0
 81 80  1  0
 82 81  2  0
 83 82  1  0
 78 83  2  0
 84 43  1  0
 85 84  1  0
 86 85  1  0
 87 86  1  0
 88 87  1  0
 89 88  1  0
 90 89  1  0
 91 90  1  0
 92 91  1  0
 93 92  1  0
 93 94  1  1
 94 95  1  0
 95 96  1  0
 96 97  1  0
 97 98  1  0
 98 99  1  0
 98100  2  0
101 93  1  0
102101  1  0
103102  1  0
103104  1  0
104105  1  0
105106  2  0
107105  1  0
107108  1  0
108109  1  0
109110  2  0
109111  1  0
111112  1  6
112113  1  0
113114  1  0
113115  2  0
111116  1  0
116117  1  0
117118  2  0
117119  1  0
119120  1  0
120121  1  0
120122  1  0
123122  1  0
123124  1  0
124125  1  0
125126  1  0
126127  1  0
127123  1  0
127128  1  0
128129  1  0
130129  1  0
 38130  2  0
129131  2  0
131 36  1  0
128132  2  0
122133  2  0
134108  1  0
135134  1  0
136135  1  0
137136  1  0
107137  1  0
103138  1  1
138139  1  0
139140  2  0
140141  1  0
142141  1  0
142143  1  0
143144  2  0
144139  1  0
145142  2  0
146145  1  0
147146  2  0
148147  1  0
141148  2  0
102149  2  0
 92150  2  0
 88151  2  0
 86152  1  1
 85153  2  0
 17154  2  0
 16155  1  6
155156  1  0
156157  1  0
157158  1  0
158159  1  0
159160  1  0
159161  2  0
 14162  2  0
  4163  2  0
  1164  1  0
164165  1  0
165166  1  0
166167  1  0
166168  2  0
123169  1  6
107170  1  1
 43171  1  6
M  END