
  SciTegic01181116592D

 40 43  0  0  0  0            999 V2000
   -3.4598   -6.2875    0.0000 C   0  0
   -3.4609   -7.1148    0.0000 C   0  0
   -2.7461   -7.5277    0.0000 C   0  0
   -2.0297   -7.1144    0.0000 C   0  0
   -2.0325   -6.2838    0.0000 C   0  0
   -2.7479   -5.8747    0.0000 C   0  0
   -2.7463   -8.3527    0.0000 C   0  0
   -2.7504   -5.0497    0.0000 N   0  0
   -2.0876   -4.5655    0.0000 C   0  0
   -2.3449   -3.7817    0.0000 C   0  0
   -3.1698   -3.7840    0.0000 C   0  0
   -3.4224   -4.5695    0.0000 N   0  0
   -1.3026   -4.8186    0.0000 N   0  0
   -0.5925   -4.3988    0.0000 C   0  0
    0.1262   -4.8038    0.0000 N   0  0
   -0.6010   -3.5738    0.0000 O   0  0
    0.8422   -4.3932    0.0000 C   0  0
    2.2705   -3.5754    0.0000 C   0  0
    1.5520   -3.1615    0.0000 C   0  0
    0.8400   -3.5740    0.0000 C   0  0
    2.2682   -4.4013    0.0000 C   0  0
    1.5540   -4.8081    0.0000 C   0  0
    1.5502   -5.6282    0.0000 C   0  0
    2.2599   -6.0424    0.0000 C   0  0
    2.9748   -5.6306    0.0000 C   0  0
    2.9751   -4.8119    0.0000 C   0  0
   -3.6567   -3.1180    0.0000 C   0  0
   -4.4833   -3.1167    0.0000 C   0  0
   -3.2500   -2.4000    0.0000 C   0  0
   -4.2458   -2.5292    0.0000 C   0  0
   -4.1757   -7.5268    0.0000 C   0  0
   -4.8899   -7.1137    0.0000 N   0  0
   -4.1764   -8.3518    0.0000 O   0  0
   -5.6047   -7.5256    0.0000 C   0  0
   -6.3229   -7.1126    0.0000 C   0  0
   -7.0414   -7.5245    0.0000 N   0  0
   -7.7523   -7.1114    0.0000 C   0  0
   -8.4625   -7.5234    0.0000 C   0  0
   -7.0407   -8.3495    0.0000 C   0  0
   -7.7509   -8.7614    0.0000 C   0  0
 18 19  1  0
  4  5  1  0
 19 20  2  0
 20 17  1  0
  2  3  1  0
  5  6  2  0
 21 22  1  0
  9 10  2  0
 22 23  1  0
 10 11  1  0
 23 24  2  0
 11 12  2  0
 24 25  1  0
 12  8  1  0
 25 26  2  0
 26 21  1  0
  6  1  1  0
 11 27  1  0
  9 13  1  0
 27 28  1  0
  1  2  2  0
 27 29  1  0
 13 14  1  0
 27 30  1  0
  3  7  1  0
  2 31  1  0
 14 15  1  0
 31 32  1  0
  3  4  2  0
 31 33  2  0
 14 16  2  0
 32 34  1  0
  6  8  1  0
 34 35  1  0
 15 17  1  0
 35 36  1  0
 17 22  2  0
 36 37  1  0
  8  9  1  0
 37 38  1  0
 21 18  2  0
 36 39  1  0
 39 40  1  0
M  END