
          11280715362D 1   1.00000     0.00000     0

 24 26  0     0  0            999 V2000
    5.0250   -6.7792    0.0000 C   0  0  0  0  0  0           0  0  0
    4.5042   -6.4792    0.0000 C   0  0  3  0  0  0           0  0  0
    5.0250   -7.3792    0.0000 C   0  0  0  0  0  0           0  0  0
    4.5042   -7.6792    0.0000 O   0  0  0  0  0  0           0  0  0
    3.9792   -7.3875    0.0000 C   0  0  3  0  0  0           0  0  0
    3.9792   -6.7792    0.0000 C   0  0  3  0  0  0           0  0  0
    5.5417   -6.4792    0.0000 C   0  0  0  0  0  0           0  0  0
    7.1042   -7.3625    0.0000 C   0  0  0  0  0  0           0  0  0
    7.6250   -7.0500    0.0000 C   0  0  0  0  0  0           0  0  0
    3.4542   -6.4792    0.0000 C   0  0  0  0  0  0           0  0  0
    4.5042   -5.8750    0.0000 C   0  0  0  0  0  0           0  0  0
    3.4542   -5.8750    0.0000 C   0  0  0  0  0  0           0  0  0
    3.9917   -5.5750    0.0000 C   0  0  0  0  0  0           0  0  0
    5.5417   -7.6792    0.0000 C   0  0  0  0  0  0           0  0  0
    6.0667   -6.7792    0.0000 C   0  0  0  0  0  0           0  0  0
    6.0667   -7.3792    0.0000 C   0  0  0  0  0  0           0  0  0
    5.5292   -5.8792    0.0000 O   0  0  0  0  0  0           0  0  0
    6.5917   -7.6667    0.0000 C   0  0  0  0  0  0           0  0  0
    8.1417   -6.7375    0.0000 C   0  0  3  0  0  0           0  0  0
    3.7792   -7.9542    0.0000 C   0  0  0  0  0  0           0  0  0
    3.4167   -7.1875    0.0000 C   0  0  0  0  0  0           0  0  0
    8.6667   -7.0292    0.0000 Br  0  0  0  0  0  0           0  0  0
    4.0042   -4.9750    0.0000 C   0  0  0  0  0  0           0  0  0
    8.1292   -6.1375    0.0000 C   0  0  0  0  0  0           0  0  0
  2  1  1  0     0  0
  3  1  1  0     0  0
  4  3  1  0     0  0
  5  4  1  0     0  0
  6  2  1  0     0  0
  7  1  2  0     0  0
  8 18  1  0     0  0
  9  8  3  0     0  0
 10  6  1  0     0  0
 11  2  1  0     0  0
 12 13  2  0     0  0
 13 11  1  0     0  0
 14  3  2  0     0  0
 15  7  1  0     0  0
 16 15  2  0     0  0
 17  7  1  0     0  0
 18 16  1  0     0  0
 19  9  1  0     0  0
 20  5  1  0     0  0
 21  5  1  0     0  0
 22 19  1  0     0  0
 23 13  1  0     0  0
 24 19  1  0     0  0
  5  6  1  0     0  0
 16 14  1  0     0  0
 12 10  1  0     0  0
M  END