
  SciTegic04021211102D

 27 29  0  0  0  0            999 V2000
   -4.9316  -24.7597    0.0000 C   0  0
   -4.9328  -25.5846    0.0000 C   0  0
   -4.2173  -25.9962    0.0000 C   0  0
   -3.5001  -25.5841    0.0000 C   0  0
   -3.5031  -24.7560    0.0000 C   0  0
   -4.2192  -24.3439    0.0000 C   0  0
   -2.7972  -24.3388    0.0000 C   0  0
   -2.0802  -24.7534    0.0000 C   0  0
   -1.3673  -24.3358    0.0000 C   0  0
   -1.3700  -23.5125    0.0000 N   0  0
   -2.0920  -23.1043    0.0000 C   0  0
   -2.8019  -23.5200    0.0000 N   0  0
   -4.2175  -26.8230    0.0000 C   0  0
   -3.5025  -27.2344    0.0000 N   0  0
   -2.7916  -26.8234    0.0000 C   0  0
   -2.0767  -27.2347    0.0000 C   0  0
   -4.2218  -23.5215    0.0000 C   0  0
   -2.0984  -22.2775    0.0000 N   0  0
   -1.3615  -26.8237    0.0000 C   0  0
   -0.6464  -27.2352    0.0000 C   0  0
    0.0644  -26.8241    0.0000 N   0  0
   -4.9674  -27.2566    0.0000 O   0  0
    0.0638  -26.0030    0.0000 C   0  0
   -0.6475  -25.5929    0.0000 C   0  0
   -0.6480  -24.7718    0.0000 S   0  0
   -0.6455  -28.1013    0.0000 O   0  0
   -5.6829  -26.0177    0.0000 C   0  0
  3 13  1  0
  1  2  2  0
 13 14  1  0
  3  4  2  0
 14 15  1  0
  7  8  2  0
 15 16  1  0
  6 17  1  0
  8  9  1  0
 11 18  1  0
  4  5  1  0
 16 19  1  0
  9 10  2  0
 19 20  1  0
  2  3  1  0
 20 21  1  0
 10 11  1  0
 13 22  2  0
  5  6  2  0
 21 23  1  0
 11 12  2  0
 23 24  1  0
 12  7  1  0
 24 25  1  0
  9 25  1  0
  5  7  1  0
 20 26  2  0
  6  1  1  0
  2 27  1  0
M  END