
          11280715142D 1   1.00000     0.00000     0

 42 46  0     1  0            999 V2000
    1.8042   -2.4667    0.0000 C   0  0  2  0  0  0           0  0  0
    2.2167   -3.1792    0.0000 C   0  0  1  0  0  0           0  0  0
    1.7875   -0.6042    0.0000 N   0  0  3  0  0  0           0  0  0
    1.1500   -1.9542    0.0000 C   0  0  0  0  0  0           0  0  0
    1.1500   -1.1292    0.0000 C   0  0  0  0  0  0           0  0  0
    2.0042   -4.6917    0.0000 C   0  0  0  0  0  0           0  0  0
    2.6167   -2.2792    0.0000 N   0  0  0  0  0  0           0  0  0
    1.2167   -3.0542    0.0000 C   0  0  0  0  0  0           0  0  0
    2.6000   -0.7792    0.0000 C   0  0  0  0  0  0           0  0  0
    3.0125   -3.3917    0.0000 C   0  0  0  0  0  0           0  0  0
    1.8000   -3.8917    0.0000 O   0  0  0  0  0  0           0  0  0
    1.4250   -5.2667    0.0000 N   0  0  0  0  0  0           0  0  0
    2.8000   -4.9000    0.0000 N   0  0  0  0  0  0           0  0  0
    1.5375    0.1833    0.0000 C   0  0  0  0  0  0           0  0  0
    2.9667   -1.5292    0.0000 C   0  0  0  0  0  0           0  0  0
    0.4167   -2.8292    0.0000 C   0  0  0  0  0  0           0  0  0
    1.6375   -6.0667    0.0000 C   0  0  0  0  0  0           0  0  0
    3.0167   -5.6917    0.0000 C   0  0  0  0  0  0           0  0  0
    2.4292   -6.2792    0.0000 C   0  0  0  0  0  0           0  0  0
    3.1042   -0.1292    0.0000 O   0  0  0  0  0  0           0  0  0
    3.2250   -4.1917    0.0000 O   0  0  0  0  0  0           0  0  0
    2.0917    0.7958    0.0000 C   0  0  0  0  0  0           0  0  0
    3.8042   -3.1792    0.0000 O   0  0  0  0  0  0           0  0  0
    0.4292   -2.3667    0.0000 C   0  0  0  0  0  0           0  0  0
    3.2000    2.0208    0.0000 C   0  0  0  0  0  0           0  0  0
   -0.1708   -3.4042    0.0000 C   0  0  0  0  0  0           0  0  0
    1.4292   -3.8500    0.0000 C   0  0  0  0  0  0           0  0  0
    0.4292   -0.7167    0.0000 C   0  0  0  0  0  0           0  0  0
    1.8375    1.5708    0.0000 C   0  0  0  0  0  0           0  0  0
    2.8917    0.6208    0.0000 C   0  0  0  0  0  0           0  0  0
    3.4500    1.2250    0.0000 C   0  0  0  0  0  0           0  0  0
    2.3792    2.1833    0.0000 C   0  0  0  0  0  0           0  0  0
    3.7542    2.6250    0.0000 O   0  0  0  0  0  0           0  0  0
    0.8292   -4.4292    0.0000 C   0  0  0  0  0  0           0  0  0
    1.0542   -6.6500    0.0000 C   0  0  0  0  0  0           0  0  0
    3.8125   -5.9042    0.0000 C   0  0  0  0  0  0           0  0  0
    0.0375   -4.2042    0.0000 C   0  0  0  0  0  0           0  0  0
   -0.9583   -3.1792    0.0000 C   0  0  0  0  0  0           0  0  0
    3.5000    3.4083    0.0000 C   0  0  0  0  0  0           0  0  0
   -0.2833   -1.9542    0.0000 C   0  0  0  0  0  0           0  0  0
   -0.2833   -1.1292    0.0000 C   0  0  0  0  0  0           0  0  0
   -1.5458   -3.7542    0.0000 C   0  0  0  0  0  0           0  0  0
  2  1  1  0     0  0
  3  5  1  0     0  0
  4  1  1  0     0  0
  5  4  1  0     0  0
  6 11  1  0     0  0
  7  1  1  0     0  0
  1  8  1  1     0  0
  9 15  1  0     0  0
 10  2  1  0     0  0
  2 11  1  1     0  0
 12  6  2  0     0  0
 13  6  1  0     0  0
 14  3  1  0     0  0
 15  7  1  0     0  0
 16  8  1  0     0  0
 17 12  1  0     0  0
 18 13  2  0     0  0
 19 18  1  0     0  0
 20  9  2  0     0  0
 21 10  2  0     0  0
 22 14  1  0     0  0
 23 10  1  0     0  0
 24  4  2  0     0  0
 25 31  2  0     0  0
 26 16  2  0     0  0
 27  8  2  0     0  0
 28  5  2  0     0  0
 29 22  1  0     0  0
 30 22  2  0     0  0
 31 30  1  0     0  0
 32 29  2  0     0  0
 33 25  1  0     0  0
 34 27  1  0     0  0
 35 17  1  0     0  0
 36 18  1  0     0  0
 37 34  2  0     0  0
 38 26  1  0     0  0
 39 33  1  0     0  0
 40 24  1  0     0  0
 41 40  2  0     0  0
 42 38  1  0     0  0
  3  9  1  0     0  0
 26 37  1  0     0  0
 28 41  1  0     0  0
 17 19  2  0     0  0
 32 25  1  0     0  0
M  END