
  SciTegic07101214422D

 83 90  0  0  0  0            999 V2000
   19.5237   -1.7120    0.0000 S   0  0
   20.1323   -1.1550    0.0000 O   0  0
   19.3456   -0.9065    0.0000 O   0  0
   16.6968   -0.9799    0.0000 C   0  0
   17.1043   -0.2626    0.0000 C   0  0
   16.2793   -0.2684    0.0000 C   0  0
   11.6153    4.8466    0.0000 S   0  0
   10.8290    5.0969    0.0000 O   0  0
   11.0059    4.2944    0.0000 O   0  0
   -4.0181   -0.9291    0.0000 C   0  0
   -4.0193   -1.7565    0.0000 C   0  0
   -3.3044   -2.1694    0.0000 C   0  0
   -2.5880   -1.7560    0.0000 C   0  0
   -3.3062   -0.5164    0.0000 C   0  0
   -2.5945   -0.9273    0.0000 C   0  0
   -2.6023    0.7141    0.0000 C   0  0
   -3.3089    0.3010    0.0000 N   0  0
   -1.8859    0.3051    0.0000 C   0  0
   -1.8807   -0.5182    0.0000 N   0  0
   -1.0960   -0.7677    0.0000 C   0  0
   -0.6163   -0.0985    0.0000 N   0  0
   -1.1045    0.5644    0.0000 N   0  0
   -0.8362   -1.5507    0.0000 O   0  0
   -2.6065    1.5391    0.0000 N   0  0
   -1.8942    1.9553    0.0000 C   0  0
   -1.8985    2.7803    0.0000 O   0  0
   -1.1776    1.5465    0.0000 C   0  0
    0.2063   -0.0928    0.0000 C   0  0
    0.6228   -0.8063    0.0000 C   0  0
    1.4470   -0.8014    0.0000 C   0  0
    1.8557   -0.0837    0.0000 C   0  0
    1.4343    0.6304    0.0000 C   0  0
    0.6114    0.6220    0.0000 C   0  0
    2.6807   -0.0774    0.0000 O   0  0
    3.0987   -0.7887    0.0000 C   0  0
   -0.4653    1.9627    0.0000 C   0  0
    0.2513    1.5539    0.0000 C   0  0
    0.9637    1.9701    0.0000 N   0  0
    0.2556    0.7289    0.0000 O   0  0
    1.6802    1.5613    0.0000 C   0  0
    2.3926    1.9774    0.0000 C   0  0
    3.1092    1.5686    0.0000 O   0  0
    3.8215    1.9848    0.0000 C   0  0
    4.5381    1.5760    0.0000 C   0  0
    5.2504    1.9922    0.0000 O   0  0
    5.9670    1.5834    0.0000 C   0  0
    6.6793    1.9996    0.0000 C   0  0
    7.3959    1.5908    0.0000 N   0  0
    8.1083    2.0069    0.0000 C   0  0
    8.1040    2.8319    0.0000 O   0  0
    8.8249    1.5981    0.0000 C   0  0
    9.5372    2.0143    0.0000 C   0  0
   10.2538    1.6055    0.0000 C   0  0
   10.9661    2.0217    0.0000 C   0  0
   11.6827    1.6129    0.0000 C   0  0
   12.3950    2.0291    0.0000 N   0  3
   13.1470    1.6990    0.0000 C   0  0
   13.6959    2.3150    0.0000 C   0  0
   12.4737    2.8515    0.0000 C   0  0
   13.2768    3.0235    0.0000 C   0  0
   13.5278    3.8036    0.0000 C   0  0
   12.9768    4.4127    0.0000 C   0  0
   12.1715    4.2393    0.0000 C   0  0
   11.9242    3.4559    0.0000 C   0  0
   11.8650    5.6352    0.0000 O   0  5
   13.3228    0.8929    0.0000 C   0  0
   14.1087    0.6421    0.0000 C   0  0
   14.2845   -0.1640    0.0000 C   0  0
   15.0704   -0.4148    0.0000 C   0  0
   15.2462   -1.2208    0.0000 C   0  0
   16.0321   -1.4717    0.0000 C   0  0
   16.2910   -2.2516    0.0000 N   0  0
   15.8099   -2.9218    0.0000 C   0  0
   14.9890   -2.8403    0.0000 C   0  0
   17.3668   -1.4613    0.0000 C   0  0
   17.1152   -2.2436    0.0000 C   0  0
   17.6663   -2.8507    0.0000 C   0  0
   18.4693   -2.6766    0.0000 C   0  0
   18.7181   -1.8901    0.0000 C   0  0
   18.1653   -1.2864    0.0000 C   0  0
   20.0806   -2.3206    0.0000 O   0  0
   14.5170    2.2352    0.0000 C   0  0
   13.9966    1.5467    0.0000 C   0  0
 19 20  1  0
 40 41  1  0
 20 21  1  0
 41 42  1  0
 21 22  1  0
 42 43  1  0
 22 18  2  0
 43 44  1  0
 12 13  2  0
 44 45  1  0
 20 23  2  0
 45 46  1  0
 13 15  1  0
 46 47  1  0
 16 24  1  0
 47 48  1  0
 14 10  1  0
 48 49  1  0
 24 25  1  0
 49 50  2  0
  5  4  1  0
 49 51  1  0
 25 26  2  0
 51 52  1  0
  4  6  1  0
 52 53  1  0
 25 27  1  0
 53 54  1  0
 14 15  2  0
 54 55  1  0
 15 19  1  0
 55 56  1  0
 56 57  2  0
 28 29  2  0
 57 58  1  0
 58 60  1  0
 59 56  1  0
 29 30  1  0
 18 16  1  0
 59 60  2  0
 30 31  2  0
 60 61  1  0
  2  1  2  0
 61 62  2  0
 31 32  1  0
 62 63  1  0
 16 17  2  0
 63 64  2  0
 64 59  1  0
 63  7  1  0
 32 33  2  0
  7 65  1  0
 33 28  1  0
 57 66  1  0
 21 28  1  0
 66 67  2  0
 17 14  1  0
 67 68  1  0
 31 34  1  0
 68 69  2  0
 18 19  1  0
 69 70  1  0
 34 35  1  0
 70 71  2  0
 71 72  1  0
  1  3  2  0
 72 76  1  0
 75  4  1  0
  4 71  1  0
 27 36  1  0
 72 73  1  0
 10 11  2  0
 73 74  1  0
 36 37  1  0
  8  7  2  0
 75 76  2  0
 37 38  1  0
 76 77  1  0
 11 12  1  0
 77 78  2  0
 37 39  2  0
 78 79  1  0
  7  9  2  0
 79 80  2  0
 80 75  1  0
 79  1  1  0
 38 40  1  0
  1 81  1  0
 58 82  1  0
 58 83  1  0
M  CHG  2  56   1  65  -1
M  END