
  SciTegic05171617282D

 26 29  0  0  0  0            999 V2000
   -4.6549    0.8867    0.0000 O   0  0
   -3.6187    1.4919    0.0000 C   0  0
   -3.6267    2.9927    0.0000 N   0  0
   -4.9300    3.7369    0.0000 C   0  0
   -6.1781    2.8918    0.0000 C   0  0
   -7.6144    3.3243    0.0000 C   0  0
   -8.1718    4.7169    0.0000 C   0  0
   -7.4306    6.0209    0.0000 C   0  0
   -5.9489    6.2545    0.0000 N   0  0
   -4.8425    5.2417    0.0000 C   0  0
   -3.7306    5.6931    0.0000 O   0  0
   -2.3155    0.7475    0.0000 C   0  0
   -2.3155   -0.7475    0.0000 C   0  0
   -1.0028   -1.5132    0.0000 C   0  0
    0.2917   -0.7475    0.0000 C   0  0
    1.7138   -1.2033    0.0000 N   0  0
    2.5889    0.0182    0.0000 N   0  0
    1.7138    1.2033    0.0000 C   0  0
    2.1749    2.6315    0.0000 C   0  0
    1.2517    3.8078    0.0000 C   0  0
    1.8114    5.1995    0.0000 C   0  0
    3.2965    5.4106    0.0000 N   0  0
    4.2218    4.2301    0.0000 C   0  0
    3.6621    2.8384    0.0000 C   0  0
    0.2917    0.7475    0.0000 C   0  0
   -1.0028    1.5132    0.0000 C   0  0
  1  2  2  0
  2  3  1  0
  3  4  1  0
  4  5  1  0
  5  6  1  0
  6  7  1  0
  7  8  1  0
  8  9  1  0
  9 10  1  0
  4 10  1  0
 10 11  2  0
  2 12  1  0
 12 13  2  0
 13 14  1  0
 14 15  2  0
 15 16  1  0
 16 17  1  0
 17 18  2  0
 18 19  1  0
 19 20  2  0
 20 21  1  0
 21 22  2  0
 22 23  1  0
 23 24  2  0
 19 24  1  0
 18 25  1  0
 15 25  1  0
 25 26  2  0
 12 26  1  0
M  END