
  SciTegic01161211262D

 50 54  0  0  0  0            999 V2000
   14.0595   -7.9829    0.0000 N   0  0
   15.4806   -7.9901    0.0000 C   0  0  1  0  0  0
   14.7698   -7.5731    0.0000 C   0  0
   12.6825   -6.2910    0.0000 C   0  0
   13.3867   -6.7267    0.0000 C   0  0  1  0  0  0
   13.3631   -7.5529    0.0000 C   0  0
   16.2149   -7.6345    0.0000 C   0  0
   16.9151   -8.0660    0.0000 N   0  0
   16.2343   -6.8083    0.0000 O   0  0
   16.8872   -8.8886    0.0000 C   0  0
   17.5832   -9.3238    0.0000 C   0  0
   18.3135   -8.9327    0.0000 N   0  0
   18.3390   -8.1056    0.0000 C   0  0
   17.6344   -7.6697    0.0000 C   0  0
   19.0089   -9.3701    0.0000 C   0  0
   18.9809  -10.1973    0.0000 C   0  0
   19.6785  -10.6353    0.0000 C   0  0
   20.4047  -10.2433    0.0000 C   0  0
   20.4289   -9.4128    0.0000 C   0  0
   19.7347   -8.9827    0.0000 C   0  0
   14.1104   -6.3319    0.0000 C   0  0
   11.9587   -6.6858    0.0000 C   0  0
   11.2580   -6.2480    0.0000 C   0  0
   11.2159   -7.9005    0.0000 C   0  0
   11.9404   -7.5083    0.0000 C   0  0
   10.5107   -7.4692    0.0000 C   0  0
   10.5339   -6.6439    0.0000 C   0  0
    9.7562   -6.3639    0.0000 N   0  0
    9.2588   -7.0188    0.0000 S   0  0
    9.7186   -7.7007    0.0000 N   0  0
   14.0553   -8.8095    0.0000 C   0  0
   15.4758   -7.1605    0.0000 H   0  0
   15.4764   -8.8167    0.0000 C   0  0  2  0  0  0
   14.7587   -9.2275    0.0000 C   0  0  1  0  0  0
   14.7542  -10.0485    0.0000 C   0  0
   15.4657  -10.4646    0.0000 C   0  0
   16.1834  -10.0579    0.0000 C   0  0
   16.1896   -9.2308    0.0000 C   0  0
   14.0428   -9.6319    0.0000 H   0  0
   16.1902   -8.3983    0.0000 H   0  0
   21.1574   -9.0233    0.0000 F   0  0
   21.1085  -10.6798    0.0000 F   0  0
   19.4779   -5.7000    0.0000 C   0  0
   18.7634   -6.1125    0.0000 C   0  0
   18.0491   -5.7000    0.0000 C   0  0
   17.3346   -6.1125    0.0000 C   0  0
   19.4779   -4.8750    0.0000 O   0  0
   20.1924   -6.1125    0.0000 O   0  0
   17.3346   -6.9375    0.0000 O   0  0
   16.6201   -5.7001    0.0000 O   0  0
 20 15  1  0
 12 15  1  0
  8 10  1  0
  5 21  1  6
  4 22  1  0
  4  5  1  0
 22 23  2  0
 23 27  1  0
  1  3  1  0
 26 24  1  0
  5  6  1  0
 24 25  2  0
 25 22  1  0
 26 27  1  0
  6  1  1  0
  8 14  1  0
 10 11  1  0
 11 12  1  0
 12 13  1  0
 27 28  2  0
 28 29  1  0
 29 30  1  0
 30 26  2  0
 34 31  1  0
 13 14  1  0
 33  2  1  0
  2 32  1  6
 33 34  1  0
  2  7  1  0
 15 16  2  0
  2  3  1  0
 16 17  1  0
  7  8  1  0
 17 18  2  0
 33 38  1  0
 34 35  1  0
 35 36  1  0
 36 37  1  0
 37 38  1  0
  1 31  1  0
 34 39  1  6
 18 19  1  0
 33 40  1  6
  7  9  2  0
 19 41  1  0
 19 20  2  0
 18 42  1  0
 43 44  1  0
 43 47  2  0
 43 48  1  0
 44 45  2  0
 45 46  1  0
 46 49  2  0
 46 50  1  0
M  END