
  SciTegic04091414352D

 51 55  0  0  0  0            999 V2000
   16.7593   -3.7475    0.0000 C   0  0
   16.7581   -4.5670    0.0000 C   0  0
   17.4662   -4.9760    0.0000 C   0  0
   17.4644   -3.3386    0.0000 C   0  0
   18.1730   -3.7439    0.0000 C   0  0
   18.1732   -4.5671    0.0000 C   0  0
   18.9562   -4.8212    0.0000 S   0  0
   19.4399   -4.1551    0.0000 C   0  0
   18.9558   -3.4893    0.0000 N   0  0
   20.2555   -4.1550    0.0000 C   0  0
   20.7360   -4.8160    0.0000 C   0  0
   21.5132   -4.5632    0.0000 N   0  0
   21.5129   -3.7459    0.0000 C   0  0
   20.7356   -3.4938    0.0000 S   0  0
   22.1738   -3.2653    0.0000 C   0  0
   22.0880   -2.4526    0.0000 C   0  0
   20.4838   -5.5933    0.0000 O   0  0
   19.2081   -2.7121    0.0000 C   0  0
   22.1744   -5.0433    0.0000 C   0  0
   22.0893   -5.8560    0.0000 C   0  0
   22.7500   -1.9735    0.0000 N   0  3
   22.6647   -1.1615    0.0000 C   0  0
   21.9174   -0.8287    0.0000 C   0  0
   21.2546   -1.3139    0.0000 C   0  0
   21.3433   -2.1242    0.0000 C   0  0
   23.4963   -2.3066    0.0000 C   0  0
   24.1578   -1.8268    0.0000 C   0  0
   24.9041   -2.1599    0.0000 C   0  0
   25.5656   -1.6802    0.0000 C   0  0
   26.3119   -2.0132    0.0000 C   0  0
   26.9734   -1.5335    0.0000 C   0  0
   27.7197   -1.8666    0.0000 N   0  0
   28.3812   -1.3868    0.0000 C   0  0
   29.1275   -1.7199    0.0000 C   0  0
   28.2965   -0.5740    0.0000 O   0  0
   29.7890   -1.2402    0.0000 C   0  0
   30.5353   -1.5732    0.0000 C   0  0
   31.1968   -1.0935    0.0000 C   0  0
   31.9431   -1.4266    0.0000 C   0  0  2  0  0  0
   32.1101   -2.2237    0.0000 S   0  0
   32.9227   -2.3099    0.0000 C   0  0
   32.6490   -1.0163    0.0000 C   0  0  2  0  0  0
   33.2531   -1.5621    0.0000 C   0  0  1  0  0  0
   33.9588   -1.1562    0.0000 N   0  0
   33.7909   -0.3595    0.0000 C   0  0
   32.9814   -0.2732    0.0000 N   0  0
   34.3387    0.2484    0.0000 O   0  0
   32.0644   -0.4334    0.0000 H   0  0
   33.8268   -2.1379    0.0000 H   0  0
   17.4619   -2.5214    0.0000 F   0  0
   25.5352   -3.8342    0.0000 Cl  0  5
  1  2  2  0
  2  3  1  0
  3  6  2  0
  5  4  2  0
  4  1  1  0
  5  6  1  0
  6  7  1  0
  7  8  1  0
  8  9  1  0
  9  5  1  0
 10 11  1  0
 11 12  1  0
 12 13  1  0
 13 14  1  0
 14 10  1  0
  8 10  2  0
 13 15  2  0
 15 16  1  0
 11 17  2  0
  9 18  1  0
 12 19  1  0
 19 20  1  0
 16 21  2  0
 21 22  1  0
 22 23  2  0
 23 24  1  0
 24 25  2  0
 25 16  1  0
 21 26  1  0
 26 27  1  0
 27 28  1  0
 28 29  1  0
 29 30  1  0
 30 31  1  0
 31 32  1  0
 32 33  1  0
 33 34  1  0
 33 35  2  0
 34 36  1  0
 36 37  1  0
 37 38  1  0
 39 38  1  1
 39 40  1  0
 40 41  1  0
 41 43  1  0
 42 39  1  0
 42 43  1  0
 43 44  1  0
 44 45  1  0
 45 46  1  0
 46 42  1  0
 45 47  2  0
 42 48  1  6
 43 49  1  6
  4 50  1  0
M  CHG  2  21   1  51  -1
M  END