
  SciTegic11201309402D

 38 41  0  0  0  0            999 V2000
    0.5181   -1.3509    0.0000 N   0  0
    0.5181   -2.1759    0.0000 C   0  0
    1.2326   -0.9384    0.0000 C   0  0  2  0  0  0
   -0.1964   -0.9384    0.0000 C   0  0
   -0.9109   -3.8259    0.0000 C   0  0
    1.9470   -1.3509    0.0000 C   0  0
    1.2326   -0.1134    0.0000 C   0  0
   -0.1964   -3.4134    0.0000 C   0  0
   -0.1964   -2.5884    0.0000 C   0  0  2  0  0  0
   -1.6253   -3.4134    0.0000 C   0  0
   -0.9109   -4.6509    0.0000 C   0  0
   -0.1964   -0.1134    0.0000 C   0  0
    0.5181    0.2991    0.0000 C   0  0
    2.6615   -0.9384    0.0000 N   0  0
    4.0904   -0.9384    0.0000 C   0  0
    1.2326   -2.5884    0.0000 O   0  0
   -1.6253   -5.0634    0.0000 C   0  0
   -2.3398   -3.8259    0.0000 C   0  0
    4.8049   -1.3509    0.0000 N   0  0
   -2.3398   -4.6509    0.0000 C   0  0
    1.9470   -2.1759    0.0000 O   0  0
    4.0904   -0.1134    0.0000 O   0  0
    3.3760   -1.3509    0.0000 C   0  0
   -0.9109   -2.1759    0.0000 N   0  0
    5.5194   -0.9384    0.0000 C   0  0
   -3.0543   -5.0634    0.0000 O   0  0
    6.2339   -1.3509    0.0000 C   0  0
   -0.1964   -5.0634    0.0000 C   0  0
   -1.6253   -2.5884    0.0000 C   0  0
    0.5181    1.1241    0.0000 C   0  0
   -0.9109    0.2991    0.0000 C   0  0
    6.2339   -2.1759    0.0000 C   0  0
    6.9483   -0.9384    0.0000 C   0  0
   -0.9109    1.1241    0.0000 C   0  0
   -0.1964    1.5366    0.0000 C   0  0
    7.6628   -1.3509    0.0000 C   0  0
    6.9483   -2.5884    0.0000 C   0  0
    7.6628   -2.1759    0.0000 C   0  0
  2  1  1  0
  3  1  1  0
  4  1  1  0
  5  8  1  0
  3  6  1  1
  7  3  1  0
  9  8  1  0
  9  2  1  0
 10  5  1  0
 11  5  2  0
 12  4  1  0
 13 12  2  0
 14  6  1  0
 15 23  1  0
 16  2  2  0
 17 11  1  0
 18 10  2  0
 19 15  1  0
 20 17  2  0
 21  6  2  0
 22 15  2  0
 23 14  1  0
  9 24  1  6
 25 19  1  0
 26 20  1  0
 27 25  1  0
 28 11  1  0
 29 10  1  0
 30 13  1  0
 31 12  1  0
 32 27  2  0
 33 27  1  0
 34 31  2  0
 35 34  1  0
 36 33  2  0
 37 32  1  0
 38 36  1  0
 13  7  1  0
 35 30  2  0
 18 20  1  0
 38 37  2  0
M  END