
  SciTegic01161211242D

 22 23  0  0  0  0            999 V2000
    2.3194   -9.5416    0.0000 C   0  0
    2.3182  -10.3690    0.0000 C   0  0
    3.0331  -10.7819    0.0000 C   0  0
    3.0313   -9.1289    0.0000 C   0  0
    3.7466   -9.5380    0.0000 C   0  0
    3.7474  -10.3648    0.0000 C   0  0
    4.4627  -10.7758    0.0000 C   0  0
    5.1777  -10.3610    0.0000 N   0  0
    5.1730   -9.5311    0.0000 C   0  0
    4.4571   -9.1238    0.0000 C   0  0
    4.4527   -8.2989    0.0000 O   0  0
    4.4644  -11.6008    0.0000 Cl  0  0
    5.8849   -9.1142    0.0000 C   0  0
    6.6019   -9.5224    0.0000 N   0  0
    5.8799   -8.2892    0.0000 O   0  0
    7.3138   -9.1055    0.0000 C   0  0  2  0  0  0
    8.0308   -9.5137    0.0000 C   0  0
    8.7427   -9.0968    0.0000 O   0  0
    8.0358  -10.3386    0.0000 O   0  0
    7.3088   -8.2805    0.0000 C   0  0
    8.0208   -7.8637    0.0000 C   0  0
    6.5918   -7.8724    0.0000 C   0  0
 10 11  1  0
  2  3  1  0
  7 12  1  0
  5  6  1  0
  9 13  1  0
  3  6  2  0
 13 14  1  0
  6  7  1  0
 13 15  2  0
  1  2  2  0
 14 16  1  0
  7  8  2  0
 16 17  1  0
  5  4  2  0
 17 18  1  0
  8  9  1  0
 17 19  2  0
  4  1  1  0
 16 20  1  1
  9 10  2  0
 20 21  1  0
 10  5  1  0
 20 22  1  0
M  END