
          11280714462D 1   1.00000     0.00000     0

 25 26  0     0  0            999 V2000
    2.7042   -2.1042    0.0000 C   0  0  0  0  0  0           0  0  0
    3.2292   -2.4042    0.0000 C   0  0  0  0  0  0           0  0  0
    2.7042   -1.4917    0.0000 C   0  0  0  0  0  0           0  0  0
    3.2292   -3.0042    0.0000 N   0  0  3  0  0  0           0  0  0
    2.1792   -2.4042    0.0000 C   0  0  0  0  0  0           0  0  0
    2.1792   -1.1917    0.0000 C   0  0  0  0  0  0           0  0  0
    2.9292   -3.9417    0.0000 N   0  0  0  0  0  0           0  0  0
    1.6542   -2.1042    0.0000 C   0  0  0  0  0  0           0  0  0
    3.2250   -1.1875    0.0000 O   0  0  0  0  0  0           0  0  0
    2.7417   -3.3542    0.0000 C   0  0  0  0  0  0           0  0  0
    1.6542   -1.5000    0.0000 C   0  0  0  0  0  0           0  0  0
    3.7167   -3.3667    0.0000 C   0  0  0  0  0  0           0  0  0
    3.5250   -3.9417    0.0000 C   0  0  0  0  0  0           0  0  0
    3.7542   -2.1000    0.0000 C   0  0  0  0  0  0           0  0  0
    5.3667   -1.7417    0.0000 N   0  0  0  0  0  0           0  0  0
    2.1750   -0.5917    0.0000 Cl  0  0  0  0  0  0           0  0  0
    3.7500   -1.4875    0.0000 C   0  0  0  0  0  0           0  0  0
    4.3292   -1.3292    0.0000 C   0  0  3  0  0  0           0  0  0
    4.7625   -1.7417    0.0000 C   0  0  0  0  0  0           0  0  0
    4.4792   -0.7417    0.0000 O   0  0  0  0  0  0           0  0  0
    2.1792   -3.0042    0.0000 C   0  0  0  0  0  0           0  0  0
    1.1375   -2.4042    0.0000 C   0  0  0  0  0  0           0  0  0
    5.7167   -2.2292    0.0000 C   0  0  3  0  0  0           0  0  0
    6.3167   -2.1667    0.0000 C   0  0  0  0  0  0           0  0  0
    5.4792   -2.7792    0.0000 C   0  0  0  0  0  0           0  0  0
  2  1  1  0     0  0
  3  1  1  0     0  0
  4  2  1  0     0  0
  5  1  2  0     0  0
  6  3  2  0     0  0
  7 10  2  0     0  0
  8  5  1  0     0  0
  9  3  1  0     0  0
 10  4  1  0     0  0
 11  8  2  0     0  0
 12  4  1  0     0  0
 13 12  2  0     0  0
 14  2  2  0     0  0
 15 19  1  0     0  0
 16  6  1  0     0  0
 17  9  1  0     0  0
 18 17  1  0     0  0
 19 18  1  0     0  0
 20 18  1  0     0  0
 21  5  1  0     0  0
 22  8  1  0     0  0
 23 15  1  0     0  0
 24 23  1  0     0  0
 25 23  1  0     0  0
 11  6  1  0     0  0
 13  7  1  0     0  0
M  END