
          11280715492D 1   1.00000     0.00000     0

 27 30  0     0  0            999 V2000
   -4.3478  -12.8680    0.0000 N   0  0  0  0  0  0           0  0  0
   -4.3489  -13.6955    0.0000 C   0  0  0  0  0  0           0  0  0
   -3.6340  -14.1085    0.0000 C   0  0  0  0  0  0           0  0  0
   -2.9175  -13.6950    0.0000 C   0  0  0  0  0  0           0  0  0
   -2.9203  -12.8644    0.0000 C   0  0  0  0  0  0           0  0  0
   -3.6358  -12.4553    0.0000 C   0  0  0  0  0  0           0  0  0
   -2.2022  -14.1065    0.0000 C   0  0  0  0  0  0           0  0  0
   -1.3107  -15.1024    0.0000 N   0  0  0  0  0  0           0  0  0
   -0.8991  -14.3908    0.0000 C   0  0  0  0  0  0           0  0  0
   -1.4598  -13.7682    0.0000 N   0  0  0  0  0  0           0  0  0
   -2.1179  -14.9241    0.0000 C   0  0  0  0  0  0           0  0  0
   -2.7336  -15.4721    0.0000 C   0  0  0  0  0  0           0  0  0
   -3.4552  -15.0696    0.0000 C   0  0  0  0  0  0           0  0  0
   -4.1624  -15.4931    0.0000 C   0  0  0  0  0  0           0  0  0
   -4.1494  -16.3190    0.0000 C   0  0  0  0  0  0           0  0  0
   -3.4231  -16.7196    0.0000 C   0  0  0  0  0  0           0  0  0
   -2.7188  -16.2937    0.0000 C   0  0  0  0  0  0           0  0  0
   -0.0742  -14.3712    0.0000 C   0  0  0  0  0  0           0  0  0
    0.3510  -15.0759    0.0000 C   0  0  0  0  0  0           0  0  0
    1.1751  -15.0567    0.0000 C   0  0  0  0  0  0           0  0  0
    1.5714  -14.3319    0.0000 C   0  0  0  0  0  0           0  0  0
    1.1375  -13.6251    0.0000 C   0  0  0  0  0  0           0  0  0
    0.3148  -13.6478    0.0000 C   0  0  0  0  0  0           0  0  0
   -4.8564  -16.7441    0.0000 C   0  0  0  0  0  0           0  0  0
   -5.5782  -16.3443    0.0000 N   0  0  0  0  0  0           0  0  0
   -6.2911  -16.7694    0.0000 O   0  0  0  0  0  0           0  0  0
   -3.4067  -17.5444    0.0000 Cl  0  0  0  0  0  0           0  0  0
  1  2  2  0     0  0
 13 14  2  0     0  0
  4  7  1  0     0  0
 14 15  1  0     0  0
  3  4  2  0     0  0
 15 16  2  0     0  0
 16 17  1  0     0  0
 17 12  2  0     0  0
 11 12  1  0     0  0
  4  5  1  0     0  0
  9 18  1  0     0  0
  2  3  1  0     0  0
 18 19  2  0     0  0
  8  9  1  0     0  0
 19 20  1  0     0  0
  9 10  2  0     0  0
 20 21  2  0     0  0
 10  7  1  0     0  0
 21 22  1  0     0  0
  7 11  2  0     0  0
 22 23  2  0     0  0
 23 18  1  0     0  0
 11  8  1  0     0  0
 15 24  1  0     0  0
  5  6  2  0     0  0
 24 25  2  0     0  0
  6  1  1  0     0  0
 25 26  1  0     0  0
 12 13  1  0     0  0
 16 27  1  0     0  0
M  END