
          11280715382D 1   1.00000     0.00000     0

 14 14  0     0  0            999 V2000
    5.4875   -7.5542    0.0000 C   0  0  0  0  0  0           0  0  0
    5.4875   -8.3792    0.0000 C   0  0  0  0  0  0           0  0  0
    4.7667   -7.1417    0.0000 C   0  0  0  0  0  0           0  0  0
    6.2000   -7.1417    0.0000 C   0  0  0  0  0  0           0  0  0
    4.7667   -8.8000    0.0000 C   0  0  0  0  0  0           0  0  0
    4.0542   -7.5625    0.0000 C   0  0  0  0  0  0           0  0  0
    4.0542   -8.3875    0.0000 C   0  0  0  0  0  0           0  0  0
    6.1917   -6.3167    0.0000 O   0  0  0  0  0  0           0  0  0
    6.2042   -8.7917    0.0000 Br  0  0  0  0  0  0           0  0  0
    6.9167   -7.5542    0.0000 O   0  0  0  0  0  0           0  0  0
    3.3417   -7.1500    0.0000 O   0  0  0  0  0  0           0  0  0
    3.3417   -8.8000    0.0000 O   0  0  0  0  0  0           0  0  0
    2.6292   -7.5625    0.0000 C   0  0  0  0  0  0           0  0  0
    2.6292   -8.3875    0.0000 C   0  0  0  0  0  0           0  0  0
  2  1  1  0     0  0
  3  1  2  0     0  0
  4  1  1  0     0  0
  5  2  2  0     0  0
  6  3  1  0     0  0
  7  6  2  0     0  0
  8  4  2  0     0  0
  9  2  1  0     0  0
 10  4  1  0     0  0
 11  6  1  0     0  0
 12  7  1  0     0  0
 13 11  1  0     0  0
 14 12  1  0     0  0
  5  7  1  0     0  0
M  END