
  SciTegic05061116452D

 26 30  0  0  0  0            999 V2000
   -5.2973  -18.6724    0.0000 C   0  0
   -5.2973  -19.5037    0.0000 C   0  0
   -4.5883  -19.9154    0.0000 C   0  0
   -3.8799  -19.5065    0.0000 C   0  0
   -3.1574  -19.9261    0.0000 C   0  0
   -2.4448  -19.5123    0.0000 C   0  0
   -2.4448  -18.6821    0.0000 C   0  0
   -3.8799  -18.7278    0.0000 C   0  0
   -3.1692  -18.2656    0.0000 C   0  0
   -4.5203  -18.2725    0.0000 C   0  0
   -4.2401  -17.4639    0.0000 C   0  0
   -3.4093  -17.4639    0.0000 C   0  0
   -3.1311  -16.7005    0.0000 C   0  0
   -3.7672  -16.1902    0.0000 C   0  0
   -4.4665  -16.6504    0.0000 N   0  0
   -2.3429  -16.4708    0.0000 C   0  0
   -1.5547  -16.2411    0.0000 N   0  0
   -3.7672  -15.3699    0.0000 O   0  0
   -2.4429  -21.1636    0.0000 C   0  0
   -2.4444  -21.9886    0.0000 C   0  0
   -1.7308  -22.4010    0.0000 C   0  0
   -1.0153  -21.9884    0.0000 C   0  0
   -1.0180  -21.1592    0.0000 C   0  0
   -1.7322  -20.7505    0.0000 C   0  0
   -0.3003  -22.4000    0.0000 N   0  0
   -3.1574  -20.7511    0.0000 S   0  0
  5  6  2  0
  6  7  1  0
  7  9  2  0
  8  9  1  0
  9 12  1  0
 11 10  1  0
 11 12  1  0
 12 13  2  0
 13 14  1  0
 14 15  1  0
 15 11  2  0
 16 17  3  0
 13 16  1  0
 14 18  2  0
  5 26  1  0
  1  2  2  0
 26 19  1  0
  2  3  1  0
 19 20  2  0
  3  4  2  0
 20 21  1  0
  8 10  2  0
 21 22  2  0
 10  1  1  0
 22 23  1  0
  8  4  1  0
 23 24  2  0
 24 19  1  0
  4  5  1  0
 22 25  1  0
M  END