
  SciTegic01161211252D

 28 31  0  0  0  0            999 V2000
    9.4875  -19.7208    0.0000 N   0  0
    9.4875  -20.5458    0.0000 C   0  0
   10.1995  -20.9542    0.0000 C   0  0
   10.9115  -20.5458    0.0000 N   0  0
   10.9115  -19.7208    0.0000 C   0  0
   10.1995  -19.3042    0.0000 C   0  0
   11.6254  -20.9594    0.0000 C   0  0
    8.9056  -19.1360    0.0000 C   0  0
    8.9043  -18.3133    0.0000 C   0  0
    8.0793  -18.3112    0.0000 C   0  0
    8.0772  -19.1362    0.0000 C   0  0
    7.3655  -19.5552    0.0000 C   0  0
    6.6475  -19.1489    0.0000 C   0  0
    5.9366  -19.5675    0.0000 C   0  0
    5.2203  -19.1637    0.0000 C   0  0
    4.5098  -19.5816    0.0000 C   0  0
    4.5165  -20.4074    0.0000 C   0  0
    5.2395  -20.8136    0.0000 C   0  0
    5.9469  -20.3933    0.0000 C   0  0
    9.4879  -17.7302    0.0000 O   0  0
    7.4974  -17.7263    0.0000 O   0  0
    5.2114  -18.3389    0.0000 C   0  0
    5.2038  -17.5140    0.0000 N   0  0
   11.6242  -21.7844    0.0000 C   0  0
   10.9514  -22.2663    0.0000 C   0  0
   11.2053  -23.0522    0.0000 C   0  0
   12.0314  -23.0521    0.0000 S   0  0
   12.2853  -22.2661    0.0000 C   0  0
 13 14  1  0
  4  7  1  0
 14 15  2  0
  1  2  1  0
 15 16  1  0
  1  8  1  0
 16 17  2  0
  8  9  1  0
 17 18  1  0
  1  6  1  0
 18 19  2  0
 19 14  1  0
  2  3  1  0
  9 20  2  0
  3  4  1  0
 10 21  2  0
  9 10  1  0
 10 11  1  0
 22 23  3  0
 15 22  1  0
 11  8  2  0
  7 24  1  0
 25 26  2  0
  4  5  1  0
 11 12  1  0
  5  6  1  0
 12 13  2  0
 24 25  1  0
 26 27  1  0
 27 28  1  0
 28 24  2  0
M  END