
  SciTegic01161211242D

 31 35  0  0  0  0            999 V2000
   10.7841    0.0203    0.0000 C   0  0
   11.4701    0.4783    0.0000 C   0  0
   12.2416    0.1893    0.0000 N   0  0
   11.5005    1.2995    0.0000 C   0  0
   12.2945    1.5232    0.0000 N   0  0
   12.7473    0.8376    0.0000 C   0  0
   13.5393    1.0563    0.0000 S   0  0
   12.8067    2.1657    0.0000 C   0  0
   13.5768    1.8730    0.0000 C   0  0
   14.2132    2.3931    0.0000 C   0  0
   14.0808    3.2059    0.0000 C   0  0
   13.3064    3.4960    0.0000 C   0  0
   12.6732    2.9740    0.0000 C   0  0
    9.3569    0.0167    0.0000 C   0  0
    9.3557   -0.8107    0.0000 C   0  0
   10.0706   -1.2235    0.0000 C   0  0
   10.7870   -0.8102    0.0000 C   0  0
   10.0688    0.4295    0.0000 C   0  0
    8.6410   -1.2226    0.0000 N   0  0
    7.9268   -0.8095    0.0000 C   0  0
    7.2120   -1.2215    0.0000 N   0  0
    7.9275    0.0155    0.0000 O   0  0
    6.4979   -0.8084    0.0000 C   0  0
    6.4165    0.0149    0.0000 C   0  0
    5.6097    0.1871    0.0000 C   0  0
    5.1966   -0.5271    0.0000 O   0  0
    5.7482   -1.1405    0.0000 N   0  0
    5.2747    0.9410    0.0000 C   0  0
    5.7602    1.6081    0.0000 C   0  0
    4.4458    0.9417    0.0000 C   0  0
    4.8542    1.6583    0.0000 C   0  0
 14 15  2  0
  7  9  1  0
 15 16  1  0
  8  5  1  0
 16 17  2  0
 17  1  1  0
  3  6  2  0
  1 18  2  0
 18 14  1  0
  5  4  1  0
 15 19  1  0
  8  9  2  0
 19 20  1  0
  4  2  2  0
 20 21  1  0
  9 10  1  0
 20 22  2  0
  5  6  1  0
 21 23  1  0
 23 24  1  0
 10 11  2  0
  2  3  1  0
 11 12  1  0
 24 25  2  0
 25 26  1  0
 26 27  1  0
 27 23  2  0
 12 13  2  0
 25 28  1  0
 13  8  1  0
 28 29  1  0
  1  2  1  0
 28 30  1  0
  6  7  1  0
 28 31  1  0
M  END