
          11280715142D 1   1.00000     0.00000     0

 63 69  0     1  0            999 V2000
   12.8167   -2.2125    0.0000 O   0  0  0  0  0  0           0  0  0
   -0.1833   -6.1667    0.0000 O   0  0  0  0  0  0           0  0  0
   12.0917   -2.5917    0.0000 C   0  0  2  0  0  0           0  0  0
   12.8417   -1.3875    0.0000 C   0  0  2  0  0  0           0  0  0
   -0.8958   -5.7542    0.0000 C   0  0  2  0  0  0           0  0  0
   12.0542   -3.4167    0.0000 C   0  0  0  0  0  0           0  0  0
    0.5292   -5.7542    0.0000 C   0  0  1  0  0  0           0  0  0
   12.1542   -0.9417    0.0000 O   0  0  0  0  0  0           0  0  0
   -0.9083   -4.9292    0.0000 O   0  0  0  0  0  0           0  0  0
   16.4792    0.5708    0.0000 N   0  0  0  0  0  0           0  0  0
   -4.4708   -7.8167    0.0000 N   0  0  0  0  0  0           0  0  0
   11.3917   -2.1542    0.0000 C   0  0  1  0  0  0           0  0  0
   -3.7583   -7.4125    0.0000 C   0  0  0  0  0  0           0  0  0
   15.7667    0.1500    0.0000 C   0  0  0  0  0  0           0  0  0
    0.5292   -4.9292    0.0000 C   0  0  1  0  0  0           0  0  0
    1.2417   -6.1667    0.0000 C   0  0  0  0  0  0           0  0  0
   13.5792   -1.0042    0.0000 C   0  0  0  0  0  0           0  0  0
   -1.6083   -6.1667    0.0000 C   0  0  0  0  0  0           0  0  0
    9.1167   -5.7792    0.0000 C   0  0  0  0  0  0           0  0  0
    4.8167   -4.9292    0.0000 C   0  0  0  0  0  0           0  0  0
   12.7667   -3.8542    0.0000 C   0  0  0  0  0  0           0  0  0
   11.4167   -1.3292    0.0000 C   0  0  0  0  0  0           0  0  0
   -0.1833   -4.5167    0.0000 C   0  0  0  0  0  0           0  0  0
    1.9542   -7.4042    0.0000 N   0  0  0  0  0  0           0  0  0
    5.5292   -4.5167    0.0000 O   0  0  0  0  0  0           0  0  0
    8.3792   -6.1667    0.0000 O   0  0  0  0  0  0           0  0  0
    4.8167   -5.7542    0.0000 O   0  0  0  0  0  0           0  0  0
    9.8167   -6.2167    0.0000 O   0  0  0  0  0  0           0  0  0
   -1.6083   -7.0000    0.0000 C   0  0  0  0  0  0           0  0  0
   13.6042   -0.1792    0.0000 C   0  0  0  0  0  0           0  0  0
   -2.3333   -5.7542    0.0000 C   0  0  0  0  0  0           0  0  0
   14.2792   -1.4500    0.0000 C   0  0  0  0  0  0           0  0  0
    9.9417   -3.0250    0.0000 C   0  0  0  0  0  0           0  0  0
    1.9542   -4.9292    0.0000 C   0  0  0  0  0  0           0  0  0
    9.6292   -3.7792    0.0000 C   0  0  0  0  0  0           0  0  0
    2.8917   -4.9292    0.0000 C   0  0  0  0  0  0           0  0  0
   15.0417   -0.2375    0.0000 C   0  0  0  0  0  0           0  0  0
   -3.0458   -7.0000    0.0000 C   0  0  0  0  0  0           0  0  0
    6.2417   -4.9292    0.0000 C   0  0  0  0  0  0           0  0  0
    7.6667   -5.7542    0.0000 C   0  0  0  0  0  0           0  0  0
   15.0042   -1.0625    0.0000 C   0  0  0  0  0  0           0  0  0
   -3.0458   -6.1750    0.0000 C   0  0  0  0  0  0           0  0  0
   14.3417    0.2000    0.0000 C   0  0  0  0  0  0           0  0  0
   -2.3333   -7.4125    0.0000 C   0  0  0  0  0  0           0  0  0
    1.2417   -6.9917    0.0000 C   0  0  0  0  0  0           0  0  0
   13.4917   -3.4667    0.0000 O   0  0  0  0  0  0           0  0  0
    6.9542   -6.1667    0.0000 C   0  0  0  0  0  0           0  0  0
    6.2417   -5.7542    0.0000 C   0  0  0  0  0  0           0  0  0
    7.6667   -4.9292    0.0000 C   0  0  0  0  0  0           0  0  0
    6.9542   -4.5167    0.0000 C   0  0  0  0  0  0           0  0  0
   11.3292   -3.8000    0.0000 C   0  0  0  0  0  0           0  0  0
   10.6917   -2.7792    0.0000 C   0  0  0  0  0  0           0  0  0
    1.2417   -4.5167    0.0000 C   0  0  0  0  0  0           0  0  0
    4.0917   -4.5167    0.0000 C   0  0  0  0  0  0           0  0  0
    9.1417   -4.9542    0.0000 C   0  0  0  0  0  0           0  0  0
    1.9542   -5.7542    0.0000 C   0  0  0  0  0  0           0  0  0
    2.6667   -6.9917    0.0000 C   0  0  0  0  0  0           0  0  0
   10.0417   -4.3375    0.0000 C   0  0  0  0  0  0           0  0  0
    3.3292   -4.4917    0.0000 C   0  0  0  0  0  0           0  0  0
   12.7292   -4.6750    0.0000 C   0  0  0  0  0  0           0  0  0
    2.6667   -6.1667    0.0000 C   0  0  0  0  0  0           0  0  0
   11.3042   -4.6167    0.0000 C   0  0  0  0  0  0           0  0  0
   12.0042   -5.0625    0.0000 C   0  0  0  0  0  0           0  0  0
  2  7  1  0     0  0
  3  1  1  0     0  0
  4  1  1  0     0  0
  5  9  1  0     0  0
  3  6  1  6     0  0
  7 15  1  0     0  0
  8  4  1  0     0  0
  9 23  1  0     0  0
 10 14  3  0     0  0
 11 13  3  0     0  0
 12  3  1  0     0  0
 13 38  1  0     0  0
 14 37  1  0     0  0
 15 53  1  1     0  0
  7 16  1  1     0  0
  4 17  1  6     0  0
  5 18  1  1     0  0
 19 55  1  0     0  0
 20 25  1  0     0  0
 21  6  2  0     0  0
 22  8  1  0     0  0
 23 15  1  0     0  0
 24 45  1  0     0  0
 25 39  1  0     0  0
 26 19  1  0     0  0
 27 20  2  0     0  0
 28 19  2  0     0  0
 29 18  1  0     0  0
 30 17  2  0     0  0
 31 18  2  0     0  0
 32 17  1  0     0  0
 33 52  1  0     0  0
 34 36  2  0     0  0
 35 33  2  0     0  0
 36 59  1  0     0  0
 37 41  1  0     0  0
 38 42  2  0     0  0
 39 50  1  0     0  0
 40 26  1  0     0  0
 41 32  2  0     0  0
 42 31  1  0     0  0
 43 30  1  0     0  0
 44 29  2  0     0  0
 45 16  2  0     0  0
 46 21  1  0     0  0
 47 40  2  0     0  0
 48 47  1  0     0  0
 49 40  1  0     0  0
 50 49  2  0     0  0
 51  6  1  0     0  0
 12 52  1  6     0  0
 53 34  1  0     0  0
 54 20  1  0     0  0
 55 58  1  0     0  0
 56 16  1  0     0  0
 57 61  1  0     0  0
 58 35  1  0     0  0
 59 54  1  0     0  0
 60 21  1  0     0  0
 61 56  2  0     0  0
 62 51  2  0     0  0
 63 62  1  0     0  0
 12 22  1  0     0  0
 43 37  2  0     0  0
 60 63  2  0     0  0
 39 48  2  0     0  0
  5  2  1  0     0  0
 24 57  2  0     0  0
 38 44  1  0     0  0
M  END