
  Mrv0541 05211314572D          

 23 23  0  0  0  0            999 V2000
    5.1600   -2.2666    0.0000 C   0  0  0  0  0  0  0  0  0  0  0  0
    8.0179   -2.2666    0.0000 N   0  0  0  0  0  0  0  0  0  0  0  0
    4.4455   -1.8541    0.0000 C   0  0  0  0  0  0  0  0  0  0  0  0
   -1.9847   -0.6166    0.0000 C   0  0  0  0  0  0  0  0  0  0  0  0
    5.1600   -3.0916    0.0000 O   0  0  0  0  0  0  0  0  0  0  0  0
   -2.6992   -1.0291    0.0000 O   0  0  0  0  0  0  0  0  0  0  0  0
    4.4455   -1.0291    0.0000 C   0  0  0  0  0  0  0  0  0  0  0  0
    3.7310   -2.2666    0.0000 C   0  0  0  0  0  0  0  0  0  0  0  0
   -1.2703   -1.0291    0.0000 N   0  0  0  0  0  0  0  0  0  0  0  0
    5.8744   -1.8541    0.0000 O   0  0  0  0  0  0  0  0  0  0  0  0
    3.0166   -1.0291    0.0000 C   0  0  0  0  0  0  0  0  0  0  0  0
    2.3021   -0.6166    0.0000 N   0  0  0  0  0  0  0  0  0  0  0  0
    3.7310   -0.6166    0.0000 C   0  0  0  0  0  0  0  0  0  0  0  0
    3.0166   -1.8541    0.0000 C   0  0  0  0  0  0  0  0  0  0  0  0
    7.3034   -1.8541    0.0000 C   0  0  0  0  0  0  0  0  0  0  0  0
    6.5889   -2.2666    0.0000 C   0  0  0  0  0  0  0  0  0  0  0  0
    8.7323   -1.8541    0.0000 C   0  0  0  0  0  0  0  0  0  0  0  0
    8.0179   -3.0916    0.0000 C   0  0  0  0  0  0  0  0  0  0  0  0
   -1.9847    0.2084    0.0000 C   0  0  0  0  0  0  0  0  0  0  0  0
   -0.5558   -0.6166    0.0000 C   0  0  0  0  0  0  0  0  0  0  0  0
    1.5876   -1.0291    0.0000 C   0  0  0  0  0  0  0  0  0  0  0  0
    0.1587   -1.0291    0.0000 C   0  0  0  0  0  0  0  0  0  0  0  0
    0.8731   -0.6166    0.0000 C   0  0  0  0  0  0  0  0  0  0  0  0
  2 15  1  0  0  0  0
  3  1  1  0  0  0  0
  4  9  1  0  0  0  0
  5  1  2  0  0  0  0
  6  4  2  0  0  0  0
  7  3  2  0  0  0  0
  8  3  1  0  0  0  0
  9 20  1  0  0  0  0
 10  1  1  0  0  0  0
 11 14  1  0  0  0  0
 12 11  1  0  0  0  0
 13  7  1  0  0  0  0
 14  8  2  0  0  0  0
 15 16  1  0  0  0  0
 16 10  1  0  0  0  0
 17  2  1  0  0  0  0
 18  2  1  0  0  0  0
 19  4  1  0  0  0  0
 20 22  1  0  0  0  0
 21 12  1  0  0  0  0
 22 23  1  0  0  0  0
 23 21  1  0  0  0  0
 13 11  2  0  0  0  0
M  END