
          11280715062D 1   1.00000     0.00000     0

 36 39  0     0  0            999 V2000
    5.6542   -0.9500    0.0000 C   0  0  0  0  0  0           0  0  0
    5.9167   -1.7417    0.0000 C   0  0  0  0  0  0           0  0  0
    5.2542   -2.2292    0.0000 N   0  0  3  0  0  0           0  0  0
    6.1417   -0.2792    0.0000 C   0  0  3  0  0  0           0  0  0
    4.8417   -0.9542    0.0000 N   0  0  0  0  0  0           0  0  0
    4.5917   -1.7417    0.0000 C   0  0  0  0  0  0           0  0  0
    6.6167    0.3875    0.0000 C   0  0  3  0  0  0           0  0  0
    7.3917   -5.9417    0.0000 C   0  0  0  0  0  0           0  0  0
    6.0917   -6.2125    0.0000 N   0  0  0  0  0  0           0  0  0
    6.6292   -5.6000    0.0000 N   0  0  0  0  0  0           0  0  0
    6.5042   -6.9250    0.0000 N   0  0  0  0  0  0           0  0  0
    7.3042   -6.7542    0.0000 N   0  0  0  0  0  0           0  0  0
    6.7042   -2.0000    0.0000 C   0  0  0  0  0  0           0  0  0
    8.1042   -5.5292    0.0000 C   0  0  0  0  0  0           0  0  0
    8.1042   -4.7042    0.0000 C   0  0  0  0  0  0           0  0  0
    5.2542   -3.0542    0.0000 C   0  0  0  0  0  0           0  0  0
    7.3917   -4.2917    0.0000 C   0  0  0  0  0  0           0  0  0
    6.8417   -0.6917    0.0000 F   0  0  0  0  0  0           0  0  0
    5.4167    0.1333    0.0000 F   0  0  0  0  0  0           0  0  0
    6.7667   -2.4625    0.0000 O   0  0  0  0  0  0           0  0  0
    5.9292    0.8458    0.0000 F   0  0  0  0  0  0           0  0  0
    7.0292    1.1083    0.0000 F   0  0  0  0  0  0           0  0  0
    7.3167   -0.0542    0.0000 F   0  0  0  0  0  0           0  0  0
    6.6792   -4.7042    0.0000 C   0  0  0  0  0  0           0  0  0
    7.3917   -3.4667    0.0000 C   0  0  0  0  0  0           0  0  0
    5.9667   -3.4667    0.0000 C   0  0  0  0  0  0           0  0  0
    7.3167   -1.4417    0.0000 O   0  0  0  0  0  0           0  0  0
    3.8042   -1.9917    0.0000 C   0  0  0  0  0  0           0  0  0
    5.9667   -4.2917    0.0000 C   0  0  0  0  0  0           0  0  0
    6.6792   -3.0542    0.0000 C   0  0  0  0  0  0           0  0  0
    8.8292   -5.9417    0.0000 C   0  0  0  0  0  0           0  0  0
    8.8167   -4.2917    0.0000 C   0  0  0  0  0  0           0  0  0
    3.1917   -1.4417    0.0000 C   0  0  0  0  0  0           0  0  0
    9.5417   -5.5292    0.0000 C   0  0  0  0  0  0           0  0  0
    9.5292   -4.7000    0.0000 C   0  0  0  0  0  0           0  0  0
    2.4042   -1.6917    0.0000 C   0  0  0  0  0  0           0  0  0
  2  1  2  0     0  0
  3  2  1  0     0  0
  4  1  1  0     0  0
  5  1  1  0     0  0
  6  5  2  0     0  0
  7  4  1  0     0  0
  8 14  1  0     0  0
  9 10  2  0     0  0
 10  8  1  0     0  0
 11 12  1  0     0  0
 12  8  2  0     0  0
 13  2  1  0     0  0
 14 15  2  0     0  0
 15 17  1  0     0  0
 16  3  1  0     0  0
 17 25  2  0     0  0
 18  4  1  0     0  0
 19  4  1  0     0  0
 20 13  2  0     0  0
 21  7  1  0     0  0
 22  7  1  0     0  0
 23  7  1  0     0  0
 24 29  2  0     0  0
 25 30  1  0     0  0
 26 16  1  0     0  0
 27 13  1  0     0  0
 28  6  1  0     0  0
 29 26  1  0     0  0
 30 26  2  0     0  0
 31 14  1  0     0  0
 32 15  1  0     0  0
 33 28  1  0     0  0
 34 35  1  0     0  0
 35 32  2  0     0  0
 36 33  1  0     0  0
  6  3  1  0     0  0
 24 17  1  0     0  0
 31 34  2  0     0  0
  9 11  1  0     0  0
M  END