
  Mrv0541 05211314572D          

 21 22  0  0  0  0            999 V2000
    7.8918   -6.4677    0.0000 C   0  0  0  0  0  0  0  0  0  0  0  0
    7.1773   -6.8802    0.0000 C   0  0  0  0  0  0  0  0  0  0  0  0
    7.1773   -7.7052    0.0000 C   0  0  0  0  0  0  0  0  0  0  0  0
    7.8918   -8.1177    0.0000 C   0  0  0  0  0  0  0  0  0  0  0  0
    8.6062   -7.7052    0.0000 C   0  0  0  0  0  0  0  0  0  0  0  0
    8.6062   -6.8802    0.0000 C   0  0  0  0  0  0  0  0  0  0  0  0
    7.8918   -5.6427    0.0000 C   0  0  0  0  0  0  0  0  0  0  0  0
    8.6062   -5.2302    0.0000 C   0  0  0  0  0  0  0  0  0  0  0  0
    9.3207   -5.6427    0.0000 C   0  0  0  0  0  0  0  0  0  0  0  0
    9.3207   -6.4677    0.0000 O   0  0  0  0  0  0  0  0  0  0  0  0
   10.0352   -5.2302    0.0000 O   0  0  0  0  0  0  0  0  0  0  0  0
    7.1773   -5.2302    0.0000 C   0  0  0  0  0  0  0  0  0  0  0  0
    6.4628   -5.6427    0.0000 C   0  0  0  0  0  0  0  0  0  0  0  0
    5.7484   -5.2302    0.0000 C   0  0  0  0  0  0  0  0  0  0  0  0
    5.0339   -5.6427    0.0000 C   0  0  0  0  0  0  0  0  0  0  0  0
    4.3194   -5.2302    0.0000 C   0  0  0  0  0  0  0  0  0  0  0  0
    4.3194   -4.4052    0.0000 C   0  0  0  0  0  0  0  0  0  0  0  0
    5.0339   -3.9927    0.0000 C   0  0  0  0  0  0  0  0  0  0  0  0
    5.7484   -4.4052    0.0000 C   0  0  0  0  0  0  0  0  0  0  0  0
    5.0339   -6.4677    0.0000 F   0  0  0  0  0  0  0  0  0  0  0  0
    3.6050   -3.9927    0.0000 Br  0  0  0  0  0  0  0  0  0  0  0  0
  2  3  1  0  0  0  0
  9 11  1  0  0  0  0
  5  6  2  0  0  0  0
  7 12  1  0  0  0  0
  6  1  1  0  0  0  0
 12 13  1  0  0  0  0
  1  2  2  0  0  0  0
 13 14  1  0  0  0  0
  1  7  1  0  0  0  0
 14 15  2  0  0  0  0
  3  4  2  0  0  0  0
 15 16  1  0  0  0  0
  7  8  2  0  0  0  0
 16 17  2  0  0  0  0
 17 18  1  0  0  0  0
  8  9  1  0  0  0  0
 18 19  2  0  0  0  0
 19 14  1  0  0  0  0
  4  5  1  0  0  0  0
 15 20  1  0  0  0  0
  9 10  2  0  0  0  0
 17 21  1  0  0  0  0
M  END