
          11280715322D 1   1.00000     0.00000     0

 24 27  0     0  0            999 V2000
    5.8167   -5.3792    0.0000 N   0  0  3  0  0  0           0  0  0
    5.8167   -4.5542    0.0000 C   0  0  0  0  0  0           0  0  0
    8.2625   -7.5625    0.0000 N   0  0  3  0  0  0           0  0  0
    6.4917   -5.8625    0.0000 C   0  0  0  0  0  0           0  0  0
    7.5917   -7.0792    0.0000 C   0  0  0  0  0  0           0  0  0
    8.9250   -7.0750    0.0000 C   0  0  0  0  0  0           0  0  0
    7.8417   -6.2917    0.0000 C   0  0  0  0  0  0           0  0  0
    6.2375   -6.6417    0.0000 C   0  0  0  0  0  0           0  0  0
    7.2917   -5.6917    0.0000 C   0  0  0  0  0  0           0  0  0
    6.7875   -7.2542    0.0000 C   0  0  0  0  0  0           0  0  0
    8.6667   -6.2917    0.0000 C   0  0  0  0  0  0           0  0  0
    5.1000   -4.1417    0.0000 N   0  0  0  0  0  0           0  0  0
    5.1542   -5.8667    0.0000 C   0  0  0  0  0  0           0  0  0
    6.5292   -4.1417    0.0000 O   0  0  0  0  0  0           0  0  0
    5.4167   -6.6542    0.0000 C   0  0  0  0  0  0           0  0  0
    8.2667   -8.3875    0.0000 C   0  0  3  0  0  0           0  0  0
    3.6667   -5.8042    0.0000 N   0  0  0  0  0  0           0  0  0
    4.3875   -4.5625    0.0000 C   0  0  0  0  0  0           0  0  0
    4.3875   -5.3917    0.0000 C   0  0  0  0  0  0           0  0  0
    2.9542   -5.3917    0.0000 C   0  0  0  0  0  0           0  0  0
    7.5542   -8.8042    0.0000 C   0  0  0  0  0  0           0  0  0
    8.9875   -8.7917    0.0000 C   0  0  0  0  0  0           0  0  0
    3.6667   -4.1500    0.0000 C   0  0  0  0  0  0           0  0  0
    2.9542   -4.5667    0.0000 C   0  0  0  0  0  0           0  0  0
  2  1  1  0     0  0
  3  5  1  0     0  0
  4  1  1  0     0  0
  5  7  1  0     0  0
  6 11  2  0     0  0
  7  9  2  0     0  0
  8  4  2  0     0  0
  9  4  1  0     0  0
 10  8  1  0     0  0
 11  7  1  0     0  0
 12  2  1  0     0  0
 13  1  1  0     0  0
 14  2  2  0     0  0
 15 13  1  0     0  0
 16  3  1  0     0  0
 17 19  1  0     0  0
 18 12  1  0     0  0
 19 18  2  0     0  0
 20 24  1  0     0  0
 21 16  1  0     0  0
 22 16  1  0     0  0
 23 18  1  0     0  0
 24 23  2  0     0  0
 15  8  1  0     0  0
 10  5  2  0     0  0
  3  6  1  0     0  0
 20 17  2  0     0  0
M  END