
  CDK    6/4/10,11:41

 11 10  0  0  0  0  0  0  0  0999 V2000
   -2.3183  -16.9761    0.0000 C   0  0  0  0  0  0  0  0  0  0  0  0
   -2.3195  -17.8035    0.0000 C   0  0  0  0  0  0  0  0  0  0  0  0
   -1.6045  -18.2164    0.0000 N   0  0  0  0  0  0  0  0  0  0  0  0
   -0.8881  -17.8031    0.0000 C   0  0  0  0  0  0  0  0  0  0  0  0
   -0.8910  -16.9724    0.0000 C   0  0  0  0  0  0  0  0  0  0  0  0
   -1.6063  -16.5633    0.0000 C   0  0  0  0  0  0  0  0  0  0  0  0
   -1.6126  -19.0387    0.0000 C   0  0  0  0  0  0  0  0  0  0  0  0
   -0.1729  -18.2144    0.0000 C   0  0  0  0  0  0  0  0  0  0  0  0
    0.5409  -17.8008    0.0000 N   0  0  0  0  0  0  0  0  0  0  0  0
    1.2562  -18.2122    0.0000 O   0  0  0  0  0  0  0  0  0  0  0  0
    1.5313  -16.4063    0.0000 Cl  0  0  0  0  0  0  0  0  0  0  0  0
  2  3  1  0  0  0  0 
  5  6  2  0  0  0  0 
  6  1  1  0  0  0  0 
  1  2  2  0  0  0  0 
  3  7  1  0  0  0  0 
  3  4  2  0  0  0  0 
  4  8  1  0  0  0  0 
  8  9  2  0  0  0  0 
  4  5  1  0  0  0  0 
  9 10  1  0  0  0  0 
M  CHG  1   3   1
M  CHG  1  11  -1
M  END