
  SciTegic01181116592D

 35 38  0  0  0  0            999 V2000
   20.6027   -0.3166    0.0000 C   0  0
   20.6016   -1.1440    0.0000 C   0  0
   21.3164   -1.5569    0.0000 C   0  0
   22.0328   -1.1435    0.0000 C   0  0
   22.0300   -0.3130    0.0000 C   0  0
   21.3146    0.0961    0.0000 C   0  0
   21.3121    0.9211    0.0000 N   0  0
   21.9749    1.4053    0.0000 C   0  0
   21.7176    2.1892    0.0000 C   0  0
   20.8926    2.1867    0.0000 C   0  0
   20.6401    1.4013    0.0000 N   0  0
   20.4056    2.8526    0.0000 C   0  0
   20.7388    3.6073    0.0000 C   0  0
   19.5854    2.7639    0.0000 C   0  0
   19.8167    3.4417    0.0000 C   0  0
   22.7602    1.1525    0.0000 N   0  0
   23.3718    1.7063    0.0000 C   0  0
   24.1571    1.4535    0.0000 N   0  0
   23.1980    2.5128    0.0000 O   0  0
   24.8747    1.8595    0.0000 C   0  0
   26.3079    2.6689    0.0000 C   0  0
   25.5918    3.0871    0.0000 C   0  0
   24.8774    2.6787    0.0000 C   0  0
   26.3007    1.8430    0.0000 C   0  0
   25.5841    1.4404    0.0000 C   0  0
   27.0252    3.0764    0.0000 Cl  0  0
   19.8871   -1.5552    0.0000 C   0  0
   19.1032   -1.2979    0.0000 N   0  0
   18.8486   -0.5105    0.0000 C   0  0
   18.0236   -0.5081    0.0000 C   0  0
   17.7663   -1.2920    0.0000 N   0  0
   18.4323   -1.7788    0.0000 S   0  0
   17.9769   -2.4702    0.0000 O   0  0
   18.9780   -2.3917    0.0000 O   0  0
   19.3349    0.1559    0.0000 O   0  0
 16 17  1  0
 17 18  1  0
  4  5  1  0
 17 19  2  0
  2  3  1  0
 18 20  1  0
 20 25  2  0
  8  9  2  0
 24 21  2  0
  9 10  1  0
 21 22  1  0
 10 11  2  0
 22 23  2  0
 23 20  1  0
 11  7  1  0
  5  6  2  0
 24 25  1  0
 10 12  1  0
 21 26  1  0
  6  1  1  0
  2 27  1  0
 12 13  1  0
 27 28  1  0
 28 29  1  0
  1  2  2  0
 12 14  1  0
  6  7  1  0
 12 15  1  0
 29 30  1  0
 30 31  1  0
 31 32  1  0
 32 28  1  0
  7  8  1  0
 32 33  2  0
  8 16  1  0
 32 34  2  0
  3  4  2  0
 29 35  2  0
M  END