
  SciTegic01161211252D

 31 34  0  0  0  0            999 V2000
   10.1301  -16.6767    0.0000 N   0  0
   10.7917  -16.1834    0.0000 C   0  0
   10.5272  -15.4017    0.0000 C   0  0
    9.7018  -15.4117    0.0000 N   0  0
    9.4566  -16.1991    0.0000 C   0  0
    8.7423  -16.6048    0.0000 C   0  0
    8.0314  -16.1842    0.0000 C   0  0
    7.3138  -16.5896    0.0000 C   0  0
    7.3060  -17.4154    0.0000 C   0  0
    8.0218  -17.8341    0.0000 C   0  0
    8.7364  -17.4263    0.0000 C   0  0
   10.9312  -14.6819    0.0000 C   0  0
   11.7562  -14.6720    0.0000 N   0  0
   10.5102  -13.9726    0.0000 O   0  0
   12.1599  -13.9526    0.0000 N   0  0
   12.9868  -13.9479    0.0000 C   0  0
   13.3907  -13.2344    0.0000 C   0  0
   12.9735  -12.5259    0.0000 C   0  0
   12.1474  -12.5321    0.0000 C   0  0
   11.7395  -13.2552    0.0000 C   0  0
   10.1423  -17.4994    0.0000 C   0  0
    9.4313  -17.9200    0.0000 C   0  0
    9.4410  -18.7441    0.0000 C   0  0
   10.1609  -19.1487    0.0000 C   0  0
   10.8726  -18.7230    0.0000 C   0  0
   10.8594  -17.9004    0.0000 C   0  0
    6.5885  -17.8225    0.0000 Cl  0  0
   10.1721  -19.9735    0.0000 Cl  0  0
    8.0396  -15.3594    0.0000 Cl  0  0
   11.5794  -16.4287    0.0000 S   0  0
   11.7608  -17.2335    0.0000 C   0  0
 13 15  1  0
 15 16  1  0
  7  8  1  0
  3  4  1  0
  8  9  2  0
  4  5  2  0
  9 10  1  0
 15 20  1  0
 16 17  1  0
 17 18  1  0
 18 19  1  0
 19 20  1  0
  5  1  1  0
 10 11  2  0
 21 22  2  0
 11  6  1  0
 22 23  1  0
  5  6  1  0
 23 24  2  0
  1  2  1  0
 24 25  1  0
  3 12  1  0
 25 26  2  0
 26 21  1  0
  1 21  1  0
  9 27  1  0
 12 13  1  0
 24 28  1  0
  6  7  2  0
  7 29  1  0
 12 14  2  0
  2 30  1  0
  2  3  2  0
 30 31  1  0
M  END