
          11280714572D 1   1.00000     0.00000     0

 44 47  0     0  0            999 V2000
   11.5292    0.6875    0.0000 C   0  0  0  0  0  0           0  0  0
   12.3667    0.7250    0.0000 C   0  0  0  0  0  0           0  0  0
   11.1542   -0.0417    0.0000 C   0  0  0  0  0  0           0  0  0
   12.7417    1.4625    0.0000 N   0  3  0  0  0  0           0  0  0
   10.9542    1.2750    0.0000 N   0  0  0  0  0  0           0  0  0
   12.8125    0.0250    0.0000 C   0  0  0  0  0  0           0  0  0
   10.3417    0.0875    0.0000 N   0  0  0  0  0  0           0  0  0
   10.2167    0.9083    0.0000 O   0  0  0  0  0  0           0  0  0
    4.0667   -0.6667    0.0000 N   0  0  0  0  0  0           0  0  0
   11.6042   -0.7375    0.0000 C   0  0  0  0  0  0           0  0  0
    4.7792   -0.2542    0.0000 C   0  0  0  0  0  0           0  0  0
    4.0667   -1.4917    0.0000 C   0  0  0  0  0  0           0  0  0
   12.4292   -0.7042    0.0000 C   0  0  0  0  0  0           0  0  0
    5.4917    0.1583    0.0000 N   0  0  0  0  0  0           0  0  0
   -3.0750   -1.5000    0.0000 N   0  0  3  0  0  0           0  0  0
   13.5667    1.5000    0.0000 O   0  5  0  0  0  0           0  0  0
   12.3042    2.1583    0.0000 O   0  0  0  0  0  0           0  0  0
   -2.3625   -1.9125    0.0000 C   0  0  0  0  0  0           0  0  0
    3.3542   -1.9042    0.0000 N   0  0  0  0  0  0           0  0  0
    4.7792   -1.9042    0.0000 N   0  0  0  0  0  0           0  0  0
   11.2167   -1.4667    0.0000 N   0  0  0  0  0  0           0  0  0
   -1.6458   -1.5000    0.0000 C   0  0  0  0  0  0           0  0  0
   -0.9333   -1.9125    0.0000 C   0  0  0  0  0  0           0  0  0
   -0.2208   -1.5000    0.0000 C   0  0  0  0  0  0           0  0  0
    1.9250   -1.9125    0.0000 C   0  0  0  0  0  0           0  0  0
    0.4917   -1.9125    0.0000 O   0  0  0  0  0  0           0  0  0
   -3.7958   -1.9042    0.0000 C   0  0  0  0  0  0           0  0  0
   -3.0750   -0.6667    0.0000 C   0  0  0  0  0  0           0  0  0
   -0.9333   -0.2625    0.0000 C   0  0  0  0  0  0           0  0  0
    2.6417   -1.4917    0.0000 C   0  0  0  0  0  0           0  0  0
   -1.6458   -0.6750    0.0000 C   0  0  0  0  0  0           0  0  0
    1.2125   -1.5000    0.0000 C   0  0  0  0  0  0           0  0  0
    5.5000   -1.4875    0.0000 C   0  0  0  0  0  0           0  0  0
   10.5042   -1.8792    0.0000 C   0  0  0  0  0  0           0  0  0
   -0.2208   -0.6667    0.0000 C   0  0  0  0  0  0           0  0  0
    6.2167   -1.9000    0.0000 C   0  0  0  0  0  0           0  0  0
    9.7875   -1.4750    0.0000 C   0  0  0  0  0  0           0  0  0
    9.0750   -1.8875    0.0000 C   0  0  0  0  0  0           0  0  0
    6.9292   -1.4792    0.0000 C   0  0  0  0  0  0           0  0  0
    7.6417   -1.8917    0.0000 C   0  0  0  0  0  0           0  0  0
    8.3542   -1.4792    0.0000 C   0  0  0  0  0  0           0  0  0
   -3.7833   -0.2542    0.0000 C   0  0  0  0  0  0           0  0  0
   -4.5083   -1.4917    0.0000 C   0  0  0  0  0  0           0  0  0
   -4.4958   -0.6667    0.0000 C   0  0  0  0  0  0           0  0  0
  2  1  1  0     0  0
  3  1  1  0     0  0
  4  2  1  0     0  0
  5  1  2  0     0  0
  6  2  2  0     0  0
  7  3  2  0     0  0
  8  5  1  0     0  0
  9 12  1  0     0  0
 10  3  1  0     0  0
 11  9  1  0     0  0
 12 20  2  0     0  0
 13 10  2  0     0  0
 14 11  3  0     0  0
 15 18  1  0     0  0
 16  4  1  0     0  0
 17  4  2  0     0  0
 18 22  1  0     0  0
 19 12  1  0     0  0
 20 33  1  0     0  0
 21 10  1  0     0  0
 22 23  1  0     0  0
 23 24  2  0     0  0
 24 26  1  0     0  0
 25 30  1  0     0  0
 26 32  1  0     0  0
 27 15  1  0     0  0
 28 15  1  0     0  0
 29 35  2  0     0  0
 30 19  1  0     0  0
 31 29  1  0     0  0
 32 25  1  0     0  0
 33 36  1  0     0  0
 34 21  1  0     0  0
 35 24  1  0     0  0
 36 39  1  0     0  0
 37 34  1  0     0  0
 38 37  1  0     0  0
 39 40  1  0     0  0
 40 41  1  0     0  0
 41 38  1  0     0  0
 42 28  1  0     0  0
 43 27  1  0     0  0
 44 42  1  0     0  0
  7  8  1  0     0  0
  6 13  1  0     0  0
 22 31  2  0     0  0
 43 44  1  0     0  0
M  CHG  2   4   1  16  -1
M  END