
          11280714482D 1   1.00000     0.00000     0

 24 27  0     0  0            999 V2000
   -2.6708   -5.7375    0.0000 C   0  0  3  0  0  0           0  0  0
   -3.3833   -6.1417    0.0000 C   0  0  0  0  0  0           0  0  0
   -1.9583   -6.1417    0.0000 C   0  0  0  0  0  0           0  0  0
   -3.3875   -6.9667    0.0000 C   0  0  0  0  0  0           0  0  0
   -1.9583   -6.9667    0.0000 C   0  0  0  0  0  0           0  0  0
   -0.5458   -3.6542    0.0000 N   0  0  3  0  0  0           0  0  0
   -2.6750   -7.3792    0.0000 C   0  0  0  0  0  0           0  0  0
   -2.6708   -4.9125    0.0000 C   0  0  0  0  0  0           0  0  0
   -1.9583   -4.5000    0.0000 C   0  0  0  0  0  0           0  0  0
   -1.2583   -3.2500    0.0000 C   0  0  3  0  0  0           0  0  0
   -0.5333   -4.4792    0.0000 C   0  0  0  0  0  0           0  0  0
    0.1667   -3.2292    0.0000 C   0  0  0  0  0  0           0  0  0
   -1.9708   -3.6750    0.0000 C   0  0  0  0  0  0           0  0  0
   -4.0958   -5.7375    0.0000 C   0  0  0  0  0  0           0  0  0
   -1.2500   -5.7292    0.0000 C   0  0  0  0  0  0           0  0  0
   -1.2458   -7.3750    0.0000 C   0  0  0  0  0  0           0  0  0
   -4.0958   -7.3750    0.0000 C   0  0  0  0  0  0           0  0  0
   -1.2708   -2.4292    0.0000 C   0  0  0  0  0  0           0  0  0
    0.1625   -2.4042    0.0000 C   0  0  0  0  0  0           0  0  0
   -0.5375   -6.1292    0.0000 C   0  0  0  0  0  0           0  0  0
   -4.8000   -6.1417    0.0000 C   0  0  0  0  0  0           0  0  0
   -4.8083   -6.9625    0.0000 C   0  0  0  0  0  0           0  0  0
   -0.5333   -6.9542    0.0000 C   0  0  0  0  0  0           0  0  0
   -0.5625   -2.0042    0.0000 C   0  0  0  0  0  0           0  0  0
  2  1  1  0     0  0
  3  1  1  0     0  0
  4  2  1  0     0  0
  5  3  2  0     0  0
  6 10  1  0     0  0
  7  5  1  0     0  0
  8  1  1  0     0  0
  9  8  2  0     0  0
 10 13  1  0     0  0
 11  6  1  0     0  0
 12  6  1  0     0  0
 13  9  1  0     0  0
 14  2  2  0     0  0
 15  3  1  0     0  0
 16  5  1  0     0  0
 17  4  2  0     0  0
 18 10  1  0     0  0
 19 24  1  0     0  0
 20 15  2  0     0  0
 21 14  1  0     0  0
 22 21  2  0     0  0
 23 20  1  0     0  0
 24 18  1  0     0  0
  4  7  1  0     0  0
 16 23  2  0     0  0
 22 17  1  0     0  0
 12 19  1  0     0  0
M  END