
  SciTegic12011114592D

 30 33  0  0  0  0            999 V2000
    8.2485   -4.5985    0.0000 C   0  0
    7.5336   -5.0146    0.0000 C   0  0
    6.8228   -4.5985    0.0000 C   0  0
    8.2485   -3.7746    0.0000 O   0  0
    8.9633   -5.0146    0.0000 N   0  0
    9.6783   -4.5985    0.0000 C   0  0
    8.9633   -5.8385    0.0000 C   0  0
    5.3930   -6.2505    0.0000 N   0  0
    6.1079   -5.8385    0.0000 C   0  0
    6.1079   -5.0146    0.0000 C   0  0
    5.3930   -4.5985    0.0000 C   0  0
    4.6823   -5.0146    0.0000 C   0  0
    3.9673   -4.5985    0.0000 C   0  0
    3.2524   -5.0146    0.0000 C   0  0
    3.2524   -5.8385    0.0000 C   0  0
    3.9673   -6.2505    0.0000 C   0  0
    4.6823   -5.8385    0.0000 C   0  0
    6.8228   -6.2505    0.0000 N   0  0
   10.3934   -5.0150    0.0000 C   0  0
   11.1063   -4.6025    0.0000 C   0  0
   11.1076   -3.7749    0.0000 C   0  0
   10.3899   -3.3616    0.0000 C   0  0
    9.6709   -3.7759    0.0000 C   0  0
    2.5394   -4.6057    0.0000 C   0  0
    2.5393   -3.7807    0.0000 C   0  0
    1.8260   -3.3700    0.0000 C   0  0
    1.1121   -3.7834    0.0000 C   0  0
    1.1163   -4.6115    0.0000 C   0  0
    1.8303   -5.0183    0.0000 C   0  0
    3.2526   -3.3682    0.0000 C   0  0
 13 14  1  0
 14 15  2  0
 15 16  1  0
 16 17  2  0
  8 17  1  0
 12 17  1  0
  9 18  1  0
  3 10  1  0
  6 19  1  0
  1  2  1  0
  2  3  1  0
  1  4  2  0
  1  5  1  0
  6 23  1  0
 19 20  1  0
 20 21  1  0
 21 22  1  0
 22 23  1  0
  5  6  1  0
  5  7  1  0
 24 25  2  0
  8  9  2  0
 25 26  1  0
  9 10  1  0
 26 27  2  0
 10 11  2  0
 27 28  1  0
 11 12  1  0
 28 29  2  0
 29 24  1  0
 14 24  1  0
 12 13  2  0
 25 30  1  0
M  END