
          11280715352D 1   1.00000     0.00000     0

 38 41  0     1  0            999 V2000
    4.1375   -4.0250    0.0000 C   0  0  0  0  0  0           0  0  0
    3.1167   -5.7750    0.0000 N   0  0  3  0  0  0           0  0  0
    4.1375   -5.2000    0.0000 C   0  0  0  0  0  0           0  0  0
    3.6292   -4.9042    0.0000 C   0  0  0  0  0  0           0  0  0
    4.1292   -5.7875    0.0000 C   0  0  0  0  0  0           0  0  0
    3.6292   -4.3167    0.0000 C   0  0  0  0  0  0           0  0  0
    3.1250   -5.1875    0.0000 C   0  0  0  0  0  0           0  0  0
    4.6417   -4.3167    0.0000 C   0  0  2  0  0  0           0  0  0
    5.1625   -4.0375    0.0000 N   0  0  3  0  0  0           0  0  0
    4.6417   -4.9042    0.0000 C   0  0  0  0  0  0           0  0  0
    4.1417   -3.4292    0.0000 C   0  0  0  0  0  0           0  0  0
    5.6875   -2.5667    0.0000 C   0  0  0  0  0  0           0  0  0
    4.6625   -3.1417    0.0000 C   0  0  2  0  0  0           0  0  0
    5.1667   -3.4500    0.0000 C   0  0  0  0  0  0           0  0  0
    9.2125   -5.1167    0.0000 C   0  0  0  0  0  0           0  0  0
    8.0042   -5.1042    0.0000 C   0  0  0  0  0  0           0  0  0
    8.9125   -4.5917    0.0000 C   0  0  0  0  0  0           0  0  0
    8.3125   -4.5917    0.0000 C   0  0  0  0  0  0           0  0  0
    5.1792   -2.2667    0.0000 O   0  0  0  0  0  0           0  0  0
    2.6875   -6.2042    0.0000 C   0  0  3  0  0  0           0  0  0
    5.6792   -3.1542    0.0000 O   0  0  0  0  0  0           0  0  0
    9.8125   -5.1167    0.0000 O   0  0  0  0  0  0           0  0  0
    8.3125   -5.6292    0.0000 O   0  0  0  0  0  0           0  0  0
    6.2000   -2.2792    0.0000 C   0  0  3  0  0  0           0  0  0
    4.6625   -2.5542    0.0000 C   0  0  0  0  0  0           0  0  0
    2.6167   -4.9042    0.0000 C   0  0  0  0  0  0           0  0  0
    3.1250   -4.0167    0.0000 C   0  0  0  0  0  0           0  0  0
    5.6667   -4.3375    0.0000 C   0  0  0  0  0  0           0  0  0
    8.9125   -5.6292    0.0000 O   0  0  0  0  0  0           0  0  0
    7.4042   -5.1042    0.0000 O   0  0  0  0  0  0           0  0  0
    2.6167   -4.3167    0.0000 C   0  0  0  0  0  0           0  0  0
    6.7375   -2.5292    0.0000 C   0  0  0  0  0  0           0  0  0
    6.2750   -1.6917    0.0000 C   0  0  0  0  0  0           0  0  0
    2.1042   -6.0542    0.0000 C   0  0  0  0  0  0           0  0  0
    2.8417   -6.7875    0.0000 C   0  0  0  0  0  0           0  0  0
    6.8500   -1.5792    0.0000 C   0  0  0  0  0  0           0  0  0
    7.1375   -2.1000    0.0000 C   0  0  0  0  0  0           0  0  0
    5.1542   -4.6167    0.0000 H   0  0  0  0  0  0           0  0  0
  2  7  1  0     0  0
  3 10  1  0     0  0
  4  6  2  0     0  0
  5  3  2  0     0  0
  6  1  1  0     0  0
  7  4  1  0     0  0
  8  1  1  0     0  0
  9  8  1  0     0  0
 10  8  1  0     0  0
 11  1  2  0     0  0
 12 19  1  0     0  0
 13 11  1  0     0  0
 14 13  1  0     0  0
 16 18  1  0     0  0
 17 15  1  0     0  0
 18 17  2  0     0  0
 19 25  1  0     0  0
 20  2  1  0     0  0
 21 12  2  0     0  0
 22 15  2  0     0  0
 23 16  2  0     0  0
 24 12  1  0     0  0
 13 25  1  1     0  0
 26  7  2  0     0  0
 27  6  1  0     0  0
 28  9  1  0     0  0
 29 15  1  0     0  0
 30 16  1  0     0  0
 31 27  2  0     0  0
 32 24  1  0     0  0
 33 24  1  0     0  0
 34 20  1  0     0  0
 35 20  1  0     0  0
 36 33  1  0     0  0
 37 32  1  0     0  0
  8 38  1  1     0  0
  4  3  1  0     0  0
 14  9  1  0     0  0
 31 26  1  0     0  0
  5  2  1  0     0  0
 36 37  1  0     0  0
M  END