
  SciTegic09261414462D

 23 25  0  0  0  0            999 V2000
   13.2696  -19.7901    0.0000 N   0  0
   13.7496  -20.4464    0.0000 C   0  0
   13.2702  -21.1144    0.0000 N   0  0
   12.4971  -20.8601    0.0000 C   0  0
   11.7900  -21.2698    0.0000 N   0  0
   11.0781  -20.8602    0.0000 C   0  0
   11.0780  -20.0430    0.0000 N   0  0
   11.7892  -19.6333    0.0000 C   0  0
   12.4970  -20.0429    0.0000 C   0  0
   11.7879  -18.8171    0.0000 O   0  0
   14.5690  -20.4446    0.0000 S   0  0
   14.9759  -19.7367    0.0000 C   0  0
   15.7958  -19.7369    0.0000 C   0  0
   16.2072  -20.4462    0.0000 O   0  0
   16.2070  -19.0306    0.0000 C   0  0
   15.7988  -18.3208    0.0000 C   0  0
   16.2049  -17.6110    0.0000 C   0  0
   17.0266  -17.6123    0.0000 C   0  0
   17.4374  -18.3236    0.0000 C   0  0
   17.0269  -19.0279    0.0000 C   0  0
   10.3663  -21.2678    0.0000 N   0  0
   17.4351  -19.7358    0.0000 O   0  0
   18.2523  -19.7362    0.0000 C   0  0
  1  2  1  0
  2  3  2  0
  3  4  1  0
  4  5  1  0
  5  6  2  0
  6  7  1  0
  7  8  1  0
  8  9  1  0
  1  9  1  0
  4  9  2  0
  8 10  2  0
 12 13  1  0
 13 14  2  0
 15 16  1  0
 16 17  2  0
 17 18  1  0
 18 19  2  0
 19 20  1  0
 15 20  2  0
 13 15  1  0
 11 12  1  0
  2 11  1  0
  6 21  1  0
 20 22  1  0
 22 23  1  0
M  END