
  SciTegic09261414482D

 26 26  0  0  0  0            999 V2000
   25.6266   -3.5415    0.0000 C   0  0
   25.6254   -4.3688    0.0000 C   0  0
   26.3402   -4.7816    0.0000 C   0  0
   26.3384   -3.1287    0.0000 C   0  0
   27.0537   -3.5378    0.0000 C   0  0
   27.0540   -4.3642    0.0000 C   0  0
   27.8400   -4.6194    0.0000 N   0  0
   28.3256   -3.9506    0.0000 C   0  0
   27.8396   -3.2823    0.0000 C   0  0
   28.0942   -2.4976    0.0000 C   0  0
   28.9011   -2.3258    0.0000 C   0  0
   29.1558   -1.5411    0.0000 N   0  0
   29.9627   -1.3693    0.0000 C   0  0
   28.6036   -0.9282    0.0000 C   0  0
   24.9121   -3.1292    0.0000 O   0  0
   24.9119   -2.3042    0.0000 C   0  0
   24.1973   -1.8919    0.0000 C   0  0
   25.6262   -1.8915    0.0000 O   0  0
   24.1971   -1.0670    0.0000 C   0  0
   23.4829   -2.3045    0.0000 C   0  0
   30.0635   -6.1303    0.0000 C   0  0
   29.6510   -6.8447    0.0000 C   0  0
   29.6510   -5.4158    0.0000 O   0  0
   30.8885   -6.1303    0.0000 O   0  0
   30.0635   -7.5592    0.0000 O   0  0
   28.8260   -6.8447    0.0000 O   0  0
  1  2  2  0
  2  3  1  0
  3  6  2  0
  5  4  2  0
  4  1  1  0
  5  6  1  0
  6  7  1  0
  7  8  1  0
  8  9  2  0
  9  5  1  0
  9 10  1  0
 10 11  1  0
 11 12  1  0
 12 13  1  0
 12 14  1  0
  1 15  1  0
 15 16  1  0
 16 17  1  0
 16 18  2  0
 17 19  1  0
 17 20  1  0
 21 22  1  0
 21 23  2  0
 21 24  1  0
 22 25  2  0
 22 26  1  0
M  END