
          11280715462D 1   1.00000     0.00000     0

 36 39  0     1  0            999 V2000
    0.0792    0.1458    0.0000 N   0  0  3  0  0  0           0  0  0
   -0.1583    0.8833    0.0000 C   0  0  0  0  0  0           0  0  0
    0.4500    1.3458    0.0000 N   0  0  3  0  0  0           0  0  0
   -0.5333   -0.3042    0.0000 C   0  0  0  0  0  0           0  0  0
    1.0542    0.8958    0.0000 C   0  0  0  0  0  0           0  0  0
    0.8250    0.1458    0.0000 C   0  0  1  0  0  0           0  0  0
   -0.9000    0.8958    0.0000 N   0  0  0  0  0  0           0  0  0
   -0.5333   -1.0792    0.0000 S   0  0  3  0  0  0           0  0  0
   -1.1333    0.1583    0.0000 C   0  0  0  0  0  0           0  0  0
    0.4500    2.1333    0.0000 C   0  0  0  0  0  0           0  0  0
    1.1000    2.5208    0.0000 C   0  0  0  0  0  0           0  0  0
   -0.1958    2.5208    0.0000 C   0  0  0  0  0  0           0  0  0
    1.5375   -0.0542    0.0000 C   0  0  0  0  0  0           0  0  0
    1.7667    1.1333    0.0000 O   0  0  0  0  0  0           0  0  0
    0.2042   -1.0917    0.0000 O   0  0  0  0  0  0           0  0  0
   -1.2833   -1.0792    0.0000 O   0  0  0  0  0  0           0  0  0
    1.1000    3.2958    0.0000 C   0  0  0  0  0  0           0  0  0
   -0.1958    3.2958    0.0000 C   0  0  0  0  0  0           0  0  0
   -3.2375   -1.8417    0.0000 C   0  0  0  0  0  0           0  0  0
    0.4500    3.6833    0.0000 C   0  0  0  0  0  0           0  0  0
   -3.2333   -1.0542    0.0000 O   0  0  0  0  0  0           0  0  0
   -0.5375   -1.8667    0.0000 C   0  0  0  0  0  0           0  0  0
    0.8167   -0.6292    0.0000 C   0  0  0  0  0  0           0  0  0
    1.5375   -0.8292    0.0000 C   0  0  0  0  0  0           0  0  0
    1.5250   -2.3792    0.0000 C   0  0  0  0  0  0           0  0  0
   -0.8458    3.6833    0.0000 Cl  0  0  0  0  0  0           0  0  0
    1.7417    3.6833    0.0000 Cl  0  0  0  0  0  0           0  0  0
   -2.5708   -2.2292    0.0000 O   0  0  0  0  0  0           0  0  0
    1.5167   -3.1542    0.0000 Br  0  0  0  0  0  0           0  0  0
    2.1792   -1.2167    0.0000 C   0  0  0  0  0  0           0  0  0
    0.8792   -1.2042    0.0000 C   0  0  0  0  0  0           0  0  0
    2.1792   -1.9917    0.0000 C   0  0  0  0  0  0           0  0  0
    0.8792   -1.9917    0.0000 C   0  0  0  0  0  0           0  0  0
   -1.2208   -2.2417    0.0000 C   0  0  0  0  0  0           0  0  0
   -3.9125   -2.2167    0.0000 C   0  0  0  0  0  0           0  0  0
   -1.8833   -1.8542    0.0000 C   0  0  0  0  0  0           0  0  0
  2  1  1  0     0  0
  3  2  1  0     0  0
  4  1  1  0     0  0
  5  6  1  0     0  0
  6  1  1  0     0  0
  7  2  2  0     0  0
  8  4  1  0     0  0
  9  4  2  0     0  0
 10  3  1  0     0  0
 11 10  2  0     0  0
 12 10  1  0     0  0
  6 13  1  1     0  0
 14  5  2  0     0  0
 15  8  2  0     0  0
 16  8  2  0     0  0
 17 11  1  0     0  0
 18 12  2  0     0  0
 19 28  1  0     0  0
 20 18  1  0     0  0
 21 19  2  0     0  0
 22  8  1  0     0  0
  6 23  1  6     0  0
 24 13  1  0     0  0
 25 33  2  0     0  0
 26 18  1  0     0  0
 27 17  1  0     0  0
 28 36  1  0     0  0
 29 25  1  0     0  0
 30 24  1  0     0  0
 31 24  2  0     0  0
 32 30  2  0     0  0
 33 31  1  0     0  0
 34 22  1  0     0  0
 35 19  1  0     0  0
 36 34  1  0     0  0
  3  5  1  0     0  0
  7  9  1  0     0  0
 32 25  1  0     0  0
 17 20  2  0     0  0
M  END