
  SciTegic06061310022D

 26 29  0  0  0  0            999 V2000
    5.1706   -1.0427    0.0000 N   0  0
    3.9331   -1.7572    0.0000 C   0  0  1  0  0  0
    3.5206   -2.4716    0.0000 C   0  0
    3.5206   -1.0427    0.0000 C   0  0
    4.7581   -1.7572    0.0000 C   0  0  1  0  0  0
    3.9331   -0.3282    0.0000 C   0  0
    4.7581   -0.3282    0.0000 C   0  0
    3.9331   -3.1861    0.0000 C   0  0
    2.6956   -2.4716    0.0000 C   0  0
    2.2831   -3.1861    0.0000 C   0  0
    3.5206   -3.9006    0.0000 C   0  0
    2.6956   -3.9006    0.0000 C   0  0
    5.1706   -2.4716    0.0000 C   0  0
    4.7581   -3.1861    0.0000 C   0  0
    3.5206    0.3863    0.0000 C   0  0
    5.9956   -1.0427    0.0000 C   0  0
    2.6956   -1.0427    0.0000 C   0  0
    1.4581   -3.1861    0.0000 O   0  0
    2.2831   -4.6150    0.0000 O   0  0
    2.2831   -0.3282    0.0000 C   0  0
    2.6956    0.3863    0.0000 C   0  0
    3.9331    1.1007    0.0000 C   0  0
    6.4081   -0.3282    0.0000 C   0  0
    7.2331   -0.3282    0.0000 C   0  0
    5.5831   -1.7572    0.0000 H   0  0
    3.1081   -1.7572    0.0000 H   0  0
  2  5  1  0
  3  2  1  0
  4  6  2  0
  5  1  1  0
  6  7  1  0
  7  1  1  0
  8 14  1  0
  9  3  2  0
 10  9  1  0
 11  8  2  0
 12 11  1  0
 13  5  1  0
 14 13  1  0
 15  6  1  0
  1 16  1  0
 17  4  1  0
 18 10  1  0
 19 12  1  0
 20 21  1  0
 21 15  2  0
 22 15  1  0
 23 16  1  0
 24 23  1  0
  2  4  1  0
  3  8  1  0
 20 17  2  0
 10 12  2  0
  5 25  1  1
  2 26  1  6
M  END