
          03140815522D 1   1.00000     0.00000     0

 19 20  0     0  0            999 V2000
   -4.9181   -5.5916    0.0000 C   0  0  0  0  0  0           0  0  0
   -4.9193   -6.4190    0.0000 C   0  0  0  0  0  0           0  0  0
   -4.2044   -6.8319    0.0000 C   0  0  0  0  0  0           0  0  0
   -3.4880   -6.4185    0.0000 C   0  0  0  0  0  0           0  0  0
   -3.4909   -5.5880    0.0000 C   0  0  0  0  0  0           0  0  0
   -4.2062   -5.1789    0.0000 C   0  0  0  0  0  0           0  0  0
   -2.7779   -5.1728    0.0000 O   0  0  0  0  0  0           0  0  0
   -2.0619   -5.5826    0.0000 C   0  0  0  0  0  0           0  0  0
   -2.0622   -6.4053    0.0000 C   0  0  0  0  0  0           0  0  0
   -1.3470   -6.8150    0.0000 C   0  0  0  0  0  0           0  0  0
   -0.6331   -6.3997    0.0000 C   0  0  0  0  0  0           0  0  0
   -0.6389   -5.5705    0.0000 C   0  0  0  0  0  0           0  0  0
   -1.3546   -5.1645    0.0000 C   0  0  0  0  0  0           0  0  0
   -4.2087   -4.3539    0.0000 Cl  0  0  0  0  0  0           0  0  0
   -5.6341   -6.8309    0.0000 Cl  0  0  0  0  0  0           0  0  0
   -1.3620   -4.3395    0.0000 O   0  0  0  0  0  0           0  0  0
    0.0835   -6.8086    0.0000 C   0  0  0  0  0  0           0  0  0
    0.0877   -7.6336    0.0000 O   0  0  0  0  0  0           0  0  0
    0.7958   -6.3925    0.0000 O   0  0  0  0  0  0           0  0  0
  4  5  1  0     0  0
  9 10  1  0     0  0
  2  3  1  0     0  0
 10 11  2  0     0  0
  5  6  2  0     0  0
 11 12  1  0     0  0
  6  1  1  0     0  0
 12 13  2  0     0  0
 13  8  1  0     0  0
  1  2  2  0     0  0
  6 14  1  0     0  0
  5  7  1  0     0  0
  2 15  1  0     0  0
  3  4  2  0     0  0
 13 16  1  0     0  0
  7  8  1  0     0  0
 11 17  1  0     0  0
 17 18  2  0     0  0
  8  9  2  0     0  0
 17 19  1  0     0  0
M  END