
  CDK    9/16/09,9:54

 48 53  0  0  0  0  0  0  0  0999 V2000
    9.9500  -14.3208    0.0000 C   0  0  0  0  0  0  0  0  0  0  0  0
    9.9500  -15.1458    0.0000 C   0  0  0  0  0  0  0  0  0  0  0  0
   10.6620  -15.5542    0.0000 C   0  0  0  0  0  0  0  0  0  0  0  0
   11.3740  -15.1458    0.0000 C   0  0  0  0  0  0  0  0  0  0  0  0
   11.3740  -14.3208    0.0000 O   0  0  0  0  0  0  0  0  0  0  0  0
   10.6620  -13.9042    0.0000 C   0  0  0  0  0  0  0  0  0  0  0  0
   10.6620  -13.0792    0.0000 C   0  0  0  0  0  0  0  0  0  0  0  0
   11.3765  -12.6667    0.0000 O   0  0  0  0  0  0  0  0  0  0  0  0
    9.2343  -13.9104    0.0000 O   0  0  0  0  0  0  0  0  0  0  0  0
    9.2361  -15.5594    0.0000 O   0  0  0  0  0  0  0  0  0  0  0  0
    8.5211  -15.1479    0.0000 C   0  0  0  0  0  0  0  0  0  0  0  0
    7.8072  -15.5614    0.0000 C   0  0  0  0  0  0  0  0  0  0  0  0
    7.8126  -16.3844    0.0000 C   0  0  0  0  0  0  0  0  0  0  0  0
   10.6620  -16.3792    0.0000 O   0  0  0  0  0  0  0  0  0  0  0  0
   12.0879  -15.5594    0.0000 S   0  0  0  0  0  0  0  0  0  0  0  0
   12.8030  -15.1479    0.0000 C   0  0  0  0  0  0  0  0  0  0  0  0
   13.5131  -15.5653    0.0000 O   0  0  0  0  0  0  0  0  0  0  0  0
   14.2260  -15.1574    0.0000 C   0  0  0  0  0  0  0  0  0  0  0  0
   14.2315  -14.3320    0.0000 C   0  0  0  0  0  0  0  0  0  0  0  0
   13.5178  -13.9163    0.0000 C   0  0  0  0  0  0  0  0  0  0  0  0
   12.7986  -14.3259    0.0000 C   0  0  0  0  0  0  0  0  0  0  0  0
   12.7958  -15.9708    0.0000 H   0  0  0  0  0  0  0  0  0  0  0  0
   14.9383  -15.5736    0.0000 C   0  0  0  0  0  0  0  0  0  0  0  0
   14.9340  -16.3986    0.0000 O   0  0  0  0  0  0  0  0  0  0  0  0
   14.9481  -13.9233    0.0000 O   0  0  0  0  0  0  0  0  0  0  0  0
   13.5218  -13.0913    0.0000 O   0  0  0  0  0  0  0  0  0  0  0  0
   14.2382  -12.6823    0.0000 C   0  0  0  0  0  0  0  0  0  0  0  0
   14.2422  -11.8573    0.0000 C   0  0  0  0  0  0  0  0  0  0  0  0
   14.9507  -13.0982    0.0000 O   0  0  0  0  0  0  0  0  0  0  0  0
   12.0842  -13.9132    0.0000 O   0  0  0  0  0  0  0  0  0  0  0  0
    8.5199  -14.3229    0.0000 O   0  0  0  0  0  0  0  0  0  0  0  0
   13.5311  -10.6246    0.0000 C   0  0  0  0  0  0  0  0  0  0  0  0
   13.5303  -11.4475    0.0000 C   0  0  0  0  0  0  0  0  0  0  0  0
    6.3813  -15.5624    0.0000 C   0  0  0  0  0  0  0  0  0  0  0  0
    7.0942  -15.1515    0.0000 C   0  0  0  0  0  0  0  0  0  0  0  0
   14.9558  -11.4482    0.0000 C   0  0  0  0  0  0  0  0  0  0  0  0
    7.1022  -16.7996    0.0000 C   0  0  0  0  0  0  0  0  0  0  0  0
    6.3850  -16.3885    0.0000 C   0  0  0  0  0  0  0  0  0  0  0  0
    5.6725  -16.8039    0.0000 C   0  0  0  0  0  0  0  0  0  0  0  0
    5.6760  -17.6303    0.0000 C   0  0  0  0  0  0  0  0  0  0  0  0
    6.3978  -18.0395    0.0000 C   0  0  0  0  0  0  0  0  0  0  0  0
    7.1074  -17.6217    0.0000 C   0  0  0  0  0  0  0  0  0  0  0  0
   14.2500  -10.2112    0.0000 C   0  0  0  0  0  0  0  0  0  0  0  0
   14.9609  -10.6303    0.0000 C   0  0  0  0  0  0  0  0  0  0  0  0
   15.6771  -10.2242    0.0000 C   0  0  0  0  0  0  0  0  0  0  0  0
   15.6837   -9.3992    0.0000 C   0  0  0  0  0  0  0  0  0  0  0  0
   14.9681   -8.9820    0.0000 C   0  0  0  0  0  0  0  0  0  0  0  0
   14.2547   -9.3904    0.0000 C   0  0  0  0  0  0  0  0  0  0  0  0
 16 22  1  6  0  0  0 
 10 11  1  0  0  0  0 
 18 23  1  1  0  0  0 
  4  5  1  0  0  0  0 
 23 24  1  0  0  0  0 
 11 12  1  0  0  0  0 
 19 25  1  1  0  0  0 
 12 35  2  0  0  0  0 
 20 26  1  1  0  0  0 
 34 38  2  0  0  0  0 
 26 27  1  0  0  0  0 
  5  6  1  0  0  0  0 
 27 28  1  0  0  0  0 
 37 13  2  0  0  0  0 
 27 29  2  0  0  0  0 
 13 12  1  0  0  0  0 
 21 30  1  6  0  0  0 
 11 31  2  0  0  0  0 
 28 36  2  0  0  0  0 
  3 14  1  6  0  0  0 
 43 32  1  0  0  0  0 
  6  7  1  1  0  0  0 
 32 33  2  0  0  0  0 
 33 28  1  0  0  0  0 
  4 15  1  1  0  0  0 
  1  2  1  0  0  0  0 
 34 35  1  0  0  0  0 
 15 16  1  0  0  0  0 
 44 36  1  0  0  0  0 
 16 17  1  0  0  0  0 
  7  8  1  0  0  0  0 
 37 38  1  0  0  0  0 
  1  6  1  0  0  0  0 
 38 39  1  0  0  0  0 
  1  9  1  1  0  0  0 
 39 40  2  0  0  0  0 
  2  3  1  0  0  0  0 
 40 41  1  0  0  0  0 
  2 10  1  1  0  0  0 
 41 42  2  0  0  0  0 
 42 37  1  0  0  0  0 
 16 21  1  0  0  0  0 
 17 18  1  0  0  0  0 
 43 44  1  0  0  0  0 
 18 19  1  0  0  0  0 
 44 45  2  0  0  0  0 
 19 20  1  0  0  0  0 
 45 46  1  0  0  0  0 
 20 21  1  0  0  0  0 
 46 47  2  0  0  0  0 
  3  4  1  0  0  0  0 
 47 48  1  0  0  0  0 
 48 43  2  0  0  0  0 
M  END