
  CDK    5/12/10,14:52

 23 25  0  0  0  0  0  0  0  0999 V2000
   -5.9669    0.2704    0.0000 C   0  0  0  0  0  0  0  0  0  0  0  0
   -5.9682   -0.5569    0.0000 C   0  0  0  0  0  0  0  0  0  0  0  0
   -5.2554   -0.9697    0.0000 C   0  0  0  0  0  0  0  0  0  0  0  0
   -4.5364   -0.5564    0.0000 C   0  0  0  0  0  0  0  0  0  0  0  0
   -4.5396    0.2744    0.0000 C   0  0  0  0  0  0  0  0  0  0  0  0
   -5.2574    0.6830    0.0000 C   0  0  0  0  0  0  0  0  0  0  0  0
   -5.2614    1.5077    0.0000 C   0  0  0  0  0  0  0  0  0  0  0  0
   -5.2690    2.3367    0.0000 C   0  0  0  0  0  0  0  0  0  0  0  0
   -5.2735    3.1614    0.0000 C   0  0  0  0  0  0  0  0  0  0  0  0
   -4.5616    3.5777    0.0000 C   0  0  0  0  0  0  0  0  0  0  0  0
   -3.8451    3.1693    0.0000 N   0  0  0  0  0  0  0  0  0  0  0  0
   -3.8460    2.3403    0.0000 C   0  0  0  0  0  0  0  0  0  0  0  0
   -3.1335    1.9320    0.0000 C   0  0  0  0  0  0  0  0  0  0  0  0
   -2.4192    2.3448    0.0000 C   0  0  0  0  0  0  0  0  0  0  0  0
   -2.4219    3.1705    0.0000 C   0  0  0  0  0  0  0  0  0  0  0  0
   -3.1388    3.5833    0.0000 C   0  0  0  0  0  0  0  0  0  0  0  0
   -3.8218   -0.9681    0.0000 C   0  0  0  0  0  0  0  0  0  0  0  0
   -3.8309   -1.7971    0.0000 N   0  0  0  0  0  0  0  0  0  0  0  0
   -4.5433   -2.2079    0.0000 C   0  0  0  0  0  0  0  0  0  0  0  0
   -4.5439   -3.0368    0.0000 C   0  0  0  0  0  0  0  0  0  0  0  0
   -3.8333   -3.4484    0.0000 C   0  0  0  0  0  0  0  0  0  0  0  0
   -3.1172   -3.0389    0.0000 C   0  0  0  0  0  0  0  0  0  0  0  0
   -3.1158   -2.2133    0.0000 C   0  0  0  0  0  0  0  0  0  0  0  0
 11 12  1  0  0  0  0 
  5  6  2  0  0  0  0 
  6  1  1  0  0  0  0 
  1  2  2  0  0  0  0 
  6  7  1  0  0  0  0 
  3  4  2  0  0  0  0 
 11 16  1  0  0  0  0 
 12 13  1  0  0  0  0 
 13 14  1  0  0  0  0 
 14 15  1  0  0  0  0 
 15 16  1  0  0  0  0 
  7  8  3  0  0  0  0 
  4 17  1  0  0  0  0 
 17 18  1  0  0  0  0 
  8  9  1  0  0  0  0 
 19 20  1  0  0  0  0 
  4  5  1  0  0  0  0 
  9 10  1  0  0  0  0 
  2  3  1  0  0  0  0 
 10 11  1  0  0  0  0 
 19 18  1  0  0  0  0 
 20 21  1  0  0  0  0 
 21 22  1  0  0  0  0 
 22 23  1  0  0  0  0 
 23 18  1  0  0  0  0 
M  END