
  SciTegic11201309402D

 22 24  0  0  1  0            999 V2000
   10.1460   -5.8037    0.0000 N   0  0
    5.8538   -5.8120    0.0000 C   0  0
    7.2818   -5.8037    0.0000 O   0  0
    8.7180   -5.8037    0.0000 C   0  0  1  0  0  0
    6.5678   -6.2171    0.0000 C   0  0
    9.4362   -6.2171    0.0000 C   0  0  1  0  0  0
    7.9957   -6.2171    0.0000 C   0  0
    5.1398   -6.2171    0.0000 C   0  0
    8.7097   -4.9770    0.0000 O   0  0
    5.8621   -7.4571    0.0000 C   0  0
   10.8516   -6.2171    0.0000 C   0  0
    6.5678   -7.0438    0.0000 C   0  0
    5.8538   -4.9895    0.0000 C   0  0
    5.1398   -7.0521    0.0000 C   0  0
    9.4362   -7.0438    0.0000 C   0  0
    4.4259   -5.8162    0.0000 C   0  0
   10.8516   -7.0438    0.0000 C   0  0
    5.1398   -4.5762    0.0000 C   0  0
   10.1460   -7.4571    0.0000 C   0  0
    4.4259   -4.9895    0.0000 C   0  0
    9.4320   -5.3903    0.0000 H   0  0
    7.9957   -5.3903    0.0000 H   0  0
  2  5  2  0
  3  7  1  0
  4  6  1  0
  5  3  1  0
  6  1  1  0
  7  4  1  0
  8  2  1  0
  4  9  1  0
 10 12  2  0
 11  1  1  0
 12  5  1  0
 13  2  1  0
 14 10  1  0
 15  6  1  0
 16  8  1  0
 17 11  1  0
 18 13  2  0
 19 17  1  0
 20 18  1  0
  6 21  1  1
  4 22  1  6
 19 15  1  0
 14  8  2  0
 16 20  2  0
M  END