
  SciTegic01091216402D

 55 56  0  0  0  0            999 V2000
   -0.8753  -11.9556    0.0000 Na  0  3
    0.0920  -15.5994    0.0000 C   0  0  2  0  0  0
    0.8001  -16.0157    0.0000 C   0  0  2  0  0  0
    1.5126  -15.6164    0.0000 C   0  0  1  0  0  0
    1.5235  -14.7952    0.0000 O   0  0
    0.8155  -14.3748    0.0000 C   0  0  1  0  0  0
    0.0967  -14.7798    0.0000 C   0  0  2  0  0  0
   -0.6151  -14.3585    0.0000 O   0  0
    0.8250  -13.5493    0.0000 C   0  0
    0.1142  -13.1305    0.0000 O   0  0
    2.2191  -16.0356    0.0000 O   0  0
   -0.6267  -16.0043    0.0000 O   0  0
    0.7914  -16.8411    0.0000 O   0  0
   -2.7504  -15.6020    0.0000 C   0  0  1  0  0  0
   -2.7504  -16.4276    0.0000 C   0  0  1  0  0  0
   -2.0373  -16.8341    0.0000 C   0  0  2  0  0  0
   -1.3243  -16.4276    0.0000 C   0  0
   -1.3253  -15.5998    0.0000 C   0  0  2  0  0  0
   -2.0373  -15.1830    0.0000 O   0  0
   -1.3271  -14.7736    0.0000 C   0  0
   -2.0437  -14.3605    0.0000 O   0  0
   -2.0373  -17.6596    0.0000 O   0  0
   -3.4611  -16.8392    0.0000 N   0  0
   -3.4629  -15.1893    0.0000 C   0  0  1  0  0  0
   -3.4653  -14.3638    0.0000 C   0  0  1  0  0  0
   -3.4599  -17.6648    0.0000 C   0  0
   -4.1748  -18.0807    0.0000 C   0  0
   -2.7480  -18.0786    0.0000 O   0  0
   -4.1772  -15.6062    0.0000 O   0  0
   -2.7546  -14.7765    0.0000 H   0  0
   -4.1820  -13.9552    0.0000 C   0  0
   -2.7551  -13.9510    0.0000 O   0  0
   -4.1844  -13.1296    0.0000 O   0  0
   -1.3316  -13.9468    0.0000 O   0  5
    2.9393  -15.6334    0.0000 C   0  0  2  0  0  0
    3.6463  -16.0555    0.0000 C   0  0  2  0  0  0
    4.3645  -15.6567    0.0000 C   0  0  1  0  0  0
    4.3785  -14.8310    0.0000 O   0  0
    3.6681  -14.4056    0.0000 C   0  0  1  0  0  0
    2.9437  -14.8101    0.0000 C   0  0  2  0  0  0
    2.9329  -16.4566    0.0000 H   0  0
    2.2327  -14.3875    0.0000 O   0  0
    3.6807  -13.5801    0.0000 C   0  0
    5.0734  -16.0785    0.0000 O   0  0
    5.7952  -15.6791    0.0000 C   0  0
    6.5042  -16.1008    0.0000 C   0  0
    7.2260  -15.7013    0.0000 Si  0  0
    7.9308  -16.1230    0.0000 C   0  0
    7.2389  -14.8759    0.0000 C   0  0
    7.9317  -15.2784    0.0000 C   0  0
    3.6334  -16.8810    0.0000 N   0  0
    4.3422  -17.3070    0.0000 C   0  0
    4.3292  -18.1324    0.0000 C   0  0
    5.0642  -16.9035    0.0000 O   0  0
    4.3981  -13.1803    0.0000 O   0  0
 14 15  1  0
 26 28  2  0
  5  6  1  0
 24 29  1  6
  6  7  1  0
 14 30  1  1
  2  3  1  0
 25 31  1  0
  7  8  1  1
 25 32  1  1
 31 33  1  0
 18 12  1  0
  6  9  1  1
 20 34  1  0
 14 19  1  0
 35 11  1  0
 35 36  1  0
 15 16  1  0
 16 17  1  0
 17 18  1  0
 18 19  1  0
 35 40  1  0
 36 37  1  0
 37 38  1  0
 38 39  1  0
 39 40  1  0
 18 20  1  1
 35 41  1  6
  9 10  1  0
 40 42  1  1
 20 21  2  0
 39 43  1  1
  2  7  1  0
 37 44  1  1
 16 22  1  6
 44 45  1  0
  4 11  1  1
 45 46  1  0
 15 23  1  1
 46 47  1  0
  3  4  1  0
 47 48  1  0
 14 24  1  0
 47 49  1  0
  2 12  1  1
 47 50  1  0
 24 25  1  0
 36 51  1  6
  4  5  1  0
 51 52  1  0
 23 26  1  0
 52 53  1  0
  3 13  1  6
 52 54  2  0
 26 27  1  0
 43 55  1  0
M  CHG  2   1   1  34  -1
M  END