
  CDK    9/16/09,9:20

 36 36  0  0  0  0  0  0  0  0999 V2000
   -4.4308   -8.5017    0.0000 C   0  0  0  0  0  0  0  0  0  0  0  0
   -3.9765   -7.8130    0.0000 C   0  0  0  0  0  0  0  0  0  0  0  0
   -3.5627   -7.0969    0.0000 C   0  0  0  0  0  0  0  0  0  0  0  0
   -3.2747   -8.2468    0.0000 C   0  0  0  0  0  0  0  0  0  0  0  0
   -4.6795   -7.3813    0.0000 C   0  0  0  0  0  0  0  0  0  0  0  0
   -3.2995   -9.0714    0.0000 N   0  0  0  0  0  0  0  0  0  0  0  0
   -2.5482   -7.8558    0.0000 C   0  0  0  0  0  0  0  0  0  0  0  0
   -2.5977   -9.5051    0.0000 C   0  0  0  0  0  0  0  0  0  0  0  0
   -1.3964   -8.3937    0.0000 N   0  0  0  0  0  0  0  0  0  0  0  0
   -2.5235   -7.0312    0.0000 O   0  0  0  0  0  0  0  0  0  0  0  0
   -0.6699   -8.0028    0.0000 C   0  0  0  0  0  0  0  0  0  0  0  0
    0.0319   -8.4365    0.0000 C   0  0  0  0  0  0  0  0  0  0  0  0
   -0.6452   -7.1782    0.0000 C   0  0  0  0  0  0  0  0  0  0  0  0
    0.0071   -9.2612    0.0000 O   0  0  0  0  0  0  0  0  0  0  0  0
    1.1125   -7.9998    0.0000 N   0  0  0  0  0  0  0  0  0  0  0  0
    1.8143   -8.4335    0.0000 C   0  0  0  0  0  0  0  0  0  0  0  0
    2.5408   -8.0426    0.0000 C   0  0  0  0  0  0  0  0  0  0  0  0
    3.2426   -8.4763    0.0000 C   0  0  0  0  0  0  0  0  0  0  0  0
    3.9691   -8.0854    0.0000 C   0  0  0  0  0  0  0  0  0  0  0  0
    3.9938   -7.2608    0.0000 O   0  0  0  0  0  0  0  0  0  0  0  0
   -0.6500   -6.3500    0.0000 C   0  0  0  0  0  0  0  0  0  0  0  0
    0.1797   -7.1882    0.0000 C   0  0  0  0  0  0  0  0  0  0  0  0
   -1.4702   -7.1715    0.0000 C   0  0  0  0  0  0  0  0  0  0  0  0
    4.6709   -8.5191    0.0000 O   0  0  0  0  0  0  0  0  0  0  0  0
    3.2179   -9.3010    0.0000 C   0  0  0  0  0  0  0  0  0  0  0  0
    1.7896   -9.2581    0.0000 C   0  0  0  0  0  0  0  0  0  0  0  0
    1.0631   -9.6491    0.0000 C   0  0  0  0  0  0  0  0  0  0  0  0
    2.4914   -9.6919    0.0000 C   0  0  0  0  0  0  0  0  0  0  0  0
   -5.2534   -8.4474    0.0000 C   0  0  0  0  0  0  0  0  0  0  0  0
   -5.7076   -9.1352    0.0000 C   0  0  0  0  0  0  0  0  0  0  0  0
   -5.3384   -9.8739    0.0000 C   0  0  0  0  0  0  0  0  0  0  0  0
   -4.5104   -9.9206    0.0000 C   0  0  0  0  0  0  0  0  0  0  0  0
   -4.0599   -9.2320    0.0000 C   0  0  0  0  0  0  0  0  0  0  0  0
    1.1824   -7.1778    0.0000 C   0  0  0  0  0  0  0  0  0  0  0  0
    4.6462   -9.3438    0.0000 C   0  0  0  0  0  0  0  0  0  0  0  0
    5.3480   -9.7775    0.0000 C   0  0  0  0  0  0  0  0  0  0  0  0
  2  5  1  0  0  0  0 
 18 19  1  0  0  0  0 
  7 10  2  0  0  0  0 
 19 20  2  0  0  0  0 
  2  3  1  0  0  0  0 
 13 21  1  0  0  0  0 
  9 11  1  0  0  0  0 
 13 22  1  0  0  0  0 
  4  6  1  1  0  0  0 
 13 23  1  0  0  0  0 
 11 12  1  0  0  0  0 
 19 24  1  0  0  0  0 
  1  2  1  0  0  0  0 
 18 25  1  0  0  0  0 
 11 13  1  1  0  0  0 
 16 26  1  6  0  0  0 
  4  7  1  0  0  0  0 
 26 27  1  0  0  0  0 
 12 14  2  0  0  0  0 
 26 28  1  0  0  0  0 
  2  4  1  0  0  0  0 
  1 29  2  0  0  0  0 
 12 15  1  0  0  0  0 
 29 30  1  0  0  0  0 
  6  8  1  0  0  0  0 
 30 31  2  0  0  0  0 
 15 16  1  0  0  0  0 
 31 32  1  0  0  0  0 
 32 33  2  0  0  0  0 
 33  1  1  0  0  0  0 
 16 17  1  0  0  0  0 
 15 34  1  0  0  0  0 
  7  9  1  0  0  0  0 
 24 35  1  0  0  0  0 
 17 18  2  0  0  0  0 
 35 36  1  0  0  0  0 
M  END