
  SciTegic12231509382D

 32 35  0  0  0  0            999 V2000
   -2.3268    0.3126    0.0000 C   0  0
   -1.9143    1.0271    0.0000 C   0  0
   -1.0893    1.0271    0.0000 C   0  0
   -0.6768    1.7415    0.0000 C   0  0
    0.1482    1.7415    0.0000 N   0  0
    0.5607    1.0271    0.0000 C   0  0
    0.1482    0.3126    0.0000 C   0  0
    0.5607   -0.4019    0.0000 C   0  0
    0.1482   -1.1164    0.0000 C   0  0
   -0.6768   -1.1164    0.0000 C   0  0
   -1.0893   -0.4019    0.0000 C   0  0
   -0.6768    0.3126    0.0000 C   0  0
   -1.0893   -1.8308    0.0000 C   0  0
   -1.9143   -1.8308    0.0000 C   0  0
   -2.3268   -2.5453    0.0000 C   0  0
   -1.9143   -3.2598    0.0000 C   0  0
   -1.0893   -3.2598    0.0000 C   0  0
   -0.6768   -2.5453    0.0000 C   0  0
    0.1482   -2.5453    0.0000 C   0  0
    0.6331   -3.2127    0.0000 N   0  0
    1.4177   -2.9578    0.0000 N   0  0
    1.4177   -2.1328    0.0000 N   0  0
    0.6331   -1.8779    0.0000 N   0  0
    0.5607    2.4560    0.0000 C   0  0
    0.1482    3.1705    0.0000 N   0  0
    0.5607    3.8849    0.0000 C   0  0
    1.3857    3.8849    0.0000 N   0  0
    1.7982    3.1705    0.0000 C   0  0
    1.3857    2.4560    0.0000 C   0  0
    1.7982    1.7415    0.0000 C   0  0
    1.3857    1.0271    0.0000 O   0  0
    2.6232    1.7415    0.0000 O   0  0
  1  2  1  0
  2  3  1  0
  3  4  1  0
  4  5  1  0
  5  6  1  0
  6  7  1  0
  7  8  2  0
  8  9  1  0
  9 10  2  0
 10 11  1  0
 11 12  2  0
  7 12  1  0
 10 13  1  0
 13 14  2  0
 14 15  1  0
 15 16  2  0
 16 17  1  0
 17 18  2  0
 13 18  1  0
 18 19  1  0
 19 20  1  0
 20 21  2  0
 21 22  1  0
 22 23  1  0
 19 23  2  0
  5 24  1  0
 24 25  2  0
 25 26  1  0
 26 27  2  0
 27 28  1  0
 28 29  2  0
 24 29  1  0
 29 30  1  0
 30 31  2  0
 30 32  1  0
M  END