
  SciTegic06051315212D

 29 32  0  0  0  0            999 V2000
   22.9171   -1.9604    0.0000 C   0  0
   22.9159   -2.7799    0.0000 C   0  0
   23.6240   -3.1889    0.0000 C   0  0
   24.3336   -2.7795    0.0000 C   0  0
   24.3308   -1.9568    0.0000 C   0  0
   23.6222   -1.5515    0.0000 C   0  0
   23.6204   -4.0034    0.0000 N   0  0
   22.9108   -4.4106    0.0000 C   0  0
   22.9086   -5.2242    0.0000 C   0  0
   23.6144   -5.6368    0.0000 N   0  0
   24.3241   -5.2296    0.0000 C   0  0
   24.3279   -4.4098    0.0000 C   0  0
   23.6112   -6.4540    0.0000 C   0  0
   23.6160   -0.7326    0.0000 N   0  3
   22.9071   -0.3261    0.0000 O   0  0
   24.3225   -0.3219    0.0000 O   0  5
   25.0420   -3.1869    0.0000 N   0  0
   25.7491   -2.7772    0.0000 C   0  0
   26.4574   -3.1847    0.0000 C   0  0
   25.7478   -1.9600    0.0000 O   0  0
   26.4541   -4.0004    0.0000 C   0  0
   27.1616   -4.4078    0.0000 C   0  0
   27.8696   -3.9980    0.0000 C   0  0
   27.1576   -2.7729    0.0000 C   0  0
   27.8647   -3.1774    0.0000 C   0  0
   28.5665   -2.7674    0.0000 C   0  0
   28.5624   -1.9530    0.0000 C   0  0
   27.8507   -1.5504    0.0000 C   0  0
   27.1518   -1.9627    0.0000 C   0  0
  1  2  2  0
  2  3  1  0
  3  4  2  0
  4  5  1  0
  5  6  2  0
  6  1  1  0
  7  8  1  0
  7 12  1  0
  8  9  1  0
  9 10  1  0
 10 11  1  0
 11 12  1  0
  3  7  1  0
 10 13  1  0
 14 15  2  0
 14 16  1  0
  6 14  1  0
  4 17  1  0
 17 18  1  0
 18 19  1  0
 18 20  2  0
 19 21  2  0
 21 22  1  0
 22 23  2  0
 23 25  1  0
 24 19  1  0
 24 25  1  0
 25 26  2  0
 26 27  1  0
 27 28  2  0
 28 29  1  0
 29 24  2  0
M  CHG  2  14   1  16  -1
M  END