
  SciTegic03291108502D

 23 26  0  0  0  0            999 V2000
   -1.0076    2.0528    0.0000 S   0  0
    0.4915   -0.2647    0.0000 S   0  0
    1.2060    0.9728    0.0000 N   0  0
    0.4915    2.2103    0.0000 N   0  0
    1.9596   -0.3416    0.0000 N   0  0
    1.2922   -1.4977    0.0000 N   0  0
    2.5117   -0.9547    0.0000 N   0  0
    2.0992   -1.6692    0.0000 N   0  0
   -2.0274   -2.4206    0.0000 N   0  0
   -0.2230    0.9728    0.0000 C   0  0
   -1.0076    0.7179    0.0000 C   0  0
    0.4915    0.5603    0.0000 C   0  0
   -0.2230    1.7978    0.0000 C   0  0
   -1.2625   -0.0667    0.0000 C   0  0
   -1.4925    1.3853    0.0000 C   0  0
    1.2060   -0.6772    0.0000 C   0  0
    1.2060    1.7978    0.0000 C   0  0
   -0.7105   -0.6798    0.0000 C   0  0
   -2.0695   -0.2383    0.0000 C   0  0
   -0.9655   -1.4644    0.0000 C   0  0
   -2.3245   -1.0229    0.0000 C   0  0
   -1.7724   -1.6360    0.0000 C   0  0
    2.1312    0.4654    0.0000 C   0  0
  1 13  1  0
  1 15  1  0
  2 12  1  0
  2 16  1  0
  3 12  1  0
  3 17  2  0
  4 13  2  0
  4 17  1  0
  5  7  1  0
  5 16  1  0
  5 23  1  0
  6  8  1  0
  6 16  2  0
  7  8  2  0
  9 22  1  0
 10 11  1  0
 10 12  2  0
 10 13  1  0
 11 14  1  0
 11 15  2  0
 14 18  2  0
 14 19  1  0
 18 20  1  0
 19 21  2  0
 20 22  2  0
 21 22  1  0
M  END