
          11280715502D 1   1.00000     0.00000     0

 46 50  0     1  0            999 V2000
    3.1921  -17.9271    0.0000 N   0  0  3  0  0  0           0  0  0
    2.4990  -18.3697    0.0000 C   0  0  0  0  0  0           0  0  0
    2.5364  -19.1902    0.0000 C   0  0  0  0  0  0           0  0  0
    3.2682  -19.5719    0.0000 O   0  0  0  0  0  0           0  0  0
    3.9639  -19.1268    0.0000 C   0  0  0  0  0  0           0  0  0
    3.9279  -18.3000    0.0000 C   0  0  0  0  0  0           0  0  0
   -3.2389  -13.4000    0.0000 C   0  0  0  0  0  0           0  0  0
   -3.2401  -14.2273    0.0000 C   0  0  0  0  0  0           0  0  0
   -2.5253  -14.6402    0.0000 C   0  0  0  0  0  0           0  0  0
   -1.8088  -14.2269    0.0000 C   0  0  0  0  0  0           0  0  0
   -1.8117  -13.3963    0.0000 C   0  0  0  0  0  0           0  0  0
   -2.5271  -12.9872    0.0000 C   0  0  0  0  0  0           0  0  0
   -1.0988  -12.9811    0.0000 C   0  0  0  0  0  0           0  0  0
   -0.3828  -13.3909    0.0000 N   0  0  3  0  0  0           0  0  0
   -1.1019  -12.1561    0.0000 O   0  0  0  0  0  0           0  0  0
   -0.3823  -14.2177    0.0000 C   0  0  1  0  0  0           0  0  0
    0.3297  -14.6274    0.0000 C   0  0  0  0  0  0           0  0  0
    1.0450  -14.2157    0.0000 N   0  0  3  0  0  0           0  0  0
    1.0439  -13.3898    0.0000 C   0  0  0  0  0  0           0  0  0
    0.3274  -12.9755    0.0000 C   0  0  0  0  0  0           0  0  0
   -1.0963  -14.6309    0.0000 C   0  0  0  0  0  0           0  0  0
   -1.1042  -15.4542    0.0000 C   0  0  0  0  0  0           0  0  0
   -1.7721  -15.9354    0.0000 C   0  0  0  0  0  0           0  0  0
   -1.5252  -16.7208    0.0000 N   0  0  0  0  0  0           0  0  0
   -0.4401  -15.9481    0.0000 C   0  0  0  0  0  0           0  0  0
   -0.7021  -16.7272    0.0000 C   0  0  0  0  0  0           0  0  0
   -0.1589  -17.3415    0.0000 C   0  0  0  0  0  0           0  0  0
    0.6464  -17.1781    0.0000 C   0  0  0  0  0  0           0  0  0
    0.9056  -16.3948    0.0000 C   0  0  0  0  0  0           0  0  0
    0.3607  -15.7837    0.0000 C   0  0  0  0  0  0           0  0  0
   -2.5333  -15.4625    0.0000 C   0  0  3  0  0  0           0  0  0
   -1.7083  -15.4625    0.0000 F   0  0  0  0  0  0           0  0  0
   -2.5375  -16.2875    0.0000 F   0  0  0  0  0  0           0  0  0
   -3.3583  -15.4583    0.0000 F   0  0  0  0  0  0           0  0  0
   -3.9535  -12.9876    0.0000 C   0  0  3  0  0  0           0  0  0
   -4.3708  -13.7000    0.0000 F   0  0  0  0  0  0           0  0  0
   -3.5458  -12.2708    0.0000 F   0  0  0  0  0  0           0  0  0
   -4.6708  -12.5750    0.0000 F   0  0  0  0  0  0           0  0  0
    1.7595  -14.6283    0.0000 C   0  0  0  0  0  0           0  0  0
    2.4740  -14.2158    0.0000 C   0  0  0  0  0  0           0  0  0
    2.4740  -13.3908    0.0000 C   0  0  0  0  0  0           0  0  0
    3.1884  -14.6283    0.0000 N   0  0  0  0  0  0           0  0  0
    3.1884  -15.4533    0.0000 O   0  0  0  0  0  0           0  0  0
    3.9029  -15.8658    0.0000 C   0  0  0  0  0  0           0  0  0
    3.9029  -16.6908    0.0000 C   0  0  0  0  0  0           0  0  0
    3.1884  -17.1033    0.0000 C   0  0  0  0  0  0           0  0  0
 22 23  2  0     0  0
  4  5  1  0     0  0
 11 12  2  0     0  0
 23 24  1  0     0  0
 24 26  1  0     0  0
 25 22  1  0     0  0
 12  7  1  0     0  0
  5  6  1  0     0  0
 25 26  2  0     0  0
 11 13  1  0     0  0
 26 27  1  0     0  0
  1  2  1  0     0  0
 27 28  2  0     0  0
 13 14  1  0     0  0
 28 29  1  0     0  0
 29 30  2  0     0  0
 30 25  1  0     0  0
 13 15  2  0     0  0
  9 31  1  0     0  0
 14 16  1  0     0  0
 31 32  1  0     0  0
  7  8  2  0     0  0
 31 33  1  0     0  0
  1  6  1  0     0  0
 31 34  1  0     0  0
  8  9  1  0     0  0
  7 35  1  0     0  0
  2  3  1  0     0  0
 35 36  1  0     0  0
  9 10  2  0     0  0
 35 37  1  0     0  0
 14 20  1  0     0  0
 35 38  1  0     0  0
 16 17  1  0     0  0
 18 39  1  0     0  0
 17 18  1  0     0  0
 39 40  1  0     0  0
 18 19  1  0     0  0
 40 41  1  0     0  0
 19 20  1  0     0  0
 40 42  2  0     0  0
  3  4  1  0     0  0
 42 43  1  0     0  0
 16 21  1  1     0  0
 43 44  1  0     0  0
 10 11  1  0     0  0
 44 45  1  0     0  0
 21 22  1  0     0  0
 45 46  1  0     0  0
 46  1  1  0     0  0
M  END