
  SciTegic09171211542D

 92 90  0  0  0  0            999 V2000
   13.2238  -18.0545    0.0000 C   0  0
   13.2238  -18.8795    0.0000 C   0  0  1  0  0  0
   13.9358  -19.2878    0.0000 C   0  0
   13.9358  -17.6378    0.0000 C   0  0
   14.6478  -18.0545    0.0000 C   0  0  1  0  0  0
   14.6443  -18.8795    0.0000 C   0  0  1  0  0  0
   15.3531  -19.2927    0.0000 C   0  0
   16.0699  -18.8856    0.0000 C   0  0
   15.3601  -17.6428    0.0000 C   0  0  2  0  0  0
   16.0695  -18.0631    0.0000 C   0  0  2  0  0  0
   16.0864  -16.4169    0.0000 C   0  0
   15.3654  -16.8205    0.0000 C   0  0
   16.7958  -16.8372    0.0000 C   0  0  1  0  0  0
   16.7869  -17.6587    0.0000 C   0  0  1  0  0  0
   17.5654  -17.9212    0.0000 C   0  0
   18.0556  -17.2617    0.0000 C   0  0
   17.5799  -16.5919    0.0000 C   0  0  2  0  0  0
   12.5099  -19.2931    0.0000 O   0  0
   14.6404  -17.2295    0.0000 C   0  0
   15.3529  -18.4670    0.0000 H   0  0
   16.0613  -17.2378    0.0000 H   0  0
   16.7821  -18.4837    0.0000 H   0  0
   16.7904  -16.0087    0.0000 C   0  0
   17.8433  -15.8101    0.0000 C   0  0  1  0  0  0
   18.6521  -15.6473    0.0000 C   0  0
   17.2980  -15.1910    0.0000 C   0  0
   19.1975  -16.2664    0.0000 C   0  0
   20.0063  -16.1036    0.0000 C   0  0
   20.5516  -16.7227    0.0000 C   0  0
   21.3604  -16.5599    0.0000 C   0  0
   20.2882  -17.5045    0.0000 C   0  0
   18.4029  -16.5878    0.0000 H   0  0
   14.6363  -19.7003    0.0000 H   0  0
   12.9714  -17.5397    0.0000 O   0  0
   12.5791  -16.8140    0.0000 S   0  0
   12.1467  -17.5165    0.0000 O   0  0
    9.5064  -20.4354    0.0000 O   0  0
   10.3313  -20.4632    0.0000 S   0  0
    9.9430  -19.7349    0.0000 O   0  0
    8.7661  -17.9701    0.0000 O   0  0
    8.9558  -18.7769    0.0000 S   0  0
    9.5597  -18.2092    0.0000 O   0  0
    7.0261  -15.6708    0.0000 O   0  0
    7.5935  -16.2736    0.0000 S   0  0
    7.8318  -15.4809    0.0000 O   0  0
    8.7996  -13.5188    0.0000 O   0  0
    8.3672  -14.2261    0.0000 S   0  0
    9.1959  -14.2469    0.0000 O   0  0
   11.3470  -13.8945    0.0000 O   0  0
   10.5224  -13.8760    0.0000 S   0  0
   10.9187  -14.5994    0.0000 O   0  0
   12.2374  -14.4553    0.0000 O   0  0
   12.6297  -15.1811    0.0000 S   0  0
   13.0621  -14.4785    0.0000 O   0  0
   11.1315  -17.6058    0.0000 C   0  0  2  0  0  0
   10.4057  -17.9980    0.0000 C   0  0  2  0  0  0
   10.3850  -18.8186    0.0000 C   0  0  1  0  0  0
   11.0828  -19.2508    0.0000 C   0  0  2  0  0  0
   11.8086  -18.8586    0.0000 C   0  0  1  0  0  0
   11.8366  -18.0341    0.0000 O   0  0
   11.0584  -20.0755    0.0000 O   0  0
    9.6592  -19.2108    0.0000 O   0  0
    9.7025  -17.5666    0.0000 O   0  0
   11.1523  -16.7810    0.0000 C   0  0
   11.8769  -16.3867    0.0000 O   0  0
    9.7245  -16.7419    0.0000 C   0  0  2  0  0  0
   10.4496  -16.3512    0.0000 O   0  0
   10.4735  -15.5301    0.0000 C   0  0  1  0  0  0
    9.7722  -15.0949    0.0000 C   0  0  2  0  0  0
    9.0452  -15.4870    0.0000 C   0  0  1  0  0  0
    9.0195  -16.3142    0.0000 C   0  0  1  0  0  0
    8.2944  -16.7077    0.0000 O   0  0
    8.3435  -15.0532    0.0000 O   0  0
    9.7973  -14.2703    0.0000 O   0  0
   11.2002  -15.1396    0.0000 C   0  0
   11.9018  -15.5737    0.0000 O   0  0
   10.4315  -17.1694    0.0000 H   0  0
   13.3301  -15.6172    0.0000 O   0  5
   13.3054  -16.4227    0.0000 O   0  5
   10.5491  -13.0551    0.0000 O   0  5
    7.6665  -13.7947    0.0000 O   0  5
    6.8659  -16.6699    0.0000 O   0  5
    8.2309  -19.1706    0.0000 O   0  5
   10.3076  -21.2913    0.0000 O   0  5
   13.2167  -19.7042    0.0000 H   0  0
   14.8125  -13.3750    0.0000 Na  0  3
   16.1562  -13.3750    0.0000 Na  0  3
   17.5938  -13.4687    0.0000 Na  0  3
   19.3438  -13.4687    0.0000 Na  0  3
   15.7188  -14.6875    0.0000 Na  0  3
   18.6563  -14.6563    0.0000 Na  0  3
   19.0625  -18.8750    0.0000 Na  0  3
 44 43  2  0
 45 44  2  0
  9 10  1  0
  9 20  1  6
  3  6  1  0
 47 46  2  0
 48 47  2  0
 10 21  1  1
  5  4  1  0
 14 22  1  6
 50 49  2  0
 51 50  2  0
  5  6  1  0
 13 23  1  1
 53 52  2  0
 54 53  2  0
 17 24  1  0
  9 12  1  0
 24 25  1  0
 55 56  1  0
 10 14  1  0
 24 26  1  6
 13 11  1  0
 25 27  1  0
 11 12  1  0
 27 28  1  0
 55 60  1  0
 56 57  1  0
 57 58  1  0
 58 59  1  0
 59 60  1  0
 59 18  1  1
 13 14  1  0
 58 61  1  6
 28 29  1  0
 57 62  1  1
  1  2  1  0
 56 63  1  6
 29 30  1  0
 55 64  1  1
  1  4  1  0
 64 65  1  0
 29 31  1  0
 63 66  1  0
 66 67  1  0
  2  3  1  0
 17 32  1  6
  5  9  1  0
  6 33  1  6
 35 34  2  0
 66 71  1  0
 67 68  1  0
 68 69  1  0
 69 70  1  0
 70 71  1  0
 36 35  2  0
 71 72  1  6
  6  7  1  0
 70 73  1  1
 14 15  1  0
 69 74  1  6
 15 16  1  0
 68 75  1  1
 38 37  2  0
 75 76  1  0
 39 38  2  0
 66 77  1  6
 76 53  1  0
 16 17  1  0
 53 78  1  0
 65 35  1  0
 17 13  1  0
 35 79  1  0
 74 50  1  0
  7  8  1  0
 50 80  1  0
 73 47  1  0
 41 40  2  0
 47 81  1  0
 72 44  1  0
 42 41  2  0
 44 82  1  0
 62 41  1  0
  2 18  1  0
 41 83  1  0
 61 38  1  0
  8 10  1  0
 38 84  1  0
  5 19  1  1
  2 85  1  6
M  CHG  8  78  -1  79  -1  80  -1  81  -1  82  -1  83  -1  84  -1  86   1
M  CHG  6  87   1  88   1  89   1  90   1  91   1  92   1
M  END