
  Mrv0541 04051115152D          

 10  9  0  0  0  0            999 V2000
   -1.3627   -0.1237    0.0000 C   0  0  0  0  0  0  0  0  0  0  0  0
   -0.6482    0.2888    0.0000 C   0  0  0  0  0  0  0  0  0  0  0  0
    0.7807    0.2888    0.0000 C   0  0  0  0  0  0  0  0  0  0  0  0
    1.4952   -0.1237    0.0000 C   0  0  0  0  0  0  0  0  0  0  0  0
   -2.0772    0.2888    0.0000 O   0  0  0  0  0  0  0  0  0  0  0  0
   -1.3627   -0.9487    0.0000 O   0  0  0  0  0  0  0  0  0  0  0  0
   -0.6482    1.1138    0.0000 O   0  0  0  0  0  0  0  0  0  0  0  0
    2.2097    0.2888    0.0000 O   0  0  0  0  0  0  0  0  0  0  0  0
    0.0663   -0.1237    0.0000 N   0  0  0  0  0  0  0  0  0  0  0  0
    1.4952   -0.9488    0.0000 O   0  0  0  0  0  0  0  0  0  0  0  0
  1  2  1  0  0  0  0
  1  5  2  0  0  0  0
  1  6  1  0  0  0  0
  2  7  2  0  0  0  0
  2  9  1  0  0  0  0
  3  4  1  0  0  0  0
  3  9  1  0  0  0  0
  4  8  1  0  0  0  0
  4 10  2  0  0  0  0
M  END