
  SciTegic07291412072D

 60 66  0  0  0  0            999 V2000
   -0.1221   -2.9559    0.0000 N   0  0
    1.9601   -7.6201    0.0000 N   0  0
    0.6594   -3.2202    0.0000 C   0  0
    0.3358   -1.6023    0.0000 C   0  0
    1.3066   -6.4561    0.0000 C   0  0
    2.0562   -6.8008    0.0000 C   0  0
    1.1173   -1.8666    0.0000 N   0  0
    1.2791   -2.6756    0.0000 C   0  0  1  0  0  0
   -0.2839   -2.1469    0.0000 C   0  0  2  0  0  0
    1.1511   -7.7819    0.0000 C   0  0
    4.5669   -4.5421    0.0000 C   0  0
    0.7472   -7.0625    0.0000 C   0  0
    2.5460   -5.3669    0.0000 C   0  0
    3.9472   -5.0867    0.0000 C   0  0  1  0  0  0
    3.1657   -4.8223    0.0000 N   0  0
    2.0606   -2.9400    0.0000 C   0  0
    2.5665   -8.1795    0.0000 C   0  0
    5.3484   -4.8064    0.0000 N   0  0
    2.2224   -3.7490    0.0000 C   0  0
    1.7645   -5.1026    0.0000 C   0  0  1  0  0  0
    1.1448   -5.6472    0.0000 C   0  0
    1.6027   -4.2936    0.0000 N   0  0
   -0.8706   -2.6090    0.0000 C   0  0
    0.1740   -0.7933    0.0000 O   0  0
    0.8212   -4.0292    0.0000 O   0  0
   -1.0133   -1.8606    0.0000 C   0  0
    5.9681   -4.2618    0.0000 C   0  0
    4.1090   -5.8957    0.0000 C   0  0
    4.4051   -3.7331    0.0000 O   0  0
    2.7078   -6.1759    0.0000 O   0  0
    3.3541   -7.9340    0.0000 O   0  0
    3.6607  -13.0770    0.0000 N   0  0
    3.0039   -4.0133    0.0000 O   0  0
   -0.7309   -1.5704    0.0000 C   0  0
   -1.7099   -2.9679    0.0000 C   0  0
   -1.8171   -2.2125    0.0000 C   0  0
   -0.9756   -0.9645    0.0000 C   0  0
    6.7496   -4.5262    0.0000 C   0  0
    4.8905   -6.1600    0.0000 C   0  0
    0.7300   -8.4914    0.0000 C   0  0
   -0.0777   -7.0526    0.0000 C   0  0
    5.9548   -5.3658    0.0000 C   0  0
    2.3852   -8.9844    0.0000 C   0  0
    3.8420  -12.2722    0.0000 C   0  0
    5.0523   -6.9690    0.0000 C   0  0
    6.9114   -5.3352    0.0000 C   0  0
    7.3693   -3.9816    0.0000 C   0  0
    5.5102   -5.6154    0.0000 C   0  0
    2.9916   -9.5437    0.0000 C   0  0
    3.2356  -11.7128    0.0000 C   0  0
    3.4168  -10.9080    0.0000 C   0  0
    2.8104  -10.3486    0.0000 C   0  0
   -0.0949   -8.4814    0.0000 C   0  0
   -0.4988   -7.7621    0.0000 C   0  0
    8.1508   -4.2460    0.0000 C   0  0
    7.6929   -5.5996    0.0000 C   0  0
    6.2917   -5.8798    0.0000 C   0  0
    5.8338   -7.2334    0.0000 C   0  0
    6.4535   -6.6888    0.0000 C   0  0
    8.3126   -5.0550    0.0000 C   0  0
  2  6  1  0
  3  1  1  0
  9  4  1  1
  5 21  1  0
  6  5  2  0
  7  4  1  0
  8  3  1  0
  9  1  1  0
 10 12  2  0
 14 11  1  6
 12  5  1  0
 13 20  1  0
 14 15  1  0
 15 13  1  0
  8 16  1  1
 17  2  1  0
 18 11  1  0
 19 16  1  0
 20 22  1  0
 20 21  1  1
 22 19  1  0
 23  1  1  0
 24  4  2  0
 25  3  2  0
 26  9  1  0
 27 18  1  0
 28 14  1  0
 29 11  2  0
 30 13  2  0
 31 17  2  0
 32 44  1  0
 33 19  2  0
 34 23  1  0
 35 23  1  0
 36 35  1  0
 37 34  1  0
 38 27  1  0
 39 28  1  0
 40 10  1  0
 41 12  1  0
 42 18  1  0
 43 17  1  0
 44 50  1  0
 45 39  1  0
 46 38  2  0
 47 38  1  0
 48 39  2  0
 49 43  1  0
 50 51  1  0
 51 52  1  0
 52 49  1  0
 53 54  1  0
 54 41  2  0
 55 47  2  0
 56 46  1  0
 57 48  1  0
 58 45  2  0
 59 57  2  0
 60 55  1  0
  7  8  1  0
 36 26  1  0
 37 26  1  0
  2 10  1  0
 53 40  2  0
 59 58  1  0
 60 56  2  0
M  END