
          05080814042D 1   1.00000     0.00000     0

 42 48  0     1  0            999 V2000
   -3.2396  -15.8243    0.0000 C   0  0  0  0  0  0           0  0  0
   -3.2408  -16.6508    0.0000 C   0  0  0  0  0  0           0  0  0
   -2.5266  -17.0632    0.0000 C   0  0  0  0  0  0           0  0  0
   -2.5284  -15.4120    0.0000 C   0  0  0  0  0  0           0  0  0
   -1.8139  -15.8207    0.0000 C   0  0  0  0  0  0           0  0  0
   -1.8104  -16.6529    0.0000 C   0  0  0  0  0  0           0  0  0
   -1.0921  -17.0637    0.0000 C   0  0  0  0  0  0           0  0  0
   -1.0989  -15.3994    0.0000 C   0  0  0  0  0  0           0  0  0
   -0.3759  -15.8148    0.0000 C   0  0  2  0  0  0           0  0  0
   -0.3748  -16.6486    0.0000 C   0  0  2  0  0  0           0  0  0
    0.3438  -17.0623    0.0000 N   0  0  3  0  0  0           0  0  0
    1.0660  -16.6468    0.0000 C   0  0  0  0  0  0           0  0  0
    1.0649  -15.8129    0.0000 C   0  0  1  0  0  0           0  0  0
    0.3417  -15.3947    0.0000 C   0  0  0  0  0  0           0  0  0
    0.3437  -17.8864    0.0000 C   0  0  0  0  0  0           0  0  0
    1.7786  -15.4007    0.0000 C   0  0  0  0  0  0           0  0  0
    2.4924  -15.8126    0.0000 N   0  0  3  0  0  0           0  0  0
    1.7784  -14.5766    0.0000 O   0  0  0  0  0  0           0  0  0
    2.4869  -16.6414    0.0000 C   0  0  0  0  0  0           0  0  0
    3.1965  -17.0531    0.0000 C   0  0  0  0  0  0           0  0  0
    3.9125  -16.6445    0.0000 N   0  0  3  0  0  0           0  0  0
    3.9143  -15.8194    0.0000 C   0  0  0  0  0  0           0  0  0
    3.2001  -15.4031    0.0000 C   0  0  0  0  0  0           0  0  0
   -0.3829  -17.4726    0.0000 H   0  0  0  0  0  0           0  0  0
   -0.3829  -14.9878    0.0000 H   0  0  0  0  0  0           0  0  0
    4.6248  -17.0590    0.0000 C   0  0  0  0  0  0           0  0  0
    4.6184  -17.8815    0.0000 C   0  0  0  0  0  0           0  0  0
    5.3299  -18.2960    0.0000 C   0  0  0  0  0  0           0  0  0
    5.3343  -16.6473    0.0000 N   0  0  0  0  0  0           0  0  0
   -2.5311  -14.5874    0.0000 O   0  0  0  0  0  0           0  0  0
   -3.2460  -14.1775    0.0000 C   0  0  0  0  0  0           0  0  0
    6.8319  -16.8064    0.0000 N   0  0  0  0  0  0           0  0  0
    6.0462  -17.0580    0.0000 C   0  0  0  0  0  0           0  0  0
    6.0438  -17.8836    0.0000 C   0  0  0  0  0  0           0  0  0
    6.8290  -18.1398    0.0000 N   0  0  0  0  0  0           0  0  0
    7.3140  -17.4715    0.0000 S   0  0  0  0  0  0           0  0  0
   -3.9585  -14.5916    0.0000 C   0  0  0  0  0  0           0  0  0
   -4.6702  -14.1808    0.0000 C   0  0  0  0  0  0           0  0  0
   -5.3821  -14.5943    0.0000 C   0  0  0  0  0  0           0  0  0
   -5.3801  -15.4193    0.0000 C   0  0  0  0  0  0           0  0  0
   -4.6602  -15.8290    0.0000 C   0  0  0  0  0  0           0  0  0
   -3.9512  -15.4131    0.0000 C   0  0  0  0  0  0           0  0  0
  5  4  2  0     0  0
  4  1  1  0     0  0
  5  6  1  0     0  0
 17 23  1  0     0  0
 19 20  1  0     0  0
 20 21  1  0     0  0
 21 22  1  0     0  0
 22 23  1  0     0  0
 10 24  1  1     0  0
  2  3  1  0     0  0
  9 25  1  6     0  0
  3  6  2  0     0  0
 21 26  1  0     0  0
  9 14  1  0     0  0
 26 27  1  0     0  0
 10 11  1  0     0  0
 27 28  2  0     0  0
 28 34  1  0     0  0
 11 12  1  0     0  0
 33 29  1  0     0  0
 29 26  2  0     0  0
 12 13  1  0     0  0
 13 14  1  0     0  0
 30 31  1  0     0  0
  4 30  1  0     0  0
 33 34  1  0     0  0
  1  2  2  0     0  0
 11 15  1  0     0  0
  5  8  1  0     0  0
 13 16  1  1     0  0
  6  7  1  0     0  0
 32 33  2  0     0  0
 34 35  2  0     0  0
 35 36  1  0     0  0
 36 32  1  0     0  0
 16 17  1  0     0  0
 31 37  1  0     0  0
  7 10  1  0     0  0
 37 38  2  0     0  0
 16 18  2  0     0  0
 38 39  1  0     0  0
 17 19  1  0     0  0
 39 40  2  0     0  0
  9  8  1  0     0  0
 40 41  1  0     0  0
  9 10  1  0     0  0
 41 42  2  0     0  0
 42 37  1  0     0  0
M  END