
  SciTegic09261414462D

 16 17  0  0  0  0            999 V2000
    2.7349   -7.2804    0.0000 N   0  0
    2.7338   -8.0999    0.0000 C   0  0
    3.4418   -8.5089    0.0000 C   0  0
    4.1515   -8.0995    0.0000 C   0  0
    4.1487   -7.2768    0.0000 N   0  0
    3.4400   -6.8715    0.0000 C   0  0
    3.4376   -6.0543    0.0000 N   0  0
    2.0258   -8.5080    0.0000 C   0  0
    1.3184   -8.0988    0.0000 C   0  0
    2.0251   -9.3252    0.0000 C   0  0
    4.8598   -8.5069    0.0000 N   0  0
    4.9476   -9.3216    0.0000 C   0  0
    5.7472   -9.4903    0.0000 C   0  0
    6.1547   -8.7819    0.0000 C   0  0  2  0  0  0
    5.6068   -8.1755    0.0000 C   0  0
    6.9673   -8.6951    0.0000 N   0  0
  1  2  2  0
  2  3  1  0
  3  4  2  0
  4  5  1  0
  5  6  2  0
  6  1  1  0
  6  7  1  0
  2  8  1  0
  8  9  1  0
  8 10  1  0
  4 11  1  0
 11 12  1  0
 12 13  1  0
 13 14  1  0
 14 15  1  0
 15 11  1  0
 14 16  1  6
M  END