
          11290714382D 1   1.00000     0.00000     0

 61 65  0     1  0            999 V2000
    4.3139  -28.9709    0.0000 C   0  0  0  0  0  0           0  0  0
    5.0382  -29.3660    0.0000 C   0  0  0  0  0  0           0  0  0
    5.7376  -28.9364    0.0000 N   0  0  3  0  0  0           0  0  0
    5.7201  -28.1158    0.0000 C   0  0  0  0  0  0           0  0  0
    4.9958  -27.7208    0.0000 C   0  0  0  0  0  0           0  0  0
    4.2891  -28.1463    0.0000 C   0  0  3  0  0  0           0  0  0
    4.2627  -27.3245    0.0000 C   0  0  0  0  0  0           0  0  0
    3.5815  -28.5705    0.0000 N   0  0  0  0  0  0           0  0  0
    4.9636  -26.8893    0.0000 O   0  0  0  0  0  0           0  0  0
    3.5354  -26.9352    0.0000 N   0  0  0  0  0  0           0  0  0
    6.4619  -29.3315    0.0000 C   0  0  0  0  0  0           0  0  0
    3.5089  -26.1106    0.0000 C   0  0  2  0  0  0           0  0  0
    2.7816  -25.7212    0.0000 C   0  0  0  0  0  0           0  0  0
    4.2098  -25.6754    0.0000 C   0  0  0  0  0  0           0  0  0
    4.1833  -24.8508    0.0000 C   0  0  0  0  0  0           0  0  0
    4.8842  -24.4156    0.0000 N   0  0  0  0  0  0           0  0  0
    3.4560  -24.4614    0.0000 O   0  0  0  0  0  0           0  0  0
    2.7551  -24.8966    0.0000 O   0  0  0  0  0  0           0  0  0
    2.0807  -26.1564    0.0000 N   0  0  0  0  0  0           0  0  0
    1.3534  -25.7671    0.0000 C   0  0  0  0  0  0           0  0  0
    0.6525  -26.2023    0.0000 C   0  0  0  0  0  0           0  0  0
   -0.0748  -25.8129    0.0000 C   0  0  0  0  0  0           0  0  0
   -0.7757  -26.2481    0.0000 C   0  0  0  0  0  0           0  0  0
   -1.5003  -25.8561    0.0000 C   0  0  0  0  0  0           0  0  0
   -1.4423  -27.5051    0.0000 C   0  0  0  0  0  0           0  0  0
   -0.7449  -27.0684    0.0000 C   0  0  0  0  0  0           0  0  0
   -2.1746  -27.1161    0.0000 C   0  0  0  0  0  0           0  0  0
   -2.1982  -26.2920    0.0000 C   0  0  0  0  0  0           0  0  0
   -2.9224  -25.9021    0.0000 C   0  0  0  0  0  0           0  0  0
   -3.6236  -26.3352    0.0000 C   0  0  0  0  0  0           0  0  0
   -3.5960  -27.1623    0.0000 C   0  0  0  0  0  0           0  0  0
   -2.8713  -27.5484    0.0000 C   0  0  0  0  0  0           0  0  0
    2.8603  -28.1698    0.0000 C   0  0  0  0  0  0           0  0  0
    2.1527  -28.5940    0.0000 C   0  0  2  0  0  0           0  0  0
    2.8468  -27.3449    0.0000 O   0  0  0  0  0  0           0  0  0
    1.4316  -28.1933    0.0000 C   0  0  0  0  0  0           0  0  0
    0.7240  -28.6174    0.0000 C   0  0  0  0  0  0           0  0  0
    0.0034  -28.2150    0.0000 C   0  0  0  0  0  0           0  0  0
   -0.7037  -28.6385    0.0000 C   0  0  0  0  0  0           0  0  0
   -0.6906  -29.4643    0.0000 C   0  0  0  0  0  0           0  0  0
    0.0356  -29.8648    0.0000 C   0  0  0  0  0  0           0  0  0
    0.7397  -29.4390    0.0000 C   0  0  0  0  0  0           0  0  0
    2.1663  -29.4189    0.0000 C   0  0  0  0  0  0           0  0  0
    2.8874  -29.8196    0.0000 C   0  0  0  0  0  0           0  0  0
    2.9043  -30.6451    0.0000 O   0  0  0  0  0  0           0  0  0
    3.5983  -29.3961    0.0000 O   0  0  0  0  0  0           0  0  0
   -1.3976  -29.8894    0.0000 C   0  0  0  0  0  0           0  0  0
   -2.1193  -29.4897    0.0000 P   0  0  3  0  0  0           0  0  0
   -2.8375  -29.0750    0.0000 O   0  0  0  0  0  0           0  0  0
   -2.5255  -30.2078    0.0000 O   0  0  0  0  0  0           0  0  0
   -1.7094  -28.7737    0.0000 O   0  0  0  0  0  0           0  0  0
    6.4819  -30.1563    0.0000 O   0  0  0  0  0  0           0  0  0
    7.1661  -28.9018    0.0000 C   0  0  0  0  0  0           0  0  0
    7.8904  -29.2969    0.0000 C   0  0  0  0  0  0           0  0  0
    8.5946  -28.8671    0.0000 C   0  0  0  0  0  0           0  0  0
    9.3189  -29.2622    0.0000 C   0  0  0  0  0  0           0  0  0
    9.3338  -30.0843    0.0000 C   0  0  0  0  0  0           0  0  0
   10.0572  -30.4793    0.0000 C   0  0  0  0  0  0           0  0  0
   10.7625  -30.0495    0.0000 C   0  0  0  0  0  0           0  0  0
   10.7397  -29.2206    0.0000 C   0  0  0  0  0  0           0  0  0
   10.0158  -28.8293    0.0000 C   0  0  0  0  0  0           0  0  0
 29 30  1  0     0  0
 14 15  1  0     0  0
 30 31  2  0     0  0
  1  2  1  0     0  0
 31 32  1  0     0  0
 32 27  2  0     0  0
 15 16  1  0     0  0
  8 33  1  0     0  0
  6  8  1  0     0  0
 33 34  1  0     0  0
 15 17  2  0     0  0
 33 35  2  0     0  0
  1  6  1  0     0  0
 34 36  1  0     0  0
 13 18  2  0     0  0
 36 37  1  0     0  0
  7  9  2  0     0  0
 37 38  2  0     0  0
 13 19  1  0     0  0
 38 39  1  0     0  0
  2  3  1  0     0  0
 39 40  2  0     0  0
 19 20  1  0     0  0
 40 41  1  0     0  0
  7 10  1  0     0  0
 41 42  2  0     0  0
 42 37  1  0     0  0
 20 21  1  0     0  0
 34 43  1  1     0  0
  3  4  1  0     0  0
 43 44  1  0     0  0
 21 22  1  0     0  0
  3 11  1  0     0  0
 44 45  1  0     0  0
 44 46  2  0     0  0
 22 23  1  0     0  0
 40 47  1  0     0  0
  4  5  1  0     0  0
 47 48  1  0     0  0
 23 24  2  0     0  0
 48 49  2  0     0  0
 24 28  1  0     0  0
 48 50  1  0     0  0
 10 12  1  0     0  0
 48 51  1  0     0  0
 27 25  1  0     0  0
 11 52  2  0     0  0
  5  6  1  0     0  0
 11 53  1  0     0  0
 25 26  2  0     0  0
 53 54  1  0     0  0
 26 23  1  0     0  0
 54 55  1  0     0  0
 12 13  1  0     0  0
 55 56  1  0     0  0
 56 57  2  0     0  0
 27 28  1  0     0  0
 57 58  1  0     0  0
 12 14  1  6     0  0
 58 59  2  0     0  0
 28 29  2  0     0  0
 59 60  1  0     0  0
  6  7  1  0     0  0
 60 61  2  0     0  0
 61 56  1  0     0  0
M  END