
  SciTegic12231509382D

 23 25  0  0  0  0            999 V2000
    1.7755   -0.7766    0.0000 S   0  0
    2.1880   -1.4911    0.0000 O   0  0
    2.4900   -0.3641    0.0000 O   0  0
    0.1255   -2.2055    0.0000 O   0  5
    1.3630   -1.4911    0.0000 O   0  0
   -2.3495    2.0813    0.0000 O   0  0
   -3.1745    0.6523    0.0000 O   0  0
   -1.1120    1.3668    0.0000 N   0  0
   -1.9370   -0.0621    0.0000 N   0  0
    0.5380   -1.4911    0.0000 N   0  3
    1.0611   -1.1891    0.0000 N   0  0
    0.5380   -0.0621    0.0000 C   0  0
    0.1255    0.6523    0.0000 C   0  0
   -0.6995    0.6523    0.0000 C   0  0
    0.1255   -0.7766    0.0000 C   0  0
    1.3630   -0.0621    0.0000 C   0  0
   -1.1120   -0.0621    0.0000 C   0  0
   -0.6995   -0.7766    0.0000 C   0  0
    0.5380    1.3668    0.0000 C   0  0
    1.7755    0.6523    0.0000 C   0  0
   -1.9370    1.3668    0.0000 C   0  0
   -2.3495    0.6523    0.0000 C   0  0
    1.3630    1.3668    0.0000 C   0  0
  1  2  2  0
  1  3  2  0
  1 11  1  0
  1 16  1  0
  4 10  1  0
  5 10  2  0
  6 21  1  0
  7 22  1  0
  8 14  1  0
  8 21  2  0
  9 17  1  0
  9 22  2  0
 10 15  1  0
 12 13  1  0
 12 15  2  0
 12 16  1  0
 13 14  2  0
 13 19  1  0
 14 17  1  0
 15 18  1  0
 16 20  2  0
 17 18  2  0
 19 23  2  0
 20 23  1  0
 21 22  1  0
M  CHG  2   4  -1  10   1
M  END