
  CDK    12/20/10,15:21

 36 40  0  0  0  0  0  0  0  0999 V2000
    4.8777  -11.9250    0.0000 C   0  0  0  0  0  0  0  0  0  0  0  0
    4.8766  -12.7523    0.0000 C   0  0  0  0  0  0  0  0  0  0  0  0
    5.5914  -13.1652    0.0000 C   0  0  0  0  0  0  0  0  0  0  0  0
    6.3078  -12.7519    0.0000 C   0  0  0  0  0  0  0  0  0  0  0  0
    6.3050  -11.9213    0.0000 N   0  0  0  0  0  0  0  0  0  0  0  0
    5.5896  -11.5122    0.0000 C   0  0  0  0  0  0  0  0  0  0  0  0
    4.1618  -13.1643    0.0000 C   0  0  0  0  0  0  0  0  0  0  0  0
    3.4476  -12.7512    0.0000 N   0  0  0  0  0  0  0  0  0  0  0  0
    3.4523  -11.9220    0.0000 C   0  0  0  0  0  0  0  0  0  0  0  0
    2.7422  -11.5090    0.0000 C   0  0  0  0  0  0  0  0  0  0  0  0
    2.0250  -11.9174    0.0000 C   0  0  0  0  0  0  0  0  0  0  0  0
    2.0224  -12.7434    0.0000 C   0  0  0  0  0  0  0  0  0  0  0  0
    2.7370  -13.1609    0.0000 C   0  0  0  0  0  0  0  0  0  0  0  0
    1.3124  -11.5017    0.0000 C   0  0  0  0  0  0  0  0  0  0  0  0
    1.3162  -10.6767    0.0000 O   0  0  0  0  0  0  0  0  0  0  0  0
    0.5961  -11.9109    0.0000 N   0  0  0  0  0  0  0  0  0  0  0  0
   -0.1200  -11.4958    0.0000 C   0  0  0  0  0  0  0  0  0  0  0  0
   -0.8342  -11.9015    0.0000 C   0  0  0  0  0  0  0  0  0  0  0  0
   -0.8422  -12.7268    0.0000 C   0  0  0  0  0  0  0  0  0  0  0  0
   -0.1298  -13.1448    0.0000 C   0  0  0  0  0  0  0  0  0  0  0  0
    0.5906  -12.7374    0.0000 C   0  0  0  0  0  0  0  0  0  0  0  0
   -1.5601  -13.1333    0.0000 N   0  0  0  0  0  0  0  0  0  0  0  0
   -2.3127  -12.7907    0.0000 C   0  0  0  0  0  0  0  0  0  0  0  0
   -2.8699  -13.3992    0.0000 N   0  0  0  0  0  0  0  0  0  0  0  0
   -1.6550  -13.9522    0.0000 C   0  0  0  0  0  0  0  0  0  0  0  0
   -2.4606  -14.1190    0.0000 C   0  0  0  0  0  0  0  0  0  0  0  0
   -2.7175  -14.8986    0.0000 C   0  0  0  0  0  0  0  0  0  0  0  0
   -2.1697  -15.5121    0.0000 C   0  0  0  0  0  0  0  0  0  0  0  0
   -1.3618  -15.3408    0.0000 C   0  0  0  0  0  0  0  0  0  0  0  0
   -1.1087  -14.5614    0.0000 C   0  0  0  0  0  0  0  0  0  0  0  0
   -2.4775  -11.9823    0.0000 O   0  0  0  0  0  0  0  0  0  0  0  0
   -3.6897  -13.3068    0.0000 C   0  0  0  0  0  0  0  0  0  0  0  0
   -4.0196  -12.5506    0.0000 C   0  0  0  0  0  0  0  0  0  0  0  0
   -4.8394  -12.4582    0.0000 O   0  0  0  0  0  0  0  0  0  0  0  0
   -5.1693  -11.7021    0.0000 C   0  0  0  0  0  0  0  0  0  0  0  0
   -5.9891  -11.6097    0.0000 C   0  0  0  0  0  0  0  0  0  0  0  0
  8  9  1  0  0  0  0 
  4  5  1  0  0  0  0 
  2  3  1  0  0  0  0 
 16 21  1  0  0  0  0 
 17 18  1  0  0  0  0 
 18 19  1  0  0  0  0 
 19 20  1  0  0  0  0 
 20 21  1  0  0  0  0 
  5  6  2  0  0  0  0 
 19 22  1  0  0  0  0 
 22 23  1  0  0  0  0 
  6  1  1  0  0  0  0 
  8 13  1  0  0  0  0 
 23 24  1  0  0  0  0 
 24 26  1  0  0  0  0 
 25 22  1  0  0  0  0 
  9 10  1  0  0  0  0 
 10 11  1  0  0  0  0 
 25 26  2  0  0  0  0 
 11 12  1  0  0  0  0 
 26 27  1  0  0  0  0 
 12 13  1  0  0  0  0 
 27 28  2  0  0  0  0 
  1  2  2  0  0  0  0 
 28 29  1  0  0  0  0 
 11 14  1  0  0  0  0 
 29 30  2  0  0  0  0 
 30 25  1  0  0  0  0 
  2  7  1  0  0  0  0 
 23 31  2  0  0  0  0 
 14 15  2  0  0  0  0 
 24 32  1  0  0  0  0 
  3  4  2  0  0  0  0 
 32 33  1  0  0  0  0 
 14 16  1  0  0  0  0 
 33 34  1  0  0  0  0 
 16 17  1  0  0  0  0 
 34 35  1  0  0  0  0 
  7  8  1  0  0  0  0 
 35 36  1  0  0  0  0 
M  END