
  SciTegic12231509382D

 33 36  0  0  1  0            999 V2000
    5.3958   -4.9375    0.0000 C   0  0  1  0  0  0
    2.9583   -5.3708    0.0000 C   0  0  2  0  0  0
    5.1167   -5.7125    0.0000 C   0  0  2  0  0  0
    3.7708   -5.2292    0.0000 C   0  0  2  0  0  0
    4.3042   -5.8583    0.0000 C   0  0  1  0  0  0
    6.2208   -4.9625    0.0000 C   0  0  2  0  0  0
    2.6792   -6.1500    0.0000 C   0  0  2  0  0  0
    4.8625   -4.3083    0.0000 C   0  0
    4.0542   -4.4500    0.0000 C   0  0
    5.7667   -6.2208    0.0000 C   0  0
    2.4292   -4.7417    0.0000 C   0  0
    6.4500   -5.7583    0.0000 C   0  0
    4.0250   -6.6333    0.0000 C   0  0
    8.8667   -3.8875    0.0000 C   0  0
    3.2125   -6.7792    0.0000 C   0  0
    1.8667   -6.2958    0.0000 C   0  0
    9.3750   -3.2375    0.0000 O   0  0
    6.7292   -4.3125    0.0000 C   0  0  1  0  0  0
    7.5458   -4.4250    0.0000 C   0  0
    8.0500   -3.7750    0.0000 C   0  0
    5.7542   -4.1958    0.0000 C   0  0
    1.6167   -4.8875    0.0000 C   0  0
    1.3375   -5.6625    0.0000 C   0  0  1  0  0  0
    3.2417   -4.5958    0.0000 C   0  0
    9.1792   -4.6500    0.0000 O   0  0
    0.5250   -5.8083    0.0000 O   0  0
    6.4167   -3.5500    0.0000 C   0  0
    5.2042   -6.5333    0.0000 H   0  0
    4.5875   -6.6333    0.0000 H   0  0
    3.4875   -4.4542    0.0000 H   0  0
    6.1458   -4.1417    0.0000 H   0  0
    2.4000   -6.9250    0.0000 H   0  0
    7.0375   -5.0750    0.0000 H   0  0
  2  4  1  0
  3  1  1  0
  4  9  1  0
  5  3  1  0
  6  1  1  0
  7  2  1  0
  8  1  1  0
  9  8  1  0
 10  3  1  0
 11  2  1  0
 12  6  1  0
 13  5  1  0
 14 20  1  0
 15 13  1  0
 16  7  1  0
 17 14  2  0
 18  6  1  0
 19 18  1  0
 20 19  1  0
  1 21  1  1
 22 11  1  0
 23 22  1  0
  2 24  1  1
 25 14  1  0
 23 26  1  6
 18 27  1  1
  3 28  1  6
  5 29  1  1
  4 30  1  6
  6 31  1  6
  7 32  1  1
 18 33  1  1
 12 10  1  0
  4  5  1  0
 15  7  1  0
 23 16  1  0
M  END