
          11280715472D 1   1.00000     0.00000     0

 24 25  0     0  0            999 V2000
    1.9875    2.3958    0.0000 N   0  0  3  0  0  0           0  0  0
    1.2667    2.8083    0.0000 C   0  0  0  0  0  0           0  0  0
    1.9875    1.5708    0.0000 C   0  0  0  0  0  0           0  0  0
    0.5542    2.3958    0.0000 C   0  0  0  0  0  0           0  0  0
    1.2792    1.1583    0.0000 C   0  0  0  0  0  0           0  0  0
   -0.1583    1.1583    0.0000 O   0  0  0  0  0  0           0  0  0
    2.7000    2.8083    0.0000 C   0  0  3  0  0  0           0  0  0
   -0.8708   -2.5542    0.0000 N   0  0  3  0  0  0           0  0  0
    0.5542    1.5708    0.0000 C   0  0  3  0  0  0           0  0  0
   -3.0083   -2.1542    0.0000 N   0  0  3  0  0  0           0  0  0
   -0.1583    0.3333    0.0000 C   0  0  0  0  0  0           0  0  0
   -0.1458   -2.1417    0.0000 C   0  0  0  0  0  0           0  0  0
   -0.1458   -1.3167    0.0000 C   0  0  0  0  0  0           0  0  0
   -1.5833   -2.1417    0.0000 C   0  0  0  0  0  0           0  0  0
   -2.2958   -2.5667    0.0000 C   0  0  0  0  0  0           0  0  0
    0.5625   -0.0792    0.0000 C   0  0  0  0  0  0           0  0  0
   -0.8708   -0.0792    0.0000 C   0  0  0  0  0  0           0  0  0
   -0.8708   -0.9042    0.0000 C   0  0  0  0  0  0           0  0  0
    0.5625   -0.9042    0.0000 C   0  0  0  0  0  0           0  0  0
   -0.8125   -3.3792    0.0000 C   0  0  0  0  0  0           0  0  0
   -3.7208   -2.5667    0.0000 C   0  0  0  0  0  0           0  0  0
   -3.0125   -1.3167    0.0000 C   0  0  0  0  0  0           0  0  0
    2.7042    3.6333    0.0000 C   0  0  0  0  0  0           0  0  0
    3.4167    2.3958    0.0000 C   0  0  0  0  0  0           0  0  0
  2  1  1  0     0  0
  3  1  1  0     0  0
  4  2  1  0     0  0
  5  3  1  0     0  0
  6  9  1  0     0  0
  7  1  1  0     0  0
  8 12  1  0     0  0
  9  5  1  0     0  0
 10 15  1  0     0  0
 11  6  1  0     0  0
 12 13  1  0     0  0
 13 18  1  0     0  0
 14  8  1  0     0  0
 15 14  1  0     0  0
 16 11  2  0     0  0
 17 11  1  0     0  0
 18 17  2  0     0  0
 19 16  1  0     0  0
 20  8  1  0     0  0
 21 10  1  0     0  0
 22 10  1  0     0  0
 23  7  1  0     0  0
 24  7  1  0     0  0
  9  4  1  0     0  0
 13 19  2  0     0  0
M  END