
  SciTegic01161211222D

 19 21  0  0  0  0            999 V2000
   -5.4159  -22.5085    0.0000 C   0  0
   -5.4171  -23.3324    0.0000 C   0  0
   -4.7053  -23.7436    0.0000 C   0  0
   -4.7071  -22.0976    0.0000 C   0  0
   -3.9947  -22.5050    0.0000 C   0  0
   -3.9914  -23.3345    0.0000 C   0  0
   -3.2752  -23.7441    0.0000 C   0  0
   -2.5578  -23.3287    0.0000 C   0  0
   -3.2820  -22.0849    0.0000 C   0  0  1  0  0  0
   -2.5607  -22.5010    0.0000 C   0  0  2  0  0  0
   -1.9422  -21.9436    0.0000 N   0  0
   -2.2811  -21.1831    0.0000 C   0  0
   -3.1091  -21.2705    0.0000 C   0  0
   -1.1200  -21.9372    0.0000 C   0  0
   -0.7141  -21.2230    0.0000 C   0  0
    0.1074  -21.2174    0.0000 C   0  0
   -3.9997  -21.6705    0.0000 H   0  0
   -1.7717  -22.7119    0.0000 H   0  0
   -4.7067  -24.5651    0.0000 O   0  0
  9 10  1  0
  5  4  2  0
  4  1  1  0
  5  6  1  0
  2  3  1  0
 10 11  1  0
 11 12  1  0
 12 13  1  0
 13  9  1  0
  3  6  2  0
 11 14  1  0
  1  2  2  0
 14 15  1  0
  5  9  1  0
 15 16  2  0
  6  7  1  0
  9 17  1  1
  7  8  1  0
 10 18  1  1
  8 10  1  0
  3 19  1  0
M  END