
          11280715522D 1   1.00000     0.00000     0

 32 35  0     0  0            999 V2000
    7.0944  -22.2333    0.0000 C   0  0  0  0  0  0           0  0  0
    7.0932  -23.0607    0.0000 C   0  0  0  0  0  0           0  0  0
    7.8081  -23.4735    0.0000 C   0  0  0  0  0  0           0  0  0
    7.8063  -21.8205    0.0000 C   0  0  0  0  0  0           0  0  0
    8.5216  -22.2297    0.0000 C   0  0  0  0  0  0           0  0  0
    8.5224  -23.0565    0.0000 C   0  0  0  0  0  0           0  0  0
    9.2377  -23.4675    0.0000 N   0  0  0  0  0  0           0  0  0
    9.9527  -23.0527    0.0000 C   0  0  0  0  0  0           0  0  0
    9.9480  -22.2227    0.0000 C   0  0  0  0  0  0           0  0  0
    9.2321  -21.8155    0.0000 N   0  0  0  0  0  0           0  0  0
   10.6688  -23.4624    0.0000 O   0  0  0  0  0  0           0  0  0
   10.6599  -21.8059    0.0000 C   0  0  0  0  0  0           0  0  0
   11.3769  -22.2140    0.0000 N   0  0  0  0  0  0           0  0  0
   10.6549  -20.9809    0.0000 O   0  0  0  0  0  0           0  0  0
   12.0888  -21.7972    0.0000 C   0  0  0  0  0  0           0  0  0
   12.8035  -22.2088    0.0000 C   0  0  0  0  0  0           0  0  0
   13.5150  -21.7926    0.0000 C   0  0  0  0  0  0           0  0  0
   13.5104  -20.9667    0.0000 C   0  0  0  0  0  0           0  0  0
   12.7884  -20.5588    0.0000 C   0  0  0  0  0  0           0  0  0
   12.0799  -20.9773    0.0000 C   0  0  0  0  0  0           0  0  0
   14.2218  -20.5490    0.0000 O   0  0  0  0  0  0           0  0  0
   10.6720  -24.2874    0.0000 C   0  0  0  0  0  0           0  0  0
   12.7805  -19.7338    0.0000 C   0  0  0  0  0  0           0  0  0
   13.4910  -19.3145    0.0000 N   0  0  3  0  0  0           0  0  0
   14.2094  -19.7268    0.0000 C   0  0  0  0  0  0           0  0  0
   14.9178  -19.3109    0.0000 C   0  0  0  0  0  0           0  0  0
   14.9141  -18.4856    0.0000 N   0  0  3  0  0  0           0  0  0
   14.1959  -18.0778    0.0000 C   0  0  0  0  0  0           0  0  0
   13.4813  -18.4953    0.0000 C   0  0  0  0  0  0           0  0  0
   15.6262  -18.0689    0.0000 C   0  0  0  0  0  0           0  0  0
   16.3430  -18.4773    0.0000 C   0  0  0  0  0  0           0  0  0
    9.9592  -24.7027    0.0000 C   0  0  0  0  0  0           0  0  0
  1  2  2  0     0  0
 15 16  2  0     0  0
  7  8  2  0     0  0
 16 17  1  0     0  0
  5  4  2  0     0  0
 17 18  2  0     0  0
  8  9  1  0     0  0
 18 19  1  0     0  0
  4  1  1  0     0  0
 19 20  2  0     0  0
 20 15  1  0     0  0
  9 10  2  0     0  0
 18 21  1  0     0  0
 10  5  1  0     0  0
 11 22  1  0     0  0
 19 23  1  0     0  0
  8 11  1  0     0  0
 23 24  1  0     0  0
 24 25  1  0     0  0
  2  3  1  0     0  0
  9 12  1  0     0  0
  5  6  1  0     0  0
 12 13  1  0     0  0
  3  6  2  0     0  0
 24 29  1  0     0  0
 25 26  1  0     0  0
 26 27  1  0     0  0
 27 28  1  0     0  0
 28 29  1  0     0  0
 12 14  2  0     0  0
 27 30  1  0     0  0
  6  7  1  0     0  0
 30 31  1  0     0  0
 13 15  1  0     0  0
 22 32  1  0     0  0
M  END