
  SciTegic12201609442D

 22 22  0  0  0  0            999 V2000
    1.2990   -0.7500    0.0000 C   0  0
    2.5973   -1.5031    0.0000 C   0  0
    2.5951   -3.0039    0.0000 N   0  0
    3.8933   -3.7570    0.0000 C   0  0
    3.8912   -5.2578    0.0000 N   0  0
    4.9336   -3.1588    0.0000 O   0  0
    5.1894   -6.0109    0.0000 C   0  0  2  0  0  0
    5.1873   -7.5117    0.0000 C   0  0
    6.4855   -8.2648    0.0000 O   0  0
    4.1470   -8.1099    0.0000 O   0  0
    1.2990    0.7500    0.0000 C   0  0
    0.0000    1.5000    0.0000 C   0  0
   -1.2990    0.7500    0.0000 C   0  0
   -1.2990   -0.7500    0.0000 C   0  0
    0.0000   -1.5000    0.0000 C   0  0
   -2.3383    1.3500    0.0000 N   0  0
    6.4833   -9.7656    0.0000 C   0  0
    7.5213  -10.3678    0.0000 C   0  0
    6.4920   -5.2654    0.0000 C   0  0
    7.7894   -6.0199    0.0000 C   0  0
    9.0920   -5.2745    0.0000 S   0  0
   10.1293   -5.8778    0.0000 C   0  0
  1  2  1  0
  2  3  1  0
  3  4  1  0
  4  5  1  0
  4  6  2  0
  5  7  1  0
  7  8  1  0
  8  9  1  0
  8 10  2  0
  1 11  2  0
 11 12  1  0
 12 13  2  0
 13 14  1  0
 14 15  2  0
 15  1  1  0
 13 16  1  0
  9 17  1  0
 17 18  1  0
  7 19  1  1
 19 20  1  0
 20 21  1  0
 21 22  1  0
M  END