
  SciTegic12131615182D

 31 34  0  0  0  0            999 V2000
    1.2990   -0.7500    0.0000 C   0  0
    1.2990    0.7500    0.0000 C   0  0
    0.0000    1.5000    0.0000 C   0  0
   -1.2990    0.7500    0.0000 C   0  0
   -1.2990   -0.7500    0.0000 C   0  0
    0.0000   -1.5000    0.0000 C   0  0
    2.5987    1.5004    0.0000 C   0  0
   -2.5972   -1.5031    0.0000 O   0  0
   -2.5951   -3.0039    0.0000 C   0  0
   -3.8933   -3.7570    0.0000 C   0  0
   -3.8912   -5.2578    0.0000 C   0  0
   -5.1894   -6.0109    0.0000 C   0  0
   -5.1872   -7.5117    0.0000 C   0  0
   -6.4854   -8.2648    0.0000 C   0  0
   -6.4833   -9.7657    0.0000 C   0  0
   -7.7815  -10.5188    0.0000 O   0  0
    3.9511    0.8815    0.0000 N   0  0
    4.9530    1.9978    0.0000 C   0  0
    4.2010    3.2957    0.0000 C   0  0
    2.7342    2.9815    0.0000 N   0  0
   -7.7793  -12.0196    0.0000 C   0  0
   -9.0758  -12.7742    0.0000 C   0  0
   -9.0706  -14.2742    0.0000 C   0  0
   -7.7689  -15.0197    0.0000 C   0  0
   -6.4725  -14.2652    0.0000 C   0  0
   -6.4777  -12.7652    0.0000 C   0  0
   -7.7637  -16.5204    0.0000 C   0  0
   -8.9729  -17.3864    0.0000 N   0  0
   -8.5022  -18.8106    0.0000 C   0  0
   -7.0022  -18.8030    0.0000 C   0  0
   -6.5459  -17.3741    0.0000 N   0  0
  1  2  2  0
  2  3  1  0
  3  4  2  0
  4  5  1  0
  5  6  2  0
  6  1  1  0
  2  7  1  0
  5  8  1  0
  8  9  1  0
  9 10  1  0
 10 11  1  0
 11 12  1  0
 12 13  1  0
 13 14  1  0
 14 15  1  0
 15 16  1  0
  7 17  1  0
 17 18  1  0
 18 19  1  0
 19 20  1  0
 20  7  2  0
 16 21  1  0
 21 22  2  0
 22 23  1  0
 23 24  2  0
 24 25  1  0
 25 26  2  0
 26 21  1  0
 27 28  2  0
 28 29  1  0
 29 30  1  0
 30 31  1  0
 31 27  1  0
 24 27  1  0
M  END