
          11280714442D 1   1.00000     0.00000     0

 19 19  0     0  0            999 V2000
    5.2542   -6.1750    0.0000 C   0  0  0  0  0  0           0  0  0
    5.9542   -5.7292    0.0000 C   0  0  0  0  0  0           0  0  0
    6.6792   -6.1125    0.0000 O   0  0  0  0  0  0           0  0  0
    4.5250   -5.7917    0.0000 C   0  0  0  0  0  0           0  0  0
    5.9167   -4.9042    0.0000 O   0  0  0  0  0  0           0  0  0
    9.5417   -5.9792    0.0000 N   0  0  0  0  0  0           0  0  0
   10.2375   -5.5375    0.0000 C   0  0  3  0  0  0           0  0  0
    8.1125   -6.0417    0.0000 C   0  0  3  0  0  0           0  0  0
    7.3792   -5.6667    0.0000 C   0  0  0  0  0  0           0  0  0
    8.8042   -5.6000    0.0000 C   0  0  0  0  0  0           0  0  0
    4.4875   -4.9667    0.0000 Cl  0  0  0  0  0  0           0  0  0
    5.3000   -6.9917    0.0000 C   0  0  0  0  0  0           0  0  0
    8.1500   -6.8667    0.0000 O   0  0  0  0  0  0           0  0  0
    3.8292   -6.2417    0.0000 C   0  0  0  0  0  0           0  0  0
   10.2000   -4.7125    0.0000 C   0  0  0  0  0  0           0  0  0
   10.7917   -4.9292    0.0000 C   0  0  0  0  0  0           0  0  0
   10.9667   -5.9167    0.0000 C   0  0  0  0  0  0           0  0  0
    4.6042   -7.4417    0.0000 C   0  0  0  0  0  0           0  0  0
    3.8667   -7.0625    0.0000 C   0  0  0  0  0  0           0  0  0
  2  1  1  0     0  0
  3  2  1  0     0  0
  4  1  2  0     0  0
  5  2  2  0     0  0
  6 10  1  0     0  0
  7  6  1  0     0  0
  8  9  1  0     0  0
  9  3  1  0     0  0
 10  8  1  0     0  0
 11  4  1  0     0  0
 12  1  1  0     0  0
 13  8  1  0     0  0
 14  4  1  0     0  0
 15  7  1  0     0  0
 16  7  1  0     0  0
 17  7  1  0     0  0
 18 12  2  0     0  0
 19 18  1  0     0  0
 19 14  2  0     0  0
M  END