
  SciTegic10311316212D

 27 30  0  0  0  0            999 V2000
    2.4790   -7.3960    0.0000 C   0  0
    2.4779   -8.2155    0.0000 C   0  0
    3.1859   -8.6245    0.0000 C   0  0
    3.1842   -6.9871    0.0000 C   0  0
    3.8928   -7.3924    0.0000 C   0  0
    3.8930   -8.2110    0.0000 C   0  0
    4.6717   -8.4637    0.0000 S   0  0
    5.1527   -7.8013    0.0000 C   0  0
    4.6713   -7.1392    0.0000 C   0  0
    1.7744   -8.6226    0.0000 N   0  0
    1.0281   -8.2897    0.0000 C   0  0
    0.4808   -8.8966    0.0000 N   0  0
    0.8889   -9.6047    0.0000 N   0  0
    1.6883   -9.4353    0.0000 C   0  0
    2.2940   -9.9793    0.0000 C   0  0
    2.1219  -10.7793    0.0000 C   0  0
    2.7280  -11.3263    0.0000 C   0  0
    3.5064  -11.0745    0.0000 C   0  0
    3.6752  -10.2706    0.0000 C   0  0
    3.0678   -9.7271    0.0000 C   0  0
    0.8589   -7.4902    0.0000 S   0  0
    5.9678   -7.7988    0.0000 C   0  0
    6.3767   -8.5064    0.0000 O   0  0
    6.3762   -7.0910    0.0000 O   0  0
    4.9235   -6.3619    0.0000 Cl  0  0
    4.4517  -10.0159    0.0000 Br  0  0
    4.1140  -11.6209    0.0000 Cl  0  0
  1  2  2  0
  2  3  1  0
  3  6  2  0
  5  4  2  0
  4  1  1  0
  5  6  1  0
  6  7  1  0
  7  8  1  0
  8  9  2  0
  9  5  1  0
 10 11  1  0
 11 12  2  0
 12 13  1  0
 13 14  2  0
 14 10  1  0
  2 10  1  0
 15 16  2  0
 16 17  1  0
 17 18  2  0
 18 19  1  0
 19 20  2  0
 20 15  1  0
 14 15  1  0
 11 21  1  0
 22 23  1  0
 22 24  2  0
  8 22  1  0
  9 25  1  0
 19 26  1  0
 18 27  1  0
M  END