
          03140815512D 1   1.00000     0.00000     0

 23 25  0     0  0            999 V2000
    1.4250    1.2708    0.0000 N   0  0  3  0  0  0           0  0  0
    1.4250    0.4458    0.0000 C   0  0  0  0  0  0           0  0  0
    2.1370    0.0375    0.0000 C   0  0  0  0  0  0           0  0  0
    2.8490    0.4458    0.0000 O   0  0  0  0  0  0           0  0  0
    2.8490    1.2708    0.0000 C   0  0  0  0  0  0           0  0  0
    2.1370    1.6875    0.0000 C   0  0  0  0  0  0           0  0  0
    0.7093    1.6812    0.0000 C   0  0  0  0  0  0           0  0  0
    0.7069    2.5062    0.0000 O   0  0  0  0  0  0           0  0  0
   -0.0039    1.2666    0.0000 C   0  0  0  0  0  0           0  0  0
   -0.7196    1.6771    0.0000 O   0  0  0  0  0  0           0  0  0
   -1.4329    1.2625    0.0000 C   0  0  0  0  0  0           0  0  0
   -2.1478    1.6762    0.0000 C   0  0  0  0  0  0           0  0  0
   -2.8606    1.2623    0.0000 C   0  0  0  0  0  0           0  0  0
   -2.8586    0.4364    0.0000 C   0  0  0  0  0  0           0  0  0
   -2.1379    0.0262    0.0000 C   0  0  0  0  0  0           0  0  0
   -1.4281    0.4424    0.0000 C   0  0  0  0  0  0           0  0  0
   -3.5709    0.0217    0.0000 C   0  0  0  0  0  0           0  0  0
   -4.2874    0.4328    0.0000 C   0  0  0  0  0  0           0  0  0
   -4.9996    0.0180    0.0000 C   0  0  0  0  0  0           0  0  0
   -4.9966   -0.8079    0.0000 C   0  0  0  0  0  0           0  0  0
   -4.2753   -1.2171    0.0000 C   0  0  0  0  0  0           0  0  0
   -3.5660   -0.7999    0.0000 C   0  0  0  0  0  0           0  0  0
   -5.7087   -1.2244    0.0000 C   0  0  0  0  0  0           0  0  0
  4  5  1  0     0  0
 11 12  2  0     0  0
  5  6  1  0     0  0
 12 13  1  0     0  0
 13 14  2  0     0  0
  1  7  1  0     0  0
 14 15  1  0     0  0
  1  2  1  0     0  0
 15 16  2  0     0  0
 16 11  1  0     0  0
  7  8  2  0     0  0
  1  6  1  0     0  0
 17 18  2  0     0  0
  7  9  1  0     0  0
 18 19  1  0     0  0
  2  3  1  0     0  0
 19 20  2  0     0  0
  9 10  1  0     0  0
 20 21  1  0     0  0
  3  4  1  0     0  0
 21 22  2  0     0  0
 22 17  1  0     0  0
 14 17  1  0     0  0
 10 11  1  0     0  0
 20 23  1  0     0  0
M  END