
  SciTegic09291413392D

 29 29  0  0  0  0            999 V2000
   18.2671  -19.4392    0.0000 O   0  0
   17.6015  -19.9202    0.0000 C   0  0
   17.8544  -20.7022    0.0000 C   0  0
   18.6757  -20.7022    0.0000 C   0  0
   18.9300  -19.9214    0.0000 C   0  0
   19.7074  -19.6693    0.0000 O   0  0
   19.1039  -21.3985    0.0000 C   0  0
   17.1858  -19.2081    0.0000 C   0  0
   17.1810  -20.6203    0.0000 C   0  0
   16.3639  -20.6061    0.0000 O   0  0
   16.3686  -19.2103    0.0000 O   0  0
   15.9581  -18.5036    0.0000 C   0  0
   15.1409  -18.5058    0.0000 C   0  0
   16.3649  -17.7949    0.0000 O   0  0
   14.7305  -17.7992    0.0000 C   0  0
   15.1345  -19.3196    0.0000 C   0  0
   14.4237  -19.7226    0.0000 O   0  0
   14.3462  -18.7129    0.0000 C   0  0
   13.7724  -18.1310    0.0000 O   0  0
   18.7152  -22.1174    0.0000 C   0  0
   19.1435  -22.8134    0.0000 C   0  0
   18.7548  -23.5323    0.0000 C   0  0
   19.9603  -22.7905    0.0000 C   0  0
   17.9379  -23.5551    0.0000 C   0  0
   17.5493  -24.2740    0.0000 C   0  0
   17.5097  -22.8591    0.0000 C   0  0
   20.3886  -23.4866    0.0000 C   0  0
   21.2054  -23.4637    0.0000 C   0  0
   19.9999  -24.2054    0.0000 C   0  0
  2  3  1  0
  1  2  1  0
  3  4  1  0
  4  5  1  0
  5  1  1  0
  5  6  2  0
  4  7  2  0
  2  8  1  0
  2  9  1  0
  9 10  1  0
  8 11  1  0
 11 12  1  0
 12 13  1  0
 12 14  2  0
 13 15  1  0
 13 16  1  0
 16 17  1  0
 13 18  1  0
 18 19  1  0
  7 20  1  0
 20 21  1  0
 21 22  1  0
 21 23  1  0
 22 24  1  0
 24 25  1  0
 24 26  1  0
 23 27  1  0
 27 28  1  0
 27 29  1  0
M  END