
  SciTegic01161211242D

 26 30  0  0  0  0            999 V2000
   12.0944  -25.6416    0.0000 N   0  0
   12.0932  -26.4690    0.0000 C   0  0
   12.8081  -26.8819    0.0000 N   0  0
   12.8063  -25.2289    0.0000 C   0  0
   13.5216  -25.6380    0.0000 C   0  0
   13.5224  -26.4648    0.0000 C   0  0
   14.2377  -26.8758    0.0000 C   0  0
   14.9527  -26.4610    0.0000 C   0  0
   14.9480  -25.6311    0.0000 C   0  0
   14.2321  -25.2238    0.0000 C   0  0
   12.8038  -24.4039    0.0000 N   0  0
   12.0881  -23.9935    0.0000 C   0  0
   12.0856  -23.1685    0.0000 C   0  0
   15.6599  -25.2142    0.0000 C   0  0
   16.3742  -25.6258    0.0000 C   0  0
   16.3591  -23.9759    0.0000 C   0  0
   15.6506  -24.3944    0.0000 C   0  0
   12.7506  -22.6845    0.0000 S   0  0
   12.4932  -21.8997    0.0000 C   0  0
   11.6670  -21.9035    0.0000 C   0  0
   11.4167  -22.6906    0.0000 C   0  0
   17.0811  -24.3838    0.0000 C   0  0
   17.0871  -25.2071    0.0000 C   0  0
   17.8719  -25.4559    0.0000 O   0  0
   18.3511  -24.7862    0.0000 C   0  0
   17.8622  -24.1238    0.0000 O   0  0
  5  6  1  0
 12 13  1  0
  3  6  2  0
  9 14  1  0
  6  7  1  0
 14 15  2  0
 15 23  1  0
  1  2  2  0
 22 16  1  0
  7  8  2  0
 16 17  2  0
 17 14  1  0
 18 19  1  0
  5  4  2  0
  8  9  1  0
  4  1  1  0
  9 10  2  0
 13 18  1  0
 19 20  2  0
 20 21  1  0
 21 13  2  0
 22 23  2  0
 10  5  1  0
  4 11  1  0
  2  3  1  0
 11 12  1  0
 23 24  1  0
 24 25  1  0
 25 26  1  0
 26 22  1  0
M  END