
          11280715262D 1   1.00000     0.00000     0

 22 25  0     0  0            999 V2000
    1.5292    1.4083    0.0000 C   0  0  0  0  0  0           0  0  0
   -0.6000    0.1583    0.0000 C   0  0  3  0  0  0           0  0  0
    0.8167    0.9958    0.0000 C   0  0  0  0  0  0           0  0  0
    2.2500    1.0000    0.0000 C   0  0  0  0  0  0           0  0  0
    1.5292    2.2333    0.0000 C   0  0  0  0  0  0           0  0  0
    0.1042    1.4000    0.0000 N   0  0  0  0  0  0           0  0  0
    2.9625    1.4208    0.0000 C   0  0  0  0  0  0           0  0  0
    0.1167   -1.0792    0.0000 C   0  0  3  0  0  0           0  0  0
   -1.0583   -1.5167    0.0000 C   0  0  3  0  0  0           0  0  0
   -1.3583   -1.1417    0.0000 C   0  0  3  0  0  0           0  0  0
   -1.0583   -0.4750    0.0000 C   0  0  0  0  0  0           0  0  0
   -1.3583   -0.2417    0.0000 C   0  0  0  0  0  0           0  0  0
    0.1167   -0.2625    0.0000 C   0  0  0  0  0  0           0  0  0
    0.8292    0.1708    0.0000 O   0  0  0  0  0  0           0  0  0
   -0.6083    0.9833    0.0000 C   0  0  0  0  0  0           0  0  0
   -1.7000   -1.7917    0.0000 C   0  0  0  0  0  0           0  0  0
   -0.5750   -1.4417    0.0000 C   0  0  0  0  0  0           0  0  0
   -0.2375   -1.7917    0.0000 C   0  0  0  0  0  0           0  0  0
    2.9542    2.2458    0.0000 C   0  0  0  0  0  0           0  0  0
    2.2542    0.1750    0.0000 Cl  0  0  0  0  0  0           0  0  0
    2.2417    2.6500    0.0000 C   0  0  0  0  0  0           0  0  0
    3.6667    2.6583    0.0000 Cl  0  0  0  0  0  0           0  0  0
  2 15  1  0     0  0
  3  1  1  0     0  0
  4  1  2  0     0  0
  5  1  1  0     0  0
  6  3  1  0     0  0
  7  4  1  0     0  0
  8 13  1  0     0  0
  9 11  1  0     0  0
 10 12  1  0     0  0
 11  2  1  0     0  0
 12  2  1  0     0  0
 13  2  1  0     0  0
 14  3  2  0     0  0
 15  6  1  0     0  0
 16 10  1  0     0  0
 17  8  1  0     0  0
 18  8  1  0     0  0
 19 21  1  0     0  0
 20  4  1  0     0  0
 21  5  2  0     0  0
 22 19  1  0     0  0
 19  7  2  0     0  0
  9 18  1  0     0  0
 10 17  1  0     0  0
  9 16  1  0     0  0
M  END