
  SciTegic12231509382D

 40 44  0  0  0  0            999 V2000
   -1.2667   -2.2003    0.0000 N   0  0
   -2.0737   -2.3718    0.0000 C   0  0
   -2.3286   -3.1564    0.0000 C   0  0
   -3.1356   -3.3280    0.0000 N   0  0
   -2.6257   -1.7587    0.0000 O   0  0
   -3.6876   -2.7149    0.0000 C   0  0
   -4.7495   -3.6710    0.0000 N   0  0
   -4.4946   -2.8864    0.0000 C   0  0
   -4.1975   -4.2841    0.0000 C   0  0
   -3.3905   -4.1126    0.0000 C   0  0
   -0.2048   -1.2441    0.0000 C   0  0
   -1.0118   -1.4157    0.0000 C   0  0
    0.0501   -0.4595    0.0000 C   0  0
   -0.5019    0.1536    0.0000 C   0  0
   -0.2470    0.9382    0.0000 N   0  0
   -1.3089   -0.0180    0.0000 C   0  0
   -1.5638   -0.8026    0.0000 C   0  0
    2.4711    0.0551    0.0000 C   0  0
    2.2161   -0.7296    0.0000 C   0  0
    1.9190    0.6682    0.0000 C   0  0
    1.5996    2.1493    0.0000 C   0  0
    0.8150    1.8943    0.0000 C   0  0
    2.3141    1.7368    0.0000 C   0  0
    3.0285    2.1493    0.0000 C   0  0
    3.0285    2.9743    0.0000 C   0  0
    3.7430    3.3868    0.0000 C   0  0
    4.4575    2.9743    0.0000 O   0  0
    3.7430    4.2118    0.0000 O   0  0
    1.5996    2.9743    0.0000 C   0  0
    0.8150    3.2292    0.0000 N   0  0
    0.3300    2.5618    0.0000 C   0  0
   -0.4950    2.5618    0.0000 O   0  0
    0.5600    1.1097    0.0000 C   0  0
    1.1121    0.4966    0.0000 C   0  0
    1.4091   -0.9011    0.0000 C   0  0
    0.8571   -0.2880    0.0000 C   0  0
    2.3141    3.3868    0.0000 C   0  0
   -0.7147   -2.8134    0.0000 C   0  0
   -5.5565   -3.8426    0.0000 C   0  0
    5.1719    3.3868    0.0000 C   0  0
  1  2  1  0
  1 38  1  0
  2  5  2  0
  3  4  1  0
  3  2  1  0
  4 10  1  0
  6  4  1  0
  7  8  1  0
  7  9  1  0
  7 39  1  0
  8  6  1  0
  9 10  1  0
 11 12  2  0
 11 13  1  0
 12  1  1  0
 13 14  2  0
 14 15  1  0
 14 16  1  0
 16 17  2  0
 17 12  1  0
 18 19  2  0
 18 20  1  0
 19 35  1  0
 20 34  2  0
 21 22  1  0
 21 29  2  0
 22 33  2  0
 23 21  1  0
 24 23  2  0
 24 25  1  0
 25 37  2  0
 26 25  1  0
 26 27  1  0
 28 26  2  0
 29 30  1  0
 30 31  1  0
 31 22  1  0
 31 32  2  0
 33 15  1  0
 34 33  1  0
 34 36  1  0
 35 36  2  0
 37 29  1  0
 40 27  1  0
M  END