
          11280715392D 1   1.00000     0.00000     0

 38 39  0     0  0            999 V2000
    0.6542   -1.8292    0.0000 N   0  0  0  0  0  0           0  0  0
   13.5500   -8.5917    0.0000 N   0  0  0  0  0  0           0  0  0
    0.9542   -2.3542    0.0000 C   0  0  0  0  0  0           0  0  0
   13.2542   -9.1125    0.0000 C   0  0  0  0  0  0           0  0  0
   12.3542   -8.5917    0.0000 N   0  0  0  0  0  0           0  0  0
    1.8542   -2.8750    0.0000 N   0  0  0  0  0  0           0  0  0
    5.1542   -4.4292    0.0000 N   0  0  0  0  0  0           0  0  0
    9.0542   -7.0292    0.0000 N   0  0  0  0  0  0           0  0  0
   14.1417   -8.5917    0.0000 C   0  0  0  0  0  0           0  0  0
    0.0542   -1.8292    0.0000 C   0  0  0  0  0  0           0  0  0
   12.6542   -9.1125    0.0000 C   0  0  0  0  0  0           0  0  0
    1.5542   -2.3542    0.0000 C   0  0  0  0  0  0           0  0  0
    5.4542   -4.9542    0.0000 C   0  0  0  0  0  0           0  0  0
    8.7542   -6.5125    0.0000 C   0  0  0  0  0  0           0  0  0
    4.5542   -4.4292    0.0000 C   0  0  0  0  0  0           0  0  0
    9.6542   -7.0292    0.0000 C   0  0  0  0  0  0           0  0  0
   11.7542   -8.5917    0.0000 C   0  0  0  0  0  0           0  0  0
    2.4542   -2.8750    0.0000 C   0  0  0  0  0  0           0  0  0
    0.6542   -2.8750    0.0000 C   0  0  0  0  0  0           0  0  0
   13.5500   -9.6292    0.0000 C   0  0  0  0  0  0           0  0  0
    9.9542   -7.5542    0.0000 C   0  0  0  0  0  0           0  0  0
   11.4542   -8.0667    0.0000 C   0  0  0  0  0  0           0  0  0
    8.1542   -6.5125    0.0000 C   0  0  0  0  0  0           0  0  0
    4.2542   -3.9167    0.0000 C   0  0  0  0  0  0           0  0  0
    2.7542   -3.3917    0.0000 C   0  0  0  0  0  0           0  0  0
    6.0542   -4.9542    0.0000 C   0  0  0  0  0  0           0  0  0
    6.3542   -5.4750    0.0000 C   0  0  0  0  0  0           0  0  0
    6.9542   -5.4750    0.0000 C   0  0  0  0  0  0           0  0  0
    7.2542   -5.9917    0.0000 C   0  0  0  0  0  0           0  0  0
   10.5542   -7.5542    0.0000 C   0  0  0  0  0  0           0  0  0
   10.8542   -8.0667    0.0000 C   0  0  0  0  0  0           0  0  0
    7.8542   -5.9917    0.0000 C   0  0  0  0  0  0           0  0  0
    3.6542   -3.9167    0.0000 C   0  0  0  0  0  0           0  0  0
    3.3542   -3.3917    0.0000 C   0  0  0  0  0  0           0  0  0
   -0.2458   -2.3542    0.0000 C   0  0  0  0  0  0           0  0  0
   14.4500   -9.1125    0.0000 C   0  0  0  0  0  0           0  0  0
   14.1500   -9.6292    0.0000 C   0  0  0  0  0  0           0  0  0
    0.0542   -2.8750    0.0000 C   0  0  0  0  0  0           0  0  0
  2  4  1  0     0  0
  3  1  2  0     0  0
  4 11  1  0     0  0
  5 17  1  0     0  0
  6 12  1  0     0  0
  7 15  1  0     0  0
  8 14  1  0     0  0
  9  2  2  0     0  0
 10  1  1  0     0  0
 11  5  1  0     0  0
 12  3  1  0     0  0
 13  7  1  0     0  0
 14 23  1  0     0  0
 15 24  1  0     0  0
 16  8  1  0     0  0
 17 22  1  0     0  0
 18  6  1  0     0  0
 19  3  1  0     0  0
 20  4  2  0     0  0
 21 16  1  0     0  0
 22 31  1  0     0  0
 23 32  1  0     0  0
 24 33  1  0     0  0
 25 18  1  0     0  0
 26 13  1  0     0  0
 27 26  1  0     0  0
 28 27  1  0     0  0
 29 28  1  0     0  0
 30 21  1  0     0  0
 31 30  1  0     0  0
 32 29  1  0     0  0
 33 34  1  0     0  0
 34 25  1  0     0  0
 35 10  2  0     0  0
 36 37  2  0     0  0
 37 20  1  0     0  0
 38 35  1  0     0  0
 38 19  2  0     0  0
  9 36  1  0     0  0
M  END