
          11280715152D 1   1.00000     0.00000     0

 20 21  0     0  0            999 V2000
   -1.2708   -1.3417    0.0000 C   0  0  0  0  0  0           0  0  0
    1.7042   -1.6792    0.0000 C   0  0  0  0  0  0           0  0  0
    0.9417   -1.3667    0.0000 C   0  0  0  0  0  0           0  0  0
    3.1167   -1.4792    0.0000 N   0  0  3  0  0  0           0  0  0
   -0.4708   -1.5667    0.0000 N   0  0  3  0  0  0           0  0  0
   -1.7250   -2.0167    0.0000 C   0  0  0  0  0  0           0  0  0
   -1.5500   -0.5667    0.0000 O   0  0  0  0  0  0           0  0  0
    2.4667   -1.9917    0.0000 C   0  0  0  0  0  0           0  0  0
    0.1792   -1.0542    0.0000 C   0  0  0  0  0  0           0  0  0
   -2.5500   -1.9667    0.0000 C   0  0  0  0  0  0           0  0  0
    3.0917   -0.6542    0.0000 C   0  0  0  0  0  0           0  0  0
    3.9125   -1.7167    0.0000 C   0  0  0  0  0  0           0  0  0
   -0.4458   -2.3917    0.0000 C   0  0  0  0  0  0           0  0  0
   -2.9083   -1.2292    0.0000 C   0  0  0  0  0  0           0  0  0
   -3.0000   -2.6542    0.0000 C   0  0  0  0  0  0           0  0  0
    4.3750   -1.0292    0.0000 C   0  0  0  0  0  0           0  0  0
    3.8667   -0.3792    0.0000 C   0  0  0  0  0  0           0  0  0
   -3.8208   -2.6042    0.0000 C   0  0  0  0  0  0           0  0  0
   -3.7333   -1.1667    0.0000 C   0  0  0  0  0  0           0  0  0
   -4.1958   -1.8542    0.0000 C   0  0  0  0  0  0           0  0  0
  2  3  3  0     0  0
  3  9  1  0     0  0
  4  8  1  0     0  0
  5  1  1  0     0  0
  6  1  1  0     0  0
  7  1  2  0     0  0
  8  2  1  0     0  0
  9  5  1  0     0  0
 10  6  1  0     0  0
 11  4  1  0     0  0
 12  4  1  0     0  0
 13  5  1  0     0  0
 14 10  2  0     0  0
 15 10  1  0     0  0
 16 12  1  0     0  0
 17 11  1  0     0  0
 18 15  2  0     0  0
 19 14  1  0     0  0
 20 18  1  0     0  0
 19 20  2  0     0  0
 16 17  1  0     0  0
M  END