
          05080814042D 1   1.00000     0.00000     0

 34 38  0     1  0            999 V2000
   -4.8524  -25.1113    0.0000 C   0  0  0  0  0  0           0  0  0
   -5.5631  -25.5262    0.0000 C   0  0  0  0  0  0           0  0  0
   -5.5561  -26.3525    0.0000 C   0  0  0  0  0  0           0  0  0
   -4.8423  -26.7560    0.0000 C   0  0  0  0  0  0           0  0  0
   -4.1391  -25.5185    0.0000 C   0  0  0  0  0  0           0  0  0
   -4.1330  -26.3462    0.0000 C   0  0  0  0  0  0           0  0  0
   -3.4172  -26.7526    0.0000 C   0  0  0  0  0  0           0  0  0
   -3.4293  -25.0972    0.0000 C   0  0  0  0  0  0           0  0  0
   -2.7088  -25.5081    0.0000 C   0  0  2  0  0  0           0  0  0
   -2.7043  -26.3377    0.0000 C   0  0  2  0  0  0           0  0  0
   -1.9875  -26.7463    0.0000 N   0  0  3  0  0  0           0  0  0
   -1.2707  -26.3298    0.0000 C   0  0  0  0  0  0           0  0  0
   -1.2753  -25.5002    0.0000 C   0  0  1  0  0  0           0  0  0
   -1.9966  -25.0871    0.0000 C   0  0  0  0  0  0           0  0  0
   -2.7167  -24.6792    0.0000 H   0  0  0  0  0  0           0  0  0
   -2.7125  -27.1625    0.0000 H   0  0  0  0  0  0           0  0  0
   -0.5626  -25.0845    0.0000 C   0  0  0  0  0  0           0  0  0
    0.1537  -25.4938    0.0000 N   0  0  3  0  0  0           0  0  0
   -0.5663  -24.2595    0.0000 O   0  0  0  0  0  0           0  0  0
    0.1514  -26.3220    0.0000 C   0  0  0  0  0  0           0  0  0
    0.8636  -26.7312    0.0000 C   0  0  0  0  0  0           0  0  0
    1.5786  -26.3190    0.0000 N   0  0  3  0  0  0           0  0  0
    1.5769  -25.4931    0.0000 C   0  0  0  0  0  0           0  0  0
    0.8601  -25.0793    0.0000 C   0  0  0  0  0  0           0  0  0
   -4.8563  -24.2863    0.0000 O   0  0  0  0  0  0           0  0  0
   -5.5728  -23.8773    0.0000 C   0  0  0  0  0  0           0  0  0
   -1.9842  -27.5713    0.0000 C   0  0  0  0  0  0           0  0  0
    2.2934  -26.7311    0.0000 C   0  0  0  0  0  0           0  0  0
    3.0076  -26.3181    0.0000 C   0  0  0  0  0  0           0  0  0
    3.7210  -26.7317    0.0000 C   0  0  0  0  0  0           0  0  0
    4.4347  -26.3194    0.0000 C   0  0  0  0  0  0           0  0  0
    4.4346  -25.4935    0.0000 C   0  0  0  0  0  0           0  0  0
    3.7148  -25.0816    0.0000 C   0  0  0  0  0  0           0  0  0
    3.0041  -25.4963    0.0000 C   0  0  0  0  0  0           0  0  0
 10 16  1  1     0  0
  6  7  1  0     0  0
 13 17  1  1     0  0
  7 10  1  0     0  0
 17 18  1  0     0  0
  9  8  1  0     0  0
 17 19  2  0     0  0
 18 20  1  0     0  0
  9 10  1  0     0  0
  3  4  2  0     0  0
  4  6  1  0     0  0
  5  6  2  0     0  0
  1  2  2  0     0  0
 18 24  1  0     0  0
 20 21  1  0     0  0
 21 22  1  0     0  0
 22 23  1  0     0  0
 23 24  1  0     0  0
  5  1  1  0     0  0
  1 25  1  0     0  0
  2  3  1  0     0  0
 25 26  1  0     0  0
  9 14  1  0     0  0
 11 27  1  0     0  0
 10 11  1  0     0  0
 22 28  1  0     0  0
 11 12  1  0     0  0
 28 29  1  0     0  0
 12 13  1  0     0  0
 29 30  2  0     0  0
 13 14  1  0     0  0
 30 31  1  0     0  0
 31 32  2  0     0  0
  9 15  1  6     0  0
 32 33  1  0     0  0
  5  8  1  0     0  0
 33 34  2  0     0  0
 34 29  1  0     0  0
M  END