
  SciTegic02271514512D

 41 44  0  0  0  0            999 V2000
   -1.3812   -7.0658    0.0000 C   0  0
   -1.3801   -7.8853    0.0000 C   0  0
   -0.6766   -8.2943    0.0000 C   0  0
    0.0408   -7.8848    0.0000 C   0  0
    0.0379   -7.0622    0.0000 C   0  0
   -0.6748   -6.6569    0.0000 C   0  0
    0.7441   -6.6509    0.0000 C   0  0
    1.4534   -7.0568    0.0000 N   0  0
    0.7410   -5.8337    0.0000 O   0  0
    2.1595   -6.6456    0.0000 C   0  0
    2.8688   -7.0515    0.0000 C   0  0
    2.8687   -7.8676    0.0000 C   0  0
    3.5772   -8.2734    0.0000 C   0  0
    4.2843   -7.8621    0.0000 C   0  0
    4.2786   -7.0407    0.0000 C   0  0
    3.5696   -6.6386    0.0000 C   0  0
    4.9833   -6.6270    0.0000 C   0  0
    5.6940   -7.0304    0.0000 C   0  0  2  0  0  0
    6.3987   -6.6166    0.0000 C   0  0
    2.1617   -8.2773    0.0000 O   0  0
    2.1631   -9.0945    0.0000 C   0  0
    1.4560   -9.5043    0.0000 C   0  0
    1.4574  -10.3215    0.0000 C   0  0
    7.1099   -7.0196    0.0000 O   0  0
    6.3932   -5.7990    0.0000 O   0  0
    5.6999   -7.8475    0.0000 C   0  0
    6.4106   -8.2510    0.0000 C   0  0
    6.4128   -9.0686    0.0000 C   0  0
    7.1226   -9.4719    0.0000 C   0  0
    7.8283   -9.0581    0.0000 C   0  0
    7.8197   -8.2368    0.0000 C   0  0
    7.1093   -7.8371    0.0000 C   0  0
   -2.0918   -8.2933    0.0000 N   0  0
   -1.9499   -9.1043    0.0000 C   0  0
   -2.3590   -9.8066    0.0000 C   0  0
   -2.7185   -7.7704    0.0000 C   0  0
   -3.5449   -7.7712    0.0000 C   0  0
   -4.1612   -8.2929    0.0000 C   0  0
   -4.2997   -9.0976    0.0000 C   0  0
   -3.1323  -10.0828    0.0000 C   0  0
   -3.8936   -9.8001    0.0000 C   0  0
  1  2  2  0
  2  3  1  0
  3  4  2  0
  4  5  1  0
  5  6  2  0
  6  1  1  0
  5  7  1  0
  7  8  1  0
  7  9  2  0
  8 10  1  0
 10 11  1  0
 11 12  2  0
 12 13  1  0
 13 14  2  0
 14 15  1  0
 15 16  2  0
 16 11  1  0
 15 17  1  0
 17 18  1  0
 18 19  1  0
 12 20  1  0
 20 21  1  0
 21 22  1  0
 22 23  1  0
 19 24  1  0
 19 25  2  0
 18 26  1  6
 26 27  1  0
 27 28  2  0
 28 29  1  0
 29 30  2  0
 30 31  1  0
 31 32  2  0
 32 27  1  0
  2 33  1  0
 33 34  1  0
 34 35  1  0
 33 36  1  0
 36 37  1  0
 37 38  1  0
 38 39  1  0
 40 35  1  0
 40 41  1  0
 41 39  1  0
M  END