
  SciTegic12231509382D

 35 39  0  0  0  0            999 V2000
    4.1349   -5.5793    0.0000 C   0  0
    3.8441   -6.3506    0.0000 C   0  0
    3.0205   -6.3067    0.0000 N   0  0
    2.8044   -5.5103    0.0000 C   0  0
    3.4990   -5.0652    0.0000 N   0  0
    2.0349   -5.2144    0.0000 O   0  0
    3.5420   -4.2402    0.0000 C   0  0
    2.8301   -3.8276    0.0000 C   0  0
    2.1150   -4.2397    0.0000 C   0  0
    1.3990   -3.8270    0.0000 N   0  0
    1.4013   -2.9995    0.0000 C   0  0
    0.6942   -2.5873    0.0000 C   0  0
   -0.0225   -2.9899    0.0000 N   0  0
   -0.0281   -3.8165    0.0000 C   0  0
    0.6859   -4.2358    0.0000 C   0  0
   -0.7335   -2.5778    0.0000 C   0  0
   -0.7272   -1.7530    0.0000 C   0  0
   -1.4374   -1.3416    0.0000 C   0  0
   -2.1512   -1.7483    0.0000 C   0  0
   -2.1526   -2.5775    0.0000 C   0  0
   -1.4416   -2.9877    0.0000 C   0  0
    2.8301   -3.0045    0.0000 O   0  0
    4.5835   -4.8883    0.0000 C   0  0
    5.4164   -4.9299    0.0000 C   0  0
    5.8675   -4.2329    0.0000 C   0  0
    5.4868   -3.4916    0.0000 C   0  0
    4.6527   -3.4537    0.0000 C   0  0
    4.2033   -4.1519    0.0000 C   0  0
    4.8701   -5.9520    0.0000 C   0  0
    4.9143   -6.7790    0.0000 C   0  0
    5.6511   -7.1528    0.0000 C   0  0
    6.3426   -6.7012    0.0000 C   0  0
    6.2942   -5.8698    0.0000 C   0  0
    5.5609   -5.5016    0.0000 C   0  0
    4.2926   -7.0390    0.0000 O   0  0
 16 17  2  0
  3  4  1  0
 17 18  1  0
  8  9  1  0
 18 19  2  0
  4  5  1  0
 19 20  1  0
  9 10  1  0
 20 21  2  0
 21 16  1  0
 10 11  1  0
  8 22  1  0
  5  1  1  0
  1 23  1  0
  1  2  1  0
 23 24  2  0
  4  6  2  0
 24 25  1  0
 25 26  2  0
  5  7  1  0
 26 27  1  0
 10 15  1  0
 27 28  2  0
 28 23  1  0
 11 12  1  0
  1 29  1  0
 12 13  1  0
 29 30  2  0
 13 14  1  0
 30 31  1  0
 14 15  1  0
 31 32  2  0
  2  3  1  0
 32 33  1  0
 13 16  1  0
 33 34  2  0
 34 29  1  0
  7  8  1  0
  2 35  2  0
M  END