
          08180812472D 1   1.00000     0.00000     0

 20 21  0     0  0            999 V2000
    3.7429   -9.5882    0.0000 C   0  0  0  0  0  0           0  0  0
    3.7417  -10.4158    0.0000 C   0  0  0  0  0  0           0  0  0
    4.4546  -10.8287    0.0000 C   0  0  0  0  0  0           0  0  0
    5.1740  -10.4152    0.0000 C   0  0  0  0  0  0           0  0  0
    5.1708   -9.5842    0.0000 C   0  0  0  0  0  0           0  0  0
    4.4526   -9.1754    0.0000 C   0  0  0  0  0  0           0  0  0
    4.4488   -8.3504    0.0000 C   0  0  0  0  0  0           0  0  0
    3.7325   -7.9413    0.0000 C   0  0  0  0  0  0           0  0  0
    3.0282   -9.1763    0.0000 O   0  0  0  0  0  0           0  0  0
    4.4533  -11.6537    0.0000 O   0  0  0  0  0  0           0  0  0
    5.8888  -10.8271    0.0000 C   0  0  0  0  0  0           0  0  0
    5.8896  -11.6521    0.0000 O   0  0  0  0  0  0           0  0  0
    6.6029  -10.4139    0.0000 C   0  0  0  0  0  0           0  0  0
    7.3178  -10.8258    0.0000 C   0  0  0  0  0  0           0  0  0
    7.3132  -11.6518    0.0000 C   0  0  0  0  0  0           0  0  0
    8.0272  -12.0636    0.0000 C   0  0  0  0  0  0           0  0  0
    8.7423  -11.6503    0.0000 C   0  0  0  0  0  0           0  0  0
    8.7389  -10.8211    0.0000 C   0  0  0  0  0  0           0  0  0
    8.0242  -10.4130    0.0000 C   0  0  0  0  0  0           0  0  0
    6.5976  -12.0625    0.0000 C   0  0  0  0  0  0           0  0  0
  3 10  1  0     0  0
  2  3  1  0     0  0
  4 11  1  0     0  0
  5  6  2  0     0  0
 11 12  2  0     0  0
  6  1  1  0     0  0
 11 13  1  0     0  0
  1  2  2  0     0  0
 13 14  1  0     0  0
  6  7  1  0     0  0
 14 15  2  0     0  0
  3  4  2  0     0  0
 15 16  1  0     0  0
  7  8  1  0     0  0
 16 17  2  0     0  0
 17 18  1  0     0  0
  1  9  1  0     0  0
 18 19  2  0     0  0
 19 14  1  0     0  0
  4  5  1  0     0  0
 15 20  1  0     0  0
M  END