
          05080814042D 1   1.00000     0.00000     0

 36 41  0     1  0            999 V2000
    7.4060   -5.9905    0.0000 C   0  0  0  0  0  0           0  0  0
    6.6952   -6.4054    0.0000 C   0  0  0  0  0  0           0  0  0
    6.7022   -7.2317    0.0000 C   0  0  0  0  0  0           0  0  0
    7.4161   -7.6352    0.0000 C   0  0  0  0  0  0           0  0  0
    8.1192   -6.3977    0.0000 C   0  0  0  0  0  0           0  0  0
    8.1253   -7.2254    0.0000 C   0  0  0  0  0  0           0  0  0
    8.8411   -7.6317    0.0000 C   0  0  0  0  0  0           0  0  0
    8.8290   -5.9764    0.0000 C   0  0  0  0  0  0           0  0  0
    9.5495   -6.3872    0.0000 C   0  0  2  0  0  0           0  0  0
    9.5540   -7.2168    0.0000 C   0  0  2  0  0  0           0  0  0
   10.2708   -7.6255    0.0000 N   0  0  3  0  0  0           0  0  0
   10.9876   -7.2090    0.0000 C   0  0  0  0  0  0           0  0  0
   10.9831   -6.3794    0.0000 C   0  0  1  0  0  0           0  0  0
   10.2617   -5.9662    0.0000 C   0  0  0  0  0  0           0  0  0
    9.5417   -5.5583    0.0000 H   0  0  0  0  0  0           0  0  0
    9.5458   -8.0417    0.0000 H   0  0  0  0  0  0           0  0  0
   11.6957   -5.9637    0.0000 C   0  0  0  0  0  0           0  0  0
   12.4120   -6.3730    0.0000 N   0  0  3  0  0  0           0  0  0
   11.6920   -5.1387    0.0000 O   0  0  0  0  0  0           0  0  0
   12.4097   -7.2012    0.0000 C   0  0  0  0  0  0           0  0  0
   13.1219   -7.6104    0.0000 C   0  0  0  0  0  0           0  0  0
   13.8370   -7.1982    0.0000 N   0  0  3  0  0  0           0  0  0
   13.8353   -6.3722    0.0000 C   0  0  0  0  0  0           0  0  0
   13.1185   -5.9585    0.0000 C   0  0  0  0  0  0           0  0  0
    7.4020   -5.1655    0.0000 O   0  0  0  0  0  0           0  0  0
    6.6855   -4.7564    0.0000 C   0  0  0  0  0  0           0  0  0
   10.2742   -8.4504    0.0000 C   0  0  0  0  0  0           0  0  0
   14.5517   -7.6102    0.0000 C   0  0  0  0  0  0           0  0  0
   14.5478   -8.4344    0.0000 C   0  0  0  0  0  0           0  0  0
   15.2617   -8.8463    0.0000 C   0  0  0  0  0  0           0  0  0
   15.9769   -8.4333    0.0000 C   0  0  0  0  0  0           0  0  0
   15.4281   -6.3963    0.0000 N   0  0  0  0  0  0           0  0  0
   15.2592   -7.1958    0.0000 C   0  0  0  0  0  0           0  0  0
   15.9684   -7.6029    0.0000 C   0  0  0  0  0  0           0  0  0
   16.5740   -7.0529    0.0000 N   0  0  0  0  0  0           0  0  0
   16.2368   -6.3078    0.0000 O   0  0  0  0  0  0           0  0  0
 13 17  1  1     0  0
  7 10  1  0     0  0
 17 18  1  0     0  0
  9  8  1  0     0  0
 17 19  2  0     0  0
 18 20  1  0     0  0
  9 10  1  0     0  0
  3  4  2  0     0  0
  4  6  1  0     0  0
  5  6  2  0     0  0
  1  2  2  0     0  0
 18 24  1  0     0  0
 20 21  1  0     0  0
 21 22  1  0     0  0
 22 23  1  0     0  0
 23 24  1  0     0  0
  5  1  1  0     0  0
  1 25  1  0     0  0
  2  3  1  0     0  0
 25 26  1  0     0  0
  9 14  1  0     0  0
 11 27  1  0     0  0
 10 11  1  0     0  0
 22 28  1  0     0  0
 11 12  1  0     0  0
 28 29  2  0     0  0
 12 13  1  0     0  0
 29 30  1  0     0  0
 13 14  1  0     0  0
 30 31  2  0     0  0
 31 34  1  0     0  0
 33 28  1  0     0  0
 33 34  1  0     0  0
  9 15  1  6     0  0
  5  8  1  0     0  0
 10 16  1  1     0  0
  6  7  1  0     0  0
 32 33  2  0     0  0
 34 35  2  0     0  0
 35 36  1  0     0  0
 36 32  1  0     0  0
M  END