
          03140815512D 1   1.00000     0.00000     0

 28 32  0     0  0            999 V2000
    7.4505   -3.1431    0.0000 C   0  0  0  0  0  0           0  0  0
    8.0921   -2.4592    0.0000 C   0  0  3  0  0  0           0  0  0
    8.2553   -2.9180    0.0000 C   0  0  3  0  0  0           0  0  0
    8.8038   -2.7219    0.0000 C   0  0  0  0  0  0           0  0  0
    9.0084   -3.2209    0.0000 C   0  0  0  0  0  0           0  0  0
    9.5520   -2.5363    0.0000 C   0  0  3  0  0  0           0  0  0
    8.2485   -2.0692    0.0000 C   0  0  0  0  0  0           0  0  0
    8.8095   -1.4069    0.0000 C   0  0  3  0  0  0           0  0  0
    8.0876   -1.6633    0.0000 C   0  0  0  0  0  0           0  0  0
    9.5579   -1.7170    0.0000 C   0  0  0  0  0  0           0  0  0
    8.8043   -0.5795    0.0000 C   0  0  0  0  0  0           0  0  0
    9.5164   -0.1623    0.0000 N   0  0  0  0  0  0           0  0  0
   10.2339   -0.5704    0.0000 C   0  0  0  0  0  0           0  0  0
   10.9461   -0.1532    0.0000 C   0  0  0  0  0  0           0  0  0
   10.2391   -1.3958    0.0000 O   0  0  0  0  0  0           0  0  0
   11.6608   -0.5620    0.0000 C   0  0  0  0  0  0           0  0  0
   12.3725   -0.1455    0.0000 C   0  0  0  0  0  0           0  0  0
   12.3677    0.6808    0.0000 C   0  0  0  0  0  0           0  0  0
   11.6453    1.0888    0.0000 C   0  0  0  0  0  0           0  0  0
   10.9365    0.6699    0.0000 C   0  0  0  0  0  0           0  0  0
   11.6649   -1.3874    0.0000 Cl  0  0  0  0  0  0           0  0  0
   11.6372    1.9141    0.0000 O   0  0  0  0  0  0           0  0  0
   12.3479    2.3338    0.0000 C   0  0  3  0  0  0           0  0  0
   13.0699    1.9239    0.0000 C   0  0  0  0  0  0           0  0  0
   13.7785    2.3401    0.0000 C   0  0  0  0  0  0           0  0  0
   13.7746    3.1658    0.0000 N   0  0  0  0  0  0           0  0  0
   13.0560    3.5737    0.0000 C   0  0  0  0  0  0           0  0  0
   12.3411    3.1557    0.0000 C   0  0  0  0  0  0           0  0  0
 12 13  1  0     0  0
  2  4  1  0     0  0
 13 14  1  0     0  0
  3  5  1  0     0  0
 13 15  2  0     0  0
  4  6  1  0     0  0
 14 16  2  0     0  0
  5  6  1  0     0  0
 16 17  1  0     0  0
  7  8  1  0     0  0
 17 18  2  0     0  0
  3  7  1  0     0  0
 18 19  1  0     0  0
  2  9  1  0     0  0
 19 20  2  0     0  0
 20 14  1  0     0  0
  6 10  1  0     0  0
 16 21  1  0     0  0
 10  8  1  0     0  0
 19 22  1  0     0  0
  8  9  1  0     0  0
 22 23  1  0     0  0
 23 24  1  0     0  0
  8 11  1  0     0  0
  1  2  1  0     0  0
 11 12  1  0     0  0
  1  3  1  0     0  0
 23 28  1  0     0  0
 24 25  1  0     0  0
 25 26  1  0     0  0
 26 27  1  0     0  0
 27 28  1  0     0  0
M  END