
  CDK    6/4/10,11:41

 37 40  0  0  0  0  0  0  0  0999 V2000
    8.6819   -6.0208    0.0000 C   0  0  0  0  0  0  0  0  0  0  0  0
    8.6807   -6.8482    0.0000 C   0  0  0  0  0  0  0  0  0  0  0  0
    9.3956   -7.2610    0.0000 C   0  0  0  0  0  0  0  0  0  0  0  0
   10.1120   -6.8477    0.0000 C   0  0  0  0  0  0  0  0  0  0  0  0
   10.1091   -6.0172    0.0000 C   0  0  0  0  0  0  0  0  0  0  0  0
    9.3938   -5.6080    0.0000 C   0  0  0  0  0  0  0  0  0  0  0  0
   10.8221   -5.6020    0.0000 C   0  0  0  0  0  0  0  0  0  0  0  0
   11.5381   -6.0118    0.0000 N   0  0  0  0  0  0  0  0  0  0  0  0
   10.8189   -4.7770    0.0000 O   0  0  0  0  0  0  0  0  0  0  0  0
   11.6311   -6.8308    0.0000 N   0  0  0  0  0  0  0  0  0  0  0  0
   12.4387   -6.9993    0.0000 C   0  0  0  0  0  0  0  0  0  0  0  0
   12.8485   -6.2833    0.0000 C   0  0  0  0  0  0  0  0  0  0  0  0
   12.2941   -5.6724    0.0000 C   0  0  0  0  0  0  0  0  0  0  0  0
   12.4628   -4.8648    0.0000 O   0  0  0  0  0  0  0  0  0  0  0  0
   12.7771   -7.7517    0.0000 C   0  0  0  0  0  0  0  0  0  0  0  0
   13.6731   -6.2729    0.0000 N   0  0  0  0  0  0  0  0  0  0  0  0
   14.0947   -6.9820    0.0000 N   0  0  0  0  0  0  0  0  0  0  0  0
   14.9196   -6.9715    0.0000 C   0  0  0  0  0  0  0  0  0  0  0  0
   15.3366   -7.6807    0.0000 C   0  0  0  0  0  0  0  0  0  0  0  0
   16.1607   -7.6705    0.0000 C   0  0  0  0  0  0  0  0  0  0  0  0
   16.5649   -6.9502    0.0000 C   0  0  0  0  0  0  0  0  0  0  0  0
   16.1388   -6.2388    0.0000 C   0  0  0  0  0  0  0  0  0  0  0  0
   15.3160   -6.2525    0.0000 C   0  0  0  0  0  0  0  0  0  0  0  0
   17.3898   -6.9386    0.0000 S   0  0  0  0  0  0  0  0  0  0  0  0
   18.2125   -6.9375    0.0000 N   0  0  0  0  0  0  0  0  0  0  0  0
   17.3834   -6.1136    0.0000 O   0  0  0  0  0  0  0  0  0  0  0  0
   17.3985   -7.7635    0.0000 O   0  0  0  0  0  0  0  0  0  0  0  0
   18.6259   -7.6514    0.0000 C   0  0  0  0  0  0  0  0  0  0  0  0
   18.2113   -8.3643    0.0000 N   0  0  0  0  0  0  0  0  0  0  0  0
   18.6241   -9.0777    0.0000 C   0  0  0  0  0  0  0  0  0  0  0  0
   19.4499   -9.0771    0.0000 C   0  0  0  0  0  0  0  0  0  0  0  0
   19.8613   -8.3571    0.0000 C   0  0  0  0  0  0  0  0  0  0  0  0
   19.4462   -7.6466    0.0000 N   0  0  0  0  0  0  0  0  0  0  0  0
    7.9659   -7.2601    0.0000 C   0  0  0  0  0  0  0  0  0  0  0  0
    7.2518   -6.8470    0.0000 C   0  0  0  0  0  0  0  0  0  0  0  0
    7.9653   -8.0851    0.0000 C   0  0  0  0  0  0  0  0  0  0  0  0
    7.2458   -7.6667    0.0000 C   0  0  0  0  0  0  0  0  0  0  0  0
 17 18  1  0  0  0  0 
  7  9  2  0  0  0  0 
 18 19  2  0  0  0  0 
  8 10  1  0  0  0  0 
 19 20  1  0  0  0  0 
  4  5  1  0  0  0  0 
 20 21  2  0  0  0  0 
  2  3  1  0  0  0  0 
 21 22  1  0  0  0  0 
  5  6  2  0  0  0  0 
 22 23  2  0  0  0  0 
 23 18  1  0  0  0  0 
  6  1  1  0  0  0  0 
 21 24  1  0  0  0  0 
 10 11  2  0  0  0  0 
 24 25  1  0  0  0  0 
 11 12  1  0  0  0  0 
 24 26  2  0  0  0  0 
 12 13  1  0  0  0  0 
 24 27  2  0  0  0  0 
 13  8  1  0  0  0  0 
 25 28  1  0  0  0  0 
  1  2  2  0  0  0  0 
 28 29  2  0  0  0  0 
 13 14  2  0  0  0  0 
 29 30  1  0  0  0  0 
  5  7  1  0  0  0  0 
 30 31  2  0  0  0  0 
 11 15  1  0  0  0  0 
 31 32  1  0  0  0  0 
  3  4  2  0  0  0  0 
 32 33  2  0  0  0  0 
 33 28  1  0  0  0  0 
 12 16  1  0  0  0  0 
  2 34  1  0  0  0  0 
  7  8  1  0  0  0  0 
 34 35  1  0  0  0  0 
 16 17  2  0  0  0  0 
 34 36  1  0  0  0  0 
 34 37  1  0  0  0  0 
M  END