
  SciTegic01161211242D

 22 24  0  0  0  0            999 V2000
   -3.6390    1.8813    0.0000 C   0  0
   -3.6402    1.0548    0.0000 C   0  0
   -2.9261    0.6424    0.0000 C   0  0
   -2.9279    2.2935    0.0000 C   0  0
   -2.2134    1.8849    0.0000 C   0  0
   -2.2145    1.0573    0.0000 C   0  0
   -0.7833    1.8829    0.0000 O   0  0
   -1.5000    2.2999    0.0000 C   0  0
   -4.3528    2.2931    0.0000 O   0  0
   -4.3542    0.6434    0.0000 O   0  0
   -1.5000    3.1240    0.0000 O   0  0
   -2.9245   -0.1817    0.0000 O   0  0
   -0.7838    1.0588    0.0000 C   0  0
   -1.5021    0.6447    0.0000 C   0  0
   -1.3304   -0.1662    0.0000 C   0  0
   -0.5057   -0.2538    0.0000 C   0  0
   -0.1680    0.5034    0.0000 C   0  0
    0.6382    0.6742    0.0000 O   0  0
   -1.7272   -0.8884    0.0000 C   0  0
   -2.5511   -0.9060    0.0000 O   0  0
   -1.3000   -1.5932    0.0000 O   0  0
   -1.6968   -2.3155    0.0000 C   0  0
  2 10  1  0
  5  6  1  0
  8 11  2  0
  3 12  1  0
 13 14  2  0
  2  3  1  0
  3  6  2  0
  1  2  2  0
  5  8  1  0
  6 14  1  0
 14 15  1  0
 15 16  1  0
 16 17  1  0
 17 13  1  0
 13  7  1  0
 17 18  2  0
  7  8  1  0
 15 19  1  0
  5  4  2  0
 19 20  2  0
  1  9  1  0
 19 21  1  0
  4  1  1  0
 21 22  1  0
M  END