
          11280714522D 1   1.00000     0.00000     0

 57 62  0     0  0            999 V2000
    3.8625   -1.4500    0.0000 N   0  0  0  0  0  0           0  0  0
    3.7375   -0.6250    0.0000 C   0  0  3  0  0  0           0  0  0
    2.2417   -0.5042    0.0000 N   0  0  3  0  0  0           0  0  0
    3.2875   -2.0542    0.0000 C   0  0  0  0  0  0           0  0  0
    3.0167   -0.2000    0.0000 C   0  0  0  0  0  0           0  0  0
    2.4542   -1.9917    0.0000 C   0  0  0  0  0  0           0  0  0
    4.4250   -0.1667    0.0000 N   0  0  0  0  0  0           0  0  0
    1.9917   -1.3000    0.0000 C   0  0  0  0  0  0           0  0  0
    5.1667   -0.5292    0.0000 C   0  0  0  0  0  0           0  0  0
    3.5792   -2.8292    0.0000 C   0  0  0  0  0  0           0  0  0
    5.8500   -0.0667    0.0000 N   0  0  0  0  0  0           0  0  0
   12.7917  -12.2792    0.0000 N   0  0  3  0  0  0           0  0  0
    8.8500   -6.5292    0.0000 C   0  0  0  0  0  0           0  0  0
    6.6167   -4.7417    0.0000 C   0  0  0  0  0  0           0  0  0
    3.0875    0.6208    0.0000 O   0  0  0  0  0  0           0  0  0
    5.2167   -1.3500    0.0000 O   0  0  0  0  0  0           0  0  0
    4.3917   -2.9542    0.0000 C   0  0  0  0  0  0           0  0  0
    8.0292   -6.4042    0.0000 C   0  0  0  0  0  0           0  0  0
    6.5917   -0.4292    0.0000 C   0  0  0  0  0  0           0  0  0
    9.6375   -6.2792    0.0000 O   0  0  0  0  0  0           0  0  0
    7.1375   -4.0917    0.0000 O   0  0  0  0  0  0           0  0  0
   12.0417  -11.9417    0.0000 C   0  0  0  0  0  0           0  0  0
   11.9500  -11.1250    0.0000 C   0  0  0  0  0  0           0  0  0
    6.9167   -5.5042    0.0000 N   0  0  0  0  0  0           0  0  0
    8.6667   -7.3375    0.0000 N   0  0  0  0  0  0           0  0  0
    5.5042   -3.8417    0.0000 O   0  0  0  0  0  0           0  0  0
    1.6417    0.0625    0.0000 C   0  0  0  0  0  0           0  0  0
    5.8042   -4.6167    0.0000 C   0  0  0  0  0  0           0  0  0
    4.6917   -3.7167    0.0000 C   0  0  0  0  0  0           0  0  0
    6.6417   -1.2542    0.0000 C   0  0  0  0  0  0           0  0  0
   11.2000  -10.7875    0.0000 C   0  0  0  0  0  0           0  0  0
    7.7375   -5.6375    0.0000 C   0  0  0  0  0  0           0  0  0
    2.0917   -2.7292    0.0000 C   0  0  0  0  0  0           0  0  0
   11.1125   -9.9750    0.0000 C   0  0  0  0  0  0           0  0  0
    1.1667   -1.3542    0.0000 C   0  0  0  0  0  0           0  0  0
    7.3792   -1.6167    0.0000 C   0  0  0  0  0  0           0  0  0
    3.0625   -3.4667    0.0000 C   0  0  0  0  0  0           0  0  0
    9.5167   -8.4875    0.0000 C   0  0  0  0  0  0           0  0  0
   10.3625   -9.6417    0.0000 O   0  0  0  0  0  0           0  0  0
   12.8792  -13.1000    0.0000 C   0  0  0  0  0  0           0  0  0
   13.4417  -11.7917    0.0000 C   0  0  0  0  0  0           0  0  0
    3.3542   -4.2375    0.0000 C   0  0  0  0  0  0           0  0  0
   12.5167   -9.8250    0.0000 C   0  0  0  0  0  0           0  0  0
    8.0042   -0.3292    0.0000 C   0  0  0  0  0  0           0  0  0
    9.4167   -7.6667    0.0000 C   0  0  0  0  0  0           0  0  0
    7.2667    0.0333    0.0000 C   0  0  0  0  0  0           0  0  0
   12.6125  -10.6417    0.0000 C   0  0  0  0  0  0           0  0  0
   10.2667   -8.8167    0.0000 C   0  0  0  0  0  0           0  0  0
    4.1750   -4.3667    0.0000 C   0  0  0  0  0  0           0  0  0
   11.7667   -9.4917    0.0000 C   0  0  0  0  0  0           0  0  0
    8.0667   -1.1542    0.0000 C   0  0  0  0  0  0           0  0  0
    7.4375   -2.4375    0.0000 C   0  0  0  0  0  0           0  0  0
    1.2667   -2.7792    0.0000 C   0  0  0  0  0  0           0  0  0
    0.8042   -2.0917    0.0000 C   0  0  0  0  0  0           0  0  0
   14.1917  -12.1292    0.0000 C   0  0  0  0  0  0           0  0  0
   13.6292  -13.4292    0.0000 C   0  0  0  0  0  0           0  0  0
   14.2917  -12.9500    0.0000 C   0  0  0  0  0  0           0  0  0
  2  1  1  0     0  0
  3  5  1  0     0  0
  4  1  2  0     0  0
  5  2  1  0     0  0
  6  4  1  0     0  0
  7  2  1  0     0  0
  8  6  1  0     0  0
  9  7  1  0     0  0
 10  4  1  0     0  0
 11  9  1  0     0  0
 12 22  1  0     0  0
 13 18  1  0     0  0
 14 28  1  0     0  0
 15  5  2  0     0  0
 16  9  2  0     0  0
 17 10  1  0     0  0
 18 32  1  0     0  0
 19 11  1  0     0  0
 20 13  2  0     0  0
 21 14  2  0     0  0
 22 23  1  0     0  0
 23 31  2  0     0  0
 24 14  1  0     0  0
 25 13  1  0     0  0
 26 29  1  0     0  0
 27  3  1  0     0  0
 28 26  1  0     0  0
 29 17  2  0     0  0
 30 19  2  0     0  0
 31 34  1  0     0  0
 32 24  1  0     0  0
 33  6  2  0     0  0
 34 39  1  0     0  0
 35  8  2  0     0  0
 36 30  1  0     0  0
 37 10  2  0     0  0
 38 45  1  0     0  0
 39 48  1  0     0  0
 40 12  1  0     0  0
 41 12  1  0     0  0
 42 37  1  0     0  0
 43 50  1  0     0  0
 44 46  2  0     0  0
 45 25  1  0     0  0
 46 19  1  0     0  0
 47 43  2  0     0  0
 48 38  1  0     0  0
 49 42  2  0     0  0
 50 34  2  0     0  0
 51 44  1  0     0  0
 52 36  1  0     0  0
 53 33  1  0     0  0
 54 53  2  0     0  0
 55 41  1  0     0  0
 56 40  1  0     0  0
 57 55  1  0     0  0
  3  8  1  0     0  0
 49 29  1  0     0  0
 54 35  1  0     0  0
 51 36  2  0     0  0
 23 47  1  0     0  0
 56 57  1  0     0  0
M  END