
          11280715122D 1   1.00000     0.00000     0

 30 32  0     0  0            999 V2000
    8.1292   -3.2792    0.0000 C   0  0  0  0  0  0           0  0  0
    7.4125   -2.8667    0.0000 C   0  0  0  0  0  0           0  0  0
    2.8542   -2.8917    0.0000 N   0  0  3  0  0  0           0  0  0
    8.1250   -4.1042    0.0000 C   0  0  0  0  0  0           0  0  0
    2.1417   -2.4792    0.0000 C   0  0  0  0  0  0           0  0  0
    4.2792   -3.7167    0.0000 N   0  0  3  0  0  0           0  0  0
    7.4125   -2.0417    0.0000 C   0  0  3  0  0  0           0  0  0
    8.8417   -4.5167    0.0000 N   0  0  0  0  0  0           0  0  0
    6.7000   -3.2792    0.0000 O   0  0  0  0  0  0           0  0  0
    3.5750   -2.4792    0.0000 C   0  0  0  0  0  0           0  0  0
    2.8542   -3.7167    0.0000 C   0  0  0  0  0  0           0  0  0
    2.1417   -1.6542    0.0000 C   0  0  0  0  0  0           0  0  0
    7.3000   -4.1042    0.0000 N   0  0  0  0  0  0           0  0  0
    4.2792   -2.8917    0.0000 C   0  0  0  0  0  0           0  0  0
    3.5667   -4.1292    0.0000 C   0  0  0  0  0  0           0  0  0
    8.8417   -2.8667    0.0000 C   0  0  0  0  0  0           0  0  0
    2.8542   -1.2375    0.0000 O   0  0  0  0  0  0           0  0  0
    5.0000   -4.1292    0.0000 C   0  0  0  0  0  0           0  0  0
    5.7917   -3.9042    0.0000 C   0  0  0  0  0  0           0  0  0
    1.4250   -2.8917    0.0000 C   0  0  0  0  0  0           0  0  0
    8.1250   -1.6292    0.0000 C   0  0  0  0  0  0           0  0  0
    6.6917   -1.6292    0.0000 C   0  0  0  0  0  0           0  0  0
    8.2042   -2.2542    0.0000 C   0  0  0  0  0  0           0  0  0
    9.5542   -4.1042    0.0000 C   0  0  0  0  0  0           0  0  0
    6.5042   -4.3167    0.0000 C   0  0  0  0  0  0           0  0  0
    1.4250   -1.2417    0.0000 C   0  0  0  0  0  0           0  0  0
    3.5667   -1.6417    0.0000 C   0  0  0  0  0  0           0  0  0
    9.5542   -3.2750    0.0000 C   0  0  0  0  0  0           0  0  0
    0.7125   -2.4792    0.0000 C   0  0  0  0  0  0           0  0  0
    0.7125   -1.6542    0.0000 C   0  0  0  0  0  0           0  0  0
  2  1  1  0     0  0
  3 11  1  0     0  0
  4  1  2  0     0  0
  5  3  1  0     0  0
  6 18  1  0     0  0
  7  2  1  0     0  0
  8  4  1  0     0  0
  9  2  2  0     0  0
 10 14  1  0     0  0
 11 15  1  0     0  0
 12  5  1  0     0  0
 13  4  1  0     0  0
 14  6  1  0     0  0
 15  6  1  0     0  0
 16  1  1  0     0  0
 17 12  1  0     0  0
 18 19  1  0     0  0
 19 25  1  0     0  0
 20  5  2  0     0  0
 21  7  1  0     0  0
 22  7  1  0     0  0
 23  7  1  0     0  0
 24 28  1  0     0  0
 25 13  1  0     0  0
 26 12  2  0     0  0
 27 17  1  0     0  0
 28 16  2  0     0  0
 29 20  1  0     0  0
 30 29  2  0     0  0
 24  8  2  0     0  0
  3 10  1  0     0  0
 30 26  1  0     0  0
M  END