
  SciTegic05171617272D

 35 38  0  0  1  0            999 V2000
   -7.3268   12.5752    0.0000 C   0  0
   -6.2827   11.9837    0.0000 O   0  0
   -6.2695   10.4829    0.0000 C   0  0
   -4.9655    9.7416    0.0000 C   0  0
   -4.9554    8.2417    0.0000 C   0  0
   -6.2494    7.4828    0.0000 C   0  0
   -7.5534    8.2242    0.0000 C   0  0
   -7.5635    9.7242    0.0000 C   0  0
   -6.2413    5.9820    0.0000 C   0  0  2  0  0  0
   -7.2775    5.3768    0.0000 C   0  0
   -4.9380    5.2378    0.0000 N   0  0
   -4.9300    3.7369    0.0000 C   0  0
   -5.9662    3.1317    0.0000 O   0  0
   -3.6267    2.9927    0.0000 C   0  0
   -3.6187    1.4919    0.0000 O   0  0
   -2.3155    0.7475    0.0000 C   0  0
   -2.3155   -0.7475    0.0000 C   0  0
   -1.0028   -1.5132    0.0000 C   0  0
   -0.9971   -3.0138    0.0000 C   0  0
   -2.0337   -3.6184    0.0000 F   0  0
    0.0446   -3.6095    0.0000 F   0  0
    0.2917   -0.7475    0.0000 C   0  0
    1.7138   -1.2033    0.0000 C   0  0
    2.5889    0.0182    0.0000 N   0  0
    1.7138    1.2033    0.0000 N   0  0
    2.0825    2.3453    0.0000 C   0  0
    0.2917    0.7475    0.0000 C   0  0
   -1.0028    1.5132    0.0000 N   0  0
    2.1852   -2.6281    0.0000 C   0  0
    1.2071   -3.7498    0.0000 C   0  0
    1.9971   -5.0249    0.0000 C   0  0
    1.5433   -6.1358    0.0000 C   0  0
    3.4539   -4.6676    0.0000 O   0  0
    3.5643   -3.1717    0.0000 C   0  0
    4.5805   -2.5334    0.0000 C   0  0
  1  2  1  0
  2  3  1  0
  3  4  2  0
  4  5  1  0
  5  6  2  0
  6  7  1  0
  7  8  2  0
  3  8  1  0
  6  9  1  0
  9 10  1  1
  9 11  1  0
 11 12  1  0
 12 13  2  0
 12 14  1  0
 14 15  1  0
 15 16  1  0
 16 17  2  0
 17 18  1  0
 18 19  1  0
 19 20  1  0
 19 21  1  0
 18 22  2  0
 22 23  1  0
 23 24  2  0
 24 25  1  0
 25 26  1  0
 25 27  1  0
 22 27  1  0
 27 28  2  0
 16 28  1  0
 23 29  1  0
 29 30  1  0
 30 31  2  0
 31 32  1  0
 31 33  1  0
 33 34  1  0
 29 34  2  0
 34 35  1  0
M  END