
          11280715022D 1   1.00000     0.00000     0

 26 28  0     1  0            999 V2000
    0.2375   -2.2625    0.0000 N   0  0  3  0  0  0           0  0  0
   -0.4583   -2.7042    0.0000 C   0  0  0  0  0  0           0  0  0
    7.9917    0.1833    0.0000 C   0  0  3  0  0  0           0  0  0
    7.2625    0.5583    0.0000 C   0  0  0  0  0  0           0  0  0
    8.4417   -0.5042    0.0000 C   0  0  0  0  0  0           0  0  0
    8.8167    0.2333    0.0000 C   0  0  0  0  0  0           0  0  0
    1.6292   -1.3750    0.0000 N   0  0  3  0  0  0           0  0  0
    6.5667    0.1083    0.0000 C   0  0  0  0  0  0           0  0  0
   -0.4583   -3.5292    0.0000 O   0  0  0  0  0  0           0  0  0
    0.2042   -1.4375    0.0000 C   0  0  0  0  0  0           0  0  0
    0.9667   -2.6417    0.0000 C   0  0  0  0  0  0           0  0  0
    7.2167    1.3833    0.0000 O   0  0  0  0  0  0           0  0  0
   -1.1708   -2.2917    0.0000 C   0  0  2  0  0  0           0  0  0
    5.8375    0.4833    0.0000 C   0  0  0  0  0  0           0  0  0
    6.6125   -0.7125    0.0000 C   0  0  0  0  0  0           0  0  0
    1.6667   -2.1917    0.0000 C   0  0  0  0  0  0           0  0  0
    0.8917   -0.9917    0.0000 C   0  0  0  0  0  0           0  0  0
    5.1792   -0.7875    0.0000 C   0  0  0  0  0  0           0  0  0
   -1.8833   -2.7042    0.0000 N   0  0  0  0  0  0           0  0  0
    5.9167   -1.1667    0.0000 C   0  0  0  0  0  0           0  0  0
    5.1417    0.0375    0.0000 C   0  0  0  0  0  0           0  0  0
    2.3167   -0.9250    0.0000 C   0  0  0  0  0  0           0  0  0
    3.0542   -1.3042    0.0000 C   0  0  0  0  0  0           0  0  0
    4.4875   -1.2292    0.0000 O   0  0  0  0  0  0           0  0  0
    3.7542   -0.8542    0.0000 C   0  0  0  0  0  0           0  0  0
   -1.1708   -1.4667    0.0000 C   0  0  0  0  0  0           0  0  0
  2  1  1  0     0  0
  3  4  1  0     0  0
  4  8  1  0     0  0
  5  3  1  0     0  0
  6  3  1  0     0  0
  7 16  1  0     0  0
  8 14  1  0     0  0
  9  2  2  0     0  0
 10  1  1  0     0  0
 11  1  1  0     0  0
 12  4  2  0     0  0
 13  2  1  0     0  0
 14 21  2  0     0  0
 15 20  1  0     0  0
 16 11  1  0     0  0
 17 10  1  0     0  0
 18 24  1  0     0  0
 19 13  1  0     0  0
 20 18  2  0     0  0
 21 18  1  0     0  0
 22  7  1  0     0  0
 23 22  1  0     0  0
 24 25  1  0     0  0
 25 23  1  0     0  0
 13 26  1  6     0  0
 17  7  1  0     0  0
  8 15  2  0     0  0
  5  6  1  0     0  0
M  END