
  SciTegic04091414152D

 33 37  0  0  0  0            999 V2000
   13.4414   -4.2084    0.0000 C   0  0
   12.7249   -4.6101    0.0000 C   0  0  2  0  0  0
   12.7160   -5.4278    0.0000 C   0  0
   13.4410   -5.8241    0.0000 N   0  3
   14.1396   -5.4450    0.0000 C   0  0
   14.1502   -4.6211    0.0000 C   0  0
   12.9105   -4.8346    0.0000 C   0  0
   13.6578   -5.1740    0.0000 C   0  0
   12.0183   -4.1885    0.0000 O   0  0
   10.6651   -3.7401    0.0000 C   0  0
   10.1248   -4.3580    0.0000 C   0  0
   11.2164   -4.3549    0.0000 C   0  0
    9.9074   -3.4146    0.0000 C   0  0
    9.6808   -2.6240    0.0000 C   0  0
   10.1622   -1.9573    0.0000 C   0  0
   10.9803   -1.9233    0.0000 C   0  0
   11.5227   -2.5345    0.0000 C   0  0
   11.3835   -3.3463    0.0000 C   0  0
    9.3071   -4.2880    0.0000 C   0  0
    8.9803   -5.0466    0.0000 C   0  0
    9.6023   -5.5907    0.0000 C   0  0
   10.3108   -5.1658    0.0000 C   0  0
   10.9594   -5.1348    0.0000 O   0  0
   13.3324   -6.6381    0.0000 C   0  0
   13.9796   -7.1413    0.0000 C   0  0
   13.8710   -7.9553    0.0000 C   0  0
   14.5223   -8.4584    0.0000 O   0  0
   14.4138   -9.2684    0.0000 C   0  0
   13.6539   -9.5789    0.0000 C   0  0
   13.5451  -10.3922    0.0000 C   0  0
   14.1968  -10.8921    0.0000 C   0  0
   14.9595  -10.5771    0.0000 C   0  0
   15.0647   -9.7647    0.0000 C   0  0
  1  2  1  0
  1  6  1  0
  2  3  1  0
  3  4  1  0
  4  5  1  0
  5  6  1  0
  1  7  1  0
  4  8  1  0
  7  8  1  0
  2  9  1  6
 11 10  1  0
 10 12  1  0
 13 14  1  0
 14 15  1  0
 15 16  1  0
 13 10  1  0
 16 17  1  0
 10 18  1  0
 17 18  1  0
 11 19  2  0
 19 20  1  0
 20 21  2  0
 21 22  1  0
 22 11  1  0
 12 23  2  0
 12  9  1  0
  4 24  1  0
 24 25  1  0
 25 26  1  0
 26 27  1  0
 27 28  1  0
 28 29  2  0
 29 30  1  0
 30 31  2  0
 31 32  1  0
 32 33  2  0
 33 28  1  0
M  CHG  1   4   1
M  END