
          11280715432D 1   1.00000     0.00000     0

 30 33  0     1  0            999 V2000
   -1.2250   -1.7125    0.0000 C   0  0  0  0  0  0           0  0  0
   -0.4083   -1.8167    0.0000 N   0  0  0  0  0  0           0  0  0
   -0.0583   -1.0875    0.0000 C   0  0  0  0  0  0           0  0  0
   -1.8000   -2.3000    0.0000 N   0  0  0  0  0  0           0  0  0
   -0.6583   -0.5167    0.0000 C   0  0  0  0  0  0           0  0  0
   -1.3833   -0.9125    0.0000 S   0  0  0  0  0  0           0  0  0
   -2.5875   -2.1000    0.0000 C   0  0  0  0  0  0           0  0  0
   -0.5583    0.3083    0.0000 C   0  0  0  0  0  0           0  0  0
    0.7375   -0.8500    0.0000 C   0  0  0  0  0  0           0  0  0
   -3.1625   -2.6917    0.0000 O   0  0  0  0  0  0           0  0  0
    2.7167    1.2083    0.0000 C   0  0  0  0  0  0           0  0  0
    1.9375    1.0000    0.0000 C   0  0  0  0  0  0           0  0  0
   -2.8208   -1.3000    0.0000 C   0  0  1  0  0  0           0  0  0
    3.3000    0.6250    0.0000 C   0  0  0  0  0  0           0  0  0
    0.9167   -0.0292    0.0000 O   0  0  0  0  0  0           0  0  0
    3.0792   -0.1542    0.0000 C   0  0  0  0  0  0           0  0  0
    1.7167    0.2000    0.0000 C   0  0  0  0  0  0           0  0  0
   -3.6208   -1.1000    0.0000 N   0  0  0  0  0  0           0  0  0
   -1.2208    0.8000    0.0000 C   0  0  0  0  0  0           0  0  0
    2.2792   -0.3750    0.0000 C   0  0  0  0  0  0           0  0  0
    2.9375    2.0000    0.0000 C   0  0  0  0  0  0           0  0  0
    4.0792    0.8458    0.0000 C   0  0  0  0  0  0           0  0  0
   -2.2458   -0.7167    0.0000 C   0  0  0  0  0  0           0  0  0
   -1.1250    1.6125    0.0000 C   0  0  0  0  0  0           0  0  0
   -1.9833    0.4625    0.0000 C   0  0  0  0  0  0           0  0  0
    3.7375    2.2083    0.0000 C   0  0  0  0  0  0           0  0  0
    4.3000    1.6458    0.0000 C   0  0  0  0  0  0           0  0  0
   -1.7875    2.1000    0.0000 C   0  0  0  0  0  0           0  0  0
   -2.6458    0.9625    0.0000 C   0  0  0  0  0  0           0  0  0
   -2.5583    1.7708    0.0000 C   0  0  0  0  0  0           0  0  0
  2  1  2  0     0  0
  3  2  1  0     0  0
  4  1  1  0     0  0
  5  6  1  0     0  0
  6  1  1  0     0  0
  7  4  1  0     0  0
  8  5  1  0     0  0
  9  3  1  0     0  0
 10  7  2  0     0  0
 11 12  2  0     0  0
 12 17  1  0     0  0
 13  7  1  0     0  0
 14 16  2  0     0  0
 15  9  1  0     0  0
 16 20  1  0     0  0
 17 15  1  0     0  0
 18 13  1  0     0  0
 19  8  1  0     0  0
 20 17  2  0     0  0
 21 11  1  0     0  0
 22 14  1  0     0  0
 13 23  1  1     0  0
 24 19  2  0     0  0
 25 19  1  0     0  0
 26 21  2  0     0  0
 27 22  2  0     0  0
 28 24  1  0     0  0
 29 25  2  0     0  0
 30 29  1  0     0  0
  3  5  2  0     0  0
 30 28  2  0     0  0
 14 11  1  0     0  0
 27 26  1  0     0  0
M  END