
          11280715362D 1   1.00000     0.00000     0

 24 25  0     1  0            999 V2000
    2.6000   -3.3417    0.0000 O   0  0  0  0  0  0           0  0  0
    3.3167   -2.9375    0.0000 C   0  0  1  0  0  0           0  0  0
    1.8917   -2.9292    0.0000 C   0  0  3  0  0  0           0  0  0
    1.8917   -2.1042    0.0000 O   0  0  0  0  0  0           0  0  0
    3.3167   -2.1125    0.0000 C   0  0  1  0  0  0           0  0  0
    8.4292   -2.1042    0.0000 C   0  0  0  0  0  0           0  0  0
    2.6042   -1.6917    0.0000 C   0  0  0  0  0  0           0  0  0
    4.0292   -3.3500    0.0000 C   0  0  0  0  0  0           0  0  0
    9.1417   -1.6875    0.0000 O   0  0  0  0  0  0           0  0  0
    4.7500   -2.1167    0.0000 C   0  0  0  0  0  0           0  0  0
    5.5750   -2.1167    0.0000 C   0  0  0  0  0  0           0  0  0
    8.4375   -2.9292    0.0000 O   0  0  0  0  0  0           0  0  0
    4.0375   -1.7042    0.0000 C   0  0  0  0  0  0           0  0  0
    1.0667   -2.9292    0.0000 C   0  0  0  0  0  0           0  0  0
    1.4750   -3.6417    0.0000 C   0  0  0  0  0  0           0  0  0
    7.7125   -1.6917    0.0000 C   0  0  0  0  0  0           0  0  0
    6.2875   -1.7042    0.0000 C   0  0  0  0  0  0           0  0  0
    4.0250   -4.1667    0.0000 C   0  0  0  0  0  0           0  0  0
    4.7292   -2.9375    0.0000 C   0  0  0  0  0  0           0  0  0
    7.0042   -2.1125    0.0000 C   0  0  0  0  0  0           0  0  0
    5.4417   -3.3417    0.0000 C   0  0  0  0  0  0           0  0  0
    4.7375   -4.5792    0.0000 C   0  0  0  0  0  0           0  0  0
    5.4500   -4.1667    0.0000 C   0  0  0  0  0  0           0  0  0
    3.3167   -1.2875    0.0000 H   0  0  0  0  0  0           0  0  0
  2  1  1  0     0  0
  3  1  1  0     0  0
  4  3  1  0     0  0
  5  2  1  0     0  0
  6 16  1  0     0  0
  7  4  1  0     0  0
  2  8  1  1     0  0
  9  6  2  0     0  0
 10 13  1  0     0  0
 11 10  2  0     0  0
 12  6  1  0     0  0
  5 13  1  1     0  0
 14  3  1  0     0  0
 15  3  1  0     0  0
 16 20  1  0     0  0
 17 11  1  0     0  0
 18  8  2  0     0  0
 19  8  1  0     0  0
 20 17  1  0     0  0
 21 19  2  0     0  0
 22 18  1  0     0  0
 23 21  1  0     0  0
  5 24  1  6     0  0
  7  5  1  0     0  0
 23 22  2  0     0  0
M  END