
          11280715342D 1   1.00000     0.00000     0

 26 28  0     1  0            999 V2000
    5.9167   -0.6000    0.0000 C   0  0  3  0  0  0           0  0  0
    5.5042    0.6750    0.0000 C   0  0  0  0  0  0           0  0  0
    6.3375    0.6708    0.0000 C   0  0  0  0  0  0           0  0  0
    5.2542   -0.1125    0.0000 C   0  0  0  0  0  0           0  0  0
    6.5875   -0.1125    0.0000 C   0  0  0  0  0  0           0  0  0
    5.2042   -2.6625    0.0000 C   0  0  0  0  0  0           0  0  0
    4.4917   -3.0750    0.0000 N   0  0  0  0  0  0           0  0  0
    4.4917   -3.8917    0.0000 C   0  0  1  0  0  0           0  0  0
    5.2000   -4.3042    0.0000 C   0  0  0  0  0  0           0  0  0
    5.9167   -1.4250    0.0000 C   0  0  0  0  0  0           0  0  0
    5.2042   -1.8375    0.0000 O   0  0  0  0  0  0           0  0  0
    5.9250   -3.0750    0.0000 O   0  0  0  0  0  0           0  0  0
    5.2000   -5.1167    0.0000 O   0  0  0  0  0  0           0  0  0
    3.7792   -4.3042    0.0000 C   0  0  0  0  0  0           0  0  0
    5.9167   -3.8917    0.0000 O   0  0  0  0  0  0           0  0  0
    6.8792    1.2833    0.0000 C   0  0  0  0  0  0           0  0  0
    4.9625    1.2875    0.0000 C   0  0  0  0  0  0           0  0  0
    4.4375   -0.2792    0.0000 C   0  0  0  0  0  0           0  0  0
    7.3875   -0.2792    0.0000 C   0  0  0  0  0  0           0  0  0
    3.1625   -3.7750    0.0000 C   0  0  3  0  0  0           0  0  0
    3.2167   -2.9625    0.0000 C   0  0  0  0  0  0           0  0  0
    2.4000   -4.0875    0.0000 C   0  0  0  0  0  0           0  0  0
    7.6875    1.1083    0.0000 C   0  0  0  0  0  0           0  0  0
    4.1542    1.1208    0.0000 C   0  0  0  0  0  0           0  0  0
    3.8917    0.3375    0.0000 C   0  0  0  0  0  0           0  0  0
    7.9417    0.3250    0.0000 C   0  0  0  0  0  0           0  0  0
  2  4  1  0     0  0
  3  5  2  0     0  0
  4  1  1  0     0  0
  5  1  1  0     0  0
  6 11  1  0     0  0
  7  6  1  0     0  0
  8  7  1  0     0  0
  9  8  1  0     0  0
 10  1  1  0     0  0
 11 10  1  0     0  0
 12  6  2  0     0  0
 13  9  2  0     0  0
  8 14  1  1     0  0
 15  9  1  0     0  0
 16  3  1  0     0  0
 17  2  2  0     0  0
 18  4  2  0     0  0
 19  5  1  0     0  0
 20 14  1  0     0  0
 21 20  1  0     0  0
 22 20  1  0     0  0
 23 26  1  0     0  0
 24 25  2  0     0  0
 25 18  1  0     0  0
 26 19  2  0     0  0
  3  2  1  0     0  0
 23 16  2  0     0  0
 17 24  1  0     0  0
M  END