
          11280715302D 1   1.00000     0.00000     0

 11 11  0     0  0            999 V2000
    2.8667   -2.5292    0.0000 N   0  0  0  0  0  0           0  0  0
    5.0042    0.3833    0.0000 N   0  0  3  0  0  0           0  0  0
    4.2917   -0.0292    0.0000 C   0  0  0  0  0  0           0  0  0
    4.3000   -0.8625    0.0000 C   0  0  0  0  0  0           0  0  0
    3.5792   -1.2875    0.0000 C   0  0  0  0  0  0           0  0  0
    3.5792   -2.1167    0.0000 C   0  0  0  0  0  0           0  0  0
    2.1500   -2.1167    0.0000 C   0  0  0  0  0  0           0  0  0
    5.7167   -0.0292    0.0000 C   0  0  0  0  0  0           0  0  0
    5.0042    1.2125    0.0000 C   0  0  0  0  0  0           0  0  0
    2.8667   -0.8750    0.0000 C   0  0  0  0  0  0           0  0  0
    2.1500   -1.2875    0.0000 C   0  0  0  0  0  0           0  0  0
  2  3  1  0     0  0
  3  4  1  0     0  0
  4  5  1  0     0  0
  5  6  2  0     0  0
  6  1  1  0     0  0
  7  1  2  0     0  0
  8  2  1  0     0  0
  9  2  1  0     0  0
 10 11  2  0     0  0
 11  7  1  0     0  0
 10  5  1  0     0  0
M  END