
          11280715522D 1   1.00000     0.00000     0

 44 47  0     0  0            999 V2000
   -5.3181   -5.6041    0.0000 C   0  0  0  0  0  0           0  0  0
   -5.3193   -6.4315    0.0000 C   0  0  0  0  0  0           0  0  0
   -4.6044   -6.8444    0.0000 C   0  0  0  0  0  0           0  0  0
   -4.6062   -5.1914    0.0000 C   0  0  0  0  0  0           0  0  0
   -3.8909   -5.6005    0.0000 C   0  0  0  0  0  0           0  0  0
   -3.8901   -6.4273    0.0000 C   0  0  0  0  0  0           0  0  0
   -3.1748   -6.8383    0.0000 N   0  0  0  0  0  0           0  0  0
   -2.4598   -6.4235    0.0000 C   0  0  0  0  0  0           0  0  0
   -2.4645   -5.5936    0.0000 C   0  0  0  0  0  0           0  0  0
   -3.1804   -5.1863    0.0000 C   0  0  0  0  0  0           0  0  0
   -4.6025   -7.6694    0.0000 O   0  0  0  0  0  0           0  0  0
   -3.8871   -8.0802    0.0000 C   0  0  0  0  0  0           0  0  0
   -3.8852   -8.9052    0.0000 C   0  0  0  0  0  0           0  0  0
   -4.6013   -9.3150    0.0000 C   0  0  0  0  0  0           0  0  0
   -4.5997  -10.1392    0.0000 C   0  0  0  0  0  0           0  0  0
   -3.8838  -10.5509    0.0000 C   0  0  0  0  0  0           0  0  0
   -3.1679  -10.1323    0.0000 C   0  0  0  0  0  0           0  0  0
   -3.1730   -9.3094    0.0000 C   0  0  0  0  0  0           0  0  0
   -5.3154   -8.9018    0.0000 Cl  0  0  0  0  0  0           0  0  0
   -2.4613   -8.8921    0.0000 Cl  0  0  0  0  0  0           0  0  0
   -1.7437   -6.8333    0.0000 C   0  0  0  0  0  0           0  0  0
   -2.4510  -10.5406    0.0000 S   0  0  3  0  0  0           0  0  0
   -1.7417  -10.9500    0.0000 N   0  0  0  0  0  0           0  0  0
   -2.1032   -9.9499    0.0000 O   0  0  0  0  0  0           0  0  0
   -2.9186  -11.1968    0.0000 O   0  0  0  0  0  0           0  0  0
   -0.9647  -10.5687    0.0000 C   0  0  3  0  0  0           0  0  0
   -0.3167  -10.1167    0.0000 C   0  0  0  0  0  0           0  0  0
   -0.6732  -11.1557    0.0000 C   0  0  0  0  0  0           0  0  0
   -1.2256   -9.9818    0.0000 C   0  0  0  0  0  0           0  0  0
   -0.3257   -9.2917    0.0000 O   0  0  0  0  0  0           0  0  0
    0.4023  -10.5213    0.0000 N   0  0  3  0  0  0           0  0  0
    0.4068  -11.3467    0.0000 C   0  0  0  0  0  0           0  0  0
    1.1217  -11.7513    0.0000 C   0  0  0  0  0  0           0  0  0
    1.8341  -11.3345    0.0000 N   0  0  3  0  0  0           0  0  0
    1.8270  -10.5086    0.0000 C   0  0  0  0  0  0           0  0  0
    1.1076  -10.0995    0.0000 C   0  0  0  0  0  0           0  0  0
    2.5515  -11.7419    0.0000 C   0  0  0  0  0  0           0  0  0
    2.5574  -12.5669    0.0000 N   0  0  0  0  0  0           0  0  0
    3.2630  -11.3243    0.0000 N   0  0  0  0  0  0           0  0  0
    3.9804  -11.7316    0.0000 C   0  0  0  0  0  0           0  0  0
    4.6919  -11.3140    0.0000 C   0  0  0  0  0  0           0  0  0
    5.4093  -11.7214    0.0000 C   0  0  0  0  0  0           0  0  0
    6.1208  -11.3038    0.0000 N   0  0  0  0  0  0           0  0  0
   -3.1848   -4.3614    0.0000 C   0  0  0  0  0  0           0  0  0
  8 21  1  0     0  0
 10  5  1  0     0  0
 17 22  1  0     0  0
 22 23  1  0     0  0
  3 11  1  0     0  0
 22 24  2  0     0  0
  2  3  1  0     0  0
 22 25  2  0     0  0
 11 12  1  0     0  0
 23 26  1  0     0  0
  5  6  1  0     0  0
 26 27  1  0     0  0
 12 13  1  0     0  0
 26 28  1  0     0  0
  3  6  2  0     0  0
 26 29  1  0     0  0
 13 14  2  0     0  0
 27 30  2  0     0  0
  6  7  1  0     0  0
 27 31  1  0     0  0
 31 32  1  0     0  0
 14 15  1  0     0  0
  1  2  2  0     0  0
 15 16  2  0     0  0
  7  8  2  0     0  0
 16 17  1  0     0  0
 31 36  1  0     0  0
 32 33  1  0     0  0
 33 34  1  0     0  0
 34 35  1  0     0  0
 35 36  1  0     0  0
  5  4  2  0     0  0
 34 37  1  0     0  0
 17 18  2  0     0  0
 37 38  2  0     0  0
 18 13  1  0     0  0
 37 39  1  0     0  0
  8  9  1  0     0  0
 39 40  1  0     0  0
 14 19  1  0     0  0
 40 41  1  0     0  0
  4  1  1  0     0  0
 41 42  1  0     0  0
 18 20  1  0     0  0
 42 43  1  0     0  0
  9 10  2  0     0  0
 10 44  1  0     0  0
M  END