
  SciTegic06051313522D

 55 60  0  0  0  0            999 V2000
   32.5358  -17.3888    0.0000 C   0  0  2  0  0  0
   32.5358  -18.2139    0.0000 C   0  0  1  0  0  0
   33.2479  -18.6223    0.0000 C   0  0  1  0  0  0
   33.9600  -18.2139    0.0000 C   0  0  2  0  0  0
   33.9600  -17.3888    0.0000 C   0  0  1  0  0  0
   33.2479  -16.9721    0.0000 O   0  0
   34.6757  -16.9784    0.0000 O   0  0
   34.6739  -18.6274    0.0000 O   0  0
   33.2479  -19.4473    0.0000 N   0  0
   31.8219  -18.6274    0.0000 O   0  0
   31.8201  -16.9784    0.0000 C   0  0
   34.6690  -16.1483    0.0000 C   0  0  1  0  0  0
   35.3820  -15.7313    0.0000 C   0  0  1  0  0  0
   35.3787  -14.9098    0.0000 C   0  0  2  0  0  0
   34.6634  -14.4980    0.0000 C   0  0  1  0  0  0
   33.9497  -14.9139    0.0000 O   0  0
   33.9513  -15.7415    0.0000 C   0  0  2  0  0  0
   34.6618  -13.6710    0.0000 O   0  0
   33.9535  -13.2478    0.0000 C   0  0
   33.2329  -13.6494    0.0000 C   0  0
   32.5247  -13.2262    0.0000 C   0  0
   31.8040  -13.6278    0.0000 N   0  0
   31.0958  -13.2046    0.0000 N   0  3
   30.3873  -12.7877    0.0000 N   0  5
   36.0921  -14.4955    0.0000 N   0  0
   36.1798  -13.6730    0.0000 C   0  0
   36.9863  -13.4993    0.0000 C   0  0
   37.3998  -14.2121    0.0000 C   0  0
   38.2220  -14.2095    0.0000 C   0  0
   38.6317  -13.4947    0.0000 C   0  0
   38.2131  -12.7811    0.0000 C   0  0
   37.3923  -12.7874    0.0000 C   0  0
   35.5662  -13.1214    0.0000 O   0  0
   36.0984  -16.1405    0.0000 O   0  0
   35.2485  -16.7304    0.0000 H   0  0
   33.2388  -16.1576    0.0000 C   0  0
   32.5223  -15.7487    0.0000 O   0  0
   31.1068  -17.3930    0.0000 O   0  0
   32.5864  -19.9336    0.0000 N   0  0
   32.8413  -20.7183    0.0000 N   0  0
   33.6665  -20.7183    0.0000 C   0  0
   33.9213  -19.9336    0.0000 C   0  0
   34.0929  -21.4239    0.0000 C   0  0
   33.6925  -22.1466    0.0000 C   0  0
   34.1182  -22.8525    0.0000 C   0  0
   34.9440  -22.8370    0.0000 C   0  0
   35.3423  -22.1095    0.0000 C   0  0
   34.9144  -21.4066    0.0000 C   0  0
   35.3713  -23.5428    0.0000 O   0  0
   34.9737  -24.2657    0.0000 C   0  0
   34.1494  -24.2779    0.0000 C   0  0
   33.7518  -25.0000    0.0000 C   0  0
   34.1792  -25.7069    0.0000 C   0  0
   35.0083  -25.6870    0.0000 C   0  0
   35.4021  -24.9644    0.0000 C   0  0
  1  2  1  0
  1  6  1  0
  2  3  1  0
  3  4  1  0
  4  5  1  0
  5  6  1  0
  5  7  1  1
  4  8  1  6
  3  9  1  1
  2 10  1  1
  1 11  1  1
  7 12  1  0
 12 13  1  0
 12 17  1  0
 13 14  1  0
 14 15  1  0
 15 16  1  0
 16 17  1  0
 15 18  1  1
 18 19  1  0
 19 20  1  0
 20 21  1  0
 21 22  1  0
 22 23  2  0
 23 24  2  0
 14 25  1  6
 27 26  1  0
 26 25  1  0
 27 28  2  0
 28 29  1  0
 29 30  2  0
 30 31  1  0
 31 32  2  0
 32 27  1  0
 26 33  2  0
 13 34  1  1
 12 35  1  1
 17 36  1  1
 36 37  1  0
 11 38  1  0
  9 39  1  0
 39 40  2  0
 40 41  1  0
 41 42  2  0
 42  9  1  0
 43 44  2  0
 44 45  1  0
 45 46  2  0
 46 47  1  0
 47 48  2  0
 48 43  1  0
 41 43  1  0
 46 49  1  0
 49 50  1  0
 50 51  2  0
 51 52  1  0
 52 53  2  0
 53 54  1  0
 54 55  2  0
 55 50  1  0
M  CHG  2  23   1  24  -1
M  END