
  SciTegic01161211252D

115120  0  0  0  0            999 V2000
    1.1550   -1.2372    0.0000 C   0  0  1  0  0  0
    1.1573   -2.0729    0.0000 C   0  0
    1.8687   -2.5019    0.0000 N   0  0
    2.6033   -2.0827    0.0000 C   0  0
    4.0557   -2.1031    0.0000 N   0  0
    3.3279   -2.5113    0.0000 C   0  0
    2.6205    1.1778    0.0000 C   0  0
    5.4963   -2.1019    0.0000 C   0  0
    4.7635   -2.5273    0.0000 C   0  0  2  0  0  0
    1.2007    1.1928    0.0000 S   0  0
    1.9122    1.5962    0.0000 S   0  0
    0.4588   -0.8577    0.0000 N   0  0
    6.2096   -2.5131    0.0000 N   0  0
    6.9261   -2.1003    0.0000 C   0  0  2  0  0  0
    7.6393   -2.5115    0.0000 C   0  0
    8.3517   -2.1030    0.0000 N   0  0
    9.0692   -2.5142    0.0000 C   0  0
    9.7814   -2.1014    0.0000 C   0  0
    9.7805   -1.2774    0.0000 N   0  0
   10.4929   -0.8645    0.0000 C   0  0
    9.7778    1.1990    0.0000 C   0  0
    9.0646    1.6103    0.0000 N   0  0
    8.3522    1.1974    0.0000 C   0  0  2  0  0  0
    7.6347    1.6086    0.0000 C   0  0
    6.9225    1.1959    0.0000 C   0  0
    4.7793    1.6055    0.0000 C   0  0
    4.0671    1.1926    0.0000 N   0  0
    3.3539    1.6081    0.0000 C   0  0  2  0  0  0
   10.4943    1.6118    0.0000 C   0  0  2  0  0  0
   10.4920   -0.0362    0.0000 C   0  0
    3.3482    2.4321    0.0000 C   0  0
    4.0623    2.8448    0.0000 O   0  0
    4.7784    2.4295    0.0000 O   0  0
    6.2105    1.6076    0.0000 N   0  0
    5.4954    1.1993    0.0000 C   0  0  1  0  0  0
    5.6641    0.3946    0.0000 C   0  0
    6.4793    0.3027    0.0000 C   0  0
    6.8179    1.0515    0.0000 C   0  0
    7.3282    0.4840    0.0000 O   0  0
    7.6338    2.4327    0.0000 O   0  0
    9.7787    0.3750    0.0000 O   0  0
   10.7043    2.4054    0.0000 C   0  0
   11.5017    2.6214    0.0000 C   0  0
   11.7159    3.4193    0.0000 C   0  0
   12.0848    2.0396    0.0000 C   0  0
    9.6665   -0.0295    0.0000 O   0  0
   10.4947   -2.5126    0.0000 O   0  0
    7.6402   -3.3398    0.0000 O   0  0
    8.3420    2.0220    0.0000 C   0  0
    9.0540    2.4385    0.0000 C   0  0
    9.7686    2.0304    0.0000 C   0  0
   10.4797    2.4502    0.0000 C   0  0
   10.4745    3.2755    0.0000 C   0  0
    9.7532    3.6826    0.0000 C   0  0
    9.0424    3.2635    0.0000 C   0  0
    6.9184   -2.9265    0.0000 C   0  0
    5.4954   -1.2779    0.0000 O   0  0
    6.5041   -3.6362    0.0000 C   0  0
    5.6778   -3.6290    0.0000 C   0  0
    5.2596   -4.3418    0.0000 C   0  0
    5.6700   -5.0600    0.0000 C   0  0
    6.5012   -5.0631    0.0000 C   0  0
    6.9138   -4.3495    0.0000 C   0  0
    4.7570   -3.3512    0.0000 C   0  0
    4.0389   -3.7581    0.0000 C   0  0
    3.2870   -3.4194    0.0000 N   0  0
    2.7322   -4.0278    0.0000 C   0  0
    3.9459   -4.5806    0.0000 C   0  0
    2.7378   -3.0904    0.0000 O   0  0
    0.4384   -2.4786    0.0000 O   0  0
    1.8636   -0.8150    0.0000 C   0  0  2  0  0  0
    2.5846   -1.2167    0.0000 O   0  0
    1.8553    0.0089    0.0000 C   0  0
   -0.2444   -1.2915    0.0000 C   0  0
   -0.9701   -0.8976    0.0000 C   0  0  2  0  0  0
   -0.2218   -2.1151    0.0000 O   0  0
   -0.9768   -0.0726    0.0000 C   0  0
   -1.6755   -1.3254    0.0000 N   0  0
   -1.6608   -2.1492    0.0000 C   0  0
   -2.3660   -2.5726    0.0000 C   0  0  2  0  0  0
   -0.9366   -2.5453    0.0000 O   0  0
   -3.0859   -2.1722    0.0000 C   0  0
   -3.1049   -1.3484    0.0000 C   0  0
   -2.3939   -0.9261    0.0000 C   0  0
   -2.4122   -0.1034    0.0000 C   0  0
   -3.1329    0.2983    0.0000 C   0  0
   -3.8417   -0.1321    0.0000 C   0  0
   -3.8223   -0.9568    0.0000 C   0  0
   -3.0592   -3.8219    0.0000 C   0  0
   -3.0446   -4.6500    0.0000 C   0  0  2  0  0  0
   -3.7834   -3.4258    0.0000 O   0  0
   -2.3247   -5.0462    0.0000 C   0  0
   -2.3100   -5.8700    0.0000 C   0  0
   -1.5859   -6.2703    0.0000 C   0  0
   -0.8502   -7.4961    0.0000 C   0  0
   -0.1450   -7.0726    0.0000 N   0  0
    4.0666    2.0202    0.0000 H   0  0
    5.4954    2.0233    0.0000 H   0  0
    0.4422   -1.6491    0.0000 H   0  0
   -0.9701   -1.7217    0.0000 H   0  0
   -4.4724   -4.6694    0.0000 C   0  0
   -5.1945   -5.1004    0.0000 C   0  0
   -4.4845   -3.8285    0.0000 O   0  0
   -1.1991    0.7467    0.0000 C   0  0
   -1.7937   -0.2855    0.0000 C   0  0
    9.0516   -0.8579    0.0000 C   0  0
   12.0052    0.1630    0.0000 C   0  0
   11.2082    0.3760    0.0000 N   0  0
   11.1853    3.6919    0.0000 O   0  0
    3.1377   -4.7462    0.0000 N   0  0
    2.6322    2.8375    0.0000 N   0  0
   -2.3518   -3.3975    0.0000 N   0  0
   -3.7529   -5.0731    0.0000 N   0  0
   -1.5712   -7.0951    0.0000 N   0  0
   -0.8356   -8.3199    0.0000 N   0  0
 15 16  1  0
 16 17  1  0
 17 18  1  0
 18 19  1  0
 19 20  1  0
 20 30  1  0
 21 22  1  0
 22 23  1  0
 23 24  1  0
 24 25  1  0
 25 34  1  0
 35 26  1  0
 26 27  1  0
 27 28  1  0
 21 29  1  0
 28 31  1  0
 31 32  2  0
 26 33  2  0
 34 35  1  0
 35 36  1  0
 36 37  1  0
 37 38  1  0
 38 34  1  0
 25 39  2  0
 24 40  2  0
 21 41  2  0
 29 42  1  6
 42 43  1  0
 43 44  1  0
 43 45  1  0
 30 46  2  0
 18 47  2  0
 15 48  2  0
 23 49  1  1
 49 50  1  0
 50 51  2  0
 51 52  1  0
 52 53  2  0
 53 54  1  0
 54 55  2  0
 55 50  1  0
 14 56  1  1
  8 57  2  0
 56 58  1  0
 58 59  2  0
 59 60  1  0
 60 61  2  0
 61 62  1  0
 62 63  2  0
 63 58  1  0
  9 64  1  6
 64 65  1  0
 65 66  1  0
 66 67  2  0
 68 65  2  0
  6 69  2  0
  2 70  2  0
  1 71  1  0
 71 72  1  1
 71 73  1  0
 12 74  1  0
 74 75  1  0
 74 76  2  0
 75 77  1  0
 77 10  1  0
 75 78  1  0
 78 79  1  0
 79 80  1  0
 79 81  2  0
 80 82  1  1
 82 83  1  0
 83 84  2  0
 84 85  1  0
 85 86  2  0
 86 87  1  0
 87 88  2  0
 88 83  1  0
 89 90  1  0
 89 91  2  0
 90 92  1  6
 92 93  1  0
 93 94  1  0
 95 96  2  0
 28 97  1  6
 35 98  1  6
  1 99  1  6
 75100  1  6
  1  2  1  0
101102  1  0
  2  3  1  0
101103  2  0
  3  4  1  0
 77104  1  0
  5  6  1  0
 77105  1  0
  6  4  1  0
 19106  1  0
  7 28  1  0
  5  9  1  0
  9  8  1  0
  7 11  1  0
 10 11  1  0
 12  1  1  0
  8 13  1  0
 13 14  1  0
 14 15  1  0
 31111  1  0
 53109  1  0
 80112  1  0
112 89  1  0
108 30  1  0
 29108  1  0
108107  1  0
 90113  1  0
113101  1  0
 67110  1  0
110 68  1  0
 94114  1  0
114 95  1  0
 95115  1  0
M  END