
          11280714592D 1   1.00000     0.00000     0

 36 39  0     1  0            999 V2000
    4.8917   -3.1667    0.0000 S   0  0  3  0  0  0           0  0  0
    7.1167   -3.1667    0.0000 S   0  0  3  0  0  0           0  0  0
    5.4417   -5.1625    0.0000 N   0  3  0  0  0  0           0  0  0
    5.0542   -2.5875    0.0000 N   0  0  3  0  0  0           0  0  0
    4.1167   -1.2625    0.0000 C   0  0  2  0  0  0           0  0  0
    4.7417   -3.7417    0.0000 C   0  0  0  0  0  0           0  0  0
    4.1125   -1.8625    0.0000 C   0  0  0  0  0  0           0  0  0
    4.6375   -0.9625    0.0000 N   0  0  3  0  0  0           0  0  0
    4.6292   -2.1667    0.0000 C   0  0  1  0  0  0           0  0  0
    3.5917   -0.9625    0.0000 C   0  0  0  0  0  0           0  0  0
    5.1667   -4.1625    0.0000 C   0  0  0  0  0  0           0  0  0
    5.0167   -4.7417    0.0000 C   0  0  0  0  0  0           0  0  0
    5.4917   -3.1667    0.0000 O   0  0  0  0  0  0           0  0  0
    4.2917   -3.1625    0.0000 O   0  0  0  0  0  0           0  0  0
    5.3000   -5.7417    0.0000 O   0  5  0  0  0  0           0  0  0
    5.1542   -1.8667    0.0000 C   0  0  0  0  0  0           0  0  0
    6.5250   -3.5417    0.0000 O   0  0  0  0  0  0           0  0  0
    7.6500   -2.9500    0.0000 O   0  0  0  0  0  0           0  0  0
    6.6292   -2.7042    0.0000 N   0  0  0  0  0  0           0  0  0
    6.0292   -5.0042    0.0000 O   0  0  0  0  0  0           0  0  0
    5.1542   -1.2625    0.0000 C   0  0  0  0  0  0           0  0  0
    3.5917   -0.3542    0.0000 C   0  0  0  0  0  0           0  0  0
    4.6375   -0.3542    0.0000 C   0  0  0  0  0  0           0  0  0
    5.6292   -2.4292    0.0000 C   0  0  0  0  0  0           0  0  0
    6.0542   -2.8542    0.0000 C   0  0  0  0  0  0           0  0  0
    4.1167   -0.0542    0.0000 C   0  0  0  0  0  0           0  0  0
    7.4917   -3.6667    0.0000 C   0  0  0  0  0  0           0  0  0
    4.1625   -3.9000    0.0000 C   0  0  0  0  0  0           0  0  0
    3.0750   -1.2625    0.0000 C   0  0  0  0  0  0           0  0  0
    4.4375   -4.9042    0.0000 C   0  0  0  0  0  0           0  0  0
    4.0125   -4.4792    0.0000 C   0  0  0  0  0  0           0  0  0
    3.0750   -0.0542    0.0000 C   0  0  0  0  0  0           0  0  0
    2.5542   -0.9625    0.0000 C   0  0  0  0  0  0           0  0  0
    2.5542   -0.3625    0.0000 C   0  0  0  0  0  0           0  0  0
    4.2167   -2.6667    0.0000 H   0  0  0  0  0  0           0  0  0
    3.5917   -1.5542    0.0000 H   0  0  0  0  0  0           0  0  0
  2 19  1  0     0  0
  3 12  1  0     0  0
  4  1  1  0     0  0
  5  7  1  0     0  0
  6  1  1  0     0  0
  7  9  1  0     0  0
  8 21  1  0     0  0
  9  4  1  0     0  0
 10  5  1  0     0  0
 11  6  1  0     0  0
 12 11  2  0     0  0
 13  1  2  0     0  0
 14  1  2  0     0  0
 15  3  1  0     0  0
 16  9  1  0     0  0
 17  2  2  0     0  0
 18  2  2  0     0  0
 19 25  1  0     0  0
 20  3  2  0     0  0
 21 16  1  0     0  0
 22 10  1  0     0  0
 23  8  1  0     0  0
 24  4  1  0     0  0
 25 24  1  0     0  0
 26 23  1  0     0  0
 27  2  1  0     0  0
 28  6  2  0     0  0
 29 10  2  0     0  0
 30 31  2  0     0  0
 31 28  1  0     0  0
 32 22  2  0     0  0
 33 29  1  0     0  0
 34 33  2  0     0  0
  9 35  1  6     0  0
  5 36  1  6     0  0
 30 12  1  0     0  0
  5  8  1  0     0  0
 26 22  1  0     0  0
 34 32  1  0     0  0
M  CHG  2   3   1  15  -1
M  END