
          11280715332D 1   1.00000     0.00000     0

 46 49  0     1  0            999 V2000
    6.6792   -2.4917    0.0000 C   0  0  0  0  0  0           0  0  0
    5.9667   -2.0792    0.0000 C   0  0  1  0  0  0           0  0  0
    7.3917   -2.0792    0.0000 N   0  0  3  0  0  0           0  0  0
    3.8167   -2.4917    0.0000 C   0  0  1  0  0  0           0  0  0
    3.1042   -2.0792    0.0000 C   0  0  0  0  0  0           0  0  0
    5.2500   -2.4917    0.0000 C   0  0  1  0  0  0           0  0  0
    2.3917   -2.4917    0.0000 N   0  0  0  0  0  0           0  0  0
    4.5375   -2.0792    0.0000 C   0  0  1  0  0  0           0  0  0
    1.6792   -2.0792    0.0000 C   0  0  3  0  0  0           0  0  0
    1.4292   -2.8625    0.0000 C   0  0  0  0  0  0           0  0  0
    8.1042   -2.4917    0.0000 C   0  0  3  0  0  0           0  0  0
    5.9667   -1.2542    0.0000 O   0  0  0  0  0  0           0  0  0
    0.6000   -2.8667    0.0000 C   0  0  0  0  0  0           0  0  0
    1.0042   -1.5917    0.0000 C   0  0  2  0  0  0           0  0  0
    3.8167   -3.3167    0.0000 O   0  0  0  0  0  0           0  0  0
    8.1042   -3.3167    0.0000 C   0  0  0  0  0  0           0  0  0
    0.3417   -2.0792    0.0000 C   0  0  0  0  0  0           0  0  0
    6.6792   -3.3167    0.0000 O   0  0  0  0  0  0           0  0  0
    3.1042   -1.2542    0.0000 O   0  0  0  0  0  0           0  0  0
    7.3917   -3.7292    0.0000 O   0  0  0  0  0  0           0  0  0
    5.2500   -3.3167    0.0000 O   0  0  0  0  0  0           0  0  0
    4.5375   -1.2542    0.0000 O   0  0  0  0  0  0           0  0  0
    6.7500   -0.8167    0.0000 C   0  0  0  0  0  0           0  0  0
    3.1042   -3.7292    0.0000 C   0  0  0  0  0  0           0  0  0
    8.8250   -2.0792    0.0000 C   0  0  3  0  0  0           0  0  0
    8.8250   -3.7292    0.0000 O   0  0  0  0  0  0           0  0  0
    1.0292   -0.7667    0.0000 O   0  0  0  0  0  0           0  0  0
    7.3917   -1.2542    0.0000 C   0  0  0  0  0  0           0  0  0
    3.1042   -4.5542    0.0000 C   0  0  0  0  0  0           0  0  0
    6.7167    0.0083    0.0000 C   0  0  0  0  0  0           0  0  0
    1.8500   -3.5750    0.0000 C   0  0  0  0  0  0           0  0  0
    0.1917   -3.5875    0.0000 C   0  0  0  0  0  0           0  0  0
    8.8250   -1.2542    0.0000 C   0  0  0  0  0  0           0  0  0
    9.5375   -2.4917    0.0000 C   0  0  0  0  0  0           0  0  0
    7.4167    0.4458    0.0000 C   0  0  0  0  0  0           0  0  0
    2.3917   -4.9667    0.0000 C   0  0  0  0  0  0           0  0  0
    3.8167   -4.9667    0.0000 C   0  0  0  0  0  0           0  0  0
    5.9875    0.3958    0.0000 C   0  0  0  0  0  0           0  0  0
    1.4417   -4.2917    0.0000 C   0  0  0  0  0  0           0  0  0
    0.6167   -4.2917    0.0000 C   0  0  0  0  0  0           0  0  0
    2.3917   -5.7917    0.0000 C   0  0  0  0  0  0           0  0  0
    3.8250   -5.7917    0.0000 C   0  0  0  0  0  0           0  0  0
    7.3917    1.2708    0.0000 C   0  0  0  0  0  0           0  0  0
    5.9625    1.2208    0.0000 C   0  0  0  0  0  0           0  0  0
    3.1042   -6.2042    0.0000 C   0  0  0  0  0  0           0  0  0
    6.6625    1.6583    0.0000 C   0  0  0  0  0  0           0  0  0
  2  1  1  0     0  0
  3  1  1  0     0  0
  4  8  1  0     0  0
  5  4  1  0     0  0
  6  2  1  0     0  0
  7  5  1  0     0  0
  8  6  1  0     0  0
  7  9  1  0     0  0
 10  9  1  0     0  0
 11  3  1  0     0  0
  2 12  1  1     0  0
 13 10  1  0     0  0
 14  9  1  0     0  0
  4 15  1  1     0  0
 16 11  1  0     0  0
 17 14  1  0     0  0
 18  1  2  0     0  0
 19  5  2  0     0  0
 20 16  2  0     0  0
  6 21  1  6     0  0
  8 22  1  6     0  0
 23 12  1  0     0  0
 24 15  1  0     0  0
 25 11  1  0     0  0
 26 16  1  0     0  0
 14 27  1  6     0  0
 28  3  1  0     0  0
 29 24  1  0     0  0
 30 23  1  0     0  0
 31 10  2  0     0  0
 32 13  2  0     0  0
 33 25  1  0     0  0
 34 25  1  0     0  0
 35 30  2  0     0  0
 36 29  2  0     0  0
 37 29  1  0     0  0
 38 30  1  0     0  0
 39 31  1  0     0  0
 40 39  2  0     0  0
 41 36  1  0     0  0
 42 37  2  0     0  0
 43 35  1  0     0  0
 44 38  2  0     0  0
 45 42  1  0     0  0
 46 44  1  0     0  0
 43 46  2  0     0  0
 13 17  1  0     0  0
 45 41  2  0     0  0
 40 32  1  0     0  0
M  END