
  SciTegic09171211542D

 18 18  0  0  0  0            999 V2000
   18.9861  -19.4583    0.0000 C   0  0
   18.9849  -20.2857    0.0000 C   0  0
   19.6997  -20.6985    0.0000 C   0  0
   20.4162  -20.2852    0.0000 C   0  0
   20.4133  -19.4547    0.0000 C   0  0
   19.6979  -19.0455    0.0000 C   0  0
   21.1262  -19.0395    0.0000 C   0  0
   21.1231  -18.2145    0.0000 C   0  0
   21.8360  -17.7993    0.0000 C   0  0
   22.5548  -18.2077    0.0000 O   0  0
   21.8356  -16.9729    0.0000 O   0  0
   20.4055  -17.8051    0.0000 C   0  0
   20.4024  -16.9801    0.0000 O   0  0
   19.6926  -18.2203    0.0000 O   0  0
   18.2715  -19.0460    0.0000 O   0  0
   18.2713  -18.2210    0.0000 C   0  0
   18.2701  -20.6976    0.0000 O   0  0
   18.2695  -21.5226    0.0000 C   0  0
  8  9  1  0
  4  5  1  0
  2  3  1  0
  9 10  1  0
  9 11  2  0
  5  6  2  0
  6  1  1  0
  1  2  2  0
 12 13  1  0
 12 14  2  0
  8 12  1  0
  5  7  1  0
  1 15  1  0
  3  4  2  0
 15 16  1  0
  7  8  1  0
  2 17  1  0
 17 18  1  0
M  END