
          11280715162D 1   1.00000     0.00000     0

 22 24  0     0  0            999 V2000
    6.2167   -6.0042    0.0000 C   0  0  0  0  0  0           0  0  0
    6.2167   -6.8292    0.0000 C   0  0  0  0  0  0           0  0  0
    5.5000   -7.2500    0.0000 N   0  0  0  0  0  0           0  0  0
    4.7917   -6.0042    0.0000 C   0  0  0  0  0  0           0  0  0
    4.7917   -6.8292    0.0000 C   0  0  0  0  0  0           0  0  0
    6.8000   -5.4250    0.0000 C   0  0  0  0  0  0           0  0  0
    1.9292   -4.3542    0.0000 C   0  0  0  0  0  0           0  0  0
    4.0750   -5.5917    0.0000 C   0  0  0  0  0  0           0  0  0
    4.0750   -7.2417    0.0000 C   0  0  0  0  0  0           0  0  0
    9.1875   -6.0625    0.0000 N   0  0  0  0  0  0           0  0  0
    1.2167   -4.7667    0.0000 O   0  0  0  0  0  0           0  0  0
    3.3625   -6.0042    0.0000 C   0  0  0  0  0  0           0  0  0
    2.6500   -4.7667    0.0000 C   0  0  0  0  0  0           0  0  0
    1.9292   -3.5292    0.0000 O   0  0  0  0  0  0           0  0  0
    7.5917   -5.6375    0.0000 C   0  0  0  0  0  0           0  0  0
    3.3625   -6.8292    0.0000 C   0  0  0  0  0  0           0  0  0
    6.9292   -7.2417    0.0000 C   0  0  0  0  0  0           0  0  0
    2.6500   -5.5917    0.0000 C   0  0  0  0  0  0           0  0  0
    8.6042   -6.6417    0.0000 C   0  0  0  0  0  0           0  0  0
    8.9667   -5.2625    0.0000 C   0  0  0  0  0  0           0  0  0
    7.8042   -6.4292    0.0000 C   0  0  0  0  0  0           0  0  0
    8.1750   -5.0542    0.0000 C   0  0  0  0  0  0           0  0  0
  2  1  2  0     0  0
  3  2  1  0     0  0
  4  1  1  0     0  0
  5  4  1  0     0  0
  6  1  1  0     0  0
  7 13  1  0     0  0
  8  4  2  0     0  0
  9  5  2  0     0  0
 10 20  1  0     0  0
 11  7  2  0     0  0
 12  8  1  0     0  0
 13 18  1  0     0  0
 14  7  1  0     0  0
 15  6  1  0     0  0
 16 12  2  0     0  0
 17  2  1  0     0  0
 18 12  1  0     0  0
 19 21  1  0     0  0
 20 22  2  0     0  0
 21 15  2  0     0  0
 22 15  1  0     0  0
  5  3  1  0     0  0
 10 19  2  0     0  0
 16  9  1  0     0  0
M  END