
  CDK    9/16/09,10:8

  9  9  0  0  0  0  0  0  0  0999 V2000
   -0.9791  -11.4575    0.0000 N   0  0  0  0  0  0  0  0  0  0  0  0
   -0.1542  -11.4575    0.0000 N   0  0  0  0  0  0  0  0  0  0  0  0
    0.1026  -10.6734    0.0000 C   0  0  0  0  0  0  0  0  0  0  0  0
   -0.5667  -10.1867    0.0000 C   0  0  0  0  0  0  0  0  0  0  0  0
   -1.2316  -10.6734    0.0000 C   0  0  0  0  0  0  0  0  0  0  0  0
    0.8909  -10.4176    0.0000 C   0  0  0  0  0  0  0  0  0  0  0  0
    1.5032  -10.9704    0.0000 O   0  0  0  0  0  0  0  0  0  0  0  0
    1.0635   -9.6109    0.0000 O   0  0  0  0  0  0  0  0  0  0  0  0
   -2.0163  -10.4188    0.0000 C   0  0  0  0  0  0  0  0  0  0  0  0
  4  5  2  0  0  0  0 
  5  1  1  0  0  0  0 
  1  2  1  0  0  0  0 
  2  3  2  0  0  0  0 
  6  7  1  0  0  0  0 
  6  8  2  0  0  0  0 
  3  6  1  0  0  0  0 
  3  4  1  0  0  0  0 
  5  9  1  0  0  0  0 
M  END