
          11280715412D 1   1.00000     0.00000     0

 31 34  0     0  0            999 V2000
    0.2000    0.9000    0.0000 C   0  0  0  0  0  0           0  0  0
   -0.7875    0.0083    0.0000 C   0  0  0  0  0  0           0  0  0
   -0.6208    0.8208    0.0000 N   0  0  0  0  0  0           0  0  0
   -0.0833   -0.4125    0.0000 N   0  0  3  0  0  0           0  0  0
    0.5375    0.1458    0.0000 C   0  0  0  0  0  0           0  0  0
    0.6167    1.6208    0.0000 C   0  0  0  0  0  0           0  0  0
   -1.5208   -0.0750    0.0000 C   0  0  0  0  0  0           0  0  0
   -1.9250    0.6458    0.0000 C   0  0  0  0  0  0           0  0  0
    1.3417    1.2250    0.0000 N   0  0  0  0  0  0           0  0  0
   -0.0833   -1.2375    0.0000 C   0  0  0  0  0  0           0  0  0
    2.0375    1.6708    0.0000 N   0  0  3  0  0  0           0  0  0
   -1.9375   -0.7917    0.0000 C   0  0  0  0  0  0           0  0  0
   -2.7583    0.6458    0.0000 C   0  0  0  0  0  0           0  0  0
    0.5792    2.4458    0.0000 O   0  0  0  0  0  0           0  0  0
    0.6167   -1.6417    0.0000 C   0  0  0  0  0  0           0  0  0
   -0.8000   -1.6375    0.0000 C   0  0  0  0  0  0           0  0  0
   -3.1750   -0.0750    0.0000 C   0  0  0  0  0  0           0  0  0
   -1.5208    1.3500    0.0000 Cl  0  0  0  0  0  0           0  0  0
    1.3375   -0.0167    0.0000 C   0  0  0  0  0  0           0  0  0
   -2.7625   -0.7792    0.0000 C   0  0  0  0  0  0           0  0  0
   -0.1000   -2.8750    0.0000 C   0  0  0  0  0  0           0  0  0
    0.6167   -2.4542    0.0000 C   0  0  0  0  0  0           0  0  0
   -0.8125   -2.4542    0.0000 C   0  0  0  0  0  0           0  0  0
   -4.0000   -0.0667    0.0000 Cl  0  0  0  0  0  0           0  0  0
   -0.1125   -3.7000    0.0000 O   0  0  0  0  0  0           0  0  0
    2.0042    2.4875    0.0000 C   0  0  0  0  0  0           0  0  0
    2.7792    1.2833    0.0000 C   0  0  0  0  0  0           0  0  0
    0.6000   -4.1125    0.0000 C   0  0  0  0  0  0           0  0  0
    2.7125    2.9333    0.0000 C   0  0  0  0  0  0           0  0  0
    3.4750    1.7208    0.0000 C   0  0  0  0  0  0           0  0  0
    3.4375    2.5458    0.0000 C   0  0  0  0  0  0           0  0  0
  2  3  2  0     0  0
  3  1  1  0     0  0
  4  5  1  0     0  0
  5  1  2  0     0  0
  6  1  1  0     0  0
  7  2  1  0     0  0
  8  7  2  0     0  0
  9  6  1  0     0  0
 10  4  1  0     0  0
 11  9  1  0     0  0
 12  7  1  0     0  0
 13  8  1  0     0  0
 14  6  2  0     0  0
 15 10  1  0     0  0
 16 10  2  0     0  0
 17 20  1  0     0  0
 18  8  1  0     0  0
 19  5  1  0     0  0
 20 12  2  0     0  0
 21 23  2  0     0  0
 22 15  2  0     0  0
 23 16  1  0     0  0
 24 17  1  0     0  0
 25 21  1  0     0  0
 26 11  1  0     0  0
 27 11  1  0     0  0
 28 25  1  0     0  0
 29 26  1  0     0  0
 30 27  1  0     0  0
 31 30  1  0     0  0
  4  2  1  0     0  0
 21 22  1  0     0  0
 31 29  1  0     0  0
 17 13  2  0     0  0
M  END