
          11280715102D 1   1.00000     0.00000     0

 28 30  0     0  0            999 V2000
    1.9375    1.3708    0.0000 C   0  0  0  0  0  0           0  0  0
    2.2667    2.1333    0.0000 C   0  0  0  0  0  0           0  0  0
    1.1125    1.4625    0.0000 C   0  0  0  0  0  0           0  0  0
    0.9500    2.2833    0.0000 N   0  0  0  0  0  0           0  0  0
    1.6667    2.6833    0.0000 O   0  0  0  0  0  0           0  0  0
    0.4000    1.0458    0.0000 C   0  0  0  0  0  0           0  0  0
    2.3500    0.6583    0.0000 C   0  0  0  0  0  0           0  0  0
    3.0792    2.3125    0.0000 C   0  0  0  0  0  0           0  0  0
    0.4000    0.2208    0.0000 C   0  0  0  0  0  0           0  0  0
    1.1125   -0.1917    0.0000 O   0  0  0  0  0  0           0  0  0
    3.1750    0.6583    0.0000 O   0  0  0  0  0  0           0  0  0
    3.3292    3.1083    0.0000 O   0  0  0  0  0  0           0  0  0
    1.9292   -0.0542    0.0000 O   0  0  0  0  0  0           0  0  0
    3.6417    1.7083    0.0000 O   0  0  0  0  0  0           0  0  0
    1.1125   -1.0250    0.0000 C   0  0  0  0  0  0           0  0  0
   -1.0375   -2.2667    0.0000 C   0  0  0  0  0  0           0  0  0
    0.3917   -1.4417    0.0000 C   0  0  0  0  0  0           0  0  0
   -1.7583   -2.6875    0.0000 Br  0  0  0  0  0  0           0  0  0
   -0.3208    1.4583    0.0000 C   0  0  0  0  0  0           0  0  0
   -0.3208   -2.6792    0.0000 C   0  0  0  0  0  0           0  0  0
   -1.0375   -1.4417    0.0000 C   0  0  0  0  0  0           0  0  0
    0.3917   -2.2667    0.0000 C   0  0  0  0  0  0           0  0  0
   -0.3208   -1.0292    0.0000 C   0  0  0  0  0  0           0  0  0
   -0.3208   -0.1917    0.0000 C   0  0  0  0  0  0           0  0  0
    4.4500    1.8958    0.0000 C   0  0  0  0  0  0           0  0  0
    2.3417   -0.7667    0.0000 C   0  0  0  0  0  0           0  0  0
   -1.0333    1.0458    0.0000 C   0  0  0  0  0  0           0  0  0
   -1.0333    0.2208    0.0000 C   0  0  0  0  0  0           0  0  0
  2  1  2  0     0  0
  3  1  1  0     0  0
  4  3  2  0     0  0
  5  2  1  0     0  0
  6  3  1  0     0  0
  7  1  1  0     0  0
  8  2  1  0     0  0
  9  6  1  0     0  0
 10  9  1  0     0  0
 11  7  2  0     0  0
 12  8  2  0     0  0
 13  7  1  0     0  0
 14  8  1  0     0  0
 15 10  1  0     0  0
 16 21  2  0     0  0
 17 15  1  0     0  0
 18 16  1  0     0  0
 19  6  2  0     0  0
 20 22  2  0     0  0
 21 23  1  0     0  0
 22 17  1  0     0  0
 23 17  2  0     0  0
 24  9  2  0     0  0
 25 14  1  0     0  0
 26 13  1  0     0  0
 27 19  1  0     0  0
 28 27  2  0     0  0
  4  5  1  0     0  0
 24 28  1  0     0  0
 20 16  1  0     0  0
M  END