
  SciTegic02231516322D

 17 16  0  0  0  0            999 V2000
   10.1639   -2.6208    0.0000 C   0  0
   10.1628   -3.4403    0.0000 C   0  0
   10.8708   -3.8493    0.0000 C   0  0
   11.5805   -3.4398    0.0000 C   0  0
   11.5777   -2.6172    0.0000 C   0  0
   10.8691   -2.2119    0.0000 C   0  0
   12.2889   -3.8473    0.0000 C   0  0
   12.2901   -4.6645    0.0000 O   0  0
   12.9959   -3.4376    0.0000 C   0  0
   13.7043   -3.8451    0.0000 N   0  0
   14.4113   -3.4354    0.0000 C   0  0
   15.1197   -3.8429    0.0000 C   0  0
   14.4101   -2.6182    0.0000 C   0  0
   12.2838   -2.2059    0.0000 O   0  0
   12.2808   -1.3887    0.0000 C   0  0
    9.4548   -3.8483    0.0000 C   0  0
   14.9384   -1.1196    0.0000 Cl  0  0
  1  2  2  0
  2  3  1  0
  3  4  2  0
  4  5  1  0
  5  6  2  0
  6  1  1  0
  4  7  1  0
  7  8  1  0
  7  9  1  0
  9 10  1  0
 10 11  1  0
 11 12  1  0
 11 13  1  0
  5 14  1  0
 14 15  1  0
  2 16  1  0
M  END