
          11280714482D 1   1.00000     0.00000     0

 35 38  0     0  0            999 V2000
    4.4542    2.0583    0.0000 C   0  0  0  0  0  0           0  0  0
    5.1167    1.6875    0.0000 C   0  0  0  0  0  0           0  0  0
    3.7917    1.6875    0.0000 C   0  0  0  0  0  0           0  0  0
    5.7667    2.0583    0.0000 N   0  3  0  0  0  0           0  0  0
    4.2917    2.7833    0.0000 N   0  0  0  0  0  0           0  0  0
    5.1167    0.9458    0.0000 C   0  0  0  0  0  0           0  0  0
    3.2250    2.1958    0.0000 N   0  0  0  0  0  0           0  0  0
    3.5292    2.8625    0.0000 O   0  0  0  0  0  0           0  0  0
    3.8125    0.9583    0.0000 C   0  0  0  0  0  0           0  0  0
    4.4750    0.5833    0.0000 C   0  0  0  0  0  0           0  0  0
   -1.0833    0.4208    0.0000 N   0  0  3  0  0  0           0  0  0
   -1.7833    0.7208    0.0000 C   0  0  0  0  0  0           0  0  0
    6.4292    1.6833    0.0000 O   0  5  0  0  0  0           0  0  0
    5.7625    2.7958    0.0000 O   0  0  0  0  0  0           0  0  0
   -1.7583    1.4583    0.0000 N   0  0  0  0  0  0           0  0  0
   -1.1083   -0.3042    0.0000 C   0  0  0  0  0  0           0  0  0
   -0.4125    0.8250    0.0000 C   0  0  0  0  0  0           0  0  0
    3.1000    0.5375    0.0000 N   0  0  0  0  0  0           0  0  0
   -1.7833   -0.7125    0.0000 C   0  0  0  0  0  0           0  0  0
    0.9542    0.9333    0.0000 N   0  0  3  0  0  0           0  0  0
    0.2667    0.5208    0.0000 C   0  0  0  0  0  0           0  0  0
   -3.1583   -1.5417    0.0000 C   0  0  0  0  0  0           0  0  0
   -1.7958   -1.4500    0.0000 C   0  0  0  0  0  0           0  0  0
   -2.4708   -0.4167    0.0000 C   0  0  0  0  0  0           0  0  0
   -2.4833   -1.8667    0.0000 C   0  0  0  0  0  0           0  0  0
   -3.1375   -0.8292    0.0000 C   0  0  0  0  0  0           0  0  0
    2.3792    0.9458    0.0000 C   0  0  0  0  0  0           0  0  0
   -3.8458   -1.9667    0.0000 O   0  0  0  0  0  0           0  0  0
   -2.4458    0.3083    0.0000 C   0  0  0  0  0  0           0  0  0
   -2.4458    1.7583    0.0000 C   0  0  0  0  0  0           0  0  0
    1.6667    0.5250    0.0000 C   0  0  0  0  0  0           0  0  0
    0.9500    1.6583    0.0000 C   0  0  0  0  0  0           0  0  0
   -3.8583   -2.6875    0.0000 C   0  0  0  0  0  0           0  0  0
   -3.1208    0.6083    0.0000 C   0  0  0  0  0  0           0  0  0
   -3.1208    1.3458    0.0000 C   0  0  0  0  0  0           0  0  0
  2  1  1  0     0  0
  3  1  1  0     0  0
  4  2  1  0     0  0
  5  1  2  0     0  0
  6  2  2  0     0  0
  7  3  2  0     0  0
  8  5  1  0     0  0
  9  3  1  0     0  0
 10  9  2  0     0  0
 11 17  1  0     0  0
 12 11  1  0     0  0
 13  4  1  0     0  0
 14  4  2  0     0  0
 15 12  2  0     0  0
 16 11  1  0     0  0
 17 21  1  0     0  0
 18  9  1  0     0  0
 19 16  1  0     0  0
 20 31  1  0     0  0
 21 20  1  0     0  0
 22 26  2  0     0  0
 23 19  1  0     0  0
 24 19  2  0     0  0
 25 23  2  0     0  0
 26 24  1  0     0  0
 27 18  1  0     0  0
 28 22  1  0     0  0
 29 12  1  0     0  0
 30 15  1  0     0  0
 31 27  1  0     0  0
 32 20  1  0     0  0
 33 28  1  0     0  0
 34 29  2  0     0  0
 35 34  1  0     0  0
  8  7  1  0     0  0
 10  6  1  0     0  0
 22 25  1  0     0  0
 30 35  2  0     0  0
M  CHG  2   4   1  13  -1
M  END