
          11280715052D 1   1.00000     0.00000     0

 20 21  0     0  0            999 V2000
    0.0500    1.0958    0.0000 S   0  0  3  0  0  0           0  0  0
    0.5792    0.8208    0.0000 C   0  0  0  0  0  0           0  0  0
   -3.6458    0.9375    0.0000 N   0  0  0  0  0  0           0  0  0
   -3.5958    1.9083    0.0000 N   0  0  0  0  0  0           0  0  0
   -3.9708    1.4375    0.0000 C   0  0  0  0  0  0           0  0  0
   -3.0625    1.0958    0.0000 C   0  0  0  0  0  0           0  0  0
   -0.3000    1.8000    0.0000 O   0  0  0  0  0  0           0  0  0
    0.3875    1.8000    0.0000 O   0  0  0  0  0  0           0  0  0
    1.0792    1.1333    0.0000 C   0  0  0  0  0  0           0  0  0
   -0.4708    0.7958    0.0000 N   0  0  0  0  0  0           0  0  0
   -3.0333    1.6958    0.0000 C   0  0  0  0  0  0           0  0  0
    1.6167    0.8583    0.0000 C   0  0  0  0  0  0           0  0  0
    2.1292    1.1625    0.0000 Cl  0  0  0  0  0  0           0  0  0
    0.6042    0.2375    0.0000 C   0  0  0  0  0  0           0  0  0
    1.1375   -0.0292    0.0000 C   0  0  0  0  0  0           0  0  0
   -2.5458    0.7958    0.0000 C   0  0  0  0  0  0           0  0  0
   -0.9875    1.0958    0.0000 C   0  0  0  0  0  0           0  0  0
    1.6417    0.2750    0.0000 C   0  0  0  0  0  0           0  0  0
   -2.0333    1.0958    0.0000 C   0  0  0  0  0  0           0  0  0
   -1.5083    0.7958    0.0000 C   0  0  0  0  0  0           0  0  0
  2  1  1  0     0  0
  3  6  1  0     0  0
  4 11  1  0     0  0
  5  3  2  0     0  0
  6 16  1  0     0  0
  7  1  2  0     0  0
  8  1  2  0     0  0
  9  2  2  0     0  0
 10  1  1  0     0  0
 11  6  2  0     0  0
 12  9  1  0     0  0
 13 12  1  0     0  0
 14  2  1  0     0  0
 15 14  2  0     0  0
 16 19  1  0     0  0
 17 10  1  0     0  0
 18 15  1  0     0  0
 19 20  1  0     0  0
 20 17  1  0     0  0
 12 18  2  0     0  0
  4  5  1  0     0  0
M  END