
          08180812492D 1   1.00000     0.00000     0

 39 42  0     1  0            999 V2000
   15.6917   -6.2292    0.0000 C   0  0  0  0  0  0           0  0  0
   15.6917   -7.0542    0.0000 C   0  0  2  0  0  0           0  0  0
   16.4037   -7.4625    0.0000 C   0  0  0  0  0  0           0  0  0
   16.4037   -5.8125    0.0000 C   0  0  0  0  0  0           0  0  0
   17.1157   -6.2292    0.0000 C   0  0  1  0  0  0           0  0  0
   17.1168   -7.0542    0.0000 C   0  0  2  0  0  0           0  0  0
   17.8278   -7.4635    0.0000 C   0  0  0  0  0  0           0  0  0
   18.5424   -7.0523    0.0000 C   0  0  1  0  0  0           0  0  0
   17.8257   -5.8135    0.0000 C   0  0  2  0  0  0           0  0  0
   18.5409   -6.2320    0.0000 C   0  0  2  0  0  0           0  0  0
   18.5488   -4.5776    0.0000 C   0  0  0  0  0  0           0  0  0
   17.8265   -4.9871    0.0000 C   0  0  0  0  0  0           0  0  0
   19.2641   -4.9961    0.0000 C   0  0  1  0  0  0           0  0  0
   19.2559   -5.8209    0.0000 C   0  0  1  0  0  0           0  0  0
   20.0380   -6.0836    0.0000 C   0  0  0  0  0  0           0  0  0
   20.5294   -5.4210    0.0000 C   0  0  0  0  0  0           0  0  0
   20.0511   -4.7489    0.0000 C   0  0  2  0  0  0           0  0  0
   19.2583   -4.1708    0.0000 C   0  0  0  0  0  0           0  0  0
   17.1125   -7.8750    0.0000 H   0  0  0  0  0  0           0  0  0
   17.1083   -5.4042    0.0000 C   0  0  0  0  0  0           0  0  0
   20.4583   -4.0292    0.0000 C   0  0  1  0  0  0           0  0  0
   21.2833   -4.0220    0.0000 C   0  0  0  0  0  0           0  0  0
   20.0396   -3.3183    0.0000 C   0  0  0  0  0  0           0  0  0
   21.7020   -4.7328    0.0000 C   0  0  0  0  0  0           0  0  0
   22.5270   -4.7256    0.0000 C   0  0  0  0  0  0           0  0  0
   22.9437   -5.4344    0.0000 N   0  0  0  0  0  0           0  0  0
   22.9312   -4.0055    0.0000 O   0  0  0  0  0  0           0  0  0
   14.9778   -7.4677    0.0000 O   0  0  0  0  0  0           0  0  0
   19.2569   -7.4648    0.0000 O   0  0  0  0  0  0           0  0  0
   18.5333   -5.4042    0.0000 H   0  0  0  0  0  0           0  0  0
   17.8208   -6.6375    0.0000 H   0  0  0  0  0  0           0  0  0
   19.2500   -6.6458    0.0000 H   0  0  0  0  0  0           0  0  0
   20.8750   -4.7458    0.0000 H   0  0  0  0  0  0           0  0  0
   23.7687   -5.4279    0.0000 C   0  0  0  0  0  0           0  0  0
   24.1868   -6.1391    0.0000 C   0  0  0  0  0  0           0  0  0
   23.7800   -6.8568    0.0000 S   0  0  3  0  0  0           0  0  0
   23.1917   -7.4375    0.0000 O   0  0  0  0  0  0           0  0  0
   24.4348   -7.3585    0.0000 O   0  0  0  0  0  0           0  0  0
   23.1264   -6.3532    0.0000 O   0  0  0  0  0  0           0  0  0
 13 18  1  1     0  0
  8 10  1  0     0  0
  6 19  1  1     0  0
  9 10  1  0     0  0
  5 20  1  1     0  0
  3  6  1  0     0  0
 17 21  1  0     0  0
  5  4  1  0     0  0
 21 22  1  0     0  0
  5  6  1  0     0  0
 21 23  1  6     0  0
 22 24  1  0     0  0
  9 12  1  0     0  0
 24 25  1  0     0  0
 10 14  1  0     0  0
 13 11  1  0     0  0
 25 26  1  0     0  0
 25 27  2  0     0  0
 11 12  1  0     0  0
  2 28  1  6     0  0
 13 14  1  0     0  0
  8 29  1  1     0  0
  1  2  1  0     0  0
 10 30  1  1     0  0
  1  4  1  0     0  0
  9 31  1  6     0  0
  2  3  1  0     0  0
 14 32  1  6     0  0
  5  9  1  0     0  0
 17 33  1  6     0  0
  6  7  1  0     0  0
 26 34  1  0     0  0
 14 15  1  0     0  0
 34 35  1  0     0  0
 15 16  1  0     0  0
 35 36  1  0     0  0
 16 17  1  0     0  0
 36 37  1  0     0  0
 17 13  1  0     0  0
 36 38  2  0     0  0
  7  8  1  0     0  0
 36 39  2  0     0  0
M  END