
  CDK    9/16/09,9:54

 23 26  0  0  0  0  0  0  0  0999 V2000
    4.4024  -20.5402    0.0000 C   0  0  0  0  0  0  0  0  0  0  0  0
    4.4013  -21.3629    0.0000 C   0  0  0  0  0  0  0  0  0  0  0  0
    5.1120  -21.7733    0.0000 C   0  0  0  0  0  0  0  0  0  0  0  0
    5.1102  -20.1298    0.0000 C   0  0  0  0  0  0  0  0  0  0  0  0
    5.8207  -21.3620    0.0000 C   0  0  0  0  0  0  0  0  0  0  0  0
    5.8215  -20.5367    0.0000 C   0  0  0  0  0  0  0  0  0  0  0  0
    6.4700  -20.0167    0.0000 O   0  0  0  0  0  0  0  0  0  0  0  0
    6.4714  -21.8792    0.0000 N   0  0  0  0  0  0  0  0  0  0  0  0
    7.2806  -21.6922    0.0000 C   0  0  0  0  0  0  0  0  0  0  0  0
    7.2760  -20.1929    0.0000 C   0  0  0  0  0  0  0  0  0  0  0  0
    7.6369  -20.9423    0.0000 C   0  0  0  0  0  0  0  0  0  0  0  0
    8.4645  -21.0034    0.0000 C   0  0  0  0  0  0  0  0  0  0  0  0
    8.9323  -20.3158    0.0000 C   0  0  0  0  0  0  0  0  0  0  0  0
    8.5664  -19.5652    0.0000 C   0  0  0  0  0  0  0  0  0  0  0  0
    7.7398  -19.5079    0.0000 C   0  0  0  0  0  0  0  0  0  0  0  0
    7.7947  -22.3315    0.0000 N   0  0  0  0  0  0  0  0  0  0  0  0
    7.4944  -23.0942    0.0000 C   0  0  0  0  0  0  0  0  0  0  0  0
    8.0047  -23.7318    0.0000 C   0  0  0  0  0  0  0  0  0  0  0  0
    8.8163  -23.6105    0.0000 N   0  0  0  0  0  0  0  0  0  0  0  0
    9.1151  -22.8455    0.0000 C   0  0  0  0  0  0  0  0  0  0  0  0
    8.6024  -22.2020    0.0000 C   0  0  0  0  0  0  0  0  0  0  0  0
    9.3279  -24.2517    0.0000 C   0  0  0  0  0  0  0  0  0  0  0  0
    3.6920  -20.1303    0.0000 Cl  0  0  0  0  0  0  0  0  0  0  0  0
 10 11  2  0  0  0  0 
  2  3  1  0  0  0  0 
 11 12  1  0  0  0  0 
  5  6  1  0  0  0  0 
 12 13  2  0  0  0  0 
  3  5  2  0  0  0  0 
 13 14  1  0  0  0  0 
  6  7  1  0  0  0  0 
 14 15  2  0  0  0  0 
 15 10  1  0  0  0  0 
  1  2  2  0  0  0  0 
  9 16  1  0  0  0  0 
 16 17  1  0  0  0  0 
  5  8  1  0  0  0  0 
  7 10  1  0  0  0  0 
  6  4  2  0  0  0  0 
  8  9  2  0  0  0  0 
  9 11  1  0  0  0  0 
 16 21  1  0  0  0  0 
 17 18  1  0  0  0  0 
 18 19  1  0  0  0  0 
 19 20  1  0  0  0  0 
 20 21  1  0  0  0  0 
  4  1  1  0  0  0  0 
 19 22  1  0  0  0  0 
  1 23  1  0  0  0  0 
M  END