
  CDK    9/16/09,10:0

 25 27  0  0  0  0  0  0  0  0999 V2000
    8.4538  -20.3293    0.0000 C   0  0  0  0  0  0  0  0  0  0  0  0
    8.4524  -21.1569    0.0000 C   0  0  0  0  0  0  0  0  0  0  0  0
    9.1654  -21.5697    0.0000 C   0  0  0  0  0  0  0  0  0  0  0  0
    9.8846  -21.1563    0.0000 C   0  0  0  0  0  0  0  0  0  0  0  0
    9.8814  -20.3254    0.0000 C   0  0  0  0  0  0  0  0  0  0  0  0
    9.1634  -19.9166    0.0000 C   0  0  0  0  0  0  0  0  0  0  0  0
   10.5938  -19.9093    0.0000 C   0  0  0  0  0  0  0  0  0  0  0  0
   11.3103  -20.3182    0.0000 C   0  0  0  0  0  0  0  0  0  0  0  0
   11.4031  -21.1381    0.0000 C   0  0  0  0  0  0  0  0  0  0  0  0
   12.2108  -21.3056    0.0000 N   0  0  0  0  0  0  0  0  0  0  0  0
   12.6194  -20.5895    0.0000 C   0  0  0  0  0  0  0  0  0  0  0  0
   12.0648  -19.9789    0.0000 N   0  0  0  0  0  0  0  0  0  0  0  0
    7.7375  -21.5683    0.0000 Cl  0  0  0  0  0  0  0  0  0  0  0  0
   12.2326  -19.1713    0.0000 C   0  0  0  0  0  0  0  0  0  0  0  0
   13.4442  -20.5969    0.0000 S   0  0  0  0  0  0  0  0  0  0  0  0
   13.8502  -21.3151    0.0000 C   0  0  0  0  0  0  0  0  0  0  0  0
   14.6751  -21.3225    0.0000 C   0  0  0  0  0  0  0  0  0  0  0  0
   15.0811  -22.0406    0.0000 C   0  0  0  0  0  0  0  0  0  0  0  0
   15.9059  -22.0482    0.0000 N   0  0  0  0  0  0  0  0  0  0  0  0
   16.3069  -22.7666    0.0000 C   0  0  0  0  0  0  0  0  0  0  0  0
   17.1282  -22.7759    0.0000 C   0  0  0  0  0  0  0  0  0  0  0  0
   17.5510  -22.0673    0.0000 C   0  0  0  0  0  0  0  0  0  0  0  0
   17.1462  -21.3473    0.0000 C   0  0  0  0  0  0  0  0  0  0  0  0
   16.3188  -21.3362    0.0000 C   0  0  0  0  0  0  0  0  0  0  0  0
   10.5897  -19.0845    0.0000 O   0  0  0  0  0  0  0  0  0  0  0  0
 12  8  1  0  0  0  0 
  6  1  1  0  0  0  0 
  2 13  1  0  0  0  0 
  1  2  2  0  0  0  0 
 12 14  1  0  0  0  0 
  5  7  1  0  0  0  0 
 11 15  1  0  0  0  0 
  3  4  2  0  0  0  0 
 15 16  1  0  0  0  0 
  7  8  1  0  0  0  0 
 16 17  1  0  0  0  0 
  8  9  2  0  0  0  0 
 17 18  1  0  0  0  0 
 18 19  1  0  0  0  0 
 19 20  1  0  0  0  0 
  4  5  1  0  0  0  0 
  2  3  1  0  0  0  0 
  5  6  2  0  0  0  0 
  9 10  1  0  0  0  0 
 10 11  2  0  0  0  0 
 19 24  1  0  0  0  0 
 20 21  1  0  0  0  0 
 21 22  1  0  0  0  0 
 22 23  1  0  0  0  0 
 23 24  1  0  0  0  0 
 11 12  1  0  0  0  0 
  7 25  2  0  0  0  0 
M  END