
  SciTegic12231509382D

 28 31  0  0  0  0            999 V2000
   -2.3155    0.7475    0.0000 C   0  0
   -2.3155   -0.7475    0.0000 C   0  0
   -1.0028   -1.5132    0.0000 C   0  0
   -1.0028    1.5132    0.0000 C   0  0
    0.2917    0.7475    0.0000 C   0  0
    0.2917   -0.7475    0.0000 C   0  0
    1.7138   -1.2033    0.0000 N   0  0
    2.5889    0.0182    0.0000 C   0  0
    1.7138    1.2033    0.0000 C   0  0
    4.0896    0.0290    0.0000 C   0  0
    4.7453   -1.3220    0.0000 C   0  0
    6.2418   -1.4248    0.0000 C   0  0
    7.0791   -0.1803    0.0000 C   0  0
    6.4199    1.1671    0.0000 C   0  0
    4.9234    1.2700    0.0000 C   0  0
    8.5761   -0.2862    0.0000 O   0  0
    9.2338   -1.6353    0.0000 C   0  0
   10.7299   -1.7434    0.0000 C   0  0
   11.3844   -3.0931    0.0000 C   0  0
   10.5428   -4.3347    0.0000 C   0  0
    9.0467   -4.2267    0.0000 C   0  0
    8.3922   -2.8771    0.0000 C   0  0
   -3.6187   -1.4919    0.0000 C   0  0
   -3.6251   -2.6919    0.0000 N   0  0
   -4.6549   -0.8867    0.0000 N   0  0
   11.1949   -5.6865    0.0000 C   0  0
   10.5203   -6.6789    0.0000 N   0  0
   12.3917   -5.7750    0.0000 N   0  0
  3  6  2  0
 13 14  1  0
  1  2  2  0
 14 15  2  0
 15 10  1  0
  5  4  2  0
 13 16  1  0
  6  7  1  0
 16 17  1  0
  7  8  1  0
 17 18  2  0
  8  9  2  0
 18 19  1  0
  9  5  1  0
 19 20  2  0
  4  1  1  0
 20 21  1  0
  8 10  1  0
 21 22  2  0
 22 17  1  0
  5  6  1  0
  2 23  1  0
 10 11  2  0
 23 24  2  0
 23 25  1  0
 11 12  1  0
 20 26  1  0
  2  3  1  0
 26 27  2  0
 12 13  2  0
 26 28  1  0
M  END