
  SciTegic12121611302D

 35 39  0  0  0  0            999 V2000
    6.9420   -0.1864    0.0000 O   0  0
    6.3556   -1.2334    0.0000 S   0  0
    5.7423   -0.2019    0.0000 O   0  0
    1.5835    7.2244    0.0000 C   0  0
    1.5886    6.0244    0.0000 C   0  0
    2.6305    5.4291    0.0000 O   0  0
    2.6252    6.6289    0.0000 C   0  0
    4.8549   -1.2525    0.0000 N   0  0
    4.0872    0.0371    0.0000 C   0  0  1  0  0  0
    2.5889    0.0182    0.0000 C   0  0
    1.7138   -1.2033    0.0000 C   0  0
    0.2917   -0.7475    0.0000 C   0  0
    0.2917    0.7475    0.0000 C   0  0
    1.7138    1.2033    0.0000 S   0  0
   -1.0028    1.5132    0.0000 C   0  0
   -2.3155    0.7475    0.0000 C   0  0
   -2.3155   -0.7475    0.0000 C   0  0
   -1.0028   -1.5132    0.0000 C   0  0
   -0.9982    3.0140    0.0000 C   0  0
    0.2977    3.7689    0.0000 C   0  0
    0.2918    5.2689    0.0000 C   0  0
   -1.0102    6.0138    0.0000 C   0  0
   -2.3063    5.2587    0.0000 C   0  0
   -2.3004    3.7588    0.0000 N   0  0
    4.8205    1.3465    0.0000 C   0  0
    4.0521    2.6348    0.0000 N   0  0
    4.7834    3.9444    0.0000 C   0  0
    6.2832    3.9659    0.0000 C   0  0
    7.0518    2.6778    0.0000 C   0  0
    6.3205    1.3681    0.0000 C   0  0
    7.1233   -2.5230    0.0000 C   0  0
    7.0966   -3.9442    0.0000 C   0  0
    8.3855   -3.1769    0.0000 C   0  0
    4.1686    4.9750    0.0000 N   0  0
    6.9353    0.3376    0.0000 Cl  0  0
  2  1  2  0
  3  2  2  0
  5  4  1  0
  5  6  1  0
 10 11  2  0
 11 12  1  0
 12 13  1  0
 13 14  1  0
 10 14  1  0
 15 16  1  0
 16 17  2  0
 17 18  1  0
 12 18  2  0
 13 15  2  0
 19 20  1  0
 20 21  2  0
 21 22  1  0
 22 23  2  0
 23 24  1  0
 19 24  2  0
 15 19  1  0
  9 10  1  0
 25 26  1  0
 26 27  2  0
 27 28  1  0
 28 29  2  0
 29 30  1  0
 25 30  2  0
  9 25  1  0
  9  8  1  1
 21  5  1  0
  5  7  1  0
  8  2  1  0
  2 31  1  0
 32 31  1  0
 33 32  1  0
 31 33  1  0
 27 34  1  0
 30 35  1  0
M  END