
  SciTegic09261414462D

 18 20  0  0  0  0            999 V2000
   30.8159  -19.4443    0.0000 N   0  0
   30.8009  -20.2625    0.0000 C   0  0
   30.0854  -20.6599    0.0000 N   0  0
   31.4863  -21.5017    0.0000 C   0  0
   31.5013  -20.6834    0.0000 N   0  0
   32.1868  -21.9226    0.0000 N   0  0
   32.2553  -22.7328    0.0000 C   0  0
   33.0541  -22.9204    0.0000 C   0  0  1  0  0  0
   33.4750  -22.2200    0.0000 C   0  0
   32.9364  -21.5993    0.0000 C   0  0
   33.3718  -23.6715    0.0000 N   0  0
   34.1846  -23.7698    0.0000 C   0  0
   30.7730  -21.8955    0.0000 C   0  0
   30.0740  -21.4735    0.0000 C   0  0
   29.3630  -21.8656    0.0000 C   0  0
   29.3448  -22.6813    0.0000 C   0  0
   30.0437  -23.1034    0.0000 C   0  0
   30.7610  -22.7097    0.0000 C   0  0
  2  3  1  0
  3 14  2  0
 13  4  2  0
  4  5  1  0
  2  5  2  0
  1  2  1  0
  6  7  1  0
  7  8  1  0
  8  9  1  0
  9 10  1  0
  6 10  1  0
 11 12  1  0
  8 11  1  1
  4  6  1  0
 13 14  1  0
 13 18  1  0
 14 15  1  0
 15 16  1  0
 16 17  1  0
 17 18  1  0
M  END