
  SciTegic06051315212D

 15 15  0  0  0  0            999 V2000
    7.1222  -17.3384    0.0000 C   0  0
    7.1210  -18.1580    0.0000 C   0  0
    7.8291  -18.5670    0.0000 C   0  0
    8.5387  -18.1575    0.0000 C   0  0
    8.5359  -17.3348    0.0000 C   0  0
    7.8273  -16.9296    0.0000 C   0  0
    9.2421  -16.9236    0.0000 C   0  0
    9.2390  -16.1064    0.0000 C   0  0
    9.9452  -15.6951    0.0000 C   0  0
    9.9421  -14.8780    0.0000 C   0  0
   10.6482  -14.4667    0.0000 C   0  0
    9.2328  -14.4720    0.0000 C   0  0
   11.3575  -14.8726    0.0000 O   0  0
   10.6452  -13.6495    0.0000 N   0  0
    8.5227  -14.0681    0.0000 N   0  0
  1  2  2  0
  2  3  1  0
  3  4  2  0
  4  5  1  0
  5  6  2  0
  6  1  1  0
  5  7  1  0
  7  8  2  0
  8  9  1  0
  9 10  2  0
 10 11  1  0
 10 12  1  0
 11 13  2  0
 11 14  1  0
 12 15  3  0
M  END