
  SciTegic10311316212D

 19 21  0  0  0  0            999 V2000
   32.7301   -2.9260    0.0000 C   0  0
   33.4541   -3.3260    0.0000 O   0  0
   33.4205   -1.6763    0.0000 N   0  0
   32.7096   -2.0991    0.0000 C   0  0
   34.1445   -2.0763    0.0000 C   0  0
   34.1536   -2.8991    0.0000 C   0  0
   34.8669   -3.3004    0.0000 C   0  0
   35.5755   -2.8834    0.0000 C   0  0
   35.5664   -2.0605    0.0000 C   0  0
   34.8485   -1.6547    0.0000 C   0  0
   31.9856   -1.6992    0.0000 O   0  0
   36.2785   -1.6397    0.0000 C   0  0
   36.9990   -2.0460    0.0000 N   0  0
   37.7110   -1.6252    0.0000 C   0  0
   38.4302   -2.0356    0.0000 C   0  0
   39.1418   -1.6155    0.0000 C   0  0
   39.1339   -0.7876    0.0000 C   0  0
   38.4084   -0.3814    0.0000 C   0  0
   37.6998   -0.8039    0.0000 C   0  0
  1  2  1  0
  1  4  1  0
  2  6  1  0
  5  3  1  0
  3  4  1  0
  5  6  1  0
  5 10  2  0
  6  7  2  0
  7  8  1  0
  8  9  2  0
  9 10  1  0
  4 11  2  0
  9 12  1  0
 12 13  1  0
 13 14  1  0
 14 15  2  0
 15 16  1  0
 16 17  2  0
 17 18  1  0
 18 19  2  0
 19 14  1  0
M  END