
  CDK    9/16/09,9:51

 28 31  0  0  0  0  0  0  0  0999 V2000
   17.1258   -0.4894    0.0000 C   0  0  0  0  0  0  0  0  0  0  0  0
   16.7323   -1.2197    0.0000 N   0  0  0  0  0  0  0  0  0  0  0  0
   17.1658   -1.9218    0.0000 C   0  0  0  0  0  0  0  0  0  0  0  0
   17.9944   -1.8998    0.0000 C   0  0  0  0  0  0  0  0  0  0  0  0
   18.3879   -1.1694    0.0000 N   0  0  0  0  0  0  0  0  0  0  0  0
   17.9528   -0.4611    0.0000 C   0  0  0  0  0  0  0  0  0  0  0  0
   19.2127   -1.1459    0.0000 C   0  0  0  0  0  0  0  0  0  0  0  0
   19.6453   -1.8484    0.0000 C   0  0  0  0  0  0  0  0  0  0  0  0
   19.3283   -2.6100    0.0000 C   0  0  0  0  0  0  0  0  0  0  0  0
   19.9568   -3.1444    0.0000 S   0  0  0  0  0  0  0  0  0  0  0  0
   20.6593   -2.7116    0.0000 C   0  0  0  0  0  0  0  0  0  0  0  0
   20.4648   -1.9099    0.0000 C   0  0  0  0  0  0  0  0  0  0  0  0
   20.9988   -1.2809    0.0000 C   0  0  0  0  0  0  0  0  0  0  0  0
   21.8104   -1.4289    0.0000 O   0  0  0  0  0  0  0  0  0  0  0  0
   20.7211   -0.5040    0.0000 C   0  0  0  0  0  0  0  0  0  0  0  0
   21.2543    0.1217    0.0000 C   0  0  0  0  0  0  0  0  0  0  0  0
   20.9770    0.8980    0.0000 C   0  0  0  0  0  0  0  0  0  0  0  0
   20.1646    1.0465    0.0000 C   0  0  0  0  0  0  0  0  0  0  0  0
   19.6299    0.4125    0.0000 C   0  0  0  0  0  0  0  0  0  0  0  0
   19.9100   -0.3613    0.0000 C   0  0  0  0  0  0  0  0  0  0  0  0
   19.8858    1.8230    0.0000 Cl  0  0  0  0  0  0  0  0  0  0  0  0
   15.9077   -1.2441    0.0000 C   0  0  0  0  0  0  0  0  0  0  0  0
   21.4223   -3.0256    0.0000 N   0  0  0  0  0  0  0  0  0  0  0  0
   15.4790   -0.5399    0.0000 C   0  0  0  0  0  0  0  0  0  0  0  0
   14.6551   -0.5638    0.0000 C   0  0  0  0  0  0  0  0  0  0  0  0
   14.2630   -1.2907    0.0000 C   0  0  0  0  0  0  0  0  0  0  0  0
   14.7009   -1.9950    0.0000 C   0  0  0  0  0  0  0  0  0  0  0  0
   15.5234   -1.9676    0.0000 C   0  0  0  0  0  0  0  0  0  0  0  0
 13 14  2  0  0  0  0 
  5  7  1  0  0  0  0 
 13 15  1  0  0  0  0 
  1  2  1  0  0  0  0 
 15 16  2  0  0  0  0 
  7  8  1  0  0  0  0 
 16 17  1  0  0  0  0 
  8  9  2  0  0  0  0 
 17 18  2  0  0  0  0 
  1  6  1  0  0  0  0 
 18 19  1  0  0  0  0 
  2  3  1  0  0  0  0 
 19 20  2  0  0  0  0 
 20 15  1  0  0  0  0 
  3  4  1  0  0  0  0 
 18 21  1  0  0  0  0 
  4  5  1  0  0  0  0 
  2 22  1  0  0  0  0 
  9 10  1  0  0  0  0 
 11 23  1  0  0  0  0 
 10 11  1  0  0  0  0 
 22 24  2  0  0  0  0 
 11 12  2  0  0  0  0 
 24 25  1  0  0  0  0 
 12  8  1  0  0  0  0 
 25 26  2  0  0  0  0 
  5  6  1  0  0  0  0 
 26 27  1  0  0  0  0 
 12 13  1  0  0  0  0 
 27 28  2  0  0  0  0 
 28 22  1  0  0  0  0 
M  END