
  SciTegic11201309402D

 36 44  0  0  0  0            999 V2000
   18.6031  -11.8923    0.0000 N   0  0
   19.0785  -12.5681    0.0000 C   0  0
   19.8970  -12.4923    0.0000 C   0  0
   20.2449  -11.7476    0.0000 C   0  0
   19.7696  -11.0718    0.0000 C   0  0
   14.9431  -10.8997    0.0000 C   0  0
   15.6445  -10.4631    0.0000 C   0  0  2  0  0  0
   16.3688  -10.8605    0.0000 C   0  0  1  0  0  0
   16.3880  -11.6865    0.0000 C   0  0  2  0  0  0
   17.1089  -12.0806    0.0000 C   0  0  2  0  0  0
   17.0704  -10.4287    0.0000 C   0  0
   15.6900  -12.1149    0.0000 C   0  0
   14.9687  -11.7243    0.0000 C   0  0
   14.2720  -12.1535    0.0000 C   0  0
   14.2953  -12.9731    0.0000 C   0  0
   15.0212  -13.3616    0.0000 C   0  0
   15.7149  -12.9302    0.0000 C   0  0
   17.7961  -10.8272    0.0000 C   0  0
   17.8127  -11.6529    0.0000 C   0  0
   18.5762  -10.5564    0.0000 C   0  0
   19.0737  -11.2151    0.0000 C   0  0
   20.2117  -10.3527    0.0000 C   0  0
   19.7092   -9.6938    0.0000 C   0  0
   18.8938   -9.7992    0.0000 C   0  0
   16.3387  -10.0348    0.0000 O   0  0
   16.7519  -12.9163    0.0000 O   0  0
   17.8645  -12.7356    0.0000 H   0  0
   15.5581  -11.7052    0.0000 C   0  0
   15.6053   -9.6292    0.0000 N   0  0
   15.1227  -10.2979    0.0000 C   0  0
   14.8764   -9.2360    0.0000 C   0  0
   14.1731   -9.6697    0.0000 C   0  0
   13.3456   -9.6900    0.0000 C   0  0
   13.7792  -10.3933    0.0000 C   0  0
   15.0480  -14.1873    0.0000 O   0  0
   14.7591   -9.9982    0.0000 H   0  0
 16 17  2  0
 17 12  1  0
 18 19  2  0
  2  3  1  0
  3  4  1  0
 19  1  1  0
  1 21  1  0
 20 18  1  0
  4  5  1  0
  6 13  1  0
 20 21  2  0
 21  5  1  0
  8 11  1  0
  5 22  2  0
  9 10  1  0
 22 23  1  0
 10 19  1  0
 23 24  2  0
 24 20  1  0
 18 11  1  0
  8 25  1  1
  1  2  1  0
 17 26  1  0
 10 26  1  0
 10 27  1  1
 12 13  2  0
  9 28  1  1
  6  7  1  0
  7 29  1  0
 13 14  1  0
 29 30  1  0
 28 30  1  0
 12  9  1  0
 29 31  1  0
 14 15  2  0
 31 32  1  0
 33 32  1  0
 34 33  1  0
 32 34  1  0
  8  7  1  0
 15 16  1  0
  8  9  1  0
 16 35  1  0
  7 36  1  6
M  END