
          08180812492D 1   1.00000     0.00000     0

 20 22  0     0  0            999 V2000
    1.8152   -8.3083    0.0000 N   0  0  0  0  0  0           0  0  0
    1.8141   -9.1357    0.0000 C   0  0  0  0  0  0           0  0  0
    2.5289   -9.5485    0.0000 N   0  0  0  0  0  0           0  0  0
    3.2453   -9.1352    0.0000 C   0  0  0  0  0  0           0  0  0
    3.2425   -8.3047    0.0000 C   0  0  0  0  0  0           0  0  0
    2.5271   -7.8955    0.0000 C   0  0  0  0  0  0           0  0  0
    3.9554   -7.8895    0.0000 C   0  0  0  0  0  0           0  0  0
    4.6714   -8.2993    0.0000 C   0  0  0  0  0  0           0  0  0
    4.7644   -9.1183    0.0000 C   0  0  0  0  0  0           0  0  0
    5.5720   -9.2868    0.0000 C   0  0  0  0  0  0           0  0  0
    5.9819   -8.5708    0.0000 S   0  0  0  0  0  0           0  0  0
    5.4275   -7.9599    0.0000 C   0  0  0  0  0  0           0  0  0
    4.1547   -9.6741    0.0000 C   0  0  0  0  0  0           0  0  0
    5.9104  -10.0392    0.0000 C   0  0  0  0  0  0           0  0  0
    6.7312  -10.1224    0.0000 C   0  0  0  0  0  0           0  0  0
    7.0696  -10.8748    0.0000 O   0  0  0  0  0  0           0  0  0
    2.5246   -7.0705    0.0000 N   0  0  0  0  0  0           0  0  0
    1.0993   -9.5476    0.0000 C   0  0  3  0  0  0           0  0  0
    0.2781   -9.5489    0.0000 C   0  0  0  0  0  0           0  0  0
    0.6900  -10.2637    0.0000 C   0  0  0  0  0  0           0  0  0
  2  3  1  0     0  0
  5  6  2  0     0  0
  9 10  2  0     0  0
 10 11  1  0     0  0
 11 12  1  0     0  0
 12  8  2  0     0  0
  6  1  1  0     0  0
  9 13  1  0     0  0
  1  2  2  0     0  0
 10 14  1  0     0  0
  5  7  1  0     0  0
 14 15  1  0     0  0
  3  4  2  0     0  0
 15 16  1  0     0  0
  7  8  1  0     0  0
  6 17  1  0     0  0
  8  9  1  0     0  0
  2 18  1  0     0  0
 19 18  1  0     0  0
 20 19  1  0     0  0
 18 20  1  0     0  0
  4  5  1  0     0  0
M  END