
  CDK    9/16/09,9:58

 21 24  0  0  0  0  0  0  0  0999 V2000
   12.0530   -2.2642    0.0000 C   0  0  0  0  0  0  0  0  0  0  0  0
   12.0517   -3.0919    0.0000 C   0  0  0  0  0  0  0  0  0  0  0  0
   12.7647   -3.5047    0.0000 C   0  0  0  0  0  0  0  0  0  0  0  0
   12.7628   -1.8514    0.0000 C   0  0  0  0  0  0  0  0  0  0  0  0
   13.4810   -2.2602    0.0000 C   0  0  0  0  0  0  0  0  0  0  0  0
   13.4815   -3.0873    0.0000 C   0  0  0  0  0  0  0  0  0  0  0  0
   14.2683   -3.3424    0.0000 N   0  0  0  0  0  0  0  0  0  0  0  0
   14.7539   -2.6729    0.0000 C   0  0  0  0  0  0  0  0  0  0  0  0
   14.2673   -2.0042    0.0000 N   0  0  0  0  0  0  0  0  0  0  0  0
   15.5790   -2.6723    0.0000 N   0  0  0  0  0  0  0  0  0  0  0  0
   15.9920   -3.3865    0.0000 C   0  0  0  0  0  0  0  0  0  0  0  0
   15.5795   -4.0976    0.0000 C   0  0  0  0  0  0  0  0  0  0  0  0
   15.9891   -4.8098    0.0000 C   0  0  0  0  0  0  0  0  0  0  0  0
   16.8144   -4.8134    0.0000 C   0  0  0  0  0  0  0  0  0  0  0  0
   16.8175   -3.3805    0.0000 C   0  0  0  0  0  0  0  0  0  0  0  0
   17.2255   -4.0973    0.0000 C   0  0  0  0  0  0  0  0  0  0  0  0
   18.0484   -4.1013    0.0000 C   0  0  0  0  0  0  0  0  0  0  0  0
   18.4643   -3.3892    0.0000 C   0  0  0  0  0  0  0  0  0  0  0  0
   18.0512   -2.6718    0.0000 C   0  0  0  0  0  0  0  0  0  0  0  0
   17.2296   -2.6712    0.0000 C   0  0  0  0  0  0  0  0  0  0  0  0
   18.4574   -4.8177    0.0000 Cl  0  0  0  0  0  0  0  0  0  0  0  0
  8 10  1  0  0  0  0 
  5  6  1  0  0  0  0 
 10 11  1  0  0  0  0 
 11 12  1  0  0  0  0 
  2  3  1  0  0  0  0 
  3  6  2  0  0  0  0 
 11 15  1  0  0  0  0 
 12 13  1  0  0  0  0 
 13 14  1  0  0  0  0 
 14 16  1  0  0  0  0 
  1  2  2  0  0  0  0 
  5  4  2  0  0  0  0 
 15 16  2  0  0  0  0 
  6  7  1  0  0  0  0 
 16 17  1  0  0  0  0 
  7  8  1  0  0  0  0 
 17 18  2  0  0  0  0 
  8  9  2  0  0  0  0 
 18 19  1  0  0  0  0 
  9  5  1  0  0  0  0 
 19 20  2  0  0  0  0 
 20 15  1  0  0  0  0 
  4  1  1  0  0  0  0 
 17 21  1  0  0  0  0 
M  END