
  SciTegic05071316502D

 27 28  0  0  0  0            999 V2000
   11.6594  -24.7056    0.0000 N   0  0
   12.3671  -25.1142    0.0000 C   0  0
   13.0748  -24.7056    0.0000 N   0  0
   12.3671  -25.9314    0.0000 S   0  0
   10.9517  -25.1142    0.0000 C   0  0
   13.7825  -25.1142    0.0000 C   0  0
   13.7781  -25.9324    0.0000 N   0  0
   14.4849  -26.3410    0.0000 C   0  0
   14.4835  -24.7061    0.0000 C   0  0
   15.1910  -25.1109    0.0000 C   0  0
   15.1901  -25.9308    0.0000 N   0  0
   10.2455  -24.7008    0.0000 C   0  0
    9.5383  -25.1087    0.0000 C   0  0
    9.5379  -25.9268    0.0000 C   0  0
   10.2506  -26.3352    0.0000 C   0  0
   10.9549  -25.9249    0.0000 C   0  0
   14.4861  -27.1581    0.0000 N   0  0
   13.7789  -27.5677    0.0000 C   0  0
   13.7801  -28.3849    0.0000 C   0  0
   15.1943  -27.5658    0.0000 C   0  0
   15.1955  -28.3830    0.0000 C   0  0
   15.8982  -24.7013    0.0000 C   0  0
   14.4787  -23.8872    0.0000 N   0  3
   13.7694  -23.4813    0.0000 O   0  0
   15.1848  -23.4760    0.0000 O   0  5
   10.2534  -27.1524    0.0000 Cl  0  0
    8.8307  -26.3363    0.0000 C   0  0
  1  2  1  0
  2  3  1  0
  2  4  2  0
  1  5  1  0
  3  6  1  0
  6  7  2  0
  7  8  1  0
  8 11  2  0
 10  9  2  0
  9  6  1  0
 10 11  1  0
  5 12  2  0
 12 13  1  0
 13 14  2  0
 14 15  1  0
 15 16  2  0
 16  5  1  0
  8 17  1  0
 17 18  1  0
 18 19  1  0
 17 20  1  0
 20 21  1  0
 10 22  1  0
 23 24  2  0
 23 25  1  0
  9 23  1  0
 15 26  1  0
 14 27  1  0
M  CHG  2  23   1  25  -1
M  END