
  CDK    6/4/10,11:41

 32 35  0  0  0  0  0  0  0  0999 V2000
    5.5111   -8.4750    0.0000 C   0  0  0  0  0  0  0  0  0  0  0  0
    5.5099   -9.3023    0.0000 C   0  0  0  0  0  0  0  0  0  0  0  0
    6.2247   -9.7152    0.0000 C   0  0  0  0  0  0  0  0  0  0  0  0
    6.2229   -8.0622    0.0000 C   0  0  0  0  0  0  0  0  0  0  0  0
    7.7250   -8.2173    0.0000 N   0  0  0  0  0  0  0  0  0  0  0  0
    6.9383   -8.4713    0.0000 C   0  0  0  0  0  0  0  0  0  0  0  0
    6.9379   -9.2987    0.0000 C   0  0  0  0  0  0  0  0  0  0  0  0
    7.7254   -9.5534    0.0000 N   0  0  0  0  0  0  0  0  0  0  0  0
    8.2097   -8.8826    0.0000 C   0  0  0  0  0  0  0  0  0  0  0  0
    9.0347   -8.8808    0.0000 C   0  0  0  0  0  0  0  0  0  0  0  0
    9.4487   -9.5944    0.0000 C   0  0  0  0  0  0  0  0  0  0  0  0
   10.2737   -9.5927    0.0000 C   0  0  0  0  0  0  0  0  0  0  0  0
    9.0377  -10.3098    0.0000 N   0  0  0  0  0  0  0  0  0  0  0  0
   10.6877  -10.3062    0.0000 O   0  0  0  0  0  0  0  0  0  0  0  0
   10.6847   -8.8773    0.0000 O   0  0  0  0  0  0  0  0  0  0  0  0
    9.4518  -11.0234    0.0000 C   0  0  0  0  0  0  0  0  0  0  0  0
    9.0408  -11.7387    0.0000 C   0  0  0  0  0  0  0  0  0  0  0  0
   10.2768  -11.0216    0.0000 O   0  0  0  0  0  0  0  0  0  0  0  0
    8.2243  -11.8276    0.0000 C   0  0  0  0  0  0  0  0  0  0  0  0
    8.0545  -12.6349    0.0000 C   0  0  0  0  0  0  0  0  0  0  0  0
    8.7699  -13.0459    0.0000 O   0  0  0  0  0  0  0  0  0  0  0  0
    9.3817  -12.4925    0.0000 C   0  0  0  0  0  0  0  0  0  0  0  0
   10.1893  -12.6608    0.0000 C   0  0  0  0  0  0  0  0  0  0  0  0
    7.3343  -13.0371    0.0000 C   0  0  0  0  0  0  0  0  0  0  0  0
    6.6282  -12.6109    0.0000 C   0  0  0  0  0  0  0  0  0  0  0  0
    5.9084  -13.0124    0.0000 C   0  0  0  0  0  0  0  0  0  0  0  0
    5.8961  -13.8382    0.0000 C   0  0  0  0  0  0  0  0  0  0  0  0
    6.6096  -14.2608    0.0000 C   0  0  0  0  0  0  0  0  0  0  0  0
    7.3265  -13.8569    0.0000 C   0  0  0  0  0  0  0  0  0  0  0  0
   10.2707   -8.1637    0.0000 C   0  0  0  0  0  0  0  0  0  0  0  0
    5.1763  -14.2414    0.0000 C   0  0  0  0  0  0  0  0  0  0  0  0
    4.4673  -13.8197    0.0000 N   0  0  0  0  0  0  0  0  0  0  0  0
  6  4  2  0  0  0  0 
 13 16  1  0  0  0  0 
  5  6  1  0  0  0  0 
 16 17  1  0  0  0  0 
  7  8  1  0  0  0  0 
 16 18  2  0  0  0  0 
 17 19  1  0  0  0  0 
  8  9  1  0  0  0  0 
  9  5  2  0  0  0  0 
  4  1  1  0  0  0  0 
  9 10  1  0  0  0  0 
 19 20  2  0  0  0  0 
 20 21  1  0  0  0  0 
 21 22  1  0  0  0  0 
 22 17  2  0  0  0  0 
  6  7  1  0  0  0  0 
 22 23  1  0  0  0  0 
 10 11  1  0  0  0  0 
 20 24  1  0  0  0  0 
 24 25  2  0  0  0  0 
 11 12  1  0  0  0  0 
 25 26  1  0  0  0  0 
  2  3  1  0  0  0  0 
 26 27  2  0  0  0  0 
 11 13  1  6  0  0  0 
 27 28  1  0  0  0  0 
  3  7  2  0  0  0  0 
 28 29  2  0  0  0  0 
 29 24  1  0  0  0  0 
 12 14  2  0  0  0  0 
 15 30  1  0  0  0  0 
  1  2  2  0  0  0  0 
 27 31  1  0  0  0  0 
 12 15  1  0  0  0  0 
 31 32  1  0  0  0  0 
M  END