
  SciTegic05061409512D

 16 17  0  0  0  0            999 V2000
   16.3703   -6.6254    0.0000 C   0  0
   16.3691   -7.4527    0.0000 C   0  0
   17.0840   -7.8657    0.0000 C   0  0
   17.8005   -7.4522    0.0000 C   0  0
   17.7976   -6.6217    0.0000 C   0  0
   17.0822   -6.2125    0.0000 C   0  0
   18.5106   -6.2065    0.0000 N   0  0
   19.2266   -6.6163    0.0000 C   0  0
   19.9396   -6.2011    0.0000 C   0  0
   19.2298   -7.4413    0.0000 O   0  0
   15.6543   -7.8647    0.0000 N   0  0
   14.9401   -7.4516    0.0000 C   0  0
   14.2253   -7.8636    0.0000 C   0  0
   14.9407   -6.6266    0.0000 O   0  0
   13.4043   -7.8637    0.0000 C   0  0
   13.8162   -8.5785    0.0000 C   0  0
  1  2  2  0
  2  3  1  0
  3  4  2  0
  4  5  1  0
  5  6  2  0
  6  1  1  0
  5  7  1  0
  7  8  1  0
  8  9  1  0
  8 10  2  0
  2 11  1  0
 11 12  1  0
 12 13  1  0
 12 14  2  0
 15 13  1  0
 16 15  1  0
 13 16  1  0
M  END