
  SciTegic04021211102D

 29 32  0  0  0  0            999 V2000
    1.9301  -22.0752    0.0000 C   0  0
    2.3377  -22.7885    0.0000 C   0  0
    3.1572  -22.7913    0.0000 C   0  0
    3.5704  -22.0814    0.0000 C   0  0
    3.1579  -21.3674    0.0000 C   0  0
    2.3396  -21.3681    0.0000 C   0  0
    4.3965  -22.0816    0.0000 C   0  0
    4.8084  -22.8002    0.0000 C   0  0
    5.6347  -22.8019    0.0000 C   0  0
    6.0502  -22.0857    0.0000 C   0  0
    4.8084  -21.3682    0.0000 C   0  0
    5.6322  -21.3672    0.0000 C   0  0
    6.0413  -20.6543    0.0000 C   0  0
    5.6278  -19.9421    0.0000 N   0  0
    4.8009  -19.9472    0.0000 N   0  0
    4.3955  -20.6606    0.0000 C   0  0
    6.8684  -20.6523    0.0000 N   0  0
    7.2802  -19.9350    0.0000 C   0  0
    8.1076  -19.9349    0.0000 C   0  0
    8.5192  -19.2185    0.0000 C   0  0
    8.1039  -18.5022    0.0000 C   0  0
    7.2725  -18.5069    0.0000 C   0  0
    6.8645  -19.2239    0.0000 C   0  0
    8.5147  -17.7843    0.0000 O   0  0
    1.1030  -22.0727    0.0000 O   0  0
    9.3418  -17.7812    0.0000 C   0  0
    9.7581  -18.4959    0.0000 C   0  0
   10.5852  -18.4928    0.0000 N   0  0
    9.3472  -19.2138    0.0000 O   0  0
 13 14  2  0
  3  4  2  0
 14 15  1  0
  7  8  2  0
 15 16  2  0
 16 11  1  0
 13 17  1  0
  8  9  1  0
 17 18  1  0
  4  5  1  0
 18 19  2  0
  9 10  2  0
 19 20  1  0
 10 12  1  0
 20 21  2  0
 11  7  1  0
 21 22  1  0
  4  7  1  0
 22 23  2  0
 23 18  1  0
  2  3  1  0
 21 24  1  0
  5  6  2  0
  1 25  1  0
 11 12  2  0
 24 26  1  0
  6  1  1  0
 26 27  1  0
 12 13  1  0
 27 28  1  0
  1  2  2  0
 27 29  2  0
M  END