
  SciTegic11201309402D

 59 64  0  0  1  0            999 V2000
    2.4167   -3.2250    0.0000 C   0  0
   -0.4208   -0.1292    0.0000 N   0  0
    3.1292   -3.6417    0.0000 N   0  0
    3.8667   -0.9625    0.0000 N   0  0
    4.4542   -1.5417    0.0000 C   0  0
    1.7042   -3.6292    0.0000 C   0  0  2  0  0  0
    3.8500   -3.2375    0.0000 C   0  0
   -2.5875   -4.4125    0.0000 P   0  0
    3.8667   -0.1375    0.0000 C   0  0  2  0  0  0
    3.1542    0.2750    0.0000 C   0  0
   -1.1708    0.2083    0.0000 C   0  0
    2.4417   -0.1292    0.0000 N   0  0
   -0.4208   -0.9542    0.0000 C   0  0
   -1.7208   -0.4042    0.0000 C   0  0
    4.5875    0.2750    0.0000 C   0  0
    0.9917   -3.2125    0.0000 C   0  0  1  0  0  0
   -1.3083   -1.1167    0.0000 C   0  0
    5.3000   -0.1417    0.0000 C   0  0
    0.3000    0.2833    0.0000 C   0  0
    2.1042   -5.1667    0.0000 C   0  0
    1.6917   -4.4542    0.0000 C   0  0
   -1.4250    0.9958    0.0000 C   0  0
    0.2750   -3.6167    0.0000 C   0  0
    2.4292   -2.4000    0.0000 O   0  0
   -2.5958   -3.5875    0.0000 O   0  0
    1.0000   -2.3875    0.0000 C   0  0
    5.2792   -1.5417    0.0000 O   0  0
   -2.5333   -0.2375    0.0000 C   0  0
    3.1542    1.1000    0.0000 O   0  0
    0.5917   -1.6667    0.0000 C   0  0
   -1.8750   -4.8292    0.0000 C   0  0
   -3.2958   -3.9917    0.0000 C   0  0
    5.3000   -0.9667    0.0000 O   0  0
    2.9292   -5.1667    0.0000 O   0  0
    1.0125   -0.1292    0.0000 C   0  0  1  0  0  0
    1.7292    0.2833    0.0000 C   0  0
    0.2667   -4.4417    0.0000 C   0  0
   -0.4333   -3.1917    0.0000 C   0  0
   -2.5958   -5.2375    0.0000 O   0  0
    6.0167    0.2708    0.0000 N   0  0
   -1.1583   -4.4250    0.0000 C   0  0
   -2.2333    1.1625    0.0000 C   0  0
   -2.7833    0.5500    0.0000 C   0  0
    1.6875   -5.8792    0.0000 O   0  0
   -0.4458   -4.8417    0.0000 C   0  0
   -1.1500   -3.5917    0.0000 C   0  0
   -4.0208   -4.3917    0.0000 C   0  0
    4.5542   -2.8167    0.0000 C   0  0
    3.8500   -4.0625    0.0000 C   0  0
    1.0125   -0.9542    0.0000 C   0  0
   -3.5958    0.7208    0.0000 C   0  0
   -4.7250   -3.9667    0.0000 C   0  0
   -4.0208   -5.2125    0.0000 C   0  0
    4.5542   -4.4667    0.0000 C   0  0
    5.2667   -3.2375    0.0000 C   0  0
   -4.7375   -5.6167    0.0000 C   0  0
   -5.4458   -4.3667    0.0000 C   0  0
    5.2667   -4.0625    0.0000 C   0  0
   -5.4583   -5.1917    0.0000 C   0  0
  2 19  1  0
  3  1  1  0
  4  5  1  0
  5  7  1  0
  6  1  1  0
  7  3  1  0
  8 31  1  0
  9  4  1  0
 10  9  1  0
 11  2  1  0
 12 10  1  0
 13  2  1  0
 14 11  2  0
  9 15  1  6
 16  6  1  0
 17 13  2  0
 18 15  1  0
 35 19  1  1
 20 21  1  0
  6 21  1  1
 22 11  1  0
 16 23  1  1
 24  1  2  0
 25  8  2  0
 16 26  1  0
 27  5  2  0
 28 14  1  0
 29 10  2  0
 30 26  2  0
 31 41  1  0
 32  8  1  0
 33 18  2  0
 34 20  2  0
 35 50  1  0
 36 35  1  0
 37 23  1  0
 38 23  2  0
 39  8  1  0
 40 18  1  0
 41 46  2  0
 42 22  2  0
 43 42  1  0
 44 20  1  0
 45 37  2  0
 46 38  1  0
 47 32  1  0
 48  7  1  0
 49  7  1  0
 50 30  1  0
 51 43  1  0
 52 47  2  0
 53 47  1  0
 54 49  1  0
 55 48  1  0
 56 53  2  0
 57 52  1  0
 58 54  1  0
 59 56  1  0
 41 45  1  0
 55 58  1  0
 12 36  1  0
 17 14  1  0
 43 28  2  0
 59 57  2  0
M  END