
          11280714442D 1   1.00000     0.00000     0

 27 28  0     0  0            999 V2000
    4.1750   -2.2250    0.0000 C   0  0  0  0  0  0           0  0  0
   10.5292   -0.7042    0.0000 C   0  0  0  0  0  0           0  0  0
    3.4792   -2.6667    0.0000 C   0  0  0  0  0  0           0  0  0
    4.9042   -2.6042    0.0000 O   0  0  0  0  0  0           0  0  0
   11.2667   -1.0792    0.0000 C   0  0  0  0  0  0           0  0  0
    4.1375   -1.4042    0.0000 O   0  0  0  0  0  0           0  0  0
    9.8417   -1.1500    0.0000 C   0  0  0  0  0  0           0  0  0
    3.5167   -3.4917    0.0000 C   0  0  0  0  0  0           0  0  0
    2.7417   -2.2875    0.0000 C   0  0  0  0  0  0           0  0  0
   11.3042   -1.9042    0.0000 C   0  0  0  0  0  0           0  0  0
    5.6000   -2.1625    0.0000 C   0  0  0  0  0  0           0  0  0
    2.0917   -3.5542    0.0000 C   0  0  0  0  0  0           0  0  0
    9.8792   -1.9667    0.0000 C   0  0  0  0  0  0           0  0  0
    6.3292   -2.5417    0.0000 C   0  0  3  0  0  0           0  0  0
    1.3917   -4.0042    0.0000 N   0  0  0  0  0  0           0  0  0
    2.8292   -3.9375    0.0000 C   0  0  0  0  0  0           0  0  0
    2.0542   -2.7375    0.0000 C   0  0  0  0  0  0           0  0  0
   10.6125   -2.3500    0.0000 C   0  0  0  0  0  0           0  0  0
   10.4917    0.1208    0.0000 O   0  0  0  0  0  0           0  0  0
    7.7625   -2.4750    0.0000 N   0  0  0  0  0  0           0  0  0
   11.9625   -0.6375    0.0000 O   0  0  0  0  0  0           0  0  0
    6.3667   -3.3667    0.0000 O   0  0  0  0  0  0           0  0  0
    7.0292   -2.0917    0.0000 C   0  0  0  0  0  0           0  0  0
    8.4542   -2.0292    0.0000 C   0  0  0  0  0  0           0  0  0
    9.1875   -2.4125    0.0000 C   0  0  0  0  0  0           0  0  0
   11.1792    0.5708    0.0000 C   0  0  0  0  0  0           0  0  0
   12.6917   -1.0167    0.0000 C   0  0  0  0  0  0           0  0  0
  2  7  2  0     0  0
  3  1  1  0     0  0
  4  1  1  0     0  0
  5 10  2  0     0  0
  6  1  2  0     0  0
  7 13  1  0     0  0
  8  3  1  0     0  0
  9  3  2  0     0  0
 10 18  1  0     0  0
 11  4  1  0     0  0
 12 17  2  0     0  0
 13 25  1  0     0  0
 14 11  1  0     0  0
 15 12  1  0     0  0
 16  8  2  0     0  0
 17  9  1  0     0  0
 18 13  2  0     0  0
 19  2  1  0     0  0
 20 23  1  0     0  0
 21  5  1  0     0  0
 22 14  1  0     0  0
 23 14  1  0     0  0
 24 20  1  0     0  0
 25 24  1  0     0  0
 26 19  1  0     0  0
 27 21  1  0     0  0
 16 12  1  0     0  0
  5  2  1  0     0  0
M  END