
          11280715372D 1   1.00000     0.00000     0

 35 37  0     0  0            999 V2000
    5.3292   -1.1667    0.0000 S   0  0  3  0  0  0           0  0  0
    6.1500   -1.1667    0.0000 C   0  0  0  0  0  0           0  0  0
    6.5542   -0.4542    0.0000 C   0  0  0  0  0  0           0  0  0
    6.1417    0.2583    0.0000 N   0  3  0  0  0  0           0  0  0
    1.7542   -3.2500    0.0000 C   0  0  0  0  0  0           0  0  0
    1.7542   -2.4250    0.0000 C   0  0  0  0  0  0           0  0  0
    5.3250   -1.9917    0.0000 O   0  0  0  0  0  0           0  0  0
    5.3250   -0.3417    0.0000 O   0  0  0  0  0  0           0  0  0
    6.5417    1.1958    0.0000 O   0  5  0  0  0  0           0  0  0
    4.6125   -0.7625    0.0000 N   0  0  0  0  0  0           0  0  0
    5.3167    0.2500    0.0000 O   0  0  0  0  0  0           0  0  0
    5.3292   -3.6625    0.0000 C   0  0  0  0  0  0           0  0  0
    2.4667   -2.0125    0.0000 C   0  0  0  0  0  0           0  0  0
    1.0417   -3.6625    0.0000 C   0  0  0  0  0  0           0  0  0
    2.4667   -3.6625    0.0000 C   0  0  0  0  0  0           0  0  0
    0.3292   -4.8917    0.0000 N   0  0  0  0  0  0           0  0  0
    5.3292   -4.4875    0.0000 O   0  0  0  0  0  0           0  0  0
    6.5625   -1.8792    0.0000 C   0  0  0  0  0  0           0  0  0
    7.3792   -0.4500    0.0000 C   0  0  0  0  0  0           0  0  0
    6.0417   -3.2500    0.0000 O   0  0  0  0  0  0           0  0  0
    2.4667   -1.1792    0.0000 C   0  0  0  0  0  0           0  0  0
    3.9000   -1.1750    0.0000 C   0  0  0  0  0  0           0  0  0
    1.0417   -4.4792    0.0000 C   0  0  0  0  0  0           0  0  0
    1.0417   -2.0125    0.0000 C   0  0  0  0  0  0           0  0  0
    1.0417   -1.1875    0.0000 C   0  0  0  0  0  0           0  0  0
    4.6125   -3.2500    0.0000 C   0  0  0  0  0  0           0  0  0
   -0.3833   -4.4792    0.0000 C   0  0  0  0  0  0           0  0  0
    3.1792   -3.2500    0.0000 C   0  0  0  0  0  0           0  0  0
    3.1792   -0.7667    0.0000 C   0  0  0  0  0  0           0  0  0
    0.3292   -3.2417    0.0000 C   0  0  0  0  0  0           0  0  0
    1.7542   -0.7667    0.0000 C   0  0  0  0  0  0           0  0  0
    3.9000   -3.6625    0.0000 C   0  0  0  0  0  0           0  0  0
    7.3875   -1.8792    0.0000 C   0  0  0  0  0  0           0  0  0
    7.8000   -1.1667    0.0000 C   0  0  0  0  0  0           0  0  0
   -0.3833   -3.6542    0.0000 C   0  0  0  0  0  0           0  0  0
  2  1  1  0     0  0
  3  2  1  0     0  0
  4  3  1  0     0  0
  5  6  1  0     0  0
  6 13  2  0     0  0
  7  1  2  0     0  0
  8  1  2  0     0  0
  9  4  1  0     0  0
 10  1  1  0     0  0
 11  4  2  0     0  0
 12 26  1  0     0  0
 13 21  1  0     0  0
 14  5  1  0     0  0
 15  5  2  0     0  0
 16 23  2  0     0  0
 17 12  2  0     0  0
 18  2  2  0     0  0
 19  3  2  0     0  0
 20 12  1  0     0  0
 21 29  1  0     0  0
 22 10  1  0     0  0
 23 14  1  0     0  0
 24 25  2  0     0  0
 25 31  1  0     0  0
 26 32  1  0     0  0
 27 35  2  0     0  0
 15 28  1  0     0  0
 29 22  1  0     0  0
 30 14  2  0     0  0
 31 21  2  0     0  0
 32 28  1  0     0  0
 33 18  1  0     0  0
 34 33  2  0     0  0
 35 30  1  0     0  0
 34 19  1  0     0  0
  6 24  1  0     0  0
 16 27  1  0     0  0
M  CHG  2   4   1   9  -1
M  END