
  SciTegic02271217242D

 25 27  0  0  0  0            999 V2000
   11.8583   -4.3542    0.0000 O   0  0
   12.2750   -5.0708    0.0000 S   0  0
   12.6873   -4.3517    0.0000 O   0  0
   10.1361   -5.4916    0.0000 C   0  0
   10.1349   -6.3190    0.0000 C   0  0
   10.8497   -6.7319    0.0000 C   0  0
   11.5662   -6.3185    0.0000 C   0  0
   11.5633   -5.4880    0.0000 C   0  0
   10.8479   -5.0789    0.0000 C   0  0
   12.9922   -5.4826    0.0000 N   0  0
   12.9954   -6.3076    0.0000 C   0  0
   12.2833   -6.7196    0.0000 C   0  0
   12.2861   -7.5438    0.0000 N   0  0
   13.0026   -7.9545    0.0000 C   0  0
   13.7179   -7.5349    0.0000 C   0  0
   13.7116   -6.7120    0.0000 C   0  0
   14.4354   -7.9421    0.0000 C   0  0
   14.4366   -8.7678    0.0000 C   0  0
   15.1532   -9.1750    0.0000 N   0  0
   15.1398   -7.5245    0.0000 C   0  0
   15.8555   -7.9249    0.0000 N   0  0
   15.8641   -8.7565    0.0000 C   0  0
   16.5824   -9.1623    0.0000 N   0  0
    9.4201   -6.7309    0.0000 O   0  0
    8.7060   -6.3179    0.0000 C   0  0
  6  7  2  0
 12 13  1  0
  2  1  2  0
 13 14  2  0
  7  8  1  0
 14 15  1  0
  4  5  2  0
 15 16  2  0
 16 11  1  0
  8  9  2  0
 15 17  1  0
  9  4  1  0
 17 18  2  0
  8  2  1  0
 18 19  1  0
 19 22  2  0
  3  2  2  0
 21 20  2  0
 20 17  1  0
 21 22  1  0
  2 10  1  0
  5  6  1  0
 10 11  1  0
 22 23  1  0
  5 24  1  0
 11 12  2  0
 24 25  1  0
M  END