
  SciTegic12011113542D

 13 12  0  0  0  0            999 V2000
    3.4804    1.4657    0.0000 C   0  0
    3.0696    0.7510    0.0000 N   0  3
    3.8939    0.7525    0.0000 C   0  0
    4.1927    1.8778    0.0000 C   0  0
    4.9090    1.4678    0.0000 C   0  0
    5.6213    1.8841    0.0000 C   0  0
    6.3376    1.4741    0.0000 C   0  0
    7.0499    1.8862    0.0000 B   0  0
    7.7700    1.4754    0.0000 O   0  0
    7.0484    2.7146    0.0000 O   0  0
    2.7645    1.8765    0.0000 C   0  0
    3.4834    0.0373    0.0000 O   0  5
    4.7185    0.7533    0.0000 O   0  0
  1  2  1  0
  1  4  1  0
  4  5  1  0
  5  6  1  0
  6  7  1  0
  7  8  1  0
  8  9  1  0
  8 10  1  0
  1 11  1  0
  1  3  1  0
  3 12  1  0
  3 13  2  0
M  CHG  2   2   1  12  -1
M  END