
  SciTegic10041218062D

 24 27  0  0  1  0            999 V2000
    9.8024   -5.0690    0.0000 C   0  0  2  0  0  0
    7.6623   -6.3071    0.0000 C   0  0
    9.7971   -5.8920    0.0000 C   0  0  2  0  0  0
    8.3714   -5.8847    0.0000 C   0  0  2  0  0  0
    9.0837   -6.3061    0.0000 C   0  0  1  0  0  0
    7.6570   -7.1300    0.0000 C   0  0
    6.9418   -5.8983    0.0000 C   0  0
    9.0901   -4.6560    0.0000 C   0  0
    6.2326   -6.3123    0.0000 C   0  0
    8.3726   -5.0618    0.0000 C   0  0
    6.9478   -7.5483    0.0000 C   0  0
    6.2356   -7.1394    0.0000 C   0  0
    9.0909   -7.1290    0.0000 C   0  0
   10.5794   -6.1510    0.0000 C   0  0
   10.5870   -4.8168    0.0000 C   0  0  2  0  0  0
    8.3775   -7.5431    0.0000 C   0  0
   11.0674   -5.4883    0.0000 C   0  0
    5.5204   -5.9076    0.0000 I   0  0
    5.5264   -7.5493    0.0000 O   0  0
    9.7911   -4.2461    0.0000 C   0  0
   10.8377   -4.0304    0.0000 O   0  0
    8.3667   -6.7167    0.0000 H   0  0
    9.0792   -5.4792    0.0000 H   0  0
    9.7917   -6.7208    0.0000 H   0  0
  2  4  1  0
  3  1  1  0
  4 10  1  0
  5  3  1  0
  6  2  2  0
  7  2  1  0
  8  1  1  0
  9  7  2  0
 10  8  1  0
 11  6  1  0
 12  9  1  0
 13  5  1  0
 14  3  1  0
 15  1  1  0
 16 13  1  0
 17 15  1  0
 18  9  1  0
 19 12  1  0
  1 20  1  1
 15 21  1  1
 14 17  1  0
  5  4  1  0
  6 16  1  0
 11 12  2  0
  4 22  1  6
  5 23  1  1
  3 24  1  6
M  END