
  SciTegic09081514182D

 35 39  0  0  0  0            999 V2000
    3.3044   -1.4214    0.0000 C   0  0  1  0  0  0
    0.7168   -1.4214    0.0000 C   0  0
    0.7168    1.5915    0.0000 C   0  0
    1.9924    0.8382    0.0000 C   0  0
    1.9924   -0.6682    0.0000 C   0  0
    4.6043   -0.6682    0.0000 N   0  0
    4.6043    0.8382    0.0000 C   0  0
    3.3044    1.5915    0.0000 C   0  0
   -0.5831   -0.6682    0.0000 C   0  0
   -0.5831    0.8382    0.0000 C   0  0
   -2.0045    1.2999    0.0000 O   0  0
   -2.8792    0.0850    0.0000 C   0  0
   -2.0045   -1.1298    0.0000 O   0  0
    5.6440   -1.2674    0.0000 C   0  0
    0.7217    2.7914    0.0000 Br  0  0
    0.7316   -2.9221    0.0000 O   0  0
    1.7765   -3.5123    0.0000 C   0  0
    4.2847   -2.5305    0.0000 C   0  0  2  0  0  0
    4.8102   -6.2776    0.0000 C   0  0
    6.3179   -6.4684    0.0000 C   0  0
    7.2274   -5.2818    0.0000 C   0  0
    6.6513   -3.8755    0.0000 C   0  0
    4.2486   -4.8824    0.0000 C   0  0
    5.1581   -3.6958    0.0000 C   0  0
    2.8690   -2.9061    0.0000 O   0  0
    2.8427   -4.3790    0.0000 C   0  0
    1.8554   -5.0611    0.0000 O   0  0
    3.8929   -7.4651    0.0000 O   0  0
    6.9051   -7.8496    0.0000 O   0  0
    2.4278   -1.9026    0.0000 H   0  0
    5.2691   -2.3548    0.0000 H   0  0
    8.0962   -7.9958    0.0000 C   0  0
    4.4619   -8.8539    0.0000 C   0  0
    5.6510   -9.0148    0.0000 C   0  0
    3.7282   -9.8035    0.0000 O   0  0
 10  3  1  0
  9  2  1  0
  2  5  2  0
  4  3  2  0
  4  5  1  0
  4  8  1  0
  5  1  1  0
  1  6  1  0
  6  7  1  0
  7  8  1  0
  9 10  2  0
 10 11  1  0
 11 12  1  0
 12 13  1  0
 13  9  1  0
  6 14  1  0
  3 15  1  0
  2 16  1  0
 16 17  1  0
  1 18  1  0
 23 19  1  0
 19 20  2  0
 20 21  1  0
 21 22  2  0
 22 24  1  0
 23 24  2  0
 24 18  1  0
 18 25  1  0
 25 26  1  0
 26 23  1  0
 26 27  2  0
 19 28  1  0
 20 29  1  0
  1 30  1  6
 18 31  1  1
 29 32  1  0
 28 33  1  0
 33 34  1  0
 33 35  2  0
M  END