
  SciTegic09291413392D

 34 34  0  0  0  0            999 V2000
   20.1693  -10.6791    0.0000 Br  0  5
   19.7057   -4.0266    0.0000 Br  0  5
   18.3938   -9.0441    0.0000 C   0  0
   17.7048   -9.4321    0.0000 C   0  0
   17.6983  -10.2228    0.0000 C   0  0
   18.3772  -10.6234    0.0000 C   0  0
   19.0662  -10.2354    0.0000 C   0  0
   19.0727   -9.4446    0.0000 N   0  3
   16.3369   -9.4196    0.0000 C   0  0
   15.6544   -9.0169    0.0000 C   0  0
   16.3268  -10.2082    0.0000 O   0  0
   17.0223   -9.0295    0.0000 N   0  0
   14.9654   -9.4050    0.0000 N   0  0
   14.2829   -9.0023    0.0000 O   0  0
   19.7840   -9.0423    0.0000 C   0  0
   21.1973   -5.8814    0.0000 C   0  0
   21.8863   -5.4933    0.0000 C   0  0
   21.8928   -4.7026    0.0000 C   0  0
   21.2138   -4.3020    0.0000 C   0  0
   20.5248   -4.6901    0.0000 C   0  0
   20.5184   -5.4808    0.0000 N   0  3
   23.2578   -5.5079    0.0000 C   0  0
   23.9367   -5.9085    0.0000 C   0  0
   23.2643   -4.7172    0.0000 O   0  0
   22.5688   -5.8960    0.0000 N   0  0
   24.6257   -5.5204    0.0000 N   0  0
   25.3082   -5.9231    0.0000 O   0  0
   19.8071   -5.8831    0.0000 C   0  0
   19.7905   -8.2516    0.0000 C   0  0
   19.1080   -7.8489    0.0000 C   0  0
   19.1145   -7.0582    0.0000 C   0  0
   19.8035   -6.6701    0.0000 C   0  0
   20.4859   -7.0728    0.0000 C   0  0
   20.4795   -7.8635    0.0000 C   0  0
  3  4  1  0
  4  5  2  0
  5  6  1  0
  6  7  2  0
  7  8  1  0
  3  8  2  0
  9 10  1  0
  9 11  2  0
  9 12  1  0
 13 14  1  0
 10 13  2  0
  4 12  1  0
  8 15  1  0
 16 17  1  0
 17 18  2  0
 18 19  1  0
 19 20  2  0
 20 21  1  0
 16 21  2  0
 22 23  1  0
 22 24  2  0
 22 25  1  0
 26 27  1  0
 23 26  2  0
 17 25  1  0
 21 28  1  0
 29 30  1  0
 30 31  2  0
 31 32  1  0
 32 33  2  0
 33 34  1  0
 29 34  2  0
 29 15  1  0
 32 28  1  0
M  CHG  4   1  -1   2  -1   8   1  21   1
M  END