
  SciTegic01181116592D

 24 26  0  0  0  0            999 V2000
   12.8998  -17.1655    0.0000 C   0  0
   12.8986  -17.9933    0.0000 C   0  0
   13.6138  -18.4063    0.0000 C   0  0
   14.3306  -17.9928    0.0000 C   0  0
   14.3277  -17.1619    0.0000 C   0  0
   13.6120  -16.7526    0.0000 C   0  0
   12.1836  -18.4054    0.0000 Cl  0  0
   15.0410  -16.7466    0.0000 C   0  0
   15.7573  -17.1565    0.0000 C   0  0
   15.0377  -15.9212    0.0000 O   0  0
   13.6136  -19.2316    0.0000 S   0  0
   14.3283  -19.6445    0.0000 N   0  0
   12.8096  -19.0122    0.0000 O   0  0
   13.0222  -19.8126    0.0000 O   0  0
   16.4706  -16.7410    0.0000 S   0  0
   17.1869  -17.1509    0.0000 C   0  0
   17.2785  -17.9706    0.0000 N   0  0
   17.9417  -16.8116    0.0000 N   0  0
   18.4964  -17.4227    0.0000 C   0  0
   18.0865  -18.1345    0.0000 C   0  0
   19.7270  -18.1249    0.0000 C   0  0
   19.3133  -17.4191    0.0000 C   0  0
   19.3191  -18.8413    0.0000 C   0  0
   18.5016  -18.8421    0.0000 C   0  0
 11 12  1  0
  6  1  1  0
 11 13  2  0
  1  2  2  0
 11 14  2  0
  2  7  1  0
  9 15  1  0
  3  4  2  0
 15 16  1  0
 16 17  1  0
  5  8  1  0
 17 20  1  0
 19 18  1  0
 18 16  2  0
  8  9  1  0
  4  5  1  0
 19 20  2  0
 20 24  1  0
  8 10  2  0
 23 21  1  0
  2  3  1  0
 21 22  2  0
 22 19  1  0
  3 11  1  0
  5  6  2  0
 23 24  2  0
M  END