
  CDK    9/16/09,9:55

 36 39  0  0  0  0  0  0  0  0999 V2000
   -2.7879   -8.9985    0.0000 C   0  0  0  0  0  0  0  0  0  0  0  0
   -2.7894   -9.8263    0.0000 C   0  0  0  0  0  0  0  0  0  0  0  0
   -2.0738  -10.2346    0.0000 C   0  0  0  0  0  0  0  0  0  0  0  0
   -2.0759   -8.5856    0.0000 C   0  0  0  0  0  0  0  0  0  0  0  0
   -1.3593   -8.9940    0.0000 C   0  0  0  0  0  0  0  0  0  0  0  0
   -1.3587   -9.8263    0.0000 C   0  0  0  0  0  0  0  0  0  0  0  0
   -0.5665  -10.0809    0.0000 N   0  0  0  0  0  0  0  0  0  0  0  0
   -0.0797   -9.4093    0.0000 C   0  0  0  0  0  0  0  0  0  0  0  0
   -0.5675   -8.7338    0.0000 N   0  0  0  0  0  0  0  0  0  0  0  0
   -0.3208  -10.8633    0.0000 C   0  0  0  0  0  0  0  0  0  0  0  0
   -0.9034  -11.4451    0.0000 C   0  0  0  0  0  0  0  0  0  0  0  0
   -1.6981  -11.2304    0.0000 C   0  0  0  0  0  0  0  0  0  0  0  0
   -2.2848  -11.8111    0.0000 C   0  0  0  0  0  0  0  0  0  0  0  0
   -2.0691  -12.6111    0.0000 C   0  0  0  0  0  0  0  0  0  0  0  0
   -1.2698  -12.8221    0.0000 C   0  0  0  0  0  0  0  0  0  0  0  0
   -0.6915  -12.2395    0.0000 C   0  0  0  0  0  0  0  0  0  0  0  0
   -2.6551  -13.1931    0.0000 C   0  0  0  0  0  0  0  0  0  0  0  0
   -3.4501  -12.9799    0.0000 C   0  0  0  0  0  0  0  0  0  0  0  0
   -4.0360  -13.5616    0.0000 C   0  0  0  0  0  0  0  0  0  0  0  0
   -3.8192  -14.3612    0.0000 C   0  0  0  0  0  0  0  0  0  0  0  0
   -3.0197  -14.5709    0.0000 C   0  0  0  0  0  0  0  0  0  0  0  0
   -2.4375  -13.9876    0.0000 C   0  0  0  0  0  0  0  0  0  0  0  0
   -3.6663  -12.1812    0.0000 C   0  0  0  0  0  0  0  0  0  0  0  0
   -3.0794  -11.5993    0.0000 O   0  0  0  0  0  0  0  0  0  0  0  0
   -4.4604  -11.9689    0.0000 O   0  0  0  0  0  0  0  0  0  0  0  0
   -4.2175   -8.1735    0.0000 N   0  0  0  0  0  0  0  0  0  0  0  0
   -3.0893   -7.8688    0.0000 O   0  0  0  0  0  0  0  0  0  0  0  0
   -3.9092   -9.3017    0.0000 O   0  0  0  0  0  0  0  0  0  0  0  0
   -3.5044   -8.5860    0.0000 S   0  0  0  0  0  0  0  0  0  0  0  0
    0.7452   -9.4099    0.0000 C   0  0  0  0  0  0  0  0  0  0  0  0
    1.1572  -10.1248    0.0000 C   0  0  0  0  0  0  0  0  0  0  0  0
    1.9822  -10.1255    0.0000 C   0  0  0  0  0  0  0  0  0  0  0  0
    2.3940  -10.8403    0.0000 C   0  0  0  0  0  0  0  0  0  0  0  0
   -4.9323   -8.5855    0.0000 C   0  0  0  0  0  0  0  0  0  0  0  0
   -5.6464   -8.1723    0.0000 C   0  0  0  0  0  0  0  0  0  0  0  0
   -6.3613   -8.5843    0.0000 C   0  0  0  0  0  0  0  0  0  0  0  0
 18 19  1  0  0  0  0 
  4  1  1  0  0  0  0 
 19 20  2  0  0  0  0 
 20 21  1  0  0  0  0 
  5  6  1  0  0  0  0 
 21 22  2  0  0  0  0 
 22 17  1  0  0  0  0 
 14 17  1  0  0  0  0 
  7 10  1  0  0  0  0 
 18 23  1  0  0  0  0 
 23 24  2  0  0  0  0 
 10 11  1  0  0  0  0 
 23 25  1  0  0  0  0 
  2  3  1  0  0  0  0 
 11 12  2  0  0  0  0 
  3  6  2  0  0  0  0 
 12 13  1  0  0  0  0 
  1  2  2  0  0  0  0 
  1 29  1  0  0  0  0 
 13 14  2  0  0  0  0 
 29 26  1  0  0  0  0 
  5  4  2  0  0  0  0 
 29 27  2  0  0  0  0 
 14 15  1  0  0  0  0 
  6  7  1  0  0  0  0 
 28 29  2  0  0  0  0 
  8 30  1  0  0  0  0 
 15 16  2  0  0  0  0 
 30 31  1  0  0  0  0 
 16 11  1  0  0  0  0 
 31 32  1  0  0  0  0 
  7  8  1  0  0  0  0 
 32 33  1  0  0  0  0 
  8  9  2  0  0  0  0 
 26 34  1  0  0  0  0 
 17 18  2  0  0  0  0 
 34 35  1  0  0  0  0 
  9  5  1  0  0  0  0 
 35 36  1  0  0  0  0 
M  END