
  CDK    12/20/10,15:20

 36 39  0  0  0  0  0  0  0  0999 V2000
    5.8896   -5.6972    0.0000 C   0  0  0  0  0  0  0  0  0  0  0  0
    6.7146   -5.6972    0.0000 C   0  0  0  0  0  0  0  0  0  0  0  0
    6.9696   -4.9126    0.0000 C   0  0  0  0  0  0  0  0  0  0  0  0
    6.3021   -4.4276    0.0000 N   0  0  0  0  0  0  0  0  0  0  0  0
    5.6347   -4.9126    0.0000 C   0  0  0  0  0  0  0  0  0  0  0  0
    5.4680   -6.4076    0.0000 C   0  0  0  0  0  0  0  0  0  0  0  0
    4.6431   -6.3977    0.0000 N   0  0  0  0  0  0  0  0  0  0  0  0
    5.8719   -7.1270    0.0000 O   0  0  0  0  0  0  0  0  0  0  0  0
    4.2220   -7.1071    0.0000 C   0  0  0  0  0  0  0  0  0  0  0  0
    7.1180   -6.4076    0.0000 C   0  0  0  0  0  0  0  0  0  0  0  0
    6.7004   -7.1191    0.0000 O   0  0  0  0  0  0  0  0  0  0  0  0
    7.9430   -6.4135    0.0000 N   0  0  0  0  0  0  0  0  0  0  0  0
    8.3503   -7.1310    0.0000 C   0  0  0  0  0  0  0  0  0  0  0  0
    7.9320   -7.8393    0.0000 C   0  0  0  0  0  0  0  0  0  0  0  0
    8.3387   -8.5563    0.0000 C   0  0  0  0  0  0  0  0  0  0  0  0
    9.1646   -8.5626    0.0000 C   0  0  0  0  0  0  0  0  0  0  0  0
    9.5820   -7.8461    0.0000 C   0  0  0  0  0  0  0  0  0  0  0  0
    9.1729   -7.1321    0.0000 C   0  0  0  0  0  0  0  0  0  0  0  0
    9.5707   -9.2754    0.0000 N   0  0  0  0  0  0  0  0  0  0  0  0
    9.1524   -9.9877    0.0000 C   0  0  0  0  0  0  0  0  0  0  0  0
    9.5600  -10.7042    0.0000 C   0  0  0  0  0  0  0  0  0  0  0  0
   10.3858  -10.7094    0.0000 C   0  0  0  0  0  0  0  0  0  0  0  0
   10.8024   -9.9923    0.0000 C   0  0  0  0  0  0  0  0  0  0  0  0
   10.3924   -9.2789    0.0000 C   0  0  0  0  0  0  0  0  0  0  0  0
    3.3985   -7.0938    0.0000 N   0  0  0  0  0  0  0  0  0  0  0  0
    2.9775   -7.8024    0.0000 C   0  0  0  0  0  0  0  0  0  0  0  0
    3.3815   -8.5228    0.0000 C   0  0  0  0  0  0  0  0  0  0  0  0
    4.2108   -8.5302    0.0000 C   0  0  0  0  0  0  0  0  0  0  0  0
    4.6280   -7.8209    0.0000 C   0  0  0  0  0  0  0  0  0  0  0  0
    2.9614   -9.2329    0.0000 Cl  0  0  0  0  0  0  0  0  0  0  0  0
    8.3274   -9.9821    0.0000 O   0  0  0  0  0  0  0  0  0  0  0  0
    9.5872   -6.4186    0.0000 F   0  0  0  0  0  0  0  0  0  0  0  0
    6.3021   -3.6026    0.0000 C   0  0  0  0  0  0  0  0  0  0  0  0
    7.0166   -3.1901    0.0000 O   0  0  0  0  0  0  0  0  0  0  0  0
    7.0166   -2.3650    0.0000 C   0  0  0  0  0  0  0  0  0  0  0  0
    5.5877   -3.1901    0.0000 O   0  0  0  0  0  0  0  0  0  0  0  0
 17 18  2  0  0  0  0 
 18 13  1  0  0  0  0 
  7  9  1  0  0  0  0 
  4  5  1  0  0  0  0 
 19 20  1  0  0  0  0 
  2 10  1  6  0  0  0 
 20 21  1  0  0  0  0 
  5  1  1  0  0  0  0 
 21 22  2  0  0  0  0 
 10 11  2  0  0  0  0 
 22 23  1  0  0  0  0 
  1  2  1  0  0  0  0 
 23 24  2  0  0  0  0 
 24 19  1  0  0  0  0 
 16 19  1  0  0  0  0 
 10 12  1  0  0  0  0 
  9 25  2  0  0  0  0 
  1  6  1  1  0  0  0 
 25 26  1  0  0  0  0 
 12 13  1  0  0  0  0 
 26 27  2  0  0  0  0 
 27 28  1  0  0  0  0 
 13 14  2  0  0  0  0 
 28 29  2  0  0  0  0 
 29  9  1  0  0  0  0 
  6  7  1  0  0  0  0 
 27 30  1  0  0  0  0 
 14 15  1  0  0  0  0 
 20 31  2  0  0  0  0 
  2  3  1  0  0  0  0 
 18 32  1  0  0  0  0 
 15 16  2  0  0  0  0 
  4 33  1  0  0  0  0 
  6  8  2  0  0  0  0 
 33 34  1  0  0  0  0 
 16 17  1  0  0  0  0 
 34 35  1  0  0  0  0 
  3  4  1  0  0  0  0 
 33 36  2  0  0  0  0 
M  END