
  SciTegic04071410272D

 25 26  0  0  0  0            999 V2000
    5.8356   -7.0943    0.0000 C   0  0
    6.0906   -6.3097    0.0000 N   0  0
    5.4231   -5.8248    0.0000 C   0  0
    4.7557   -6.3097    0.0000 N   0  0
    6.3205   -7.7618    0.0000 C   0  0
    5.0106   -7.0943    0.0000 C   0  0
    5.4231   -4.9998    0.0000 C   0  0
    3.9942   -0.0498    0.0000 N   0  0
    6.8055   -8.4292    0.0000 F   0  0
    6.9880   -7.2768    0.0000 F   0  0
    5.6531   -8.2467    0.0000 F   0  0
    3.2797    0.3627    0.0000 C   0  0
    6.1376   -4.5873    0.0000 C   0  0
    4.7086   -4.5873    0.0000 C   0  0
    5.4231   -2.5248    0.0000 O   0  0
    4.7086   -1.2873    0.0000 C   0  0  1  0  0  0
    5.4231   -3.3498    0.0000 C   0  0
    3.9942   -0.8748    0.0000 C   0  0
    4.7086   -2.1123    0.0000 C   0  0
    4.7086   -3.7623    0.0000 C   0  0
    6.1376   -3.7623    0.0000 C   0  0
    5.4231   -0.8748    0.0000 O   0  0
    2.5652    0.7752    0.0000 C   0  0
    3.6922    1.0772    0.0000 C   0  0
    2.8672   -0.3517    0.0000 C   0  0
  2  1  1  0
  3  2  2  0
  4  6  1  0
  5  1  1  0
  6  1  2  0
  7  3  1  0
  8 18  1  0
  9  5  1  0
 10  5  1  0
 11  5  1  0
 12  8  1  0
 13  7  2  0
 14  7  1  0
 15 17  1  0
 16 19  1  0
 17 20  1  0
 18 16  1  0
 19 15  1  0
 20 14  2  0
 21 13  1  0
 16 22  1  6
 23 12  1  0
 24 12  1  0
 25 12  1  0
  4  3  1  0
 17 21  2  0
M  END