
  SciTegic02271514512D

 25 28  0  0  0  0            999 V2000
    4.7456   -1.0498    0.0000 N   0  0
    2.9245   -2.2166    0.0000 C   0  0
    3.7193   -2.0252    0.0000 N   0  0
    3.9509   -1.2412    0.0000 C   0  0
    3.3878   -0.6486    0.0000 C   0  0
    2.5930   -0.8400    0.0000 C   0  0
    2.3614   -1.6240    0.0000 N   0  0
    3.6194    0.1370    0.0000 F   0  0
    1.9445   -4.0911    0.0000 C   0  0
    1.9225   -3.2740    0.0000 C   0  0
    1.2038   -2.8844    0.0000 C   0  0
    0.5071   -3.3120    0.0000 C   0  0
    0.5291   -4.1292    0.0000 C   0  0
    1.2478   -4.5188    0.0000 N   0  0
    2.7285   -4.3228    0.0000 N   0  0
    2.6929   -3.0005    0.0000 C   0  0
    3.1910   -3.6487    0.0000 C   0  0
   -0.2177   -2.9225    0.0000 Cl  0  0
    5.3086   -1.6421    0.0000 C   0  0  1  0  0  0
    5.0737   -2.4264    0.0000 C   0  0
    5.6328   -3.0175    0.0000 C   0  0
    6.4286   -2.8302    0.0000 C   0  0
    6.6623   -2.0462    0.0000 C   0  0
    6.1002   -1.4494    0.0000 C   0  0  2  0  0  0
    6.3325   -0.6659    0.0000 N   0  0
  2  3  1  0
  3  4  2  0
  4  5  1  0
  5  6  2  0
  6  7  1  0
  2  7  2  0
  5  8  1  0
  9 10  1  0
 10 11  2  0
 11 12  1  0
 12 13  2  0
 13 14  1  0
  9 14  2  0
 16 17  2  0
 15 17  1  0
  9 15  1  0
 10 16  1  0
 12 18  1  0
  2 16  1  0
  1  4  1  0
 19  1  1  6
 19 20  1  0
 19 24  1  0
 20 21  1  0
 21 22  1  0
 22 23  1  0
 23 24  1  0
 24 25  1  1
M  END