
          11280715102D 1   1.00000     0.00000     0

 40 43  0     1  0            999 V2000
   12.4042   -5.7667    0.0000 S   0  0  3  0  0  0           0  0  0
    7.3417   -4.1125    0.0000 C   0  0  0  0  0  0           0  0  0
    6.8542   -4.7792    0.0000 N   0  0  3  0  0  0           0  0  0
    8.1250   -4.3625    0.0000 C   0  0  0  0  0  0           0  0  0
   12.8250   -5.0542    0.0000 N   0  0  0  0  0  0           0  0  0
   12.4167   -4.3417    0.0000 C   0  0  2  0  0  0           0  0  0
    8.1292   -5.1875    0.0000 C   0  0  0  0  0  0           0  0  0
    8.8417   -3.9417    0.0000 C   0  0  0  0  0  0           0  0  0
   10.2667   -3.9417    0.0000 C   0  0  0  0  0  0           0  0  0
    7.3417   -5.4417    0.0000 C   0  0  0  0  0  0           0  0  0
   13.1292   -3.9292    0.0000 C   0  0  0  0  0  0           0  0  0
    9.5542   -4.3542    0.0000 C   0  0  0  0  0  0           0  0  0
   12.0042   -6.4875    0.0000 C   0  0  0  0  0  0           0  0  0
   10.7917   -8.6417    0.0000 C   0  0  0  0  0  0           0  0  0
   10.9875   -4.3500    0.0000 N   0  0  0  0  0  0           0  0  0
   11.6042   -5.5542    0.0000 O   0  0  0  0  0  0           0  0  0
   13.2042   -5.9792    0.0000 O   0  0  0  0  0  0           0  0  0
    7.0792   -3.3292    0.0000 O   0  0  0  0  0  0           0  0  0
   11.2000   -7.9167    0.0000 C   0  0  0  0  0  0           0  0  0
   11.7000   -3.9375    0.0000 C   0  0  0  0  0  0           0  0  0
    6.1417   -4.3667    0.0000 C   0  0  0  0  0  0           0  0  0
    3.2917   -3.5375    0.0000 N   0  0  0  0  0  0           0  0  0
    8.8417   -5.6000    0.0000 C   0  0  0  0  0  0           0  0  0
   10.2667   -3.1167    0.0000 O   0  0  0  0  0  0           0  0  0
   13.1250   -3.1042    0.0000 O   0  0  0  0  0  0           0  0  0
    9.9667   -8.6542    0.0000 O   0  0  0  0  0  0           0  0  0
    9.5542   -5.1875    0.0000 C   0  0  0  0  0  0           0  0  0
   11.1792   -6.4917    0.0000 C   0  0  0  0  0  0           0  0  0
   12.4292   -7.1917    0.0000 C   0  0  0  0  0  0           0  0  0
   12.0292   -7.9042    0.0000 C   0  0  0  0  0  0           0  0  0
   10.7792   -7.2125    0.0000 C   0  0  0  0  0  0           0  0  0
   13.8417   -4.3417    0.0000 O   0  0  0  0  0  0           0  0  0
   11.2167   -9.3500    0.0000 O   0  0  0  0  0  0           0  0  0
    5.4292   -4.7792    0.0000 C   0  0  0  0  0  0           0  0  0
    4.7167   -4.3667    0.0000 C   0  0  3  0  0  0           0  0  0
    4.0125   -3.1292    0.0000 C   0  0  0  0  0  0           0  0  0
    3.2917   -4.3667    0.0000 C   0  0  0  0  0  0           0  0  0
    4.7167   -3.5417    0.0000 C   0  0  0  0  0  0           0  0  0
    4.0042   -4.7792    0.0000 C   0  0  0  0  0  0           0  0  0
   12.0000   -5.0542    0.0000 H   0  0  0  0  0  0           0  0  0
  2  4  1  0     0  0
  3  2  1  0     0  0
  4  8  1  0     0  0
  5  1  1  0     0  0
  6  5  1  1     0  0
  7 23  1  0     0  0
  8 12  2  0     0  0
  9 15  1  0     0  0
 10  7  1  0     0  0
 11  6  1  0     0  0
 12  9  1  0     0  0
 13  1  1  0     0  0
 14 19  1  0     0  0
 15 20  1  0     0  0
 16  1  2  0     0  0
 17  1  2  0     0  0
 18  2  2  0     0  0
 19 30  1  0     0  0
 20  6  1  0     0  0
 21  3  1  0     0  0
 22 37  1  0     0  0
 23 27  2  0     0  0
 24  9  2  0     0  0
 25 11  2  0     0  0
 26 14  2  0     0  0
 27 12  1  0     0  0
 28 13  2  0     0  0
 29 13  1  0     0  0
 30 29  2  0     0  0
 31 28  1  0     0  0
 32 11  1  0     0  0
 33 14  1  0     0  0
 34 21  1  0     0  0
 35 34  1  0     0  0
 36 38  1  0     0  0
 37 39  1  0     0  0
 38 35  1  0     0  0
 39 35  1  0     0  0
  6 40  1  6     0  0
 31 19  2  0     0  0
  4  7  2  0     0  0
  3 10  1  0     0  0
 36 22  1  0     0  0
M  END