
  SciTegic10191216002D

 28 30  0  0  0  0            999 V2000
   17.5354   -0.4930    0.0000 C   0  0
   17.5378   -1.3213    0.0000 C   0  0
   18.2552   -1.7330    0.0000 C   0  0
   18.9704   -1.3219    0.0000 C   0  0
   18.9641   -0.4902    0.0000 C   0  0
   18.2503   -0.0782    0.0000 C   0  0
   19.6798   -0.0814    0.0000 C   0  0
   20.3939   -0.4983    0.0000 N   0  0
   19.6774    0.7486    0.0000 O   0  0
   21.1099   -0.0853    0.0000 C   0  0
   21.8238   -0.5064    0.0000 C   0  0
   22.5478   -0.0980    0.0000 C   0  0
   23.3020   -0.4359    0.0000 C   0  0
   23.8529    0.1697    0.0000 N   0  0
   22.6401    0.7182    0.0000 C   0  0
   23.4468    0.8871    0.0000 C   0  0
   23.7092    1.6675    0.0000 C   0  0
   23.1617    2.2838    0.0000 C   0  0
   22.3483    2.1106    0.0000 C   0  0
   22.0904    1.3386    0.0000 C   0  0
   16.8268   -1.7391    0.0000 O   0  0
   16.1096   -1.3324    0.0000 C   0  0
   15.3904   -0.9161    0.0000 F   0  0
   15.6998   -2.0478    0.0000 F   0  0
   16.5252   -0.6203    0.0000 F   0  0
   21.8159   -1.3309    0.0000 C   0  0
   21.7992    2.7255    0.0000 O   0  0
   22.0571    3.5037    0.0000 C   0  0
 13 14  1  0
 14 16  1  0
 15 12  1  0
  5  7  1  0
  3  4  2  0
 15 16  2  0
  7  8  1  0
 16 17  1  0
 17 18  2  0
  7  9  2  0
 18 19  1  0
  4  5  1  0
 19 20  2  0
 20 15  1  0
  8 10  1  0
  2 21  1  0
  2  3  1  0
 21 22  1  0
 10 11  1  0
 22 23  1  0
  5  6  2  0
 22 24  1  0
 11 12  1  0
 22 25  1  0
 12 13  2  0
 11 26  1  0
  6  1  1  0
 19 27  1  0
  1  2  2  0
 27 28  1  0
M  END