
  SciTegic04091415222D

 24 26  0  0  0  0            999 V2000
    5.2535  -19.2742    0.0000 C   0  0
    5.9588  -18.8697    0.0000 C   0  0
    5.9588  -18.0525    0.0000 C   0  0
    5.2535  -17.6398    0.0000 C   0  0
    5.2535  -20.0913    0.0000 O   0  0
    5.2535  -16.8226    0.0000 O   0  0
    4.5482  -18.8697    0.0000 C   0  0
    4.5508  -18.0543    0.0000 C   0  0
    3.8470  -17.6462    0.0000 C   0  0
    3.1402  -18.0523    0.0000 C   0  0
    3.1416  -18.8708    0.0000 C   0  0
    3.8460  -19.2753    0.0000 N   0  0
    6.6659  -19.2793    0.0000 N   0  0
    7.3742  -18.8717    0.0000 C   0  0
    8.0813  -19.2814    0.0000 C   0  0
    8.7896  -18.8738    0.0000 C   0  0
    9.4970  -19.2851    0.0000 C   0  0
   10.2048  -18.8782    0.0000 C   0  0
   10.2064  -18.0602    0.0000 C   0  0
    9.4943  -17.6507    0.0000 C   0  0
    8.7894  -18.0600    0.0000 C   0  0
    9.4926  -16.8335    0.0000 Br  0  0
   10.9142  -17.6517    0.0000 O   0  0
   11.6218  -18.0604    0.0000 C   0  0
  8  4  1  0
  7  1  1  0
  1  2  1  0
  2  3  2  0
  3  4  1  0
  1  5  2  0
  4  6  2  0
  7  8  2  0
  8  9  1  0
  9 10  2  0
 10 11  1  0
 11 12  2  0
 12  7  1  0
  2 13  1  0
 13 14  1  0
 14 15  1  0
 15 16  1  0
 16 17  2  0
 17 18  1  0
 18 19  2  0
 19 20  1  0
 20 21  2  0
 21 16  1  0
 20 22  1  0
 19 23  1  0
 23 24  1  0
M  END