
          02060813482D 1   1.00000     0.00000     0

 44 47  0     0  0            999 V2000
    3.6027   -2.4000    0.0000 C   0  0  0  0  0  0           0  0  0
    3.6016   -3.2273    0.0000 C   0  0  0  0  0  0           0  0  0
    4.3164   -3.6402    0.0000 C   0  0  0  0  0  0           0  0  0
    5.0328   -3.2269    0.0000 C   0  0  0  0  0  0           0  0  0
    5.0300   -2.3963    0.0000 C   0  0  0  0  0  0           0  0  0
    4.3146   -1.9872    0.0000 C   0  0  0  0  0  0           0  0  0
    2.8868   -3.6393    0.0000 Cl  0  0  0  0  0  0           0  0  0
    4.3121   -1.1622    0.0000 C   0  0  0  0  0  0           0  0  0
    5.0254   -0.7476    0.0000 N   0  0  3  0  0  0           0  0  0
    5.0229    0.0774    0.0000 C   0  0  0  0  0  0           0  0  0
    5.7361    0.4921    0.0000 C   0  0  3  0  0  0           0  0  0
    4.3072    0.4878    0.0000 O   0  0  0  0  0  0           0  0  0
    5.7429   -1.9811    0.0000 O   0  0  0  0  0  0           0  0  0
    5.7480   -3.6382    0.0000 C   0  0  0  0  0  0           0  0  0
    5.7444   -4.4636    0.0000 C   0  0  0  0  0  0           0  0  0
    6.4586   -4.8749    0.0000 C   0  0  0  0  0  0           0  0  0
    7.1734   -4.4612    0.0000 C   0  0  0  0  0  0           0  0  0
    7.1695   -3.6319    0.0000 C   0  0  0  0  0  0           0  0  0
    6.4546   -3.2244    0.0000 N   0  0  0  0  0  0           0  0  0
    7.8818   -3.2158    0.0000 O   0  0  0  0  0  0           0  0  0
    7.8891   -4.8716    0.0000 C   0  0  0  0  0  0           0  0  0
    8.6000   -5.2833    0.0000 N   0  0  0  0  0  0           0  0  0
    6.4595   -5.6999    0.0000 C   0  0  0  0  0  0           0  0  0
    5.7461   -6.1082    0.0000 C   0  0  0  0  0  0           0  0  0
    5.7466   -6.9325    0.0000 C   0  0  0  0  0  0           0  0  0
    6.4621   -7.3450    0.0000 C   0  0  0  0  0  0           0  0  0
    7.1785   -6.9273    0.0000 C   0  0  0  0  0  0           0  0  0
    7.1744   -6.1044    0.0000 C   0  0  0  0  0  0           0  0  0
    5.0322   -5.6946    0.0000 Cl  0  0  0  0  0  0           0  0  0
    7.8948   -7.3365    0.0000 C   0  0  3  0  0  0           0  0  0
    8.6042   -7.7458    0.0000 F   0  0  0  0  0  0           0  0  0
    8.3056   -6.6210    0.0000 F   0  0  0  0  0  0           0  0  0
    7.4893   -8.0550    0.0000 F   0  0  0  0  0  0           0  0  0
    5.7411   -1.1579    0.0000 C   0  0  0  0  0  0           0  0  0
    6.4466    0.0789    0.0000 C   0  0  0  0  0  0           0  0  0
    7.1577    0.4900    0.0000 C   0  0  0  0  0  0           0  0  0
    7.1595    1.3154    0.0000 N   0  0  3  0  0  0           0  0  0
    6.4439    1.7279    0.0000 C   0  0  0  0  0  0           0  0  0
    5.7266    1.3151    0.0000 C   0  0  0  0  0  0           0  0  0
    7.8743    1.7273    0.0000 C   0  0  0  0  0  0           0  0  0
    8.5884    1.3142    0.0000 C   0  0  0  0  0  0           0  0  0
    7.8749    2.5477    0.0000 O   0  0  0  0  0  0           0  0  0
    9.3032    1.7262    0.0000 C   0  0  0  0  0  0           0  0  0
   10.0174    1.3131    0.0000 C   0  0  0  0  0  0           0  0  0
  2  3  1  0     0  0
 21 22  3  0     0  0
 10 11  1  0     0  0
 16 23  1  0     0  0
  5  6  2  0     0  0
 23 24  2  0     0  0
 10 12  2  0     0  0
 24 25  1  0     0  0
  6  1  1  0     0  0
 25 26  2  0     0  0
  5 13  1  0     0  0
 26 27  1  0     0  0
  1  2  2  0     0  0
 27 28  2  0     0  0
 28 23  1  0     0  0
  4 14  1  0     0  0
 24 29  1  0     0  0
  2  7  1  0     0  0
 27 30  1  0     0  0
 14 15  2  0     0  0
 30 31  1  0     0  0
  3  4  2  0     0  0
 30 32  1  0     0  0
 15 16  1  0     0  0
 30 33  1  0     0  0
  6  8  1  0     0  0
  9 34  1  0     0  0
 11 35  1  0     0  0
 16 17  2  0     0  0
 17 18  1  0     0  0
  8  9  1  0     0  0
 18 19  1  0     0  0
 11 39  1  0     0  0
 35 36  1  0     0  0
 36 37  1  0     0  0
 37 38  1  0     0  0
 38 39  1  0     0  0
 19 14  1  0     0  0
 37 40  1  0     0  0
  4  5  1  0     0  0
 40 41  1  0     0  0
 18 20  2  0     0  0
 40 42  2  0     0  0
  9 10  1  0     0  0
 41 43  1  0     0  0
 17 21  1  0     0  0
 43 44  1  0     0  0
M  END