
  SciTegic04091511462D

 57 61  0  0  1  0            999 V2000
    7.9163   -1.1233    0.0000 N   0  0
    5.9631   -4.3603    0.0000 N   0  0
    5.4111   -4.9734    0.0000 C   0  0
    7.3643   -1.7364    0.0000 C   0  0
    6.2602   -2.9626    0.0000 C   0  0
    8.9782   -2.0794    0.0000 C   0  0
    8.7233   -1.2948    0.0000 C   0  0  2  0  0  0
    6.4730   -5.9295    0.0000 N   0  0
    6.0053   -2.1779    0.0000 N   0  0
    5.7082   -3.5757    0.0000 C   0  0  2  0  0  0
    5.6660   -5.7580    0.0000 C   0  0  2  0  0  0
    8.4262   -2.6925    0.0000 N   0  0
    8.3840   -4.8749    0.0000 N   0  0
    7.5038   -0.4088    0.0000 C   0  0
    6.5573   -1.5648    0.0000 C   0  0  2  0  0  0
    5.3689   -7.1557    0.0000 C   0  0
    7.0250   -5.3164    0.0000 C   0  0
    8.1291   -4.0902    0.0000 C   0  0
    6.6968   -0.5803    0.0000 C   0  0
    5.3689   -8.4906    0.0000 N   0  0
    4.8840   -7.8231    0.0000 C   0  0
    7.8320   -5.4879    0.0000 C   0  0  2  0  0  0
    8.6811   -3.4771    0.0000 C   0  0  2  0  0  0
    5.1140   -6.3711    0.0000 C   0  0
    6.1535   -7.4106    0.0000 C   0  0
    6.1535   -8.2356    0.0000 C   0  0
    9.1488   -7.2287    0.0000 C   0  0
    4.6041   -4.8018    0.0000 O   0  0
    7.6192   -2.5210    0.0000 O   0  0
    7.0672   -3.1341    0.0000 O   0  0
    9.7852   -2.2509    0.0000 O   0  0
    4.9012   -3.4041    0.0000 C   0  0
    9.2753   -0.6817    0.0000 C   0  0
    7.3221   -3.9187    0.0000 O   0  0
    6.7701   -4.5318    0.0000 O   0  0
    9.9558   -7.4002    0.0000 O   0  0
    8.0869   -6.2726    0.0000 C   0  0
    6.7168   -4.0247    0.0000 C   0  0
    8.8939   -6.4441    0.0000 C   0  0
    8.5968   -7.8418    0.0000 N   0  0
    9.4881   -3.6487    0.0000 C   0  0
    4.6463   -2.6195    0.0000 C   0  0
   10.5500   -4.6048    0.0000 S   0  0
    6.8680   -6.9981    0.0000 C   0  0
    9.0204    0.1029    0.0000 C   0  0
    9.7430   -4.4333    0.0000 C   0  0
    6.8680   -8.6481    0.0000 C   0  0
   10.8049   -5.3894    0.0000 C   0  0
    5.1983   -2.0064    0.0000 C   0  0
    3.8393   -2.4480    0.0000 C   0  0
    8.2134    0.2744    0.0000 C   0  0
    9.5724    0.7160    0.0000 C   0  0
    7.5825   -7.4106    0.0000 C   0  0
    7.5825   -8.2356    0.0000 C   0  0
    3.5843   -1.6634    0.0000 C   0  0
    4.9434   -1.2218    0.0000 C   0  0
    4.1364   -1.0503    0.0000 C   0  0
  2 10  1  0
  3  2  1  0
  4  1  1  0
  5  9  1  0
  6  7  1  0
  7  1  1  0
  8 17  1  0
 15  9  1  6
 10  5  1  0
 11  3  1  0
 12  6  1  0
 13 18  1  0
 14  1  1  0
 15  4  1  0
 16 24  1  0
 17 22  1  0
 18 23  1  0
 19 14  2  0
 20 21  1  0
 21 16  2  0
 22 13  1  0
 23 12  1  0
 11 24  1  6
 25 16  1  0
 26 25  2  0
 27 39  1  0
 28  3  2  0
 29  4  2  0
 30  5  2  0
 31  6  2  0
 10 32  1  1
  7 33  1  1
 34 18  2  0
 35 17  2  0
 36 27  2  0
 22 37  1  1
 38  2  1  0
 39 37  1  0
 40 27  1  0
 23 41  1  1
 42 32  1  0
 43 46  1  0
 44 25  1  0
 45 33  1  0
 46 41  1  0
 47 26  1  0
 48 43  1  0
 49 42  1  0
 50 42  2  0
 51 45  1  0
 52 45  1  0
 53 44  2  0
 54 53  1  0
 55 50  1  0
 56 49  2  0
 57 55  2  0
 19 15  1  0
  8 11  1  0
 57 56  1  0
 20 26  1  0
 54 47  2  0
M  END