
  SciTegic12231509382D

 21 22  0  0  0  0            999 V2000
   -2.9399   -0.1958    0.0000 S   0  0
   -0.9197   -0.8859    0.0000 O   0  0
    0.1189    2.0032    0.0000 O   0  0
    0.5092   -1.7109    0.0000 O   0  0
   -1.1073    0.8991    0.0000 N   0  0
   -2.5274    0.5186    0.0000 N   0  0
   -2.3879   -0.8089    0.0000 N   0  0
    1.9382   -0.8859    0.0000 N   0  0
   -1.7204    0.3471    0.0000 C   0  0
   -1.6342   -0.4734    0.0000 C   0  0
    0.5092   -0.8859    0.0000 C   0  0
   -0.2052   -0.4734    0.0000 C   0  0
   -0.3227    0.6442    0.0000 C   0  0
   -1.2789    1.7061    0.0000 C   0  0
    1.2237   -0.4734    0.0000 C   0  0
    0.2904    1.1962    0.0000 C   0  0
   -0.6658    2.2581    0.0000 C   0  0
    2.6526   -0.4734    0.0000 C   0  0
    3.3671   -0.0609    0.0000 C   0  0
    3.0651   -1.1878    0.0000 C   0  0
    2.2401    0.2411    0.0000 C   0  0
  1  6  1  0
  1  7  1  0
  2 10  1  0
  2 12  1  0
  3 16  1  0
  3 17  1  0
 11  4  1  0
  5  9  1  0
  5 13  1  0
  5 14  1  0
  6  9  2  0
  7 10  2  0
  8 15  1  0
  8 18  1  0
  9 10  1  0
 11 12  1  0
 11 15  1  0
 13 16  1  0
 14 17  1  0
 18 19  1  0
 18 20  1  0
 18 21  1  0
M  END