
  SciTegic09261414462D

 18 20  0  0  0  0            999 V2000
    8.1533  -12.6756    0.0000 N   0  0
    8.1383  -13.4939    0.0000 C   0  0
    7.4228  -13.8912    0.0000 N   0  0
    7.4099  -14.7059    0.0000 C   0  0
    8.1104  -15.1268    0.0000 C   0  0
    8.8237  -14.7330    0.0000 C   0  0
    8.8387  -13.9148    0.0000 N   0  0
    9.5242  -15.1539    0.0000 N   0  0
    9.5927  -15.9641    0.0000 C   0  0
   10.3915  -16.1518    0.0000 C   0  0  1  0  0  0
   10.8124  -15.4513    0.0000 C   0  0
   10.2738  -14.8306    0.0000 C   0  0
   10.7092  -16.9028    0.0000 N   0  0
   11.5219  -17.0011    0.0000 C   0  0
    6.6945  -15.1033    0.0000 C   0  0
    5.9096  -14.8787    0.0000 C   0  0
    5.6846  -15.6656    0.0000 C   0  0
    6.4715  -15.8905    0.0000 C   0  0
  2  3  1  0
  3  4  2  0
  4  5  1  0
  5  6  2  0
  6  7  1  0
  2  7  2  0
  1  2  1  0
  8  9  1  0
  9 10  1  0
 10 11  1  0
 11 12  1  0
  8 12  1  0
 13 14  1  0
 10 13  1  1
  6  8  1  0
  4 15  1  0
 15 16  1  0
 16 17  1  0
 17 18  1  0
 18 15  1  0
M  END