
  SciTegic11201309402D

 78 81  0  0  1  0            999 V2000
    9.1792   -9.1917    0.0000 N   0  0
    8.4375   -9.6417    0.0000 C   0  0
   10.6250   -8.1875    0.0000 C   0  0
    9.9042   -8.7375    0.0000 C   0  0  1  0  0  0
    6.1917   -9.2417    0.0000 C   0  0
   -0.5583   -9.6667    0.0000 C   0  0
    1.6917   -9.2417    0.0000 C   0  0
    3.9417   -9.6667    0.0000 C   0  0
    4.6917   -9.2417    0.0000 N   0  0
    0.1917   -9.2417    0.0000 N   0  0
    6.9417   -9.6667    0.0000 N   0  0
   10.4500   -7.2542    0.0000 N   0  0
    5.4417   -9.6667    0.0000 C   0  0  1  0  0  0
    2.4417   -9.6667    0.0000 N   0  0
    5.4417  -10.5375    0.0000 C   0  0
    0.9417   -9.6667    0.0000 C   0  0  1  0  0  0
    7.6792   -9.2250    0.0000 C   0  0  1  0  0  0
   -1.3000   -9.2417    0.0000 C   0  0  2  0  0  0
   14.9292   -7.6292    0.0000 C   0  0
   -2.0500  -10.5375    0.0000 C   0  0
   -2.0500   -9.6667    0.0000 N   0  0
   11.3000   -6.0250    0.0000 C   0  0
    3.1917   -9.2417    0.0000 C   0  0  1  0  0  0
    5.2250  -11.3292    0.0000 C   0  0
   11.2292   -6.8792    0.0000 C   0  0  2  0  0  0
    3.9417   -7.1167    0.0000 C   0  0
   15.7125   -7.2542    0.0000 N   0  0
    8.4542  -10.5042    0.0000 O   0  0
   11.4375   -8.5292    0.0000 O   0  0
    1.6917   -8.3750    0.0000 O   0  0
    6.1917   -8.3750    0.0000 O   0  0
   -0.5583  -10.5375    0.0000 O   0  0
    3.9417  -10.5375    0.0000 O   0  0
   -1.3000   -8.3750    0.0000 C   0  0
    0.9417  -10.5375    0.0000 C   0  0
   10.5917   -5.5292    0.0000 O   0  0
   -1.3000  -10.9667    0.0000 O   0  0
    4.4250  -11.5375    0.0000 O   0  0
    4.6542   -6.7042    0.0000 O   0  0
    3.1917   -8.3750    0.0000 C   0  0
   14.2167   -7.1292    0.0000 N   0  0
   -2.7708  -10.9500    0.0000 C   0  0
   14.8542   -8.4917    0.0000 N   0  0
   12.0875   -5.6542    0.0000 N   0  0
    9.3917  -10.0292    0.0000 C   0  0
    5.8000  -11.9167    0.0000 N   0  0
    3.9417   -7.9417    0.0000 C   0  0
    3.2250   -6.7042    0.0000 N   0  0
   -0.5583   -7.9417    0.0000 C   0  0
    0.9417   -7.0792    0.0000 C   0  0
    1.6917  -10.9667    0.0000 C   0  0
   -2.7708  -11.7750    0.0000 C   0  0
   -0.5583   -7.0792    0.0000 C   0  0
    0.1917   -8.3750    0.0000 C   0  0
    6.1875   -5.9542    0.0000 N   0  0
    0.9417   -7.9417    0.0000 C   0  0
    0.1917   -6.6417    0.0000 C   0  0
   10.5750   -9.2917    0.0000 C   0  0
    1.6917   -6.6417    0.0000 O   0  0
   10.2542  -10.0917    0.0000 C   0  0
    7.6625   -8.4000    0.0000 C   0  0
   11.9417   -7.3792    0.0000 C   0  0
   13.4292   -7.5042    0.0000 C   0  0
    6.2042   -6.7792    0.0000 C   0  0
    2.4417  -10.5375    0.0000 C   0  0
    1.6917  -11.8292    0.0000 C   0  0
   -3.4833  -12.1792    0.0000 C   0  0
   -2.0583  -12.1792    0.0000 C   0  0
    1.6917   -5.7792    0.0000 C   0  0
   12.7167   -7.0125    0.0000 C   0  0
    6.9417   -8.0042    0.0000 C   0  0
    6.9250   -7.1792    0.0000 C   0  0
    2.4417  -12.2667    0.0000 C   0  0
   -3.4875  -13.0042    0.0000 C   0  0
   -2.0583  -13.0042    0.0000 C   0  0
    3.1917  -10.9667    0.0000 C   0  0
   -2.7708  -13.4167    0.0000 C   0  0
    3.1917  -11.8292    0.0000 C   0  0
  2  1  1  0
  4  3  1  1
  4  1  1  0
  5 11  1  0
  6 10  1  0
  7 14  1  0
  8  9  1  0
 13  9  1  6
 16 10  1  6
 17 11  1  1
 12  3  1  0
 13  5  1  0
 23 14  1  1
 13 15  1  0
 16  7  1  0
 17  2  1  0
 18  6  1  0
 19 41  2  0
 20 21  1  0
 18 21  1  6
 22 25  1  0
 23  8  1  0
 24 15  1  0
 25 12  1  6
 26 47  1  0
 27 19  1  0
 28  2  2  0
 29  3  2  0
 30  7  2  0
 31  5  2  0
 32  6  2  0
 33  8  2  0
 18 34  1  0
 16 35  1  0
 36 22  2  0
 37 20  2  0
 38 24  2  0
 39 26  2  0
 23 40  1  0
 41 63  1  0
 42 20  1  0
 43 19  1  0
 44 22  1  0
 45  1  1  0
 46 24  1  0
 47 40  1  0
 48 26  1  0
 49 34  1  0
 50 56  2  0
 51 35  1  0
 52 42  1  0
 53 49  1  0
 54 49  2  0
 55 64  1  0
 56 54  1  0
 57 53  2  0
  4 58  1  0
 59 50  1  0
 60 45  1  0
 17 61  1  0
 25 62  1  0
 63 70  1  0
 64 72  1  0
 65 51  1  0
 66 51  2  0
 67 52  2  0
 68 52  1  0
 69 59  1  0
 70 62  1  0
 71 61  1  0
 72 71  1  0
 73 66  1  0
 74 67  1  0
 75 68  2  0
 76 65  2  0
 77 75  1  0
 78 73  2  0
 60 58  1  0
 76 78  1  0
 57 50  1  0
 74 77  2  0
M  END