
          11280715252D 1   1.00000     0.00000     0

 14 15  0     0  0            999 V2000
    0.8375   -1.0042    0.0000 C   0  0  0  0  0  0           0  0  0
    0.8375   -1.6042    0.0000 C   0  0  0  0  0  0           0  0  0
    0.3167   -0.7042    0.0000 C   0  0  0  0  0  0           0  0  0
    1.3542   -1.9042    0.0000 O   0  0  0  0  0  0           0  0  0
    1.3542   -0.7042    0.0000 C   0  0  3  0  0  0           0  0  0
    0.3167   -1.9042    0.0000 C   0  0  0  0  0  0           0  0  0
   -0.2083   -1.0125    0.0000 C   0  0  0  0  0  0           0  0  0
   -0.2083   -1.6042    0.0000 C   0  0  0  0  0  0           0  0  0
    1.8792   -1.6042    0.0000 C   0  0  0  0  0  0           0  0  0
    1.7792    0.2333    0.0000 N   0  0  0  0  0  0           0  0  0
   -0.7250   -0.7125    0.0000 O   0  0  0  0  0  0           0  0  0
    1.2875   -0.1042    0.0000 C   0  0  0  0  0  0           0  0  0
    1.8792   -1.0125    0.0000 C   0  0  0  0  0  0           0  0  0
   -1.2458   -1.0042    0.0000 C   0  0  0  0  0  0           0  0  0
  2  1  2  0     0  0
  3  1  1  0     0  0
  4  2  1  0     0  0
  5  1  1  0     0  0
  6  2  1  0     0  0
  7  3  2  0     0  0
  8  7  1  0     0  0
  9 13  1  0     0  0
 10 12  1  0     0  0
 11  7  1  0     0  0
 12  5  1  0     0  0
 13  5  1  0     0  0
 14 11  1  0     0  0
  9  4  1  0     0  0
  8  6  2  0     0  0
M  END