
  CDK    7/15/10,13:22

675758  0  0  0  0  0  0  0  0999 V2000
    5.7336   -3.5566    0.0000 P   0  0  0  0  0  0  0  0  0  0  0  0
    6.4495   -3.1283    0.0000 O   0  0  0  0  0  0  0  0  0  0  0  0
    6.1021   -4.3064    0.0000 O   0  0  0  0  0  0  0  0  0  0  0  0
    5.3665   -2.8062    0.0000 O   0  0  0  0  0  0  0  0  0  0  0  0
    6.4364   -2.2929    0.0000 C   0  0  0  0  0  0  0  0  0  0  0  0
    7.1535   -1.8639    0.0000 C   0  0  0  0  0  0  0  0  0  0  0  0
    7.9184   -2.1901    0.0000 C   0  0  0  0  0  0  0  0  0  0  0  0
    8.4677   -1.5606    0.0000 C   0  0  0  0  0  0  0  0  0  0  0  0
    8.0387   -0.8437    0.0000 C   0  0  0  0  0  0  0  0  0  0  0  0
    7.2243   -1.0302    0.0000 O   0  0  0  0  0  0  0  0  0  0  0  0
    8.3666   -0.0751    0.0000 N   0  0  0  0  0  0  0  0  0  0  0  0
    7.9059   -3.0211    0.0000 O   0  0  0  0  0  0  0  0  0  0  0  0
    9.1942    0.0224    0.0000 C   0  0  0  0  0  0  0  0  0  0  0  0
    9.5224    0.7868    0.0000 N   0  0  0  0  0  0  0  0  0  0  0  0
    9.0241    1.4579    0.0000 C   0  0  0  0  0  0  0  0  0  0  0  0
    8.1934    1.3595    0.0000 C   0  0  0  0  0  0  0  0  0  0  0  0
    7.8612    0.5900    0.0000 C   0  0  0  0  0  0  0  0  0  0  0  0
    7.6942    2.0293    0.0000 C   0  0  0  0  0  0  0  0  0  0  0  0
    9.3548    2.2251    0.0000 O   0  0  0  0  0  0  0  0  0  0  0  0
    9.6941   -0.6470    0.0000 O   0  0  0  0  0  0  0  0  0  0  0  0
    5.0219   -3.9762    0.0000 O   0  0  0  0  0  0  0  0  0  0  0  0
    4.3758   -3.4615    0.0000 C   0  0  0  0  0  0  0  0  0  0  0  0
    4.4082   -2.6436    0.0000 C   0  0  0  0  0  0  0  0  0  0  0  0
    3.5917   -3.6753    0.0000 C   0  0  0  0  0  0  0  0  0  0  0  0
    3.6243   -2.3540    0.0000 C   0  0  0  0  0  0  0  0  0  0  0  0
    3.1217   -2.9894    0.0000 O   0  0  0  0  0  0  0  0  0  0  0  0
    3.2948   -4.4464    0.0000 C   0  0  0  0  0  0  0  0  0  0  0  0
    3.9271   -4.9792    0.0000 O   0  0  0  0  0  0  0  0  0  0  0  0
    3.3989   -1.5598    0.0000 N   0  0  0  0  0  0  0  0  0  0  0  0
    3.9689   -0.9675    0.0000 C   0  0  0  0  0  0  0  0  0  0  0  0
    3.7437   -0.1731    0.0000 N   0  0  0  0  0  0  0  0  0  0  0  0
    2.9392    0.0171    0.0000 C   0  0  0  0  0  0  0  0  0  0  0  0
    2.3660   -0.5686    0.0000 C   0  0  0  0  0  0  0  0  0  0  0  0
    2.5913   -1.3630    0.0000 C   0  0  0  0  0  0  0  0  0  0  0  0
    4.7689   -1.1754    0.0000 O   0  0  0  0  0  0  0  0  0  0  0  0
    2.7133    0.8223    0.0000 O   0  0  0  0  0  0  0  0  0  0  0  0
    1.5620   -0.3709    0.0000 C   0  0  0  0  0  0  0  0  0  0  0  0
    4.1773   -6.6121    0.0000 O   0  0  0  0  0  0  0  0  0  0  0  0
    4.0892   -5.7859    0.0000 P   0  0  0  0  0  0  0  0  0  0  0  0
    4.9030   -5.6626    0.0000 O   0  0  0  0  0  0  0  0  0  0  0  0
    3.2661   -5.9101    0.0000 O   0  0  0  0  0  0  0  0  0  0  0  0
    1.2217   -5.6866    0.0000 C   0  0  0  0  0  0  0  0  0  0  0  0
    0.5868   -5.1648    0.0000 N   0  0  0  0  0  0  0  0  0  0  0  0
    1.1811   -6.5214    0.0000 O   0  0  0  0  0  0  0  0  0  0  0  0
    1.9918   -5.4599    0.0000 C   0  0  0  0  0  0  0  0  0  0  0  0
    0.7108   -4.3697    0.0000 C   0  0  0  0  0  0  0  0  0  0  0  0
   -0.1718   -5.4617    0.0000 C   0  0  0  0  0  0  0  0  0  0  0  0
    1.9723   -6.8003    0.0000 C   0  0  0  0  0  0  0  0  0  0  0  0
    2.4696   -6.1507    0.0000 C   0  0  0  0  0  0  0  0  0  0  0  0
    2.5113   -4.7967    0.0000 O   0  0  0  0  0  0  0  0  0  0  0  0
    0.0760   -3.8476    0.0000 N   0  0  0  0  0  0  0  0  0  0  0  0
    1.4831   -4.0658    0.0000 O   0  0  0  0  0  0  0  0  0  0  0  0
   -0.8144   -4.9485    0.0000 C   0  0  0  0  0  0  0  0  0  0  0  0
    2.2028   -7.5932    0.0000 C   0  0  0  0  0  0  0  0  0  0  0  0
   -0.6752   -4.1405    0.0000 C   0  0  0  0  0  0  0  0  0  0  0  0
   -1.3220   -3.6157    0.0000 N   0  0  0  0  0  0  0  0  0  0  0  0
    1.6441   -8.1920    0.0000 O   0  0  0  0  0  0  0  0  0  0  0  0
    1.4112   -9.6893    0.0000 O   0  0  0  0  0  0  0  0  0  0  0  0
    1.8373   -8.9805    0.0000 P   0  0  0  0  0  0  0  0  0  0  0  0
    2.5575   -9.3887    0.0000 O   0  0  0  0  0  0  0  0  0  0  0  0
    1.1224   -8.5785    0.0000 O   0  0  0  0  0  0  0  0  0  0  0  0
    0.7511  -11.1989    0.0000 O   0  0  0  0  0  0  0  0  0  0  0  0
    0.0160  -10.8269    0.0000 C   0  0  0  0  0  0  0  0  0  0  0  0
   -0.0333   -9.9912    0.0000 C   0  0  0  0  0  0  0  0  0  0  0  0
    0.6062   -9.4711    0.0000 C   0  0  0  0  0  0  0  0  0  0  0  0
    0.3061   -8.7025    0.0000 C   0  0  0  0  0  0  0  0  0  0  0  0
    0.7618   -8.0045    0.0000 O   0  0  0  0  0  0  0  0  0  0  0  0
   -0.5269   -8.7555    0.0000 C   0  0  0  0  0  0  0  0  0  0  0  0
   -0.7311   -9.5568    0.0000 O   0  0  0  0  0  0  0  0  0  0  0  0
   -1.0799   -8.1375    0.0000 N   0  0  0  0  0  0  0  0  0  0  0  0
   -0.8496   -7.3406    0.0000 C   0  0  0  0  0  0  0  0  0  0  0  0
   -1.5481   -6.8831    0.0000 N   0  0  0  0  0  0  0  0  0  0  0  0
   -2.1999   -7.4079    0.0000 C   0  0  0  0  0  0  0  0  0  0  0  0
   -3.0132   -7.2696    0.0000 C   0  0  0  0  0  0  0  0  0  0  0  0
   -3.3186   -6.4938    0.0000 N   0  0  0  0  0  0  0  0  0  0  0  0
   -3.5251   -7.9133    0.0000 N   0  0  0  0  0  0  0  0  0  0  0  0
   -3.2304   -8.6879    0.0000 C   0  0  0  0  0  0  0  0  0  0  0  0
   -2.4171   -8.8211    0.0000 N   0  0  0  0  0  0  0  0  0  0  0  0
   -1.8882   -8.1732    0.0000 C   0  0  0  0  0  0  0  0  0  0  0  0
   -2.5067  -12.1559    0.0000 C   0  0  0  0  0  0  0  0  0  0  0  0
   -2.2414  -12.8722    0.0000 N   0  0  0  0  0  0  0  0  0  0  0  0
   -3.4194  -12.1629    0.0000 C   0  0  0  0  0  0  0  0  0  0  0  0
   -2.1027  -11.4241    0.0000 N   0  0  0  0  0  0  0  0  0  0  0  0
   -1.4771  -13.1121    0.0000 C   0  0  0  0  0  0  0  0  0  0  0  0
   -2.9561  -13.3873    0.0000 C   0  0  0  0  0  0  0  0  0  0  0  0
   -3.6635  -12.8973    0.0000 N   0  0  0  0  0  0  0  0  0  0  0  0
   -3.8429  -11.4804    0.0000 C   0  0  0  0  0  0  0  0  0  0  0  0
   -2.5387  -10.6849    0.0000 C   0  0  0  0  0  0  0  0  0  0  0  0
   -1.2134  -13.9032    0.0000 O   0  0  0  0  0  0  0  0  0  0  0  0
   -0.8488  -12.6485    0.0000 C   0  0  0  0  0  0  0  0  0  0  0  0
   -3.4245  -10.7044    0.0000 N   0  0  0  0  0  0  0  0  0  0  0  0
   -4.6611  -11.4964    0.0000 O   0  0  0  0  0  0  0  0  0  0  0  0
   -2.1355   -9.9825    0.0000 N   0  0  0  0  0  0  0  0  0  0  0  0
   -0.4101  -13.8938    0.0000 C   0  0  0  0  0  0  0  0  0  0  0  0
   -0.1759  -13.1245    0.0000 C   0  0  0  0  0  0  0  0  0  0  0  0
   -0.9529  -11.8325    0.0000 O   0  0  0  0  0  0  0  0  0  0  0  0
    0.0830  -14.5421    0.0000 C   0  0  0  0  0  0  0  0  0  0  0  0
   -0.3746  -15.2187    0.0000 O   0  0  0  0  0  0  0  0  0  0  0  0
    0.6040  -12.8548    0.0000 O   0  0  0  0  0  0  0  0  0  0  0  0
    0.2250  -16.7694    0.0000 O   0  0  0  0  0  0  0  0  0  0  0  0
   -0.0811  -15.9895    0.0000 P   0  0  0  0  0  0  0  0  0  0  0  0
    0.7016  -15.6902    0.0000 O   0  0  0  0  0  0  0  0  0  0  0  0
   -0.8510  -16.2960    0.0000 O   0  0  0  0  0  0  0  0  0  0  0  0
   -0.5966  -16.8656    0.0000 C   0  0  0  0  0  0  0  0  0  0  0  0
   -1.1509  -16.2633    0.0000 C   0  0  0  0  0  0  0  0  0  0  0  0
   -1.0010  -17.5705    0.0000 C   0  0  0  0  0  0  0  0  0  0  0  0
   -1.9105  -16.6115    0.0000 C   0  0  0  0  0  0  0  0  0  0  0  0
   -1.8181  -17.4164    0.0000 O   0  0  0  0  0  0  0  0  0  0  0  0
   -0.6671  -18.3264    0.0000 C   0  0  0  0  0  0  0  0  0  0  0  0
    0.1569  -18.2573    0.0000 O   0  0  0  0  0  0  0  0  0  0  0  0
   -2.6307  -16.2081    0.0000 N   0  0  0  0  0  0  0  0  0  0  0  0
   -2.6452  -15.3861    0.0000 C   0  0  0  0  0  0  0  0  0  0  0  0
   -3.3655  -14.9823    0.0000 N   0  0  0  0  0  0  0  0  0  0  0  0
   -4.0695  -15.4156    0.0000 C   0  0  0  0  0  0  0  0  0  0  0  0
   -4.0621  -16.2349    0.0000 C   0  0  0  0  0  0  0  0  0  0  0  0
   -3.3417  -16.6386    0.0000 C   0  0  0  0  0  0  0  0  0  0  0  0
   -4.7980  -15.0046    0.0000 O   0  0  0  0  0  0  0  0  0  0  0  0
   -4.7711  -16.6625    0.0000 C   0  0  0  0  0  0  0  0  0  0  0  0
   -2.1583  -15.1080    0.0000 C   0  0  0  0  0  0  0  0  0  0  0  0
    1.2484  -26.5543    0.0000 O   0  0  0  0  0  0  0  0  0  0  0  0
   -1.5996  -28.7301    0.0000 C   0  0  0  0  0  0  0  0  0  0  0  0
   -1.0784  -29.2888    0.0000 N   0  0  0  0  0  0  0  0  0  0  0  0
   -2.4386  -29.0890    0.0000 C   0  0  0  0  0  0  0  0  0  0  0  0
   -1.5093  -27.8993    0.0000 N   0  0  0  0  0  0  0  0  0  0  0  0
   -0.2805  -29.2150    0.0000 C   0  0  0  0  0  0  0  0  0  0  0  0
   -1.5387  -30.0397    0.0000 C   0  0  0  0  0  0  0  0  0  0  0  0
   -2.3805  -29.8605    0.0000 N   0  0  0  0  0  0  0  0  0  0  0  0
   -3.0928  -28.6226    0.0000 C   0  0  0  0  0  0  0  0  0  0  0  0
   -2.1967  -27.3855    0.0000 C   0  0  0  0  0  0  0  0  0  0  0  0
    0.2680  -29.8430    0.0000 O   0  0  0  0  0  0  0  0  0  0  0  0
    0.1201  -28.5448    0.0000 C   0  0  0  0  0  0  0  0  0  0  0  0
   -3.0065  -27.7453    0.0000 N   0  0  0  0  0  0  0  0  0  0  0  0
   -3.8414  -28.9532    0.0000 O   0  0  0  0  0  0  0  0  0  0  0  0
   -2.0959  -26.5819    0.0000 N   0  0  0  0  0  0  0  0  0  0  0  0
    1.0054  -29.5242    0.0000 C   0  0  0  0  0  0  0  0  0  0  0  0
    0.9246  -28.7242    0.0000 C   0  0  0  0  0  0  0  0  0  0  0  0
   -0.2910  -27.8321    0.0000 O   0  0  0  0  0  0  0  0  0  0  0  0
    1.7107  -29.9319    0.0000 C   0  0  0  0  0  0  0  0  0  0  0  0
    1.5497  -30.7327    0.0000 O   0  0  0  0  0  0  0  0  0  0  0  0
    1.5400  -28.1743    0.0000 O   0  0  0  0  0  0  0  0  0  0  0  0
    1.3726  -27.3656    0.0000 P   0  0  0  0  0  0  0  0  0  0  0  0
    0.5556  -27.5120    0.0000 O   0  0  0  0  0  0  0  0  0  0  0  0
    2.1853  -27.2223    0.0000 O   0  0  0  0  0  0  0  0  0  0  0  0
   -1.0681  -33.3272    0.0000 C   0  0  0  0  0  0  0  0  0  0  0  0
   -0.4710  -33.8036    0.0000 N   0  0  0  0  0  0  0  0  0  0  0  0
   -1.8459  -33.8046    0.0000 C   0  0  0  0  0  0  0  0  0  0  0  0
   -1.0999  -32.4920    0.0000 N   0  0  0  0  0  0  0  0  0  0  0  0
    0.3076  -33.6143    0.0000 C   0  0  0  0  0  0  0  0  0  0  0  0
   -0.8168  -34.6138    0.0000 C   0  0  0  0  0  0  0  0  0  0  0  0
   -1.6757  -34.5594    0.0000 N   0  0  0  0  0  0  0  0  0  0  0  0
   -2.5610  -33.4387    0.0000 C   0  0  0  0  0  0  0  0  0  0  0  0
   -1.8549  -32.0839    0.0000 C   0  0  0  0  0  0  0  0  0  0  0  0
    0.9419  -34.1556    0.0000 O   0  0  0  0  0  0  0  0  0  0  0  0
    0.6062  -32.8928    0.0000 C   0  0  0  0  0  0  0  0  0  0  0  0
   -2.6037  -32.5582    0.0000 N   0  0  0  0  0  0  0  0  0  0  0  0
   -3.2534  -33.8750    0.0000 O   0  0  0  0  0  0  0  0  0  0  0  0
   -1.8724  -31.2743    0.0000 N   0  0  0  0  0  0  0  0  0  0  0  0
    1.6250  -33.7328    0.0000 C   0  0  0  0  0  0  0  0  0  0  0  0
    1.4283  -32.9530    0.0000 C   0  0  0  0  0  0  0  0  0  0  0  0
    0.0955  -32.2478    0.0000 O   0  0  0  0  0  0  0  0  0  0  0  0
    2.3820  -34.0332    0.0000 C   0  0  0  0  0  0  0  0  0  0  0  0
    2.3397  -34.8489    0.0000 O   0  0  0  0  0  0  0  0  0  0  0  0
    1.9568  -32.3192    0.0000 O   0  0  0  0  0  0  0  0  0  0  0  0
    3.4284  -36.1047    0.0000 O   0  0  0  0  0  0  0  0  0  0  0  0
    2.8761  -35.4748    0.0000 P   0  0  0  0  0  0  0  0  0  0  0  0
    3.5112  -34.9279    0.0000 O   0  0  0  0  0  0  0  0  0  0  0  0
    2.2556  -36.0239    0.0000 O   0  0  0  0  0  0  0  0  0  0  0  0
    1.6733  -31.5436    0.0000 P   0  0  0  0  0  0  0  0  0  0  0  0
    0.8863  -31.8078    0.0000 O   0  0  0  0  0  0  0  0  0  0  0  0
    2.4563  -31.2833    0.0000 O   0  0  0  0  0  0  0  0  0  0  0  0
   -2.6909  -20.4356    0.0000 C   0  0  0  0  0  0  0  0  0  0  0  0
   -2.1697  -20.9941    0.0000 N   0  0  0  0  0  0  0  0  0  0  0  0
   -3.5301  -20.7943    0.0000 C   0  0  0  0  0  0  0  0  0  0  0  0
   -2.6007  -19.6046    0.0000 N   0  0  0  0  0  0  0  0  0  0  0  0
   -1.3720  -20.9204    0.0000 C   0  0  0  0  0  0  0  0  0  0  0  0
   -2.6302  -21.7451    0.0000 C   0  0  0  0  0  0  0  0  0  0  0  0
   -3.4720  -21.5659    0.0000 N   0  0  0  0  0  0  0  0  0  0  0  0
   -4.1843  -20.3280    0.0000 C   0  0  0  0  0  0  0  0  0  0  0  0
   -3.2880  -19.0908    0.0000 C   0  0  0  0  0  0  0  0  0  0  0  0
   -0.8234  -21.5484    0.0000 O   0  0  0  0  0  0  0  0  0  0  0  0
   -0.9712  -20.2502    0.0000 C   0  0  0  0  0  0  0  0  0  0  0  0
   -4.0978  -19.4507    0.0000 N   0  0  0  0  0  0  0  0  0  0  0  0
   -4.9328  -20.6586    0.0000 O   0  0  0  0  0  0  0  0  0  0  0  0
   -3.1872  -18.2873    0.0000 N   0  0  0  0  0  0  0  0  0  0  0  0
   -0.0859  -21.2298    0.0000 C   0  0  0  0  0  0  0  0  0  0  0  0
   -0.1667  -20.4295    0.0000 C   0  0  0  0  0  0  0  0  0  0  0  0
   -1.3823  -19.5375    0.0000 O   0  0  0  0  0  0  0  0  0  0  0  0
    0.6192  -21.6375    0.0000 C   0  0  0  0  0  0  0  0  0  0  0  0
    0.4583  -22.4383    0.0000 O   0  0  0  0  0  0  0  0  0  0  0  0
    0.4485  -19.8797    0.0000 O   0  0  0  0  0  0  0  0  0  0  0  0
    0.2813  -19.0711    0.0000 P   0  0  0  0  0  0  0  0  0  0  0  0
   -0.5359  -19.2176    0.0000 O   0  0  0  0  0  0  0  0  0  0  0  0
    1.0939  -18.9278    0.0000 O   0  0  0  0  0  0  0  0  0  0  0  0
   -2.1594  -25.0325    0.0000 C   0  0  0  0  0  0  0  0  0  0  0  0
   -1.5622  -25.5090    0.0000 N   0  0  0  0  0  0  0  0  0  0  0  0
   -2.9372  -25.5099    0.0000 C   0  0  0  0  0  0  0  0  0  0  0  0
   -2.1914  -24.1973    0.0000 N   0  0  0  0  0  0  0  0  0  0  0  0
   -0.7839  -25.3197    0.0000 C   0  0  0  0  0  0  0  0  0  0  0  0
   -1.9083  -26.3192    0.0000 C   0  0  0  0  0  0  0  0  0  0  0  0
   -2.7672  -26.2647    0.0000 N   0  0  0  0  0  0  0  0  0  0  0  0
   -3.6524  -25.1440    0.0000 C   0  0  0  0  0  0  0  0  0  0  0  0
   -2.9464  -23.7895    0.0000 C   0  0  0  0  0  0  0  0  0  0  0  0
   -0.1496  -25.8611    0.0000 O   0  0  0  0  0  0  0  0  0  0  0  0
   -0.4851  -24.5982    0.0000 C   0  0  0  0  0  0  0  0  0  0  0  0
   -3.6949  -24.2636    0.0000 N   0  0  0  0  0  0  0  0  0  0  0  0
   -4.3449  -25.5804    0.0000 O   0  0  0  0  0  0  0  0  0  0  0  0
   -2.9639  -22.9797    0.0000 N   0  0  0  0  0  0  0  0  0  0  0  0
    0.5335  -25.4382    0.0000 C   0  0  0  0  0  0  0  0  0  0  0  0
    0.3368  -24.6584    0.0000 C   0  0  0  0  0  0  0  0  0  0  0  0
   -0.9960  -23.9532    0.0000 O   0  0  0  0  0  0  0  0  0  0  0  0
    1.2907  -25.7386    0.0000 C   0  0  0  0  0  0  0  0  0  0  0  0
    0.8654  -24.0246    0.0000 O   0  0  0  0  0  0  0  0  0  0  0  0
    0.5819  -23.2490    0.0000 P   0  0  0  0  0  0  0  0  0  0  0  0
   -0.2051  -23.5132    0.0000 O   0  0  0  0  0  0  0  0  0  0  0  0
    1.3648  -22.9887    0.0000 O   0  0  0  0  0  0  0  0  0  0  0  0
    2.7174  -36.5247    0.0000 C   0  0  0  0  0  0  0  0  0  0  0  0
    1.9679  -36.1956    0.0000 C   0  0  0  0  0  0  0  0  0  0  0  0
    2.6298  -37.3326    0.0000 C   0  0  0  0  0  0  0  0  0  0  0  0
    1.4119  -36.8194    0.0000 C   0  0  0  0  0  0  0  0  0  0  0  0
    1.8196  -37.5196    0.0000 O   0  0  0  0  0  0  0  0  0  0  0  0
    3.2391  -37.8910    0.0000 C   0  0  0  0  0  0  0  0  0  0  0  0
    3.9661  -37.4969    0.0000 O   0  0  0  0  0  0  0  0  0  0  0  0
    0.5903  -36.7390    0.0000 N   0  0  0  0  0  0  0  0  0  0  0  0
    0.2471  -35.9919    0.0000 C   0  0  0  0  0  0  0  0  0  0  0  0
   -0.5745  -35.9113    0.0000 N   0  0  0  0  0  0  0  0  0  0  0  0
   -1.0457  -36.5905    0.0000 C   0  0  0  0  0  0  0  0  0  0  0  0
   -0.7099  -37.3382    0.0000 C   0  0  0  0  0  0  0  0  0  0  0  0
    0.1119  -37.4187    0.0000 C   0  0  0  0  0  0  0  0  0  0  0  0
    0.7331  -35.3232    0.0000 O   0  0  0  0  0  0  0  0  0  0  0  0
   -1.8777  -36.5065    0.0000 O   0  0  0  0  0  0  0  0  0  0  0  0
   -1.1877  -38.0142    0.0000 C   0  0  0  0  0  0  0  0  0  0  0  0
    5.0885  -38.7012    0.0000 O   0  0  0  0  0  0  0  0  0  0  0  0
    4.5099  -38.1117    0.0000 P   0  0  0  0  0  0  0  0  0  0  0  0
    3.9023  -38.6772    0.0000 O   0  0  0  0  0  0  0  0  0  0  0  0
    5.1155  -37.5514    0.0000 O   0  0  0  0  0  0  0  0  0  0  0  0
    4.5259  -39.3062    0.0000 C   0  0  0  0  0  0  0  0  0  0  0  0
    3.7128  -39.2117    0.0000 C   0  0  0  0  0  0  0  0  0  0  0  0
    4.6795  -40.1043    0.0000 C   0  0  0  0  0  0  0  0  0  0  0  0
    3.3645  -39.9713    0.0000 C   0  0  0  0  0  0  0  0  0  0  0  0
    3.9599  -40.5208    0.0000 O   0  0  0  0  0  0  0  0  0  0  0  0
    5.4259  -40.4591    0.0000 C   0  0  0  0  0  0  0  0  0  0  0  0
    6.0052  -39.8690    0.0000 O   0  0  0  0  0  0  0  0  0  0  0  0
    2.5556  -40.1355    0.0000 N   0  0  0  0  0  0  0  0  0  0  0  0
    2.0082  -39.5224    0.0000 C   0  0  0  0  0  0  0  0  0  0  0  0
    1.1991  -39.6865    0.0000 N   0  0  0  0  0  0  0  0  0  0  0  0
    0.9483  -40.4742    0.0000 C   0  0  0  0  0  0  0  0  0  0  0  0
    1.4886  -41.0903    0.0000 C   0  0  0  0  0  0  0  0  0  0  0  0
    2.2977  -40.9259    0.0000 C   0  0  0  0  0  0  0  0  0  0  0  0
    2.2764  -38.7403    0.0000 O   0  0  0  0  0  0  0  0  0  0  0  0
    0.1280  -40.6381    0.0000 O   0  0  0  0  0  0  0  0  0  0  0  0
    1.2305  -41.8770    0.0000 C   0  0  0  0  0  0  0  0  0  0  0  0
    7.4316  -40.6904    0.0000 O   0  0  0  0  0  0  0  0  0  0  0  0
    6.7055  -40.2969    0.0000 P   0  0  0  0  0  0  0  0  0  0  0  0
    6.2907  -41.0160    0.0000 O   0  0  0  0  0  0  0  0  0  0  0  0
    7.1198  -39.5835    0.0000 O   0  0  0  0  0  0  0  0  0  0  0  0
    6.0179  -43.5481    0.0000 C   0  0  0  0  0  0  0  0  0  0  0  0
    6.7767  -43.4596    0.0000 N   0  0  0  0  0  0  0  0  0  0  0  0
    5.8094  -44.4367    0.0000 C   0  0  0  0  0  0  0  0  0  0  0  0
    5.4023  -42.9828    0.0000 N   0  0  0  0  0  0  0  0  0  0  0  0
    7.1903  -42.7734    0.0000 C   0  0  0  0  0  0  0  0  0  0  0  0
    7.1086  -44.2755    0.0000 C   0  0  0  0  0  0  0  0  0  0  0  0
    6.4653  -44.8473    0.0000 N   0  0  0  0  0  0  0  0  0  0  0  0
    5.0460  -44.6870    0.0000 C   0  0  0  0  0  0  0  0  0  0  0  0
    4.5811  -43.2319    0.0000 C   0  0  0  0  0  0  0  0  0  0  0  0
    8.0213  -42.7041    0.0000 O   0  0  0  0  0  0  0  0  0  0  0  0
    6.8882  -42.0534    0.0000 C   0  0  0  0  0  0  0  0  0  0  0  0
    4.3907  -44.0974    0.0000 N   0  0  0  0  0  0  0  0  0  0  0  0
    4.8685  -45.4858    0.0000 O   0  0  0  0  0  0  0  0  0  0  0  0
    3.9937  -42.6743    0.0000 N   0  0  0  0  0  0  0  0  0  0  0  0
    8.2019  -41.9211    0.0000 C   0  0  0  0  0  0  0  0  0  0  0  0
    7.5097  -41.5118    0.0000 C   0  0  0  0  0  0  0  0  0  0  0  0
    6.0705  -41.9620    0.0000 O   0  0  0  0  0  0  0  0  0  0  0  0
    8.9483  -41.5949    0.0000 C   0  0  0  0  0  0  0  0  0  0  0  0
    9.4978  -42.1993    0.0000 O   0  0  0  0  0  0  0  0  0  0  0  0
   10.0351  -45.8455    0.0000 C   0  0  0  0  0  0  0  0  0  0  0  0
   10.7728  -45.6471    0.0000 N   0  0  0  0  0  0  0  0  0  0  0  0
    9.9584  -46.7548    0.0000 C   0  0  0  0  0  0  0  0  0  0  0  0
    9.3436  -45.3760    0.0000 N   0  0  0  0  0  0  0  0  0  0  0  0
   11.0819  -44.9080    0.0000 C   0  0  0  0  0  0  0  0  0  0  0  0
   11.2202  -46.4060    0.0000 C   0  0  0  0  0  0  0  0  0  0  0  0
   10.6672  -47.0653    0.0000 N   0  0  0  0  0  0  0  0  0  0  0  0
    9.2398  -47.1139    0.0000 C   0  0  0  0  0  0  0  0  0  0  0  0
    8.5675  -45.7423    0.0000 C   0  0  0  0  0  0  0  0  0  0  0  0
   11.8939  -44.7179    0.0000 O   0  0  0  0  0  0  0  0  0  0  0  0
   10.6779  -44.2396    0.0000 C   0  0  0  0  0  0  0  0  0  0  0  0
    8.5055  -46.6262    0.0000 N   0  0  0  0  0  0  0  0  0  0  0  0
    9.1806  -47.9302    0.0000 O   0  0  0  0  0  0  0  0  0  0  0  0
    7.9050  -45.2763    0.0000 N   0  0  0  0  0  0  0  0  0  0  0  0
   11.9583  -43.9173    0.0000 C   0  0  0  0  0  0  0  0  0  0  0  0
   11.2136  -43.6132    0.0000 C   0  0  0  0  0  0  0  0  0  0  0  0
    9.8558  -44.2687    0.0000 O   0  0  0  0  0  0  0  0  0  0  0  0
   12.6491  -43.4856    0.0000 C   0  0  0  0  0  0  0  0  0  0  0  0
   13.2808  -44.0034    0.0000 O   0  0  0  0  0  0  0  0  0  0  0  0
   11.0166  -42.8121    0.0000 O   0  0  0  0  0  0  0  0  0  0  0  0
   14.6718  -43.0924    0.0000 O   0  0  0  0  0  0  0  0  0  0  0  0
   13.9731  -43.5547    0.0000 P   0  0  0  0  0  0  0  0  0  0  0  0
   13.5169  -42.8516    0.0000 O   0  0  0  0  0  0  0  0  0  0  0  0
   14.4336  -44.2437    0.0000 O   0  0  0  0  0  0  0  0  0  0  0  0
   10.2241  -42.5804    0.0000 P   0  0  0  0  0  0  0  0  0  0  0  0
    9.9702  -43.3708    0.0000 O   0  0  0  0  0  0  0  0  0  0  0  0
   10.4785  -41.7956    0.0000 O   0  0  0  0  0  0  0  0  0  0  0  0
   16.2429  -42.5786    0.0000 O   0  0  0  0  0  0  0  0  0  0  0  0
   16.4522  -43.3755    0.0000 C   0  0  0  0  0  0  0  0  0  0  0  0
   15.8595  -43.9670    0.0000 C   0  0  0  0  0  0  0  0  0  0  0  0
   15.0462  -43.8334    0.0000 C   0  0  0  0  0  0  0  0  0  0  0  0
   14.6701  -44.5678    0.0000 C   0  0  0  0  0  0  0  0  0  0  0  0
   13.8456  -44.6900    0.0000 O   0  0  0  0  0  0  0  0  0  0  0  0
   15.2623  -45.1560    0.0000 C   0  0  0  0  0  0  0  0  0  0  0  0
   15.9976  -44.7772    0.0000 O   0  0  0  0  0  0  0  0  0  0  0  0
   15.1668  -45.9798    0.0000 N   0  0  0  0  0  0  0  0  0  0  0  0
   14.4177  -46.3361    0.0000 C   0  0  0  0  0  0  0  0  0  0  0  0
   14.5388  -47.1623    0.0000 N   0  0  0  0  0  0  0  0  0  0  0  0
   15.3641  -47.3019    0.0000 C   0  0  0  0  0  0  0  0  0  0  0  0
   15.8001  -48.0021    0.0000 C   0  0  0  0  0  0  0  0  0  0  0  0
   15.4224  -48.7453    0.0000 N   0  0  0  0  0  0  0  0  0  0  0  0
   16.6213  -47.9581    0.0000 N   0  0  0  0  0  0  0  0  0  0  0  0
   17.0056  -47.2237    0.0000 C   0  0  0  0  0  0  0  0  0  0  0  0
   16.5657  -46.5269    0.0000 N   0  0  0  0  0  0  0  0  0  0  0  0
   15.7300  -46.5607    0.0000 C   0  0  0  0  0  0  0  0  0  0  0  0
   17.1114  -41.1770    0.0000 O   0  0  0  0  0  0  0  0  0  0  0  0
   16.6395  -41.8610    0.0000 P   0  0  0  0  0  0  0  0  0  0  0  0
   15.9421  -41.4239    0.0000 O   0  0  0  0  0  0  0  0  0  0  0  0
   17.3446  -42.3034    0.0000 O   0  0  0  0  0  0  0  0  0  0  0  0
   18.3849  -43.9440    0.0000 C   0  0  0  0  0  0  0  0  0  0  0  0
   18.2869  -44.7599    0.0000 N   0  0  0  0  0  0  0  0  0  0  0  0
   19.1105  -43.5290    0.0000 O   0  0  0  0  0  0  0  0  0  0  0  0
   17.7795  -43.4167    0.0000 C   0  0  0  0  0  0  0  0  0  0  0  0
   17.5499  -45.0831    0.0000 C   0  0  0  0  0  0  0  0  0  0  0  0
   18.9453  -45.2393    0.0000 C   0  0  0  0  0  0  0  0  0  0  0  0
   18.9199  -42.7118    0.0000 C   0  0  0  0  0  0  0  0  0  0  0  0
   18.1048  -42.6423    0.0000 C   0  0  0  0  0  0  0  0  0  0  0  0
   16.9408  -43.3358    0.0000 O   0  0  0  0  0  0  0  0  0  0  0  0
   17.4515  -45.8990    0.0000 N   0  0  0  0  0  0  0  0  0  0  0  0
   16.8783  -44.5958    0.0000 O   0  0  0  0  0  0  0  0  0  0  0  0
   18.8585  -46.0572    0.0000 C   0  0  0  0  0  0  0  0  0  0  0  0
   19.4643  -42.0911    0.0000 C   0  0  0  0  0  0  0  0  0  0  0  0
   18.1024  -46.3747    0.0000 C   0  0  0  0  0  0  0  0  0  0  0  0
   18.0082  -47.2022    0.0000 N   0  0  0  0  0  0  0  0  0  0  0  0
   20.2669  -42.2405    0.0000 O   0  0  0  0  0  0  0  0  0  0  0  0
   21.7666  -42.4574    0.0000 O   0  0  0  0  0  0  0  0  0  0  0  0
   21.0532  -42.0388    0.0000 P   0  0  0  0  0  0  0  0  0  0  0  0
   21.4537  -41.3142    0.0000 O   0  0  0  0  0  0  0  0  0  0  0  0
   20.6589  -42.7580    0.0000 O   0  0  0  0  0  0  0  0  0  0  0  0
   22.1419  -45.6229    0.0000 C   0  0  0  0  0  0  0  0  0  0  0  0
   22.7392  -45.1374    0.0000 N   0  0  0  0  0  0  0  0  0  0  0  0
   22.4557  -46.4816    0.0000 C   0  0  0  0  0  0  0  0  0  0  0  0
   21.3229  -45.4908    0.0000 N   0  0  0  0  0  0  0  0  0  0  0  0
   22.7098  -44.3412    0.0000 C   0  0  0  0  0  0  0  0  0  0  0  0
   23.4593  -45.6370    0.0000 C   0  0  0  0  0  0  0  0  0  0  0  0
   23.2295  -46.4645    0.0000 N   0  0  0  0  0  0  0  0  0  0  0  0
   21.9515  -47.1121    0.0000 C   0  0  0  0  0  0  0  0  0  0  0  0
   20.7739  -46.1497    0.0000 C   0  0  0  0  0  0  0  0  0  0  0  0
   23.3621  -43.8298    0.0000 O   0  0  0  0  0  0  0  0  0  0  0  0
   22.0622  -43.8986    0.0000 C   0  0  0  0  0  0  0  0  0  0  0  0
   21.0778  -46.9708    0.0000 N   0  0  0  0  0  0  0  0  0  0  0  0
   22.2427  -47.8764    0.0000 O   0  0  0  0  0  0  0  0  0  0  0  0
   19.9751  -46.0070    0.0000 N   0  0  0  0  0  0  0  0  0  0  0  0
   23.0945  -43.0670    0.0000 C   0  0  0  0  0  0  0  0  0  0  0  0
   22.2777  -43.1025    0.0000 C   0  0  0  0  0  0  0  0  0  0  0  0
   21.3207  -44.2674    0.0000 O   0  0  0  0  0  0  0  0  0  0  0  0
   23.5301  -42.3921    0.0000 C   0  0  0  0  0  0  0  0  0  0  0  0
   24.3267  -42.5891    0.0000 O   0  0  0  0  0  0  0  0  0  0  0  0
   25.6063  -41.5385    0.0000 O   0  0  0  0  0  0  0  0  0  0  0  0
   24.9613  -42.0668    0.0000 P   0  0  0  0  0  0  0  0  0  0  0  0
   24.4295  -41.4288    0.0000 O   0  0  0  0  0  0  0  0  0  0  0  0
   25.4976  -42.7035    0.0000 O   0  0  0  0  0  0  0  0  0  0  0  0
   26.3321  -44.6396    0.0000 C   0  0  0  0  0  0  0  0  0  0  0  0
   26.8670  -44.0884    0.0000 N   0  0  0  0  0  0  0  0  0  0  0  0
   26.7504  -45.4521    0.0000 C   0  0  0  0  0  0  0  0  0  0  0  0
   25.5079  -44.5910    0.0000 N   0  0  0  0  0  0  0  0  0  0  0  0
   26.7416  -43.3021    0.0000 C   0  0  0  0  0  0  0  0  0  0  0  0
   27.6412  -44.5034    0.0000 C   0  0  0  0  0  0  0  0  0  0  0  0
   27.5072  -45.3489    0.0000 N   0  0  0  0  0  0  0  0  0  0  0  0
   26.3146  -46.1394    0.0000 C   0  0  0  0  0  0  0  0  0  0  0  0
   25.0255  -45.3123    0.0000 C   0  0  0  0  0  0  0  0  0  0  0  0
   27.3424  -42.7122    0.0000 O   0  0  0  0  0  0  0  0  0  0  0  0
   26.0561  -42.9322    0.0000 C   0  0  0  0  0  0  0  0  0  0  0  0
   25.4308  -46.1056    0.0000 N   0  0  0  0  0  0  0  0  0  0  0  0
   26.6766  -46.8657    0.0000 O   0  0  0  0  0  0  0  0  0  0  0  0
   24.2148  -45.2634    0.0000 N   0  0  0  0  0  0  0  0  0  0  0  0
   26.9857  -41.9941    0.0000 C   0  0  0  0  0  0  0  0  0  0  0  0
   26.1829  -42.1202    0.0000 C   0  0  0  0  0  0  0  0  0  0  0  0
   25.3626  -43.3811    0.0000 O   0  0  0  0  0  0  0  0  0  0  0  0
   27.3479  -41.2669    0.0000 C   0  0  0  0  0  0  0  0  0  0  0  0
   28.1614  -41.3791    0.0000 O   0  0  0  0  0  0  0  0  0  0  0  0
   29.7076  -40.8096    0.0000 O   0  0  0  0  0  0  0  0  0  0  0  0
   28.9348  -41.0980    0.0000 P   0  0  0  0  0  0  0  0  0  0  0  0
   28.6487  -40.3179    0.0000 O   0  0  0  0  0  0  0  0  0  0  0  0
   29.2236  -41.8702    0.0000 O   0  0  0  0  0  0  0  0  0  0  0  0
   30.4849  -43.9048    0.0000 C   0  0  0  0  0  0  0  0  0  0  0  0
   31.0101  -43.3443    0.0000 N   0  0  0  0  0  0  0  0  0  0  0  0
   30.9001  -44.7113    0.0000 C   0  0  0  0  0  0  0  0  0  0  0  0
   29.6457  -43.8649    0.0000 N   0  0  0  0  0  0  0  0  0  0  0  0
   30.8736  -42.5530    0.0000 C   0  0  0  0  0  0  0  0  0  0  0  0
   31.7885  -43.7529    0.0000 C   0  0  0  0  0  0  0  0  0  0  0  0
   31.6553  -44.5947    0.0000 N   0  0  0  0  0  0  0  0  0  0  0  0
   30.4724  -45.3960    0.0000 C   0  0  0  0  0  0  0  0  0  0  0  0
   29.1859  -44.5903    0.0000 C   0  0  0  0  0  0  0  0  0  0  0  0
   31.4614  -41.9599    0.0000 O   0  0  0  0  0  0  0  0  0  0  0  0
   30.1790  -42.2024    0.0000 C   0  0  0  0  0  0  0  0  0  0  0  0
   29.5978  -45.3734    0.0000 N   0  0  0  0  0  0  0  0  0  0  0  0
   30.8512  -46.1258    0.0000 O   0  0  0  0  0  0  0  0  0  0  0  0
   28.3702  -44.5456    0.0000 N   0  0  0  0  0  0  0  0  0  0  0  0
   31.0992  -41.2511    0.0000 C   0  0  0  0  0  0  0  0  0  0  0  0
   30.3057  -41.3939    0.0000 C   0  0  0  0  0  0  0  0  0  0  0  0
   29.4963  -42.6562    0.0000 O   0  0  0  0  0  0  0  0  0  0  0  0
   31.4629  -40.5233    0.0000 C   0  0  0  0  0  0  0  0  0  0  0  0
   32.2635  -40.6218    0.0000 O   0  0  0  0  0  0  0  0  0  0  0  0
   32.9725  -39.1274    0.0000 O   0  0  0  0  0  0  0  0  0  0  0  0
   32.6231  -39.8714    0.0000 P   0  0  0  0  0  0  0  0  0  0  0  0
   31.8685  -39.5262    0.0000 O   0  0  0  0  0  0  0  0  0  0  0  0
   33.3750  -40.2200    0.0000 O   0  0  0  0  0  0  0  0  0  0  0  0
   34.3566  -37.9537    0.0000 C   0  0  0  0  0  0  0  0  0  0  0  0
   34.4148  -38.7819    0.0000 C   0  0  0  0  0  0  0  0  0  0  0  0
   33.7692  -39.3184    0.0000 C   0  0  0  0  0  0  0  0  0  0  0  0
   34.0901  -40.0798    0.0000 C   0  0  0  0  0  0  0  0  0  0  0  0
   33.6375  -40.7881    0.0000 O   0  0  0  0  0  0  0  0  0  0  0  0
   34.9196  -40.0224    0.0000 C   0  0  0  0  0  0  0  0  0  0  0  0
   35.1142  -39.2144    0.0000 O   0  0  0  0  0  0  0  0  0  0  0  0
   35.4877  -40.6245    0.0000 N   0  0  0  0  0  0  0  0  0  0  0  0
   35.2686  -41.4226    0.0000 C   0  0  0  0  0  0  0  0  0  0  0  0
   35.9774  -41.8713    0.0000 N   0  0  0  0  0  0  0  0  0  0  0  0
   36.6139  -41.3466    0.0000 C   0  0  0  0  0  0  0  0  0  0  0  0
   37.4270  -41.4695    0.0000 C   0  0  0  0  0  0  0  0  0  0  0  0
   37.7363  -42.2447    0.0000 N   0  0  0  0  0  0  0  0  0  0  0  0
   37.9324  -40.8175    0.0000 N   0  0  0  0  0  0  0  0  0  0  0  0
   37.6296  -40.0472    0.0000 C   0  0  0  0  0  0  0  0  0  0  0  0
   36.8163  -39.9383    0.0000 N   0  0  0  0  0  0  0  0  0  0  0  0
   36.2954  -40.5831    0.0000 C   0  0  0  0  0  0  0  0  0  0  0  0
   33.6119  -37.5952    0.0000 O   0  0  0  0  0  0  0  0  0  0  0  0
   34.4437  -36.1645    0.0000 O   0  0  0  0  0  0  0  0  0  0  0  0
   35.2617  -36.2292    0.0000 C   0  0  0  0  0  0  0  0  0  0  0  0
   35.6924  -36.9296    0.0000 C   0  0  0  0  0  0  0  0  0  0  0  0
   35.7918  -35.6096    0.0000 C   0  0  0  0  0  0  0  0  0  0  0  0
   36.5059  -36.7191    0.0000 C   0  0  0  0  0  0  0  0  0  0  0  0
   36.5637  -35.9167    0.0000 O   0  0  0  0  0  0  0  0  0  0  0  0
   35.6006  -34.8075    0.0000 C   0  0  0  0  0  0  0  0  0  0  0  0
   34.7825  -34.7270    0.0000 O   0  0  0  0  0  0  0  0  0  0  0  0
   37.1400  -37.2523    0.0000 N   0  0  0  0  0  0  0  0  0  0  0  0
   36.9940  -38.0623    0.0000 C   0  0  0  0  0  0  0  0  0  0  0  0
   37.6281  -38.5956    0.0000 N   0  0  0  0  0  0  0  0  0  0  0  0
   38.4037  -38.3016    0.0000 C   0  0  0  0  0  0  0  0  0  0  0  0
   38.5468  -37.4982    0.0000 C   0  0  0  0  0  0  0  0  0  0  0  0
   37.9125  -36.9651    0.0000 C   0  0  0  0  0  0  0  0  0  0  0  0
   36.2176  -38.3426    0.0000 O   0  0  0  0  0  0  0  0  0  0  0  0
   39.0415  -38.8342    0.0000 O   0  0  0  0  0  0  0  0  0  0  0  0
   39.3261  -37.2107    0.0000 C   0  0  0  0  0  0  0  0  0  0  0  0
   34.5428  -33.0996    0.0000 O   0  0  0  0  0  0  0  0  0  0  0  0
   34.6793  -33.9087    0.0000 P   0  0  0  0  0  0  0  0  0  0  0  0
   35.4963  -33.7862    0.0000 O   0  0  0  0  0  0  0  0  0  0  0  0
   33.8658  -34.0279    0.0000 O   0  0  0  0  0  0  0  0  0  0  0  0
   37.6943  -32.6391    0.0000 C   0  0  0  0  0  0  0  0  0  0  0  0
   37.1864  -32.0562    0.0000 N   0  0  0  0  0  0  0  0  0  0  0  0
   38.5431  -32.2986    0.0000 C   0  0  0  0  0  0  0  0  0  0  0  0
   37.5834  -33.4580    0.0000 N   0  0  0  0  0  0  0  0  0  0  0  0
   36.3906  -32.1029    0.0000 C   0  0  0  0  0  0  0  0  0  0  0  0
   37.6689  -31.3208    0.0000 C   0  0  0  0  0  0  0  0  0  0  0  0
   38.5001  -31.5289    0.0000 N   0  0  0  0  0  0  0  0  0  0  0  0
   39.1822  -32.7865    0.0000 C   0  0  0  0  0  0  0  0  0  0  0  0
   38.2431  -33.9935    0.0000 C   0  0  0  0  0  0  0  0  0  0  0  0
   35.8541  -31.4660    0.0000 O   0  0  0  0  0  0  0  0  0  0  0  0
   35.9617  -32.7633    0.0000 C   0  0  0  0  0  0  0  0  0  0  0  0
   39.0717  -33.6627    0.0000 N   0  0  0  0  0  0  0  0  0  0  0  0
   39.9352  -32.4798    0.0000 O   0  0  0  0  0  0  0  0  0  0  0  0
   38.1279  -34.7952    0.0000 N   0  0  0  0  0  0  0  0  0  0  0  0
   35.1065  -31.7590    0.0000 C   0  0  0  0  0  0  0  0  0  0  0  0
   35.1725  -32.5637    0.0000 C   0  0  0  0  0  0  0  0  0  0  0  0
   36.3595  -33.4957    0.0000 O   0  0  0  0  0  0  0  0  0  0  0  0
   34.4214  -31.3315    0.0000 C   0  0  0  0  0  0  0  0  0  0  0  0
   34.6013  -30.5388    0.0000 O   0  0  0  0  0  0  0  0  0  0  0  0
   34.5068  -28.8942    0.0000 O   0  0  0  0  0  0  0  0  0  0  0  0
   34.5597  -29.7191    0.0000 P   0  0  0  0  0  0  0  0  0  0  0  0
   33.7271  -29.7695    0.0000 O   0  0  0  0  0  0  0  0  0  0  0  0
   35.3870  -29.6648    0.0000 O   0  0  0  0  0  0  0  0  0  0  0  0
   37.6011  -28.1312    0.0000 C   0  0  0  0  0  0  0  0  0  0  0  0
   37.0455  -27.5968    0.0000 N   0  0  0  0  0  0  0  0  0  0  0  0
   38.4122  -27.7120    0.0000 C   0  0  0  0  0  0  0  0  0  0  0  0
   37.5639  -28.9562    0.0000 N   0  0  0  0  0  0  0  0  0  0  0  0
   36.2566  -27.7234    0.0000 C   0  0  0  0  0  0  0  0  0  0  0  0
   37.4541  -26.8271    0.0000 C   0  0  0  0  0  0  0  0  0  0  0  0
   38.3012  -26.9493    0.0000 N   0  0  0  0  0  0  0  0  0  0  0  0
   39.0982  -28.1353    0.0000 C   0  0  0  0  0  0  0  0  0  0  0  0
   38.2815  -29.4328    0.0000 C   0  0  0  0  0  0  0  0  0  0  0  0
   35.6628  -27.1404    0.0000 O   0  0  0  0  0  0  0  0  0  0  0  0
   35.8933  -28.4208    0.0000 C   0  0  0  0  0  0  0  0  0  0  0  0
   39.0663  -29.0238    0.0000 N   0  0  0  0  0  0  0  0  0  0  0  0
   39.8193  -27.7633    0.0000 O   0  0  0  0  0  0  0  0  0  0  0  0
   38.2438  -30.2441    0.0000 N   0  0  0  0  0  0  0  0  0  0  0  0
   34.9525  -27.5001    0.0000 C   0  0  0  0  0  0  0  0  0  0  0  0
   35.0824  -28.2981    0.0000 C   0  0  0  0  0  0  0  0  0  0  0  0
   36.3516  -29.1081    0.0000 O   0  0  0  0  0  0  0  0  0  0  0  0
   34.2231  -27.1406    0.0000 C   0  0  0  0  0  0  0  0  0  0  0  0
   34.3206  -26.3304    0.0000 O   0  0  0  0  0  0  0  0  0  0  0  0
   33.5019  -25.1519    0.0000 O   0  0  0  0  0  0  0  0  0  0  0  0
   33.5753  -25.9823    0.0000 P   0  0  0  0  0  0  0  0  0  0  0  0
   32.7514  -26.0589    0.0000 O   0  0  0  0  0  0  0  0  0  0  0  0
   34.4034  -25.8979    0.0000 O   0  0  0  0  0  0  0  0  0  0  0  0
   34.1644  -24.6655    0.0000 C   0  0  0  0  0  0  0  0  0  0  0  0
   34.9446  -24.9085    0.0000 C   0  0  0  0  0  0  0  0  0  0  0  0
   34.1541  -23.8467    0.0000 C   0  0  0  0  0  0  0  0  0  0  0  0
   35.4220  -24.2143    0.0000 C   0  0  0  0  0  0  0  0  0  0  0  0
   34.9459  -23.5772    0.0000 O   0  0  0  0  0  0  0  0  0  0  0  0
   33.4861  -23.3697    0.0000 C   0  0  0  0  0  0  0  0  0  0  0  0
   32.8124  -23.8449    0.0000 O   0  0  0  0  0  0  0  0  0  0  0  0
   36.2513  -24.1984    0.0000 N   0  0  0  0  0  0  0  0  0  0  0  0
   36.6728  -24.9063    0.0000 C   0  0  0  0  0  0  0  0  0  0  0  0
   37.5021  -24.8909    0.0000 N   0  0  0  0  0  0  0  0  0  0  0  0
   37.9013  -24.1648    0.0000 C   0  0  0  0  0  0  0  0  0  0  0  0
   37.4668  -23.4677    0.0000 C   0  0  0  0  0  0  0  0  0  0  0  0
   36.6501  -23.4721    0.0000 C   0  0  0  0  0  0  0  0  0  0  0  0
   36.2734  -25.6330    0.0000 O   0  0  0  0  0  0  0  0  0  0  0  0
   38.7302  -24.1478    0.0000 O   0  0  0  0  0  0  0  0  0  0  0  0
   37.8660  -22.7411    0.0000 C   0  0  0  0  0  0  0  0  0  0  0  0
   31.5589  -22.7804    0.0000 O   0  0  0  0  0  0  0  0  0  0  0  0
   32.1995  -23.2926    0.0000 P   0  0  0  0  0  0  0  0  0  0  0  0
   32.7370  -22.6666    0.0000 O   0  0  0  0  0  0  0  0  0  0  0  0
   31.6717  -23.9236    0.0000 O   0  0  0  0  0  0  0  0  0  0  0  0
   33.4703  -20.2281    0.0000 C   0  0  0  0  0  0  0  0  0  0  0  0
   32.7039  -20.1678    0.0000 N   0  0  0  0  0  0  0  0  0  0  0  0
   33.8288  -19.3822    0.0000 C   0  0  0  0  0  0  0  0  0  0  0  0
   33.9742  -20.8889    0.0000 N   0  0  0  0  0  0  0  0  0  0  0  0
   32.1779  -20.7664    0.0000 C   0  0  0  0  0  0  0  0  0  0  0  0
   32.5310  -19.3107    0.0000 C   0  0  0  0  0  0  0  0  0  0  0  0
   33.2643  -18.8658    0.0000 N   0  0  0  0  0  0  0  0  0  0  0  0
   34.6328  -19.2801    0.0000 C   0  0  0  0  0  0  0  0  0  0  0  0
   34.8252  -20.7938    0.0000 C   0  0  0  0  0  0  0  0  0  0  0  0
   31.3427  -20.6924    0.0000 O   0  0  0  0  0  0  0  0  0  0  0  0
   32.3418  -21.5403    0.0000 C   0  0  0  0  0  0  0  0  0  0  0  0
   35.1751  -19.9781    0.0000 N   0  0  0  0  0  0  0  0  0  0  0  0
   34.9611  -18.5321    0.0000 O   0  0  0  0  0  0  0  0  0  0  0  0
   35.3123  -21.4472    0.0000 N   0  0  0  0  0  0  0  0  0  0  0  0
   31.0267  -21.4224    0.0000 C   0  0  0  0  0  0  0  0  0  0  0  0
   31.6312  -21.9552    0.0000 C   0  0  0  0  0  0  0  0  0  0  0  0
   33.1287  -21.7765    0.0000 O   0  0  0  0  0  0  0  0  0  0  0  0
   30.2340  -21.6080    0.0000 C   0  0  0  0  0  0  0  0  0  0  0  0
   29.7948  -20.9239    0.0000 O   0  0  0  0  0  0  0  0  0  0  0  0
   28.8220  -19.5840    0.0000 O   0  0  0  0  0  0  0  0  0  0  0  0
   29.3094  -20.2553    0.0000 P   0  0  0  0  0  0  0  0  0  0  0  0
   28.6427  -20.7493    0.0000 O   0  0  0  0  0  0  0  0  0  0  0  0
   29.9779  -19.7654    0.0000 O   0  0  0  0  0  0  0  0  0  0  0  0
   29.8809  -17.8233    0.0000 C   0  0  0  0  0  0  0  0  0  0  0  0
   30.6124  -17.4480    0.0000 N   0  0  0  0  0  0  0  0  0  0  0  0
   29.1311  -17.4324    0.0000 O   0  0  0  0  0  0  0  0  0  0  0  0
   29.7660  -18.6173    0.0000 C   0  0  0  0  0  0  0  0  0  0  0  0
   31.2898  -17.8965    0.0000 C   0  0  0  0  0  0  0  0  0  0  0  0
   30.6637  -16.6395    0.0000 C   0  0  0  0  0  0  0  0  0  0  0  0
   28.5582  -18.0290    0.0000 C   0  0  0  0  0  0  0  0  0  0  0  0
   28.9495  -18.7601    0.0000 C   0  0  0  0  0  0  0  0  0  0  0  0
   30.1464  -19.3563    0.0000 O   0  0  0  0  0  0  0  0  0  0  0  0
   32.0352  -17.5398    0.0000 N   0  0  0  0  0  0  0  0  0  0  0  0
   31.2438  -18.7264    0.0000 O   0  0  0  0  0  0  0  0  0  0  0  0
   31.3941  -16.2706    0.0000 C   0  0  0  0  0  0  0  0  0  0  0  0
   27.7401  -17.9184    0.0000 C   0  0  0  0  0  0  0  0  0  0  0  0
   32.0779  -16.7274    0.0000 C   0  0  0  0  0  0  0  0  0  0  0  0
   32.8203  -16.3600    0.0000 N   0  0  0  0  0  0  0  0  0  0  0  0
   27.4324  -17.1557    0.0000 O   0  0  0  0  0  0  0  0  0  0  0  0
   26.0088  -16.3238    0.0000 O   0  0  0  0  0  0  0  0  0  0  0  0
   26.7046  -16.7778    0.0000 P   0  0  0  0  0  0  0  0  0  0  0  0
   26.2857  -17.4863    0.0000 O   0  0  0  0  0  0  0  0  0  0  0  0
   27.1286  -16.0615    0.0000 O   0  0  0  0  0  0  0  0  0  0  0  0
   28.5943  -14.6188    0.0000 C   0  0  0  0  0  0  0  0  0  0  0  0
   29.3999  -14.4566    0.0000 N   0  0  0  0  0  0  0  0  0  0  0  0
   27.9730  -14.0594    0.0000 O   0  0  0  0  0  0  0  0  0  0  0  0
   28.2830  -15.3587    0.0000 C   0  0  0  0  0  0  0  0  0  0  0  0
   29.9376  -15.0554    0.0000 C   0  0  0  0  0  0  0  0  0  0  0  0
   29.6493  -13.6811    0.0000 C   0  0  0  0  0  0  0  0  0  0  0  0
   27.2567  -14.4963    0.0000 C   0  0  0  0  0  0  0  0  0  0  0  0
   27.4458  -15.2921    0.0000 C   0  0  0  0  0  0  0  0  0  0  0  0
   28.4685  -16.1805    0.0000 O   0  0  0  0  0  0  0  0  0  0  0  0
   30.7434  -14.8935    0.0000 N   0  0  0  0  0  0  0  0  0  0  0  0
   29.6848  -15.8459    0.0000 O   0  0  0  0  0  0  0  0  0  0  0  0
   30.4531  -13.5077    0.0000 C   0  0  0  0  0  0  0  0  0  0  0  0
   26.4967  -14.1736    0.0000 C   0  0  0  0  0  0  0  0  0  0  0  0
   30.9914  -14.1263    0.0000 C   0  0  0  0  0  0  0  0  0  0  0  0
   31.8067  -13.9569    0.0000 N   0  0  0  0  0  0  0  0  0  0  0  0
   26.3860  -13.3621    0.0000 O   0  0  0  0  0  0  0  0  0  0  0  0
   25.3729  -12.2352    0.0000 O   0  0  0  0  0  0  0  0  0  0  0  0
   25.9141  -11.6110    0.0000 C   0  0  0  0  0  0  0  0  0  0  0  0
   26.7300  -11.6774    0.0000 C   0  0  0  0  0  0  0  0  0  0  0  0
   25.7331  -10.8186    0.0000 C   0  0  0  0  0  0  0  0  0  0  0  0
   27.0519  -10.9062    0.0000 C   0  0  0  0  0  0  0  0  0  0  0  0
   26.4380  -10.3775    0.0000 O   0  0  0  0  0  0  0  0  0  0  0  0
   24.9750  -10.4899    0.0000 C   0  0  0  0  0  0  0  0  0  0  0  0
   24.4164  -11.0996    0.0000 O   0  0  0  0  0  0  0  0  0  0  0  0
   27.8547  -10.7141    0.0000 N   0  0  0  0  0  0  0  0  0  0  0  0
   28.4230  -11.3080    0.0000 C   0  0  0  0  0  0  0  0  0  0  0  0
   29.2260  -11.1161    0.0000 N   0  0  0  0  0  0  0  0  0  0  0  0
   29.4494  -10.3201    0.0000 C   0  0  0  0  0  0  0  0  0  0  0  0
   28.8881   -9.7231    0.0000 C   0  0  0  0  0  0  0  0  0  0  0  0
   28.0851   -9.9154    0.0000 C   0  0  0  0  0  0  0  0  0  0  0  0
   28.1820  -12.0989    0.0000 O   0  0  0  0  0  0  0  0  0  0  0  0
   30.2634  -10.1280    0.0000 O   0  0  0  0  0  0  0  0  0  0  0  0
   29.1190   -8.9280    0.0000 C   0  0  0  0  0  0  0  0  0  0  0  0
   24.4654   -7.5161    0.0000 C   0  0  0  0  0  0  0  0  0  0  0  0
   23.7041   -7.5807    0.0000 N   0  0  0  0  0  0  0  0  0  0  0  0
   24.7020   -6.6345    0.0000 C   0  0  0  0  0  0  0  0  0  0  0  0
   25.0629   -8.1005    0.0000 N   0  0  0  0  0  0  0  0  0  0  0  0
   23.2692   -8.2536    0.0000 C   0  0  0  0  0  0  0  0  0  0  0  0
   23.3982   -6.7547    0.0000 C   0  0  0  0  0  0  0  0  0  0  0  0
   24.0594   -6.2035    0.0000 N   0  0  0  0  0  0  0  0  0  0  0  0
   25.4728   -6.4084    0.0000 C   0  0  0  0  0  0  0  0  0  0  0  0
   25.8917   -7.8774    0.0000 C   0  0  0  0  0  0  0  0  0  0  0  0
   22.4364   -8.2967    0.0000 O   0  0  0  0  0  0  0  0  0  0  0  0
   23.5485   -8.9827    0.0000 C   0  0  0  0  0  0  0  0  0  0  0  0
   26.1091   -7.0185    0.0000 N   0  0  0  0  0  0  0  0  0  0  0  0
   25.6753   -5.6155    0.0000 O   0  0  0  0  0  0  0  0  0  0  0  0
   26.4612   -8.4532    0.0000 N   0  0  0  0  0  0  0  0  0  0  0  0
   22.2313   -9.0735    0.0000 C   0  0  0  0  0  0  0  0  0  0  0  0
   22.9103   -9.5044    0.0000 C   0  0  0  0  0  0  0  0  0  0  0  0
   24.3629   -9.0998    0.0000 O   0  0  0  0  0  0  0  0  0  0  0  0
   21.4752   -9.3760    0.0000 C   0  0  0  0  0  0  0  0  0  0  0  0
   20.9448   -8.7547    0.0000 O   0  0  0  0  0  0  0  0  0  0  0  0
   22.9626  -10.3278    0.0000 O   0  0  0  0  0  0  0  0  0  0  0  0
   17.0299   -5.5219    0.0000 C   0  0  0  0  0  0  0  0  0  0  0  0
   16.3880   -6.0549    0.0000 O   0  0  0  0  0  0  0  0  0  0  0  0
   15.6864   -5.5994    0.0000 C   0  0  0  0  0  0  0  0  0  0  0  0
   14.9141   -5.9099    0.0000 O   0  0  0  0  0  0  0  0  0  0  0  0
   15.8858   -4.8024    0.0000 C   0  0  0  0  0  0  0  0  0  0  0  0
   15.4338   -4.1094    0.0000 C   0  0  0  0  0  0  0  0  0  0  0  0
   15.8050   -3.3695    0.0000 C   0  0  0  0  0  0  0  0  0  0  0  0
   16.6332   -3.3149    0.0000 C   0  0  0  0  0  0  0  0  0  0  0  0
   17.0950   -4.0000    0.0000 C   0  0  0  0  0  0  0  0  0  0  0  0
   16.7258   -4.7447    0.0000 C   0  0  0  0  0  0  0  0  0  0  0  0
   17.6070   -4.9338    0.0000 C   0  0  0  0  0  0  0  0  0  0  0  0
   17.3890   -4.1313    0.0000 C   0  0  0  0  0  0  0  0  0  0  0  0
   17.9661   -3.5430    0.0000 C   0  0  0  0  0  0  0  0  0  0  0  0
   18.7687   -3.7568    0.0000 C   0  0  0  0  0  0  0  0  0  0  0  0
   19.3528   -3.1611    0.0000 O   0  0  0  0  0  0  0  0  0  0  0  0
   18.9889   -4.5520    0.0000 C   0  0  0  0  0  0  0  0  0  0  0  0
   18.4140   -5.1376    0.0000 C   0  0  0  0  0  0  0  0  0  0  0  0
   18.6342   -5.9329    0.0000 O   0  0  0  0  0  0  0  0  0  0  0  0
   18.0501   -6.5286    0.0000 C   0  0  0  0  0  0  0  0  0  0  0  0
   18.2733   -7.3310    0.0000 C   0  0  0  0  0  0  0  0  0  0  0  0
   17.6964   -7.9239    0.0000 C   0  0  0  0  0  0  0  0  0  0  0  0
   17.9094   -8.7222    0.0000 O   0  0  0  0  0  0  0  0  0  0  0  0
   16.8895   -7.7203    0.0000 C   0  0  0  0  0  0  0  0  0  0  0  0
   16.6660   -6.9131    0.0000 C   0  0  0  0  0  0  0  0  0  0  0  0
   17.2504   -6.3220    0.0000 C   0  0  0  0  0  0  0  0  0  0  0  0
   17.6139   -9.4913    0.0000 C   0  0  0  0  0  0  0  0  0  0  0  0
   18.1384  -10.1440    0.0000 C   0  0  0  0  0  0  0  0  0  0  0  0
   18.9613  -10.1004    0.0000 C   0  0  0  0  0  0  0  0  0  0  0  0
   19.4146   -9.4049    0.0000 O   0  0  0  0  0  0  0  0  0  0  0  0
   19.2549  -10.8716    0.0000 C   0  0  0  0  0  0  0  0  0  0  0  0
   20.0611  -11.0834    0.0000 O   0  0  0  0  0  0  0  0  0  0  0  0
   18.6018  -11.3913    0.0000 C   0  0  0  0  0  0  0  0  0  0  0  0
   17.9125  -10.9343    0.0000 O   0  0  0  0  0  0  0  0  0  0  0  0
   18.6064  -12.2206    0.0000 N   0  0  0  0  0  0  0  0  0  0  0  0
   19.3121  -12.6568    0.0000 C   0  0  0  0  0  0  0  0  0  0  0  0
   19.1013  -13.4648    0.0000 N   0  0  0  0  0  0  0  0  0  0  0  0
   18.2657  -13.5132    0.0000 C   0  0  0  0  0  0  0  0  0  0  0  0
   17.7558  -14.1615    0.0000 C   0  0  0  0  0  0  0  0  0  0  0  0
   18.0498  -14.9415    0.0000 N   0  0  0  0  0  0  0  0  0  0  0  0
   16.9441  -14.0279    0.0000 N   0  0  0  0  0  0  0  0  0  0  0  0
   16.6426  -13.2558    0.0000 C   0  0  0  0  0  0  0  0  0  0  0  0
   17.1562  -12.6114    0.0000 N   0  0  0  0  0  0  0  0  0  0  0  0
   17.9832  -12.7365    0.0000 C   0  0  0  0  0  0  0  0  0  0  0  0
   20.1841   -9.0737    0.0000 P   0  0  0  0  0  0  0  0  0  0  0  0
   20.5086   -9.8464    0.0000 O   0  0  0  0  0  0  0  0  0  0  0  0
   19.8530   -8.3141    0.0000 O   0  0  0  0  0  0  0  0  0  0  0  0
   23.7017  -10.6961    0.0000 P   0  0  0  0  0  0  0  0  0  0  0  0
   24.0914   -9.9632    0.0000 O   0  0  0  0  0  0  0  0  0  0  0  0
   23.3123  -11.4235    0.0000 O   0  0  0  0  0  0  0  0  0  0  0  0
   25.6529  -13.0133    0.0000 P   0  0  0  0  0  0  0  0  0  0  0  0
   24.8811  -13.3134    0.0000 O   0  0  0  0  0  0  0  0  0  0  0  0
   26.4161  -12.7137    0.0000 O   0  0  0  0  0  0  0  0  0  0  0  0
   33.9747  -36.8514    0.0000 P   0  0  0  0  0  0  0  0  0  0  0  0
   33.2565  -36.4338    0.0000 O   0  0  0  0  0  0  0  0  0  0  0  0
   34.6926  -37.2524    0.0000 O   0  0  0  0  0  0  0  0  0  0  0  0
    0.7622  -12.0345    0.0000 P   0  0  0  0  0  0  0  0  0  0  0  0
    1.5944  -12.1084    0.0000 O   0  0  0  0  0  0  0  0  0  0  0  0
   -0.0699  -11.9605    0.0000 O   0  0  0  0  0  0  0  0  0  0  0  0
    9.1830   -1.9699    0.0000 O   0  0  0  0  0  0  0  0  0  0  0  0
    7.3663   -2.6675    0.0000 C   0  0  0  0  0  0  0  0  0  0  0  0
    8.1942   -2.6675    0.0000 O   0  0  0  0  0  0  0  0  0  0  0  0
    9.0220   -2.6675    0.0000 C   0  0  0  0  0  0  0  0  0  0  0  0
144145  1  0  0  0  0 
144146  2  0  0  0  0 
320321  1  0  0  0  0 
321302  1  0  0  0  0 
144147  1  0  0  0  0 
321322  2  0  0  0  0 
148145  1  1  0  0  0 
321323  1  0  0  0  0 
145149  1  0  0  0  0 
146150  1  0  0  0  0 
146151  1  0  0  0  0 
147152  2  0  0  0  0 
148153  1  0  0  0  0 
154148  1  0  0  0  0 
151155  1  0  0  0  0 
151156  2  0  0  0  0 
152157  1  0  0  0  0 
153158  1  0  0  0  0 
154159  1  0  0  0  0 
154160  1  6  0  0  0 
158161  1  1  0  0  0 
161162  1  0  0  0  0 
149150  2  0  0  0  0 
324325  1  1  0  0  0 
324326  1  0  0  0  0 
327324  1  0  0  0  0 
325328  1  0  0  0  0 
325329  1  0  0  0  0 
326330  1  0  0  0  0 
327331  1  0  0  0  0 
327332  1  6  0  0  0 
328333  1  0  0  0  0 
328334  2  0  0  0  0 
329335  2  0  0  0  0 
330336  1  1  0  0  0 
331323  1  6  0  0  0 
333337  2  0  0  0  0 
337338  1  0  0  0  0 
331330  1  0  0  0  0 
335337  1  0  0  0  0 
152155  1  0  0  0  0 
336339  1  0  0  0  0 
159158  1  0  0  0  0 
 77 78  2  0  0  0  0 
340341  1  0  0  0  0 
341339  1  0  0  0  0 
159163  1  6  0  0  0 
341342  2  0  0  0  0 
 78 79  1  0  0  0  0 
341343  1  0  0  0  0 
 73 79  2  0  0  0  0 
 70 79  1  0  0  0  0 
 38 39  1  0  0  0  0 
164165  1  0  0  0  0 
165162  1  0  0  0  0 
165166  1  0  0  0  0 
165167  2  0  0  0  0 
 39 28  1  0  0  0  0 
163168  1  0  0  0  0 
168139  1  0  0  0  0 
 15 19  2  0  0  0  0 
168169  2  0  0  0  0 
 39 40  2  0  0  0  0 
168170  1  0  0  0  0 
  9 10  1  0  0  0  0 
 39 41  1  0  0  0  0 
 13 20  2  0  0  0  0 
 10  6  1  0  0  0  0 
  1  3  1  0  0  0  0 
344345  1  0  0  0  0 
344346  2  0  0  0  0 
344347  1  0  0  0  0 
348345  1  1  0  0  0 
345349  1  0  0  0  0 
346350  1  0  0  0  0 
346351  1  0  0  0  0 
347352  2  0  0  0  0 
348353  1  0  0  0  0 
354348  1  0  0  0  0 
351355  1  0  0  0  0 
351356  2  0  0  0  0 
352357  1  0  0  0  0 
353358  1  0  0  0  0 
354359  1  0  0  0  0 
354360  1  6  0  0  0 
358361  1  1  0  0  0 
361362  1  0  0  0  0 
349350  2  0  0  0  0 
352355  1  0  0  0  0 
359358  1  0  0  0  0 
359340  1  6  0  0  0 
  9 11  1  1  0  0  0 
  6  5  1  1  0  0  0 
  7 12  1  6  0  0  0 
 11 13  1  0  0  0  0 
363364  1  0  0  0  0 
364362  1  0  0  0  0 
364365  1  0  0  0  0 
364366  2  0  0  0  0 
  6  7  1  0  0  0  0 
  1  2  1  0  0  0  0 
  1  4  2  0  0  0  0 
  2  5  1  0  0  0  0 
 11 17  1  0  0  0  0 
 80 81  1  0  0  0  0 
 80 82  2  0  0  0  0 
 80 83  1  0  0  0  0 
 84 81  1  1  0  0  0 
171172  1  0  0  0  0 
171173  2  0  0  0  0 
171174  1  0  0  0  0 
175172  1  1  0  0  0 
172176  1  0  0  0  0 
173177  1  0  0  0  0 
173178  1  0  0  0  0 
174179  2  0  0  0  0 
175180  1  0  0  0  0 
367368  1  0  0  0  0 
367369  2  0  0  0  0 
367370  1  0  0  0  0 
371368  1  1  0  0  0 
368372  1  0  0  0  0 
369373  1  0  0  0  0 
369374  1  0  0  0  0 
370375  2  0  0  0  0 
371376  1  0  0  0  0 
377371  1  0  0  0  0 
374378  1  0  0  0  0 
374379  2  0  0  0  0 
375380  1  0  0  0  0 
376381  1  0  0  0  0 
377382  1  0  0  0  0 
377383  1  6  0  0  0 
381384  1  1  0  0  0 
384385  1  0  0  0  0 
372373  2  0  0  0  0 
375378  1  0  0  0  0 
382381  1  0  0  0  0 
382363  1  6  0  0  0 
181175  1  0  0  0  0 
178182  1  0  0  0  0 
178183  2  0  0  0  0 
179184  1  0  0  0  0 
386387  1  0  0  0  0 
387385  1  0  0  0  0 
387388  1  0  0  0  0 
387389  2  0  0  0  0 
180185  1  0  0  0  0 
181186  1  0  0  0  0 
181187  1  6  0  0  0 
185188  1  1  0  0  0 
188189  1  0  0  0  0 
176177  2  0  0  0  0 
179182  1  0  0  0  0 
186185  1  0  0  0  0 
 81 85  1  0  0  0  0 
186190  1  6  0  0  0 
 82 86  1  0  0  0  0 
190191  1  0  0  0  0 
191110  1  0  0  0  0 
 82 87  1  0  0  0  0 
191192  2  0  0  0  0 
 83 88  2  0  0  0  0 
191193  1  0  0  0  0 
 84 89  1  0  0  0  0 
 90 84  1  0  0  0  0 
390391  1  0  0  0  0 
390392  2  0  0  0  0 
390393  1  0  0  0  0 
394391  1  1  0  0  0 
391395  1  0  0  0  0 
392396  1  0  0  0  0 
392397  1  0  0  0  0 
393398  2  0  0  0  0 
394399  1  0  0  0  0 
400394  1  0  0  0  0 
397401  1  0  0  0  0 
397402  2  0  0  0  0 
398403  1  0  0  0  0 
399404  1  0  0  0  0 
400405  1  0  0  0  0 
400406  1  6  0  0  0 
404407  1  1  0  0  0 
407408  1  0  0  0  0 
395396  2  0  0  0  0 
398401  1  0  0  0  0 
405404  1  0  0  0  0 
405386  1  6  0  0  0 
 87 91  1  0  0  0  0 
 87 92  2  0  0  0  0 
 88 93  1  0  0  0  0 
 89 94  1  0  0  0  0 
409410  1  0  0  0  0 
410408  1  0  0  0  0 
410411  1  0  0  0  0 
410412  2  0  0  0  0 
 90 95  1  0  0  0  0 
 90 96  1  6  0  0  0 
 94 97  1  1  0  0  0 
 97 98  1  0  0  0  0 
 85 86  2  0  0  0  0 
 88 91  1  0  0  0  0 
 95 94  1  0  0  0  0 
 13 14  1  0  0  0  0 
 95 99  1  6  0  0  0 
 14 15  1  0  0  0  0 
 42 43  1  1  0  0  0 
 42 44  1  0  0  0  0 
194195  1  0  0  0  0 
194196  2  0  0  0  0 
194197  1  0  0  0  0 
198195  1  1  0  0  0 
195199  1  0  0  0  0 
414413  1  1  0  0  0 
414415  1  0  0  0  0 
415409  1  6  0  0  0 
415416  1  0  0  0  0 
416417  1  6  0  0  0 
416418  1  0  0  0  0 
418419  1  0  0  0  0 
414419  1  0  0  0  0 
418420  1  1  0  0  0 
420421  1  0  0  0  0 
421422  2  0  0  0  0 
422423  1  0  0  0  0 
423424  1  0  0  0  0 
424425  1  0  0  0  0 
424426  2  0  0  0  0 
426427  1  0  0  0  0 
427428  2  0  0  0  0 
428429  1  0  0  0  0 
423429  2  0  0  0  0 
420429  1  0  0  0  0 
196200  1  0  0  0  0 
413430  1  0  0  0  0 
196201  1  0  0  0  0 
197202  2  0  0  0  0 
198203  1  0  0  0  0 
204198  1  0  0  0  0 
201205  1  0  0  0  0 
201206  2  0  0  0  0 
202207  1  0  0  0  0 
203208  1  0  0  0  0 
204209  1  0  0  0  0 
204210  1  6  0  0  0 
208211  1  1  0  0  0 
211120  1  0  0  0  0 
199200  2  0  0  0  0 
202205  1  0  0  0  0 
209208  1  0  0  0  0 
 45 42  1  0  0  0  0 
209212  1  6  0  0  0 
432433  1  0  0  0  0 
432434  1  0  0  0  0 
433435  1  0  0  0  0 
434436  1  0  0  0  0 
435436  1  0  0  0  0 
432431  1  6  0  0  0 
437438  1  0  0  0  0 
434437  1  1  0  0  0 
439440  1  0  0  0  0 
440441  1  0  0  0  0 
441442  1  0  0  0  0 
442443  1  0  0  0  0 
443444  2  0  0  0  0 
444439  1  0  0  0  0 
435439  1  1  0  0  0 
440445  2  0  0  0  0 
442446  2  0  0  0  0 
443447  1  0  0  0  0 
100101  1  0  0  0  0 
212213  1  0  0  0  0 
448449  1  0  0  0  0 
449438  1  0  0  0  0 
213189  1  0  0  0  0 
449450  2  0  0  0  0 
101 98  1  0  0  0  0 
449451  1  0  0  0  0 
213214  2  0  0  0  0 
101102  1  0  0  0  0 
213215  1  0  0  0  0 
101103  2  0  0  0  0 
 43 46  1  0  0  0  0 
 43 47  1  0  0  0  0 
 44 48  1  0  0  0  0 
 45 49  1  0  0  0  0 
 45 50  1  6  0  0  0 
 46 51  1  0  0  0  0 
 46 52  2  0  0  0  0 
 47 53  2  0  0  0  0 
 48 54  1  1  0  0  0 
 49 41  1  6  0  0  0 
 51 55  2  0  0  0  0 
 55 56  1  0  0  0  0 
 49 48  1  0  0  0  0 
 53 55  1  0  0  0  0 
 15 16  1  0  0  0  0 
452453  1  0  0  0  0 
452454  2  0  0  0  0 
452455  1  0  0  0  0 
456453  1  1  0  0  0 
453457  1  0  0  0  0 
454458  1  0  0  0  0 
454459  1  0  0  0  0 
455460  2  0  0  0  0 
456461  1  0  0  0  0 
462456  1  0  0  0  0 
459463  1  0  0  0  0 
459464  2  0  0  0  0 
460465  1  0  0  0  0 
461466  1  0  0  0  0 
462467  1  0  0  0  0 
462468  1  6  0  0  0 
466469  1  1  0  0  0 
469470  1  0  0  0  0 
457458  2  0  0  0  0 
460463  1  0  0  0  0 
467466  1  0  0  0  0 
467448  1  6  0  0  0 
216217  1  0  0  0  0 
216218  1  0  0  0  0 
217219  1  0  0  0  0 
218220  1  0  0  0  0 
471472  1  0  0  0  0 
472470  1  0  0  0  0 
472473  1  0  0  0  0 
472474  2  0  0  0  0 
219220  1  0  0  0  0 
216164  1  6  0  0  0 
221222  1  0  0  0  0 
218221  1  1  0  0  0 
223224  1  0  0  0  0 
224225  1  0  0  0  0 
225226  1  0  0  0  0 
226227  1  0  0  0  0 
227228  2  0  0  0  0 
228223  1  0  0  0  0 
219223  1  1  0  0  0 
224229  2  0  0  0  0 
226230  2  0  0  0  0 
227231  1  0  0  0  0 
104105  1  0  0  0  0 
104106  1  0  0  0  0 
232233  1  0  0  0  0 
233222  1  0  0  0  0 
105107  1  0  0  0  0 
475476  1  0  0  0  0 
475477  2  0  0  0  0 
475478  1  0  0  0  0 
479476  1  1  0  0  0 
476480  1  0  0  0  0 
477481  1  0  0  0  0 
477482  1  0  0  0  0 
478483  2  0  0  0  0 
479484  1  0  0  0  0 
485479  1  0  0  0  0 
482486  1  0  0  0  0 
482487  2  0  0  0  0 
483488  1  0  0  0  0 
484489  1  0  0  0  0 
485490  1  0  0  0  0 
485491  1  6  0  0  0 
489492  1  1  0  0  0 
492493  1  0  0  0  0 
480481  2  0  0  0  0 
483486  1  0  0  0  0 
490489  1  0  0  0  0 
490471  1  6  0  0  0 
233234  2  0  0  0  0 
106108  1  0  0  0  0 
233235  1  0  0  0  0 
107108  1  0  0  0  0 
494495  1  0  0  0  0 
495493  1  0  0  0  0 
495496  1  0  0  0  0 
495497  2  0  0  0  0 
104100  1  6  0  0  0 
109110  1  0  0  0  0 
106109  1  1  0  0  0 
111112  1  0  0  0  0 
112113  1  0  0  0  0 
113114  1  0  0  0  0 
114115  1  0  0  0  0 
115116  2  0  0  0  0 
116111  1  0  0  0  0 
107111  1  1  0  0  0 
112119  2  0  0  0  0 
114117  2  0  0  0  0 
115118  1  0  0  0  0 
 54 57  1  0  0  0  0 
 16 17  2  0  0  0  0 
236237  1  0  0  0  0 
498499  1  0  0  0  0 
498500  1  0  0  0  0 
499501  1  0  0  0  0 
500502  1  0  0  0  0 
501502  1  0  0  0  0 
498494  1  6  0  0  0 
503504  1  0  0  0  0 
500503  1  1  0  0  0 
505506  1  0  0  0  0 
506507  1  0  0  0  0 
507508  1  0  0  0  0 
508509  1  0  0  0  0 
509510  2  0  0  0  0 
510505  1  0  0  0  0 
501505  1  1  0  0  0 
506511  2  0  0  0  0 
508512  2  0  0  0  0 
509513  1  0  0  0  0 
236238  1  0  0  0  0 
237239  1  0  0  0  0 
514515  1  0  0  0  0 
515504  1  0  0  0  0 
238240  1  0  0  0  0 
515516  2  0  0  0  0 
239240  1  0  0  0  0 
515517  1  0  0  0  0 
236232  1  6  0  0  0 
241242  1  0  0  0  0 
238241  1  1  0  0  0 
243244  1  0  0  0  0 
244245  1  0  0  0  0 
245246  1  0  0  0  0 
246247  1  0  0  0  0 
247248  2  0  0  0  0 
248243  1  0  0  0  0 
239243  1  1  0  0  0 
244249  2  0  0  0  0 
246250  2  0  0  0  0 
247251  1  0  0  0  0 
  7  8  1  0  0  0  0 
 58 59  1  0  0  0  0 
252253  1  0  0  0  0 
253242  1  0  0  0  0 
 59 57  1  0  0  0  0 
253254  2  0  0  0  0 
518519  1  0  0  0  0 
518520  2  0  0  0  0 
518521  1  0  0  0  0 
522519  1  1  0  0  0 
519523  1  0  0  0  0 
520524  1  0  0  0  0 
520525  1  0  0  0  0 
521526  2  0  0  0  0 
522527  1  0  0  0  0 
528522  1  0  0  0  0 
525529  1  0  0  0  0 
525530  2  0  0  0  0 
526531  1  0  0  0  0 
527532  1  0  0  0  0 
528533  1  0  0  0  0 
528534  1  6  0  0  0 
532535  1  1  0  0  0 
535536  1  0  0  0  0 
523524  2  0  0  0  0 
526529  1  0  0  0  0 
533532  1  0  0  0  0 
533514  1  6  0  0  0 
 22 23  1  0  0  0  0 
253255  1  0  0  0  0 
 59 60  2  0  0  0  0 
 22 24  1  0  0  0  0 
537538  1  0  0  0  0 
538536  1  0  0  0  0 
538539  1  0  0  0  0 
538540  2  0  0  0  0 
 59 61  1  0  0  0  0 
 23 25  1  0  0  0  0 
 24 26  1  0  0  0  0 
 25 26  1  0  0  0  0 
 22 21  1  6  0  0  0 
 27 28  1  0  0  0  0 
 24 27  1  1  0  0  0 
 29 30  1  0  0  0  0 
 30 31  1  0  0  0  0 
 31 32  1  0  0  0  0 
 32 33  1  0  0  0  0 
 33 34  2  0  0  0  0 
 34 29  1  0  0  0  0 
121122  1  0  0  0  0 
121123  2  0  0  0  0 
541542  1  1  0  0  0 
541543  1  0  0  0  0 
544541  1  0  0  0  0 
542545  1  0  0  0  0 
542546  1  0  0  0  0 
543547  1  0  0  0  0 
544548  1  0  0  0  0 
544549  1  6  0  0  0 
545550  1  0  0  0  0 
545551  2  0  0  0  0 
546552  2  0  0  0  0 
547553  1  1  0  0  0 
548537  1  6  0  0  0 
550554  2  0  0  0  0 
554555  1  0  0  0  0 
548547  1  0  0  0  0 
552554  1  0  0  0  0 
121124  1  0  0  0  0 
553556  1  0  0  0  0 
125122  1  1  0  0  0 
256257  1  0  0  0  0 
557558  1  0  0  0  0 
558556  1  0  0  0  0 
256258  2  0  0  0  0 
558559  2  0  0  0  0 
256259  1  0  0  0  0 
558560  1  0  0  0  0 
260257  1  1  0  0  0 
257261  1  0  0  0  0 
258262  1  0  0  0  0 
258263  1  0  0  0  0 
259264  2  0  0  0  0 
260265  1  0  0  0  0 
266260  1  0  0  0  0 
263267  1  0  0  0  0 
263268  2  0  0  0  0 
264269  1  0  0  0  0 
265270  1  0  0  0  0 
266271  1  0  0  0  0 
266272  1  6  0  0  0 
270273  1  1  0  0  0 
273274  1  0  0  0  0 
561562  1  1  0  0  0 
561563  1  0  0  0  0 
564561  1  0  0  0  0 
562565  1  0  0  0  0 
562566  1  0  0  0  0 
563567  1  0  0  0  0 
564568  1  0  0  0  0 
564569  1  6  0  0  0 
565570  1  0  0  0  0 
565571  2  0  0  0  0 
566572  2  0  0  0  0 
567573  1  1  0  0  0 
568560  1  6  0  0  0 
570574  2  0  0  0  0 
574575  1  0  0  0  0 
568567  1  0  0  0  0 
572574  1  0  0  0  0 
261262  2  0  0  0  0 
573576  1  0  0  0  0 
264267  1  0  0  0  0 
271270  1  0  0  0  0 
271252  1  6  0  0  0 
122126  1  0  0  0  0 
123127  1  0  0  0  0 
123128  1  0  0  0  0 
124129  2  0  0  0  0 
125130  1  0  0  0  0 
131125  1  0  0  0  0 
128132  1  0  0  0  0 
128133  2  0  0  0  0 
129134  1  0  0  0  0 
130135  1  0  0  0  0 
131136  1  0  0  0  0 
131137  1  6  0  0  0 
135138  1  1  0  0  0 
138139  1  0  0  0  0 
578579  1  0  0  0  0 
578580  1  0  0  0  0 
579581  1  0  0  0  0 
580582  1  0  0  0  0 
581582  1  0  0  0  0 
578577  1  6  0  0  0 
583584  1  0  0  0  0 
580583  1  1  0  0  0 
585586  1  0  0  0  0 
586587  1  0  0  0  0 
587588  1  0  0  0  0 
588589  1  0  0  0  0 
589590  2  0  0  0  0 
590585  1  0  0  0  0 
581585  1  1  0  0  0 
586591  2  0  0  0  0 
588592  2  0  0  0  0 
589593  1  0  0  0  0 
126127  2  0  0  0  0 
129132  1  0  0  0  0 
136135  1  0  0  0  0 
 25 29  1  1  0  0  0 
136140  1  6  0  0  0 
275276  1  0  0  0  0 
275277  2  0  0  0  0 
275278  1  0  0  0  0 
279276  1  1  0  0  0 
276280  1  0  0  0  0 
277281  1  0  0  0  0 
277282  1  0  0  0  0 
278283  2  0  0  0  0 
279284  1  0  0  0  0 
285279  1  0  0  0  0 
282286  1  0  0  0  0 
282287  2  0  0  0  0 
283288  1  0  0  0  0 
284289  1  0  0  0  0 
594595  1  0  0  0  0 
594596  2  0  0  0  0 
594597  1  0  0  0  0 
598595  1  1  0  0  0 
595599  1  0  0  0  0 
596600  1  0  0  0  0 
596601  1  0  0  0  0 
597602  2  0  0  0  0 
598603  1  0  0  0  0 
604598  1  0  0  0  0 
601605  1  0  0  0  0 
601606  2  0  0  0  0 
602607  1  0  0  0  0 
603608  1  0  0  0  0 
604609  1  0  0  0  0 
604610  1  6  0  0  0 
608611  1  1  0  0  0 
611612  1  0  0  0  0 
599600  2  0  0  0  0 
602605  1  0  0  0  0 
609608  1  0  0  0  0 
285290  1  0  0  0  0 
609613  1  6  0  0  0 
285291  1  6  0  0  0 
289292  1  1  0  0  0 
292293  1  0  0  0  0 
280281  2  0  0  0  0 
283286  1  0  0  0  0 
290289  1  0  0  0  0 
 30 35  2  0  0  0  0 
290294  1  6  0  0  0 
140141  1  0  0  0  0 
141120  1  0  0  0  0 
 32 36  2  0  0  0  0 
141142  2  0  0  0  0 
295296  1  0  0  0  0 
296293  1  0  0  0  0 
296297  1  0  0  0  0 
296298  2  0  0  0  0 
 33 37  1  0  0  0  0 
294299  1  0  0  0  0 
299274  1  0  0  0  0 
141143  1  0  0  0  0 
299300  2  0  0  0  0 
 16 18  1  0  0  0  0 
299301  1  0  0  0  0 
  8  9  1  0  0  0  0 
 62 63  1  0  0  0  0 
614615  1  0  0  0  0 
615616  1  0  0  0  0 
616617  2  0  0  0  0 
616618  1  0  0  0  0 
618619  1  0  0  0  0 
619620  2  0  0  0  0 
620621  1  0  0  0  0 
621622  2  0  0  0  0 
622623  1  0  0  0  0 
618623  2  0  0  0  0 
614623  1  0  0  0  0 
614624  1  0  0  0  0 
624625  1  0  0  0  0 
625626  2  0  0  0  0 
626627  1  0  0  0  0 
627628  1  0  0  0  0 
627629  2  0  0  0  0 
629630  1  0  0  0  0 
624630  2  0  0  0  0 
630631  1  0  0  0  0 
631632  1  0  0  0  0 
632633  1  0  0  0  0 
633634  2  0  0  0  0 
634635  1  0  0  0  0 
634636  1  0  0  0  0 
636637  2  0  0  0  0 
637638  1  0  0  0  0 
614638  1  0  0  0  0 
632638  2  0  0  0  0 
 64 63  1  1  0  0  0 
 64 65  1  0  0  0  0 
 65 58  1  6  0  0  0 
 65 66  1  0  0  0  0 
 66 67  1  6  0  0  0 
 66 68  1  0  0  0  0 
 68 69  1  0  0  0  0 
 64 69  1  0  0  0  0 
 68 70  1  1  0  0  0 
 70 71  1  0  0  0  0 
 71 72  2  0  0  0  0 
 72 73  1  0  0  0  0 
 73 74  1  0  0  0  0 
 74 75  1  0  0  0  0 
 74 76  2  0  0  0  0 
 76 77  1  0  0  0  0 
302303  1  0  0  0  0 
304303  1  1  0  0  0 
304305  1  0  0  0  0 
305295  1  6  0  0  0 
305306  1  0  0  0  0 
635639  1  0  0  0  0 
640639  1  6  0  0  0 
640641  1  0  0  0  0 
641642  1  1  0  0  0 
641643  1  0  0  0  0 
643644  1  1  0  0  0 
643645  1  0  0  0  0 
645646  1  0  0  0  0 
640646  1  0  0  0  0 
645647  1  6  0  0  0 
647648  1  0  0  0  0 
648649  2  0  0  0  0 
649650  1  0  0  0  0 
650651  1  0  0  0  0 
651652  1  0  0  0  0 
651653  2  0  0  0  0 
653654  1  0  0  0  0 
654655  2  0  0  0  0 
655656  1  0  0  0  0 
650656  2  0  0  0  0 
647656  1  0  0  0  0 
642657  1  0  0  0  0 
657612  1  0  0  0  0 
657658  1  0  0  0  0 
657659  2  0  0  0  0 
306307  1  6  0  0  0 
613660  1  0  0  0  0 
660584  1  0  0  0  0 
306308  1  0  0  0  0 
660661  2  0  0  0  0 
308309  1  0  0  0  0 
660662  1  0  0  0  0 
304309  1  0  0  0  0 
577663  1  0  0  0  0 
663576  1  0  0  0  0 
308310  1  1  0  0  0 
663664  2  0  0  0  0 
310311  1  0  0  0  0 
663665  1  0  0  0  0 
311312  2  0  0  0  0 
431666  1  0  0  0  0 
666430  1  0  0  0  0 
312313  1  0  0  0  0 
666667  1  0  0  0  0 
313314  1  0  0  0  0 
666668  2  0  0  0  0 
314315  1  0  0  0  0 
 99669  1  0  0  0  0 
669 62  1  0  0  0  0 
314316  2  0  0  0  0 
669670  1  0  0  0  0 
316317  1  0  0  0  0 
669671  2  0  0  0  0 
 21  1  1  0  0  0  0 
317318  2  0  0  0  0 
  8672  1  6  0  0  0 
318319  1  0  0  0  0 
  6673  1  0  0  0  0 
313319  2  0  0  0  0 
673674  1  0  0  0  0 
310319  1  0  0  0  0 
674675  1  0  0  0  0 
672675  1  0  0  0  0 
M  END