
  SciTegic05171617282D

 37 41  0  0  0  0            999 V2000
   -7.8115   -0.4490    0.0000 O   0  0
   -7.8109    0.7510    0.0000 C   0  0
   -6.5106    1.5004    0.0000 C   0  0
   -5.2109    0.7498    0.0000 N   0  0
   -3.9106    1.4992    0.0000 S   0  0
   -4.9495    2.0999    0.0000 O   0  0
   -3.9101    2.6992    0.0000 O   0  0
   -2.6111    0.7486    0.0000 C   0  0
   -2.6111   -0.7486    0.0000 C   0  0
   -1.2964   -1.4973    0.0000 C   0  0
    0.0000   -0.7486    0.0000 C   0  0
    1.2964   -1.4973    0.0000 N   0  0
    2.5929   -0.7486    0.0000 C   0  0
    3.6321   -1.3486    0.0000 O   0  0
    2.5929    0.7486    0.0000 C   0  0
    1.2964    1.4973    0.0000 C   0  0
    0.0000    0.7486    0.0000 C   0  0
   -1.2964    1.4973    0.0000 C   0  0
   -6.5099    3.0012    0.0000 C   0  0
   -7.8076    3.7536    0.0000 C   0  0
   -7.8049    5.2536    0.0000 C   0  0
   -6.5045    6.0013    0.0000 C   0  0
   -5.2068    5.2489    0.0000 C   0  0
   -5.2095    3.7489    0.0000 C   0  0
   -9.1106    1.5016    0.0000 N   0  0
  -10.4113    0.7545    0.0000 C   0  0
  -11.7087    1.5073    0.0000 C   0  0
  -11.7055    3.0073    0.0000 N   0  0
  -10.4048    3.7544    0.0000 C   0  0
   -9.1074    3.0016    0.0000 C   0  0
  -13.0020    3.7632    0.0000 C   0  0
  -14.0436    3.1672    0.0000 O   0  0
  -12.9967    5.2640    0.0000 C   0  0
  -14.2053    6.1306    0.0000 C   0  0
  -13.7337    7.5546    0.0000 C   0  0
  -12.2337    7.5461    0.0000 C   0  0
  -11.7783    6.1169    0.0000 O   0  0
  1  2  2  0
  2  3  1  0
  3  4  1  0
  4  5  1  0
  5  6  2  0
  5  7  2  0
  5  8  1  0
  8  9  2  0
  9 10  1  0
 10 11  2  0
 11 12  1  0
 12 13  1  0
 13 14  2  0
 13 15  1  0
 15 16  1  0
 16 17  1  0
 11 17  1  0
 17 18  2  0
  8 18  1  0
  3 19  1  0
 19 20  2  0
 20 21  1  0
 21 22  2  0
 22 23  1  0
 23 24  2  0
 19 24  1  0
  2 25  1  0
 25 26  1  0
 26 27  1  0
 27 28  1  0
 28 29  1  0
 29 30  1  0
 25 30  1  0
 28 31  1  0
 31 32  2  0
 31 33  1  0
 33 34  2  0
 34 35  1  0
 35 36  2  0
 36 37  1  0
 33 37  1  0
M  END