
          11280715112D 1   1.00000     0.00000     0

 36 40  0     1  0            999 V2000
    2.8792   -4.5417    0.0000 N   0  0  3  0  0  0           0  0  0
    2.1667   -4.1250    0.0000 C   0  0  0  0  0  0           0  0  0
    1.4542   -4.5417    0.0000 C   0  0  1  0  0  0           0  0  0
    2.8792   -5.3625    0.0000 C   0  0  1  0  0  0           0  0  0
    0.7417   -4.1292    0.0000 N   0  0  0  0  0  0           0  0  0
    2.8792   -6.1875    0.0000 C   0  0  0  0  0  0           0  0  0
    0.0292   -4.5417    0.0000 C   0  0  0  0  0  0           0  0  0
    2.1667   -5.7750    0.0000 C   0  0  0  0  0  0           0  0  0
    0.8667   -5.1250    0.0000 C   0  0  0  0  0  0           0  0  0
    1.4542   -5.3667    0.0000 C   0  0  0  0  0  0           0  0  0
    2.1667   -3.3000    0.0000 O   0  0  0  0  0  0           0  0  0
    1.6917   -7.2042    0.0000 C   0  0  0  0  0  0           0  0  0
    1.0792   -5.9167    0.0000 C   0  0  0  0  0  0           0  0  0
   -0.6875   -4.1292    0.0000 O   0  0  0  0  0  0           0  0  0
    1.7542   -6.3875    0.0000 C   0  0  0  0  0  0           0  0  0
    2.1542   -6.5917    0.0000 O   0  0  0  0  0  0           0  0  0
    0.0292   -5.3667    0.0000 O   0  0  0  0  0  0           0  0  0
    0.9417   -7.5625    0.0000 C   0  0  0  0  0  0           0  0  0
    3.6542   -4.2792    0.0000 C   0  0  0  0  0  0           0  0  0
    0.2625   -7.0917    0.0000 C   0  0  0  0  0  0           0  0  0
    3.6667   -5.6125    0.0000 C   0  0  0  0  0  0           0  0  0
    3.5875   -6.6042    0.0000 O   0  0  0  0  0  0           0  0  0
    0.3292   -6.2750    0.0000 C   0  0  0  0  0  0           0  0  0
   -0.6833   -5.7792    0.0000 C   0  0  0  0  0  0           0  0  0
   -1.4000   -5.3750    0.0000 C   0  0  0  0  0  0           0  0  0
    4.1417   -4.9417    0.0000 C   0  0  0  0  0  0           0  0  0
    2.3792   -7.6667    0.0000 C   0  0  0  0  0  0           0  0  0
    0.8792   -8.3875    0.0000 C   0  0  0  0  0  0           0  0  0
    3.5792   -7.4292    0.0000 C   0  0  0  0  0  0           0  0  0
   -1.4000   -4.5417    0.0000 C   0  0  0  0  0  0           0  0  0
   -2.1083   -5.7875    0.0000 C   0  0  0  0  0  0           0  0  0
    2.3167   -8.4917    0.0000 C   0  0  0  0  0  0           0  0  0
    1.5667   -8.8542    0.0000 C   0  0  0  0  0  0           0  0  0
   -2.8250   -5.3792    0.0000 C   0  0  0  0  0  0           0  0  0
   -2.1208   -4.1292    0.0000 C   0  0  0  0  0  0           0  0  0
   -2.8333   -4.5500    0.0000 C   0  0  0  0  0  0           0  0  0
  2  1  1  0     0  0
  3  2  1  0     0  0
  4  1  1  0     0  0
  3  5  1  1     0  0
  4  6  1  1     0  0
  7  5  1  0     0  0
  8  4  1  0     0  0
  3  9  1  6     0  0
 10  8  1  0     0  0
 11  2  2  0     0  0
 12 15  2  0     0  0
 13  9  1  0     0  0
 14  7  2  0     0  0
 15 13  1  0     0  0
 16  6  2  0     0  0
 17  7  1  0     0  0
 18 20  2  0     0  0
 19  1  1  0     0  0
 20 23  1  0     0  0
 21  4  1  0     0  0
 22  6  1  0     0  0
 23 13  2  0     0  0
 24 17  1  0     0  0
 25 24  1  0     0  0
 26 19  1  0     0  0
 27 12  1  0     0  0
 28 18  1  0     0  0
 29 22  1  0     0  0
 30 25  2  0     0  0
 31 25  1  0     0  0
 32 27  2  0     0  0
 33 28  2  0     0  0
 34 31  2  0     0  0
 35 30  1  0     0  0
 36 34  1  0     0  0
 21 26  1  0     0  0
  3 10  1  0     0  0
 12 18  1  0     0  0
 33 32  1  0     0  0
 35 36  2  0     0  0
M  END