
  SciTegic01061111512D

 44 47  0  0  0  0            999 V2000
   -0.4353  -18.4934    0.0000 S   0  0
   -1.1497  -19.7326    0.0000 C   0  0  2  0  0  0
   -0.4353  -20.1442    0.0000 O   0  0
   -1.8683  -20.1442    0.0000 C   0  0  2  0  0  0
   -2.5827  -19.7326    0.0000 C   0  0  1  0  0  0
   -3.2971  -20.1442    0.0000 O   0  0
   -2.5827  -18.9050    0.0000 C   0  0  2  0  0  0
   -1.8683  -18.4934    0.0000 O   0  0
   -3.2971  -18.4934    0.0000 C   0  0
   -3.2971  -17.6658    0.0000 O   0  0
   -1.8683  -20.9716    0.0000 N   0  0
   -1.2001  -21.4555    0.0000 N   0  0
   -1.4525  -22.2385    0.0000 N   0  0
   -2.2800  -22.2385    0.0000 C   0  0
   -2.5366  -21.4555    0.0000 C   0  0
   -2.7679  -22.9109    0.0000 C   0  0
   -3.5886  -22.8221    0.0000 O   0  0
   -2.4310  -23.6638    0.0000 N   0  0
   -2.9147  -24.3321    0.0000 C   0  0
   -2.5778  -25.0891    0.0000 C   0  0
   -3.0657  -25.7533    0.0000 C   0  0
   -0.4353  -17.6658    0.0000 C   0  0  1  0  0  0
   -1.1497  -17.2542    0.0000 C   0  0  2  0  0  0
   -1.8683  -17.6658    0.0000 O   0  0
   -1.1497  -16.4267    0.0000 C   0  0  2  0  0  0
   -0.4353  -16.0151    0.0000 C   0  0  1  0  0  0
   -0.4353  -15.1875    0.0000 O   0  0
    0.2791  -16.4267    0.0000 C   0  0  2  0  0  0
    0.2791  -17.2542    0.0000 O   0  0
    0.9936  -16.0151    0.0000 C   0  0
    0.9936  -15.1875    0.0000 O   0  0
   -1.8683  -16.0151    0.0000 N   0  0
   -2.6212  -16.3478    0.0000 N   0  0
   -3.1732  -15.7367    0.0000 N   0  0
   -2.7615  -15.0182    0.0000 C   0  0
   -1.9530  -15.1902    0.0000 C   0  0
   -3.0984  -14.2653    0.0000 C   0  0
   -2.6105  -13.5970    0.0000 O   0  0
   -3.9191  -14.1806    0.0000 N   0  0
   -4.2560  -13.4235    0.0000 C   0  0
   -5.0766  -13.3389    0.0000 C   0  0
   -5.4136  -12.5840    0.0000 C   0  0
   -1.1497  -18.9050    0.0000 C   0  0  1  0  0  0
   -0.4352  -19.3175    0.0000 H   0  0
 43  2  1  0
  2  3  1  6
  2  4  1  0
  4  5  1  0
  5  6  1  1
  5  7  1  0
  7  8  1  0
  7  9  1  1
  9 10  1  0
 43  8  1  0
 11 12  1  0
 12 13  2  0
 13 14  1  0
 14 15  2  0
 11 15  1  0
 16 17  2  0
 19 20  1  0
 20 21  2  0
 18 19  1  0
 16 18  1  0
 14 16  1  0
  4 11  1  1
 43  1  1  0
 22 23  1  0
 23 24  1  6
 23 25  1  0
 25 26  1  0
 26 27  1  1
 26 28  1  0
 28 29  1  0
 28 30  1  1
 30 31  1  0
 22 29  1  0
 32 33  1  0
 33 34  2  0
 34 35  1  0
 35 36  2  0
 32 36  1  0
 37 38  2  0
 40 41  1  0
 41 42  2  0
 39 40  1  0
 37 39  1  0
 35 37  1  0
 25 32  1  1
 22  1  1  1
 43 44  1  6
M  END