
  SciTegic10021217542D

 46 49  0  0  0  0            999 V2000
    3.4152   -4.4497    0.0000 C   0  0
    5.5757   -4.6658    0.0000 C   0  0
    4.1548   -4.7987    0.0000 N   0  0
    4.8279   -4.3251    0.0000 C   0  0  1  0  0  0
    6.5978   -2.3059    0.0000 N   0  0
    2.6300   -4.7282    0.0000 C   0  0  1  0  0  0
    9.8219   -4.9982    0.0000 C   0  0
    2.6300   -5.5508    0.0000 N   0  0
    6.2488   -4.1922    0.0000 N   0  0
    5.4095   -2.9084    0.0000 C   0  0
    4.8279   -3.4942    0.0000 C   0  0
    5.2766   -2.0982    0.0000 N   0  0
    6.0120   -1.7243    0.0000 C   0  0
    9.2402   -4.4165    0.0000 C   0  0  1  0  0  0
    1.9112   -5.9497    0.0000 C   0  0
    8.4176   -4.4124    0.0000 N   0  0
    6.2239   -3.0413    0.0000 C   0  0
    3.4194   -3.7019    0.0000 O   0  0
    5.6505   -5.4885    0.0000 O   0  0
    1.9985   -4.1797    0.0000 C   0  0
    9.6017   -5.7876    0.0000 O   0  0
    9.7762   -3.7809    0.0000 C   0  0
    1.0844   -5.7876    0.0000 O   0  0
    6.9967   -4.5412    0.0000 C   0  0  2  0  0  0
   10.6113   -4.7780    0.0000 N   0  0
    7.6697   -4.0675    0.0000 C   0  0
    7.0714   -5.3596    0.0000 C   0  0
    2.1480   -3.3778    0.0000 C   0  0
    9.3649   -3.0662    0.0000 C   0  0
    7.8193   -5.7004    0.0000 C   0  0
    2.0483   -6.7681    0.0000 C   0  0
    1.5248   -2.8460    0.0000 C   0  0
    2.9208   -3.1078    0.0000 C   0  0
    8.5298   -3.0662    0.0000 C   0  0
    9.7762   -2.3475    0.0000 C   0  0
    8.4799   -5.2267    0.0000 C   0  0
    7.8899   -6.5230    0.0000 C   0  0
    9.3649   -1.6245    0.0000 C   0  0
    1.6744   -2.0441    0.0000 C   0  0
    8.6295   -6.8678    0.0000 C   0  0
    9.2278   -5.5715    0.0000 C   0  0
    3.0787   -2.2976    0.0000 C   0  0
    8.1184   -2.3475    0.0000 C   0  0
    9.3025   -6.3942    0.0000 C   0  0
    2.4472   -1.7617    0.0000 C   0  0
    8.5298   -1.6245    0.0000 C   0  0
  2  4  1  0
  3  1  1  0
  4  3  1  0
  5 17  1  0
  6  1  1  0
  7 14  1  0
  8  6  1  0
  9  2  1  0
 10 11  1  0
  4 11  1  1
 12 10  1  0
 13 12  2  0
 14 16  1  0
 15  8  1  0
 16 26  1  0
 17 10  2  0
 18  1  2  0
 19  2  2  0
  6 20  1  1
 21  7  2  0
 14 22  1  1
 23 15  2  0
 24  9  1  0
 25  7  1  0
 26 24  1  0
 24 27  1  6
 28 20  1  0
 29 22  1  0
 30 27  1  0
 31 15  1  0
 32 28  1  0
 33 28  2  0
 34 29  1  0
 35 29  2  0
 36 30  1  0
 37 30  2  0
 38 35  1  0
 39 32  2  0
 40 37  1  0
 41 36  2  0
 42 33  1  0
 43 34  2  0
 44 40  2  0
 45 42  2  0
 46 38  2  0
 39 45  1  0
  5 13  1  0
 41 44  1  0
 43 46  1  0
M  END