
  SciTegic06051315212D

 26 29  0  0  0  0            999 V2000
    2.7927   -5.8771    0.0000 C   0  0
    2.7916   -6.6967    0.0000 C   0  0
    3.4996   -7.1056    0.0000 C   0  0
    4.2072   -6.6926    0.0000 C   0  0
    4.9157   -7.0996    0.0000 C   0  0
    5.6240   -6.6888    0.0000 C   0  0
    5.6193   -5.8667    0.0000 C   0  0
    4.8359   -5.4757    0.0000 C   0  0
    3.4978   -5.4683    0.0000 C   0  0
    4.2085   -5.8771    0.0000 C   0  0
    3.6680   -4.6669    0.0000 C   0  0
    4.6172   -4.6468    0.0000 C   0  0
    3.1555   -4.0304    0.0000 O   0  0
    4.9459   -3.9910    0.0000 C   0  0
    5.7630   -3.9884    0.0000 C   0  0
    4.5828   -3.2590    0.0000 C   0  0
    6.5804   -3.9835    0.0000 N   0  0
    4.2160   -2.5256    0.0000 N   0  0
    4.9174   -7.9168    0.0000 O   0  0
    5.6260   -8.3239    0.0000 C   0  0
    5.6244   -9.1388    0.0000 C   0  0
    6.3321   -9.5458    0.0000 C   0  0
    7.0399   -9.1357    0.0000 C   0  0
    7.0356   -8.3143    0.0000 C   0  0
    6.3273   -7.9109    0.0000 C   0  0
    7.7490   -9.5419    0.0000 Cl  0  0
  1  2  2  0
  2  3  1  0
  3  4  2  0
  9  1  1  0
 10  4  1  0
  4  5  1  0
  5  6  2  0
  6  7  1  0
  7  8  2  0
  8 10  1  0
  9 10  2  0
 11  9  1  0
  8 12  1  0
 11 12  1  0
 11 13  2  0
 12 14  2  0
 14 15  1  0
 14 16  1  0
 15 17  3  0
 16 18  3  0
  5 19  1  0
 19 20  1  0
 20 21  2  0
 21 22  1  0
 22 23  2  0
 23 24  1  0
 24 25  2  0
 25 20  1  0
 23 26  1  0
M  END