
          11280715162D 1   1.00000     0.00000     0

 40 43  0     0  0            999 V2000
    4.7375   -2.2792    0.0000 C   0  0  0  0  0  0           0  0  0
   -0.4583   -0.4667    0.0000 N   0  0  3  0  0  0           0  0  0
    5.2500   -1.9667    0.0000 N   0  0  0  0  0  0           0  0  0
   -0.9708   -0.1542    0.0000 C   0  0  0  0  0  0           0  0  0
    0.5667   -1.1000    0.0000 N   0  0  3  0  0  0           0  0  0
    5.7792   -2.2542    0.0000 C   0  0  0  0  0  0           0  0  0
    4.2125   -1.9875    0.0000 C   0  0  0  0  0  0           0  0  0
    8.3542   -1.3042    0.0000 C   0  0  0  0  0  0           0  0  0
    4.7500   -2.8792    0.0000 O   0  0  0  0  0  0           0  0  0
   -0.4708   -1.0750    0.0000 C   0  0  0  0  0  0           0  0  0
    0.0667   -0.1792    0.0000 C   0  0  0  0  0  0           0  0  0
   -0.9583    0.4375    0.0000 C   0  0  0  0  0  0           0  0  0
    6.2917   -1.9417    0.0000 C   0  0  0  0  0  0           0  0  0
    8.3667   -1.9042    0.0000 O   0  0  0  0  0  0           0  0  0
    3.6917   -2.2917    0.0000 C   0  0  0  0  0  0           0  0  0
    4.2000   -1.3875    0.0000 C   0  0  0  0  0  0           0  0  0
    0.5792   -0.4917    0.0000 C   0  0  0  0  0  0           0  0  0
    0.0417   -1.3917    0.0000 C   0  0  0  0  0  0           0  0  0
    3.1625   -1.4125    0.0000 C   0  0  0  0  0  0           0  0  0
    8.8750   -0.9917    0.0000 O   0  0  0  0  0  0           0  0  0
    3.6750   -1.1000    0.0000 C   0  0  0  0  0  0           0  0  0
    3.1667   -2.0042    0.0000 C   0  0  0  0  0  0           0  0  0
   -0.4208    0.7208    0.0000 O   0  0  0  0  0  0           0  0  0
    6.2792   -1.3500    0.0000 O   0  0  0  0  0  0           0  0  0
    1.0792   -1.4125    0.0000 C   0  0  0  0  0  0           0  0  0
    1.6042   -1.1167    0.0000 C   0  0  0  0  0  0           0  0  0
    2.6375   -1.1167    0.0000 O   0  0  0  0  0  0           0  0  0
   -1.4958   -0.4500    0.0000 C   0  0  0  0  0  0           0  0  0
    5.7875   -2.8542    0.0000 C   0  0  0  0  0  0           0  0  0
    7.8292   -1.0167    0.0000 C   0  0  0  0  0  0           0  0  0
    2.1167   -1.4292    0.0000 C   0  0  0  0  0  0           0  0  0
   -1.4625    0.7500    0.0000 C   0  0  0  0  0  0           0  0  0
    6.8167   -2.2375    0.0000 C   0  0  0  0  0  0           0  0  0
    6.7917   -1.0417    0.0000 C   0  0  0  0  0  0           0  0  0
   -0.4083    1.3208    0.0000 C   0  0  0  0  0  0           0  0  0
    7.3167   -1.3292    0.0000 C   0  0  0  0  0  0           0  0  0
   -2.0083   -0.1375    0.0000 C   0  0  0  0  0  0           0  0  0
    6.3125   -3.1542    0.0000 C   0  0  0  0  0  0           0  0  0
    6.8292   -2.8417    0.0000 C   0  0  0  0  0  0           0  0  0
   -1.9958    0.4625    0.0000 C   0  0  0  0  0  0           0  0  0
  2 10  1  0     0  0
  3  1  1  0     0  0
  4  2  1  0     0  0
  5 25  1  0     0  0
  6  3  1  0     0  0
  7  1  1  0     0  0
  8 30  1  0     0  0
  9  1  2  0     0  0
 10 18  1  0     0  0
 11 17  1  0     0  0
 12  4  2  0     0  0
 13  6  2  0     0  0
 14  8  2  0     0  0
 15  7  1  0     0  0
 16  7  2  0     0  0
 17  5  1  0     0  0
 18  5  1  0     0  0
 19 21  2  0     0  0
 20  8  1  0     0  0
 21 16  1  0     0  0
 22 15  2  0     0  0
 23 12  1  0     0  0
 24 13  1  0     0  0
 25 26  1  0     0  0
 26 31  1  0     0  0
 27 19  1  0     0  0
 28  4  1  0     0  0
 29  6  1  0     0  0
 30 36  1  0     0  0
 31 27  1  0     0  0
 32 12  1  0     0  0
 33 13  1  0     0  0
 34 24  1  0     0  0
 35 23  1  0     0  0
 36 34  1  0     0  0
 37 28  2  0     0  0
 38 29  2  0     0  0
 39 38  1  0     0  0
 40 37  1  0     0  0
 22 19  1  0     0  0
 33 39  2  0     0  0
 11  2  1  0     0  0
 32 40  2  0     0  0
M  END