
  SciTegic06181315362D

 37 41  0  0  0  0            999 V2000
   19.1861   -4.0612    0.0000 N   0  0
   19.1849   -4.8807    0.0000 C   0  0
   19.8930   -5.2897    0.0000 N   0  0
   19.8912   -3.6523    0.0000 C   0  0
   20.5998   -4.0576    0.0000 C   0  0
   20.6001   -4.8807    0.0000 C   0  0
   21.3830   -5.1349    0.0000 N   0  0
   21.8667   -4.4688    0.0000 C   0  0
   21.3826   -3.8030    0.0000 N   0  0
   19.8887   -2.8351    0.0000 O   0  0
   20.5952   -2.4244    0.0000 C   0  0
   21.3020   -2.8333    0.0000 C   0  0
   22.0080   -2.4232    0.0000 C   0  0
   22.0060   -1.6052    0.0000 C   0  0
   21.2921   -1.1989    0.0000 C   0  0
   20.5891   -1.6112    0.0000 C   0  0
   22.7120   -1.1935    0.0000 N   0  0
   23.4215   -1.5991    0.0000 C   0  0
   24.1274   -1.1874    0.0000 C   0  0
   23.4250   -2.4162    0.0000 O   0  0
   24.8358   -1.5993    0.0000 C   0  0
   25.5397   -1.1912    0.0000 N   0  0
   25.5404   -0.3736    0.0000 C   0  0
   24.8310    0.0402    0.0000 C   0  0
   24.1210   -0.3758    0.0000 C   0  0
   24.8354   -2.4165    0.0000 O   0  0
   26.2436   -1.6013    0.0000 C   0  0
   26.2427   -2.4196    0.0000 C   0  0
   26.9498   -2.8278    0.0000 C   0  0
   27.6583   -2.4187    0.0000 C   0  0
   27.6552   -1.5973    0.0000 C   0  0
   26.9476   -1.1929    0.0000 C   0  0
   19.8784   -1.2077    0.0000 F   0  0
   28.3668   -2.8260    0.0000 C   0  0
   28.3683   -3.6432    0.0000 F   0  0
   29.0737   -2.4161    0.0000 F   0  0
   29.0722   -3.2316    0.0000 F   0  0
  1  2  1  0
  2  3  2  0
  3  6  1  0
  5  4  1  0
  4  1  2  0
  5  6  2  0
  6  7  1  0
  7  8  1  0
  8  9  2  0
  9  5  1  0
  4 10  1  0
 10 11  1  0
 11 12  2  0
 12 13  1  0
 13 14  2  0
 14 15  1  0
 15 16  2  0
 16 11  1  0
 14 17  1  0
 17 18  1  0
 18 19  1  0
 18 20  2  0
 19 21  1  0
 19 25  2  0
 21 22  1  0
 22 23  1  0
 23 24  2  0
 24 25  1  0
 21 26  2  0
 27 28  2  0
 28 29  1  0
 29 30  2  0
 30 31  1  0
 31 32  2  0
 32 27  1  0
 22 27  1  0
 16 33  1  0
 30 34  1  0
 34 35  1  0
 34 36  1  0
 34 37  1  0
M  END