
          03140815512D 1   1.00000     0.00000     0

 27 29  0     0  0            999 V2000
   11.8861   -7.5291    0.0000 C   0  0  0  0  0  0           0  0  0
   11.8849   -8.3565    0.0000 C   0  0  0  0  0  0           0  0  0
   12.5997   -8.7694    0.0000 C   0  0  0  0  0  0           0  0  0
   13.3162   -8.3560    0.0000 C   0  0  0  0  0  0           0  0  0
   13.3133   -7.5255    0.0000 C   0  0  0  0  0  0           0  0  0
   12.5979   -7.1164    0.0000 C   0  0  0  0  0  0           0  0  0
   14.0262   -7.1103    0.0000 O   0  0  0  0  0  0           0  0  0
   14.0231   -6.2853    0.0000 C   0  0  0  0  0  0           0  0  0
   14.7378   -5.8749    0.0000 C   0  0  0  0  0  0           0  0  0
   14.7350   -5.0507    0.0000 C   0  0  0  0  0  0           0  0  0
   14.0185   -4.6401    0.0000 C   0  0  0  0  0  0           0  0  0
   13.3032   -5.0597    0.0000 C   0  0  0  0  0  0           0  0  0
   13.3095   -5.8826    0.0000 C   0  0  0  0  0  0           0  0  0
   14.0313   -8.7674    0.0000 C   0  0  0  0  0  0           0  0  0
   14.0326   -9.5924    0.0000 N   0  0  0  0  0  0           0  0  0
   14.7477  -10.0038    0.0000 C   0  0  0  0  0  0           0  0  0
   11.1701   -8.7684    0.0000 C   0  0  0  0  0  0           0  0  0
   10.4500   -9.1750    0.0000 C   0  0  0  0  0  0           0  0  0
    9.7333   -9.5833    0.0000 C   0  0  0  0  0  0           0  0  0
    9.0212   -9.1668    0.0000 C   0  0  0  0  0  0           0  0  0
    8.3044   -9.5752    0.0000 N   0  0  3  0  0  0           0  0  0
   14.0143   -3.8151    0.0000 S   0  0  0  0  0  0           0  0  0
   14.7266   -3.3990    0.0000 C   0  0  0  0  0  0           0  0  0
    7.5923   -9.1586    0.0000 C   0  0  3  0  0  0           0  0  0
    7.1817   -8.4386    0.0000 C   0  0  0  0  0  0           0  0  0
    6.7651   -9.1507    0.0000 C   0  0  0  0  0  0           0  0  0
    8.2997  -10.4002    0.0000 C   0  0  0  0  0  0           0  0  0
 13  8  1  0     0  0
  1  2  2  0     0  0
  4 14  1  0     0  0
  5  7  1  0     0  0
 14 15  1  0     0  0
  3  4  2  0     0  0
 15 16  1  0     0  0
  7  8  1  0     0  0
  2 17  1  0     0  0
 17 18  3  0     0  0
  8  9  2  0     0  0
 18 19  1  0     0  0
  4  5  1  0     0  0
 19 20  1  0     0  0
  9 10  1  0     0  0
 20 21  1  0     0  0
  2  3  1  0     0  0
 11 22  1  0     0  0
 10 11  2  0     0  0
 22 23  1  0     0  0
  5  6  2  0     0  0
 21 24  1  0     0  0
 25 24  1  0     0  0
 26 25  1  0     0  0
 24 26  1  0     0  0
 11 12  1  0     0  0
  6  1  1  0     0  0
 12 13  2  0     0  0
 21 27  1  0     0  0
M  END