
  SciTegic05071317052D

 31 31  0  0  0  0            999 V2000
   26.9647  -11.6437    0.0000 C   0  0
   27.7885  -11.6344    0.0000 C   0  0
   28.1882  -10.9136    0.0000 C   0  0
   27.7631  -10.2055    0.0000 C   0  0
   26.9339  -10.2229    0.0000 C   0  0
   26.5380  -10.9443    0.0000 C   0  0
   24.2373  -17.0415    0.0000 C   0  0
   24.2373  -17.8665    0.0000 C   0  0
   24.9493  -18.2748    0.0000 N   0  0
   25.6612  -17.8665    0.0000 C   0  0
   25.6612  -17.0415    0.0000 C   0  0
   24.9493  -16.6248    0.0000 N   0  0
   24.9497  -15.7996    0.0000 C   0  0
   25.6171  -15.3146    0.0000 N   0  0
   25.3622  -14.5295    0.0000 C   0  0
   24.5371  -14.5300    0.0000 C   0  0
   24.2823  -15.3146    0.0000 S   0  0
   25.7620  -13.8078    0.0000 C   0  0
   26.5869  -13.7932    0.0000 C   0  0
   26.9866  -13.0715    0.0000 N   0  0
   27.8114  -13.0568    0.0000 C   0  0
   26.5615  -12.3645    0.0000 C   0  0
   24.9493  -19.0998    0.0000 C   0  0
   24.2348  -19.5123    0.0000 C   0  0
   24.2348  -20.3373    0.0000 C   0  0
   25.7366  -12.3774    0.0000 O   0  0
   28.1619   -9.4834    0.0000 N   0  3
   27.7337   -8.7732    0.0000 O   0  0
   28.9846   -9.4640    0.0000 O   0  5
   23.9559  -12.8290    0.0000 Br  0  0
   23.1884  -14.0839    0.0000 Br  0  0
  1  2  2  0
  2  3  1  0
  3  4  2  0
  4  5  1  0
  5  6  2  0
  6  1  1  0
  7  8  1  0
  7 12  1  0
  8  9  1  0
  9 10  1  0
 10 11  1  0
 11 12  1  0
 13 14  2  0
 14 15  1  0
 15 16  2  0
 16 17  1  0
 17 13  1  0
 12 13  1  0
 15 18  1  0
 18 19  1  0
 19 20  1  0
 20 21  1  0
 20 22  1  0
  9 23  1  0
 23 24  1  0
 24 25  1  0
 22  1  1  0
 22 26  2  0
  4 27  1  0
 27 28  2  0
 27 29  1  0
M  CHG  2  27   1  29  -1
M  END