
  SciTegic10041313242D

 42 45  0  0  1  0            999 V2000
   11.7264  -22.5552    0.0000 C   0  0
   12.4097  -23.0183    0.0000 N   0  0
   13.0611  -22.5115    0.0000 C   0  0
   13.8591  -22.7213    0.0000 P   0  0
   14.6538  -22.9103    0.0000 O   0  0
   13.6586  -23.5215    0.0000 O   0  0
   14.0674  -21.9230    0.0000 O   0  0
   14.7864  -21.5169    0.0000 C   0  0
   15.0767  -23.6185    0.0000 C   0  0
   15.4962  -21.9387    0.0000 C   0  0
   16.2140  -21.5337    0.0000 C   0  0
   16.2224  -20.7080    0.0000 C   0  0
   15.5068  -20.2887    0.0000 C   0  0
   14.7919  -20.6962    0.0000 C   0  0
   14.6721  -24.3355    0.0000 C   0  0
   15.0943  -25.0434    0.0000 C   0  0
   15.9201  -25.0317    0.0000 C   0  0
   16.3218  -24.3061    0.0000 C   0  0
   15.8972  -23.6013    0.0000 C   0  0
   12.4368  -23.8428    0.0000 C   0  0
   11.7362  -24.2785    0.0000 C   0  0  1  0  0  0
   11.0085  -23.8897    0.0000 N   0  0
   11.7632  -25.1031    0.0000 C   0  0
   11.0626  -25.5388    0.0000 C   0  0
   11.0897  -26.3634    0.0000 C   0  0
   10.3891  -26.7991    0.0000 C   0  0
   10.4162  -27.6235    0.0000 N   0  0
   13.1643  -24.2317    0.0000 O   0  0
   11.9556  -21.7623    0.0000 C   0  0
   12.7776  -21.7359    0.0000 C   0  0
   13.1641  -21.0120    0.0000 C   0  0
   12.7296  -20.3139    0.0000 C   0  0
   11.9045  -20.3444    0.0000 C   0  0
   11.5219  -21.0689    0.0000 C   0  0
   16.9401  -20.3013    0.0000 N   0  0
   17.6513  -20.7196    0.0000 C   0  0
   18.3690  -20.3129    0.0000 C   0  0
   17.6445  -21.5446    0.0000 O   0  0
   16.3439  -25.7394    0.0000 N   0  0
   15.9430  -26.4604    0.0000 C   0  0
   16.3668  -27.1682    0.0000 C   0  0
   15.1181  -26.4736    0.0000 O   0  0
  5  9  1  0
  2 20  1  0
  3  4  1  0
 20 21  1  0
  8 10  2  0
 21 22  1  0
 29  1  1  0
 21 23  1  6
 10 11  1  0
 23 24  1  0
  4  5  1  0
 24 25  1  0
 11 12  2  0
 25 26  1  0
  1  2  1  0
 26 27  1  0
 12 13  1  0
 20 28  2  0
  4  6  2  0
 13 14  2  0
 29 30  2  0
 14  8  1  0
 30 31  1  0
  2  3  1  0
 31 32  2  0
  9 15  2  0
 32 33  1  0
  4  7  1  0
 33 34  2  0
 34 29  1  0
 15 16  1  0
 12 35  1  0
  3 30  1  0
 35 36  1  0
 16 17  2  0
 36 37  1  0
  7  8  1  0
 36 38  2  0
 17 18  1  0
 17 39  1  0
 39 40  1  0
 18 19  2  0
 40 41  1  0
 19  9  1  0
 40 42  2  0
M  END