
  SciTegic01181116592D

 32 35  0  0  0  0            999 V2000
   16.6273   -0.9429    0.0000 C   0  0
   16.2100   -1.6573    0.0000 C   0  0
   16.6200   -2.3738    0.0000 C   0  0
   17.4472   -2.3770    0.0000 C   0  0
   17.8626   -1.6579    0.0000 C   0  0
   17.4502   -0.9443    0.0000 C   0  0
   18.6874   -1.6475    0.0000 C   0  0
   19.1806   -2.3128    0.0000 N   0  0
   19.9622   -2.0477    0.0000 C   0  0
   19.9512   -1.2229    0.0000 C   0  0
   19.1639   -0.9781    0.0000 N   0  0
   20.6638   -0.8071    0.0000 C   0  0
   21.3801   -1.2164    0.0000 O   0  0
   20.6601    0.0178    0.0000 O   0  0
   20.6757   -2.4618    0.0000 C   0  0
   20.6739   -3.2868    0.0000 N   0  0
   21.3911   -2.0508    0.0000 O   0  0
   19.9586   -3.6977    0.0000 C   0  0
   21.3875   -3.7008    0.0000 C   0  0
   22.1029   -3.2899    0.0000 C   0  0
   22.8146   -3.7046    0.0000 C   0  0
   23.5295   -3.2943    0.0000 C   0  0
   23.5317   -2.4684    0.0000 C   0  0
   22.8131   -2.0545    0.0000 C   0  0
   22.1012   -2.4672    0.0000 C   0  0
   16.2172   -0.2270    0.0000 Cl  0  0
   19.9568   -4.5227    0.0000 C   0  0
   19.2394   -4.9286    0.0000 C   0  0
   19.2373   -5.7528    0.0000 C   0  0
   19.9514   -6.1677    0.0000 C   0  0
   20.6691   -5.7523    0.0000 C   0  0
   20.6677   -4.9295    0.0000 C   0  0
  7  8  2  0
 15 16  1  0
  3  4  2  0
 15 17  2  0
 16 18  1  0
  4  5  1  0
 16 19  1  0
  2  3  1  0
 19 20  1  0
  8  9  1  0
 20 21  2  0
  9 10  2  0
 21 22  1  0
 10 11  1  0
 22 23  2  0
 11  7  1  0
 23 24  1  0
  5  6  2  0
 24 25  2  0
 25 20  1  0
 10 12  1  0
  1 26  1  0
  6  1  1  0
 18 27  1  0
 12 13  1  0
 27 28  2  0
  1  2  2  0
 28 29  1  0
 12 14  2  0
 29 30  2  0
  5  7  1  0
 30 31  1  0
  9 15  1  0
 31 32  2  0
 32 27  1  0
M  END