
  SciTegic02181312462D

 24 26  0  0  0  0            999 V2000
   11.8967  -10.7519    0.0000 N   0  0
   12.6016  -11.1605    0.0000 C   0  0
   13.3107  -10.7519    0.0000 C   0  0
   13.3107   -9.9306    0.0000 C   0  0
   12.6016   -9.5220    0.0000 C   0  0
   11.8967   -9.9306    0.0000 C   0  0
   11.1876  -11.1605    0.0000 C   0  0
   10.4785  -10.7519    0.0000 C   0  0
    9.7694  -11.1605    0.0000 C   0  0
    9.0644  -10.7519    0.0000 O   0  0
    8.3553  -11.1605    0.0000 C   0  0
    7.6504  -10.7519    0.0000 C   0  0
    6.9413  -11.1605    0.0000 C   0  0
    6.9413  -11.9777    0.0000 C   0  0
    7.6504  -12.3863    0.0000 C   0  0
    8.3553  -11.9777    0.0000 C   0  0
    6.2322  -12.3863    0.0000 C   0  0
    5.5231  -11.9777    0.0000 N   0  0
    5.5231  -11.1605    0.0000 C   0  0
    4.8181  -10.7519    0.0000 C   0  0
    4.1091  -11.1605    0.0000 C   0  0
    4.1091  -11.9777    0.0000 C   0  0
    4.8181  -12.3863    0.0000 C   0  0
    3.4015  -10.7516    0.0000 F   0  0
  1  2  1  0
  2  3  1  0
  3  4  1  0
  4  5  1  0
  5  6  1  0
  1  6  1  0
  7  8  1  0
  8  9  1  0
 11 12  1  0
 12 13  2  0
 13 14  1  0
 14 15  2  0
 15 16  1  0
 11 16  2  0
 10 11  1  0
 18 19  1  0
 19 20  1  0
 20 21  1  0
 21 22  1  0
 22 23  1  0
 18 23  1  0
 17 18  1  0
 14 17  1  0
  9 10  1  0
  1  7  1  0
 21 24  1  0
M  ISO  1  24  18
M  END