
  SciTegic01091216402D

 68 70  0  0  0  0            999 V2000
   17.5604    0.6283    0.0000 Na  0  3
   23.4619    0.4277    0.0000 O   0  0
   19.1383   -1.9989    0.0000 C   0  0  2  0  0  0
   19.8485   -2.4164    0.0000 C   0  0  2  0  0  0
   20.5633   -2.0159    0.0000 C   0  0  1  0  0  0
   20.5741   -1.1922    0.0000 O   0  0
   19.8640   -0.7706    0.0000 C   0  0  1  0  0  0
   19.1429   -1.1768    0.0000 C   0  0  2  0  0  0
   18.4290   -0.7541    0.0000 O   0  0
   19.8735    0.0574    0.0000 C   0  0
   19.1604    0.4776    0.0000 O   0  0
   21.2719   -2.4364    0.0000 O   0  0
   18.4172   -2.4051    0.0000 O   0  0
   19.8398   -3.2444    0.0000 O   0  0
   16.2871   -2.0015    0.0000 C   0  0  1  0  0  0
   16.2871   -2.8296    0.0000 C   0  0  1  0  0  0
   17.0023   -3.2374    0.0000 C   0  0  2  0  0  0
   17.7175   -2.8296    0.0000 C   0  0
   17.7166   -1.9993    0.0000 C   0  0  2  0  0  0
   17.0023   -1.5813    0.0000 O   0  0
   17.7146   -1.1706    0.0000 C   0  0
   16.9960   -0.7561    0.0000 O   0  0
   17.0023   -4.0655    0.0000 O   0  0
   15.5741   -3.2426    0.0000 N   0  0
   15.5723   -1.5876    0.0000 C   0  0  1  0  0  0
   15.5698   -0.7594    0.0000 C   0  0  1  0  0  0
   15.5753   -4.0707    0.0000 C   0  0
   14.8582   -4.4878    0.0000 C   0  0
   16.2894   -4.4858    0.0000 O   0  0
   14.8558   -2.0057    0.0000 O   0  0
   16.2830   -1.1735    0.0000 H   0  0
   14.8510   -0.3496    0.0000 C   0  0
   16.2823   -0.3454    0.0000 O   0  0
   14.8486    0.4785    0.0000 N   0  0
   17.7101   -0.3413    0.0000 O   0  5
   21.9945   -2.0329    0.0000 C   0  0  2  0  0  0
   22.7035   -2.4565    0.0000 C   0  0  2  0  0  0
   23.4239   -2.0564    0.0000 C   0  0  2  0  0  0
   23.4380   -1.2281    0.0000 O   0  0
   22.7254   -0.8013    0.0000 C   0  0  1  0  0  0
   21.9988   -1.2071    0.0000 C   0  0  2  0  0  0
   21.9880   -2.8588    0.0000 H   0  0
   21.2856   -0.7833    0.0000 O   0  0
   22.7379    0.0266    0.0000 C   0  0
   24.1350   -2.4796    0.0000 O   0  0
   22.6905   -3.2844    0.0000 N   0  0
   14.1338    0.8884    0.0000 C   0  0
   14.1314    1.7123    0.0000 O   0  0
   13.4215    0.4744    0.0000 C   0  0
   12.7059    0.8848    0.0000 C   0  0
   11.9941    0.4716    0.0000 C   0  0
   11.9960   -0.3533    0.0000 C   0  0
   12.7158   -0.7630    0.0000 C   0  0
   13.4247   -0.3473    0.0000 C   0  0
   23.3975   -3.7076    0.0000 C   0  0
   23.3846   -4.5313    0.0000 C   0  0
   24.1175   -3.3068    0.0000 O   0  0
   24.8540   -2.0769    0.0000 C   0  0  1  0  0  0
   25.5621   -2.4981    0.0000 C   0  0  2  0  0  0
   24.8647   -1.2531    0.0000 C   0  0
   25.5513   -3.3220    0.0000 N   0  0
   26.2809   -2.0955    0.0000 C   0  0
   26.9890   -2.5168    0.0000 O   0  0
   26.2916   -1.2717    0.0000 O   0  0
   27.7079   -2.1142    0.0000 C   0  0
   26.2593   -3.7433    0.0000 C   0  0
   26.2485   -4.5671    0.0000 C   0  0
   26.9783   -3.3406    0.0000 O   0  0
 19 13  1  0
  7 10  1  1
 21 35  1  0
 15 20  1  0
 36 12  1  0
 36 37  1  0
 16 17  1  0
 17 18  1  0
 18 19  1  0
 19 20  1  0
 36 41  1  0
 37 38  1  0
 38 39  1  0
 39 40  1  0
 40 41  1  0
 19 21  1  1
 36 42  1  6
 10 11  1  0
 41 43  1  1
 21 22  2  0
 40 44  1  1
 44  2  1  0
  3  8  1  0
 38 45  1  6
 17 23  1  6
 37 46  1  6
  5 12  1  1
 34 47  1  0
 16 24  1  1
 47 48  2  0
  4  5  1  0
 47 49  1  0
 15 25  1  0
 49 50  2  0
  3 13  1  1
 50 51  1  0
 25 26  1  0
 51 52  2  0
  5  6  1  0
 52 53  1  0
 24 27  1  0
 53 54  2  0
 54 49  1  0
  4 14  1  6
 46 55  1  0
 27 28  1  0
 55 56  1  0
 15 16  1  0
 55 57  2  0
 27 29  2  0
 45 58  1  0
  6  7  1  0
 58 59  1  0
 25 30  1  6
 58 60  1  6
  7  8  1  0
 59 61  1  1
 15 31  1  1
 59 62  1  0
  3  4  1  0
 62 63  1  0
 26 32  1  0
 62 64  2  0
  8  9  1  1
 63 65  1  0
 26 33  1  1
 61 66  1  0
 66 67  1  0
 32 34  1  0
 66 68  2  0
M  CHG  2   1   1  35  -1
M  END