
  SciTegic04191613082D

182192  0  0  1  0            999 V2000
   11.2827   -4.1626    0.0000 C   0  0
   12.0214   -5.4690    0.0000 C   0  0
   11.2602   -6.7625    0.0000 C   0  0
   11.9989   -8.0689    0.0000 N   0  0
   11.2377   -9.3624    0.0000 C   0  0
   10.0378   -9.3520    0.0000 N   0  0
   11.8284  -10.4069    0.0000 N   0  0
   12.0499   -2.8590    0.0000 C   0  0  1  0  0  0
   10.8425   -1.9690    0.0000 C   0  0
   10.0364   -2.8579    0.0000 O   0  0
    9.8390   -0.8541    0.0000 N   0  0
    9.0804    0.4400    0.0000 C   0  0  1  0  0  0
    8.5979    1.8603    0.0000 C   0  0
    8.4112    3.3486    0.0000 N   0  0
    8.5279    4.8441    0.0000 C   0  0
    8.9432    6.2854    0.0000 C   0  0
    9.6402    7.6137    0.0000 C   0  0
   10.5754    8.7876    0.0000 C   0  0
   11.7569    9.7117    0.0000 C   0  0
   13.0920   10.3956    0.0000 N   0  0
   14.5323   10.8144    0.0000 C   0  0
   16.0259   10.9530    0.0000 C   0  0  2  0  0  0
   17.5187   10.8065    0.0000 N   0  0
   18.9569   10.3801    0.0000 C   0  0
   20.2883    9.6893    0.0000 C   0  0  1  0  0  0
   20.8311   10.5291    0.0000 C   0  0
   21.4649    8.7590    0.0000 N   0  0
   22.4442    7.6228    0.0000 C   0  0
   23.4236    8.3163    0.0000 O   0  0
   23.1908    6.3218    0.0000 C   0  0  1  0  0  0
   23.6777    4.9030    0.0000 N   0  0
   23.8873    3.4177    0.0000 C   0  0
   23.8120    1.9196    0.0000 C   0  0  2  0  0  0
   25.3092    1.7032    0.0000 C   0  0
   26.2385    2.8818    0.0000 C   0  0
   27.7239    2.6672    0.0000 C   0  0
   28.6532    3.8457    0.0000 N   0  0
   30.1386    3.6311    0.0000 C   0  0
   30.8816    4.5733    0.0000 N   0  0
   30.5834    2.5166    0.0000 N   0  0
   23.4545    0.4628    0.0000 N   0  0
   22.8278   -0.9000    0.0000 C   0  0
   21.9545   -2.1196    0.0000 C   0  0  2  0  0  0
   23.0971   -3.1110    0.0000 C   0  0
   22.8129   -4.5847    0.0000 C   0  0
   23.9486   -5.5823    0.0000 C   0  0
   23.6637   -7.0519    0.0000 C   0  0
   22.2483   -7.5402    0.0000 C   0  0
   21.1178   -6.5588    0.0000 C   0  0
   21.3968   -5.0718    0.0000 C   0  0
   21.9633   -9.0099    0.0000 C   0  0
   23.0938   -9.9913    0.0000 C   0  0
   24.5092   -9.5031    0.0000 C   0  0
   24.7942   -8.0334    0.0000 C   0  0
   20.8662   -3.1519    0.0000 N   0  0
   19.6022   -3.9595    0.0000 C   0  0
   18.2082   -4.5133    0.0000 C   0  0  1  0  0  0
   19.1893   -5.6594    0.0000 C   0  0
   18.6950   -7.0756    0.0000 C   0  0
   17.2214   -7.3556    0.0000 C   0  0
   16.2421   -6.2194    0.0000 C   0  0
   16.7345   -4.7933    0.0000 N   0  0
   15.2345   -4.7894    0.0000 C   0  0
   15.1173   -5.9837    0.0000 O   0  0
   13.7624   -4.5017    0.0000 C   0  0  1  0  0  0
   13.3304   -5.9514    0.0000 C   0  0  2  0  0  0
   12.1630   -6.2292    0.0000 C   0  0
   14.1544   -6.8237    0.0000 O   0  0
   12.3713   -3.9405    0.0000 N   0  0
   11.1116   -3.1262    0.0000 C   0  0
   10.0287   -2.0883    0.0000 C   0  0  2  0  0  0
    8.6152   -2.6272    0.0000 C   0  0
    8.3761   -4.1088    0.0000 C   0  0
    9.5371   -5.0586    0.0000 C   0  0
    9.2952   -6.5390    0.0000 C   0  0
    7.8922   -7.0696    0.0000 C   0  0
    6.7311   -6.1199    0.0000 C   0  0
    5.6087   -6.5444    0.0000 F   0  0
    6.9731   -4.6396    0.0000 C   0  0
    7.6986   -8.2539    0.0000 F   0  0
    9.1618   -0.8641    0.0000 N   0  0
    8.5423    0.5020    0.0000 C   0  0
    8.1925    1.9606    0.0000 C   0  0  1  0  0  0
    6.6950    1.7464    0.0000 C   0  0
    5.7673    2.9262    0.0000 C   0  0
    4.2821    2.7159    0.0000 C   0  0
    3.3573    3.8969    0.0000 C   0  0
    3.9178    5.2883    0.0000 C   0  0
    5.4029    5.4986    0.0000 C   0  0
    6.3277    4.3176    0.0000 C   0  0
    8.1250    3.4591    0.0000 N   0  0
    8.3424    4.9432    0.0000 C   0  0
    8.8367    6.3595    0.0000 C   0  0
    9.5901    7.6565    0.0000 C   0  0
    8.5351    5.8320    0.0000 C   0  0
    7.3712    5.1816    0.0000 O   0  0
    7.5964    0.1774    0.0000 O   0  0
   10.3673   -4.0675    0.0000 O   0  0
   20.1492   -5.0275    0.0000 O   0  0
   23.8654   -1.5027    0.0000 O   0  0
   25.0861    3.4716    0.0000 O   0  0
   24.1015    6.7348    0.0000 C   0  0
   19.4058   11.4930    0.0000 O   0  0
   17.5118   10.7410    0.0000 C   0  0
   17.7929   11.9076    0.0000 O   0  0
   18.9302   10.2532    0.0000 N   0  0
   20.2215    9.4899    0.0000 C   0  0  2  0  0  0
   21.3326    8.4822    0.0000 C   0  0
   22.2245    9.2850    0.0000 O   0  0
   22.2182    7.2715    0.0000 N   0  0
   22.8419    5.9074    0.0000 C   0  0  1  0  0  0
   24.3542    5.8777    0.0000 C   0  0
   25.1308    7.1620    0.0000 C   0  0
   26.6281    7.1350    0.0000 C   0  0
   27.3991    8.4367    0.0000 C   0  0
   26.6728    9.7458    0.0000 C   0  0
   27.4435   11.0292    0.0000 C   0  0
   26.7172   12.3382    0.0000 C   0  0
   25.2201   12.3639    0.0000 C   0  0
   24.4494   11.0805    0.0000 C   0  0
   25.1757    9.7714    0.0000 C   0  0
   24.4050    8.4880    0.0000 C   0  0
   23.1783    4.4456    0.0000 C   0  0
   23.2135    2.9460    0.0000 N   0  0
   22.9461    1.4700    0.0000 C   0  0  2  0  0  0
   22.3871    0.0780    0.0000 C   0  0
   21.5593   -1.1729    0.0000 N   0  0
   20.4967   -2.2316    0.0000 C   0  0  1  0  0  0
   20.9941   -3.6600    0.0000 C   0  0
   22.4757   -3.4210    0.0000 C   0  0
   23.4243   -4.5841    0.0000 C   0  0
   24.9060   -4.3451    0.0000 N   0  0
   25.8545   -5.5082    0.0000 C   0  0
   25.4280   -6.6298    0.0000 N   0  0
   27.0392   -5.3171    0.0000 N   0  0
   19.2427   -3.0547    0.0000 C   0  0
   19.7041   -3.9419    0.0000 O   0  0
   17.8487   -3.6085    0.0000 N   0  0
   16.3717   -3.8704    0.0000 C   0  0  2  0  0  0
   14.8723   -3.8296    0.0000 C   0  0
   13.4117   -3.4878    0.0000 N   0  0
   14.7185   -5.0197    0.0000 O   0  0
   16.9956   -5.2483    0.0000 C   0  0
   15.7572   -6.0961    0.0000 C   0  0
   15.8712   -7.5926    0.0000 C   0  0
   14.6328   -8.4404    0.0000 N   0  0
   14.7468   -9.9369    0.0000 C   0  0
   13.7566  -10.6147    0.0000 N   0  0
   15.8288  -10.4558    0.0000 N   0  0
   23.4497   -0.4795    0.0000 O   0  0
   24.4003    1.0540    0.0000 C   0  0
   24.7652   -0.4018    0.0000 C   0  0
   26.2082   -0.8146    0.0000 C   0  0
   26.5731   -2.2704    0.0000 N   0  0
   28.0160   -2.6832    0.0000 C   0  0
   28.8785   -1.8488    0.0000 N   0  0
   28.3078   -3.8471    0.0000 N   0  0
   24.3689    4.5949    0.0000 O   0  0
   21.4796   10.3294    0.0000 C   0  0
   21.3834   11.8271    0.0000 C   0  0
   22.6299   12.6616    0.0000 C   0  0
   22.5306   14.1583    0.0000 C   0  0
   21.1848   14.8207    0.0000 C   0  0
   19.9382   13.9863    0.0000 C   0  0
   20.0375   12.4896    0.0000 C   0  0
   11.1108   10.7229    0.0000 O   0  0
    7.5439    5.0223    0.0000 O   0  0
    8.0009   -0.6194    0.0000 C   0  0
    8.3009   -1.7813    0.0000 O   0  0
    6.5547   -0.2182    0.0000 N   0  0
    5.4834   -1.2694    0.0000 C   0  0  2  0  0  0
    5.8557   -2.7233    0.0000 C   0  0
    4.9982   -3.5629    0.0000 O   0  0
    7.0113   -3.0465    0.0000 O   0  0
    4.0372   -0.8682    0.0000 C   0  0
    2.9660   -1.9194    0.0000 C   0  0
    1.5198   -1.5182    0.0000 C   0  0
    0.4486   -2.5694    0.0000 C   0  0
   -0.7077   -2.2486    0.0000 N   0  0
   12.8615   -4.9356    0.0000 H   0  0
   19.1789   -4.7533    0.0000 H   0  0
   17.0187   10.8335    0.0000 H   0  0
  1  2  1  0
  2  3  1  0
  3  4  1  0
  4  5  1  0
  5  6  1  0
  5  7  2  0
  8  1  1  1
  9  8  1  0
  9 10  2  0
 11  9  1  0
 12 11  1  0
 12 13  1  0
 14 13  1  0
 15 14  1  0
 16 15  1  0
 16 17  2  0
 17 18  1  0
 18 19  1  0
 19 20  1  0
 21 20  1  0
 22 21  1  0
 23 22  1  0
 24 23  1  0
 25 24  1  0
 25 26  1  1
 27 25  1  0
 28 27  1  0
 28 29  2  0
 30 28  1  0
 31 30  1  0
 32 31  1  0
 33 32  1  0
 33 34  1  6
 34 35  1  0
 35 36  1  0
 36 37  1  0
 37 38  1  0
 38 39  2  0
 38 40  1  0
 41 33  1  0
 42 41  1  0
 43 42  1  0
 43 44  1  6
 44 45  1  0
 45 46  2  0
 46 47  1  0
 48 47  1  0
 48 49  1  0
 49 50  2  0
 50 45  1  0
 51 48  2  0
 52 51  1  0
 53 52  2  0
 54 53  1  0
 47 54  2  0
 43 55  1  0
 55 56  1  0
 57 56  1  0
 57 58  1  0
 58 59  1  0
 59 60  1  0
 60 61  1  0
 61 62  1  0
 57 62  1  0
 62 63  1  0
 63 64  2  0
 63 65  1  0
 65 66  1  0
 66 67  1  1
 66 68  1  0
 65 69  1  0
 69 70  1  0
 70 71  1  0
 71 72  1  6
 72 73  1  0
 73 74  2  0
 74 75  1  0
 75 76  2  0
 76 77  1  0
 77 78  1  0
 77 79  2  0
 79 73  1  0
 76 80  1  0
 71 81  1  0
 81 82  1  0
 83 82  1  0
 83 84  1  1
 84 85  1  0
 85 86  2  0
 86 87  1  0
 87 88  2  0
 88 89  1  0
 89 90  2  0
 90 85  1  0
 91 83  1  0
 91 92  1  0
 92 93  1  0
 94 93  1  0
 18 94  2  0
 93 95  2  0
 95 16  1  0
 92 96  2  0
 82 97  2  0
 70 98  2  0
 56 99  2  0
 42100  2  0
 32101  2  0
 30102  1  6
 24103  2  0
 22104  1  0
104105  2  0
104106  1  0
106107  1  0
107108  1  0
108109  2  0
108110  1  0
110111  1  0
111112  1  1
112113  1  0
114113  1  0
115114  2  0
116115  1  0
117116  2  0
118117  1  0
119118  2  0
120119  1  0
121120  2  0
116121  1  0
122121  1  0
113122  2  0
111123  1  0
123124  1  0
124125  1  0
125126  1  0
126127  1  0
127128  1  0
128129  1  1
129130  1  0
130131  1  0
131132  1  0
132133  1  0
133134  1  0
133135  2  0
128136  1  0
136137  2  0
136138  1  0
139138  1  0
140139  1  0
141140  1  0
  8141  1  0
140142  2  0
139143  1  1
143144  1  0
144145  1  0
145146  1  0
146147  1  0
147148  2  0
147149  1  0
126150  2  0
125151  1  1
151152  1  0
152153  1  0
153154  1  0
154155  1  0
155156  1  0
155157  2  0
123158  2  0
107159  1  1
159160  1  0
161160  1  0
162161  2  0
163162  1  0
164163  2  0
165164  1  0
160165  2  0
 19166  2  0
 15167  2  0
 12168  1  6
168169  2  0
168170  1  0
171170  1  6
171172  1  0
172173  2  0
172174  1  0
171175  1  0
175176  1  0
176177  1  0
177178  1  0
178179  1  0
 65180  1  6
 57181  1  6
 22182  1  1
M  END