
  SciTegic03291108532D

 22 24  0  0  0  0            999 V2000
    0.2513    2.0568    0.0000 O   0  0
   -0.4631    0.8193    0.0000 N   0  0
   -0.4631   -0.8307    0.0000 N   0  0
   -0.4631    1.6443    0.0000 C   0  0
   -1.1776    2.0568    0.0000 C   0  0
    0.2513    0.4068    0.0000 C   0  0
   -1.1776    0.4068    0.0000 C   0  0
    0.2513   -0.4182    0.0000 C   0  0
   -1.1776   -0.4182    0.0000 C   0  0
   -1.8921    1.6443    0.0000 C   0  0
   -1.1776    2.8818    0.0000 C   0  0
   -0.4631   -1.6557    0.0000 C   0  0
    0.2513   -2.0682    0.0000 C   0  0
    0.2513   -2.8932    0.0000 C   0  0
   -2.6065    2.0568    0.0000 C   0  0
   -1.8921    3.2943    0.0000 C   0  0
   -2.6065    2.8818    0.0000 C   0  0
    0.9658   -3.3057    0.0000 C   0  0
   -0.4631   -3.3057    0.0000 C   0  0
    0.9658   -4.1307    0.0000 C   0  0
   -0.4631   -4.1307    0.0000 C   0  0
    0.2513   -4.5432    0.0000 C   0  0
  1  4  2  0
  2  4  1  0
  2  6  1  0
  2  7  1  0
  3  8  1  0
  3  9  1  0
  3 12  1  0
  4  5  1  0
  5 10  2  0
  5 11  1  0
  6  8  1  0
  7  9  1  0
 10 15  1  0
 11 16  2  0
 12 13  1  0
 13 14  1  0
 14 18  2  0
 14 19  1  0
 15 17  2  0
 16 17  1  0
 18 20  1  0
 19 21  2  0
 20 22  2  0
 21 22  1  0
M  END