
          11280715082D 1   1.00000     0.00000     0

 50 54  0     0  0            999 V2000
    5.7167   -3.6292    0.0000 C   0  0  0  0  0  0           0  0  0
    6.2417   -3.3417    0.0000 C   0  0  0  0  0  0           0  0  0
    6.7542   -3.6292    0.0000 N   0  0  3  0  0  0           0  0  0
    5.2042   -3.3417    0.0000 N   0  0  0  0  0  0           0  0  0
    3.1417   -3.3542    0.0000 C   0  0  0  0  0  0           0  0  0
    2.6167   -3.6542    0.0000 C   0  0  3  0  0  0           0  0  0
    4.6917   -3.6417    0.0000 C   0  0  0  0  0  0           0  0  0
    2.1042   -3.3542    0.0000 C   0  0  0  0  0  0           0  0  0
    3.6542   -3.6417    0.0000 N   0  0  0  0  0  0           0  0  0
    5.7167   -4.2292    0.0000 C   0  0  0  0  0  0           0  0  0
    6.7542   -4.2292    0.0000 C   0  0  0  0  0  0           0  0  0
    4.1667   -3.3417    0.0000 C   0  0  3  0  0  0           0  0  0
    2.3667   -1.1667    0.0000 C   0  0  3  0  0  0           0  0  0
    6.2292   -4.5292    0.0000 C   0  0  0  0  0  0           0  0  0
    1.8417   -1.4667    0.0000 C   0  0  0  0  0  0           0  0  0
    1.5792   -3.6542    0.0000 C   0  0  0  0  0  0           0  0  0
    7.2667   -3.3292    0.0000 C   0  0  0  0  0  0           0  0  0
    2.8917   -1.4667    0.0000 C   0  0  0  0  0  0           0  0  0
    6.2292   -2.7417    0.0000 O   0  0  0  0  0  0           0  0  0
    3.0917   -2.8417    0.0000 O   0  0  0  0  0  0           0  0  0
    4.6792   -4.2417    0.0000 O   0  0  0  0  0  0           0  0  0
    4.1667   -2.7417    0.0000 C   0  0  0  0  0  0           0  0  0
    1.8292   -1.8667    0.0000 O   0  0  0  0  0  0           0  0  0
    2.7417   -2.0542    0.0000 C   0  0  0  0  0  0           0  0  0
    3.4792   -1.3167    0.0000 C   0  0  0  0  0  0           0  0  0
    1.0667   -3.3542    0.0000 C   0  0  0  0  0  0           0  0  0
    7.7917   -3.6292    0.0000 C   0  0  0  0  0  0           0  0  0
    3.7417   -2.3167    0.0000 C   0  0  0  0  0  0           0  0  0
    1.3292   -1.1667    0.0000 O   0  0  0  0  0  0           0  0  0
    8.8167   -4.2167    0.0000 C   0  0  0  0  0  0           0  0  0
    3.8917   -1.7417    0.0000 C   0  0  0  0  0  0           0  0  0
    3.1667   -2.4792    0.0000 C   0  0  0  0  0  0           0  0  0
    2.1042   -2.7417    0.0000 C   0  0  0  0  0  0           0  0  0
    2.6167   -4.2500    0.0000 C   0  0  0  0  0  0           0  0  0
    2.4667   -3.0750    0.0000 C   0  0  0  0  0  0           0  0  0
    7.7917   -4.2292    0.0000 C   0  0  0  0  0  0           0  0  0
    8.2917   -3.3292    0.0000 C   0  0  0  0  0  0           0  0  0
    8.8167   -3.6167    0.0000 C   0  0  0  0  0  0           0  0  0
    8.3042   -4.5167    0.0000 C   0  0  0  0  0  0           0  0  0
    2.3667   -0.5667    0.0000 C   0  0  0  0  0  0           0  0  0
    2.5250   -1.7500    0.0000 C   0  0  0  0  0  0           0  0  0
    9.3292   -4.5167    0.0000 O   0  0  0  0  0  0           0  0  0
    5.1917   -4.5292    0.0000 C   0  0  0  0  0  0           0  0  0
    1.5792   -4.2417    0.0000 C   0  0  0  0  0  0           0  0  0
    1.5792   -2.4417    0.0000 C   0  0  0  0  0  0           0  0  0
    1.0542   -2.7417    0.0000 C   0  0  0  0  0  0           0  0  0
    0.5417   -3.6542    0.0000 C   0  0  0  0  0  0           0  0  0
    9.3292   -5.1167    0.0000 C   0  0  0  0  0  0           0  0  0
    1.0667   -4.5417    0.0000 C   0  0  0  0  0  0           0  0  0
    0.5417   -4.2542    0.0000 C   0  0  0  0  0  0           0  0  0
  2  1  1  0     0  0
  3  2  1  0     0  0
  4  1  1  0     0  0
  5  9  1  0     0  0
  6  5  1  0     0  0
  7  4  1  0     0  0
  8  6  1  0     0  0
  9 12  1  0     0  0
 10  1  2  0     0  0
 11 14  2  0     0  0
 12  7  1  0     0  0
 13 18  1  0     0  0
 14 10  1  0     0  0
 15 13  1  0     0  0
 16  8  1  0     0  0
 17  3  1  0     0  0
 18 24  1  0     0  0
 19  2  2  0     0  0
 20  5  2  0     0  0
 21  7  2  0     0  0
 22 12  1  0     0  0
 23 15  2  0     0  0
 24 32  2  0     0  0
 25 31  1  0     0  0
 26 16  1  0     0  0
 27 17  1  0     0  0
 28 22  1  0     0  0
 29 15  1  0     0  0
 30 38  1  0     0  0
 31 28  2  0     0  0
 32 28  1  0     0  0
 33  8  2  0     0  0
 34  6  1  0     0  0
 35  6  1  0     0  0
 36 27  2  0     0  0
 37 27  1  0     0  0
 38 37  2  0     0  0
 39 36  1  0     0  0
 40 13  1  0     0  0
 41 13  1  0     0  0
 42 30  1  0     0  0
 43 10  1  0     0  0
 44 16  2  0     0  0
 45 33  1  0     0  0
 46 45  2  0     0  0
 47 26  2  0     0  0
 48 42  1  0     0  0
 49 44  1  0     0  0
 50 49  2  0     0  0
  3 11  1  0     0  0
 30 39  2  0     0  0
 18 25  2  0     0  0
 46 26  1  0     0  0
 50 47  1  0     0  0
M  END