
  Mrv0541 04051115152D          

 29 32  0  0  0  0            999 V2000
   -1.6948   -1.9387    0.0000 C   0  0  0  0  0  0  0  0  0  0  0  0
   -2.5198   -1.9387    0.0000 C   0  0  0  0  0  0  0  0  0  0  0  0
   -2.9323   -2.6532    0.0000 Cl  0  0  0  0  0  0  0  0  0  0  0  0
   -2.9323   -1.2242    0.0000 C   0  0  0  0  0  0  0  0  0  0  0  0
   -3.7573   -1.2242    0.0000 Cl  0  0  0  0  0  0  0  0  0  0  0  0
   -2.5198   -0.5098    0.0000 C   0  0  0  0  0  0  0  0  0  0  0  0
   -1.6948   -0.5098    0.0000 C   0  0  0  0  0  0  0  0  0  0  0  0
   -1.2823   -1.2242    0.0000 C   0  0  0  0  0  0  0  0  0  0  0  0
   -0.4573   -1.2242    0.0000 C   0  0  0  0  0  0  0  0  0  0  0  0
   -0.0448   -0.5098    0.0000 N   0  0  0  0  0  0  0  0  0  0  0  0
    0.7802   -0.5098    0.0000 C   0  0  0  0  0  0  0  0  0  0  0  0
    1.2652   -1.1772    0.0000 N   0  0  0  0  0  0  0  0  0  0  0  0
    2.0498   -0.9223    0.0000 C   0  0  0  0  0  0  0  0  0  0  0  0
    2.7642   -1.3348    0.0000 C   0  0  0  0  0  0  0  0  0  0  0  0
    2.7642   -2.1598    0.0000 N   0  0  0  0  0  0  0  0  0  0  0  0
    3.4787   -0.9223    0.0000 N   0  0  0  0  0  0  0  0  0  0  0  0
    3.4787   -0.0973    0.0000 C   0  0  0  0  0  0  0  0  0  0  0  0
    2.7642    0.3152    0.0000 N   0  0  0  0  0  0  0  0  0  0  0  0
    2.0498   -0.0973    0.0000 C   0  0  0  0  0  0  0  0  0  0  0  0
    1.2652    0.1577    0.0000 N   0  0  0  0  0  0  0  0  0  0  0  0
    1.0102    0.9423    0.0000 C   0  0  2  0  0  0  0  0  0  0  0  0
    0.2256    1.1972    0.0000 O   0  0  0  0  0  0  0  0  0  0  0  0
    0.2256    2.0222    0.0000 C   0  0  2  0  0  0  0  0  0  0  0  0
   -0.4418    2.5072    0.0000 C   0  0  0  0  0  0  0  0  0  0  0  0
   -1.1955    2.1716    0.0000 O   0  0  0  0  0  0  0  0  0  0  0  0
    1.0102    2.2772    0.0000 C   0  0  1  0  0  0  0  0  0  0  0  0
    1.2652    3.0618    0.0000 O   0  0  0  0  0  0  0  0  0  0  0  0
    1.4951    1.6097    0.0000 C   0  0  1  0  0  0  0  0  0  0  0  0
    2.3201    1.6097    0.0000 O   0  0  0  0  0  0  0  0  0  0  0  0
  1  2  2  0  0  0  0
  8  1  1  0  0  0  0
  2  3  1  0  0  0  0
  2  4  1  0  0  0  0
  4  5  1  0  0  0  0
  4  6  2  0  0  0  0
  6  7  1  0  0  0  0
  8  7  2  0  0  0  0
  9  8  1  0  0  0  0
  9 10  1  0  0  0  0
 11 10  1  0  0  0  0
 11 12  2  0  0  0  0
 11 20  1  0  0  0  0
 13 12  1  0  0  0  0
 14 13  2  0  0  0  0
 13 19  1  0  0  0  0
 14 15  1  0  0  0  0
 14 16  1  0  0  0  0
 17 16  2  0  0  0  0
 17 18  1  0  0  0  0
 19 18  2  0  0  0  0
 19 20  1  0  0  0  0
 21 20  1  6  0  0  0
 21 22  1  0  0  0  0
 21 28  1  0  0  0  0
 23 22  1  0  0  0  0
 23 24  1  6  0  0  0
 23 26  1  0  0  0  0
 24 25  1  0  0  0  0
 26 27  1  1  0  0  0
 26 28  1  0  0  0  0
 28 29  1  1  0  0  0
M  END