
  SciTegic02181312462D

 61 66  0  0  0  0            999 V2000
   26.3441  -10.1200    0.0000 O   0  0
   26.7568  -10.8298    0.0000 S   0  0
   27.1652  -10.1175    0.0000 O   0  0
   25.1348  -14.0780    0.0000 O   0  0
   25.3494  -13.2897    0.0000 S   0  0
   24.5594  -13.4980    0.0000 O   0  0
   23.2142   -8.7992    0.0000 C   0  0
   23.2131   -9.6188    0.0000 C   0  0
   23.9211  -10.0277    0.0000 C   0  0
   23.9194   -8.3904    0.0000 C   0  0
   24.6280   -8.7956    0.0000 C   0  0
   24.6314   -9.6208    0.0000 C   0  0
   25.3437  -10.0282    0.0000 C   0  0
   25.3370   -8.3778    0.0000 O   0  0
   26.0539   -8.7898    0.0000 C   0  0
   26.0550   -9.6166    0.0000 C   0  0
   26.7676  -10.0268    0.0000 C   0  0
   27.4838   -9.6148    0.0000 C   0  0
   27.4827   -8.7879    0.0000 C   0  0
   26.7655   -8.3731    0.0000 C   0  0
   22.5064   -8.3908    0.0000 N   0  0
   22.5062   -7.5736    0.0000 C   0  0
   21.7988   -8.7996    0.0000 C   0  0
   21.0910   -8.3911    0.0000 C   0  0
   21.7984   -7.1652    0.0000 C   0  0
   28.1903   -8.3791    0.0000 N   0  3
   28.8981   -8.7876    0.0000 C   0  0
   28.1901   -7.5620    0.0000 C   0  0
   28.8977   -7.1532    0.0000 C   0  0
   29.6057   -8.3788    0.0000 C   0  0
   25.3458  -10.8454    0.0000 C   0  0
   24.6393  -11.2519    0.0000 C   0  0
   24.6411  -12.0684    0.0000 C   0  0
   25.3504  -12.4760    0.0000 C   0  0
   26.0594  -12.0611    0.0000 C   0  0
   26.0541  -11.2461    0.0000 C   0  0
   27.4695  -11.2353    0.0000 O   0  5
   26.0552  -13.6983    0.0000 N   0  0
   26.0542  -14.5155    0.0000 C   0  0
   25.3460  -14.9232    0.0000 C   0  0
   24.6388  -14.5138    0.0000 C   0  0
   23.9306  -14.9215    0.0000 C   0  0
   23.2234  -14.5121    0.0000 C   0  0
   22.5152  -14.9198    0.0000 C   0  0
   21.8126  -14.5093    0.0000 C   0  0
   21.1065  -14.9136    0.0000 C   0  0
   21.1013  -15.7311    0.0000 N   0  0
   21.8083  -16.1427    0.0000 C   0  0
   22.5206  -15.7368    0.0000 C   0  0
   20.3916  -16.1362    0.0000 C   0  0
   19.6859  -15.7241    0.0000 C   0  0
   18.9762  -16.1291    0.0000 C   0  0
   18.2705  -15.7170    0.0000 C   0  0
   17.5608  -16.1221    0.0000 C   0  0
   18.2746  -14.8999    0.0000 O   0  0
   16.8562  -15.7082    0.0000 C   0  0
   16.1470  -16.1125    0.0000 C   0  0
   16.1425  -16.9306    0.0000 C   0  0
   16.8531  -17.3426    0.0000 C   0  0
   17.5595  -16.9358    0.0000 C   0  0
   16.8616  -14.8910    0.0000 C   0  0
  2  1  2  0
  3  2  2  0
  5  4  2  0
  6  5  2  0
  7  8  2  0
  8  9  1  0
  9 12  2  0
 11 10  2  0
 10  7  1  0
 11 12  1  0
 11 14  1  0
 12 13  1  0
 13 16  2  0
 15 14  1  0
 15 16  1  0
 15 20  2  0
 16 17  1  0
 17 18  2  0
 18 19  1  0
 19 20  1  0
  7 21  1  0
 21 22  1  0
 21 23  1  0
 23 24  1  0
 22 25  1  0
 19 26  2  0
 26 27  1  0
 26 28  1  0
 28 29  1  0
 27 30  1  0
 13 31  1  0
 31 32  2  0
 32 33  1  0
 33 34  2  0
 34 35  1  0
 35 36  2  0
 36 31  1  0
 34  5  1  0
 36  2  1  0
  2 37  1  0
  5 38  1  0
 38 39  1  0
 39 40  1  0
 40 41  1  0
 41 42  1  0
 42 43  1  0
 43 44  1  0
 44 45  1  0
 44 49  1  0
 45 46  1  0
 46 47  1  0
 47 48  1  0
 48 49  1  0
 47 50  1  0
 50 51  1  0
 51 52  1  0
 52 53  1  0
 53 54  1  0
 53 55  2  0
 54 56  2  0
 56 57  1  0
 57 58  2  0
 58 59  1  0
 59 60  2  0
 60 54  1  0
 56 61  1  0
M  CHG  2  26   1  37  -1
M  END