
          05080814042D 1   1.00000     0.00000     0

 42 47  0     1  0            999 V2000
    8.9364  -22.9498    0.0000 C   0  0  0  0  0  0           0  0  0
    8.9353  -23.7757    0.0000 C   0  0  0  0  0  0           0  0  0
    9.6488  -24.1878    0.0000 C   0  0  0  0  0  0           0  0  0
    9.6470  -22.5378    0.0000 C   0  0  0  0  0  0           0  0  0
   10.3611  -22.9462    0.0000 C   0  0  0  0  0  0           0  0  0
   10.3645  -23.7778    0.0000 C   0  0  0  0  0  0           0  0  0
   11.0824  -24.1883    0.0000 C   0  0  0  0  0  0           0  0  0
   11.0755  -22.5252    0.0000 C   0  0  0  0  0  0           0  0  0
   11.7980  -22.9403    0.0000 C   0  0  2  0  0  0           0  0  0
   11.7991  -23.7735    0.0000 C   0  0  2  0  0  0           0  0  0
   12.5173  -24.1869    0.0000 N   0  0  3  0  0  0           0  0  0
   13.2389  -23.7717    0.0000 C   0  0  0  0  0  0           0  0  0
   13.2379  -22.9384    0.0000 C   0  0  1  0  0  0           0  0  0
   12.5151  -22.5205    0.0000 C   0  0  0  0  0  0           0  0  0
   12.5172  -25.0104    0.0000 C   0  0  0  0  0  0           0  0  0
   13.9509  -22.5264    0.0000 C   0  0  0  0  0  0           0  0  0
   14.6642  -22.9381    0.0000 N   0  0  3  0  0  0           0  0  0
   13.9507  -21.7029    0.0000 O   0  0  0  0  0  0           0  0  0
   14.6587  -23.7663    0.0000 C   0  0  0  0  0  0           0  0  0
   15.3679  -24.1777    0.0000 C   0  0  0  0  0  0           0  0  0
   16.0834  -23.7694    0.0000 N   0  0  3  0  0  0           0  0  0
   16.0851  -22.9449    0.0000 C   0  0  0  0  0  0           0  0  0
   15.3714  -22.5288    0.0000 C   0  0  0  0  0  0           0  0  0
   11.7910  -24.5969    0.0000 H   0  0  0  0  0  0           0  0  0
   11.7910  -22.1139    0.0000 H   0  0  0  0  0  0           0  0  0
   16.7951  -24.1836    0.0000 C   0  0  0  0  0  0           0  0  0
   16.7887  -25.0055    0.0000 C   0  0  0  0  0  0           0  0  0
   17.4996  -25.4197    0.0000 C   0  0  0  0  0  0           0  0  0
   17.5040  -23.7722    0.0000 N   0  0  0  0  0  0           0  0  0
    9.6443  -21.7138    0.0000 O   0  0  0  0  0  0           0  0  0
    8.9299  -21.3042    0.0000 S   0  0  3  0  0  0           0  0  0
   19.0006  -23.9312    0.0000 N   0  0  0  0  0  0           0  0  0
   18.2155  -24.1826    0.0000 C   0  0  0  0  0  0           0  0  0
   18.2131  -25.0076    0.0000 C   0  0  0  0  0  0           0  0  0
   18.9977  -25.2636    0.0000 N   0  0  0  0  0  0           0  0  0
   19.4823  -24.5958    0.0000 S   0  0  0  0  0  0           0  0  0
    8.2142  -20.8911    0.0000 C   0  0  3  0  0  0           0  0  0
    8.5194  -22.0180    0.0000 O   0  0  0  0  0  0           0  0  0
    9.3431  -20.5918    0.0000 O   0  0  0  0  0  0           0  0  0
    7.4988  -20.4794    0.0000 F   0  0  0  0  0  0           0  0  0
    8.6254  -20.1776    0.0000 F   0  0  0  0  0  0           0  0  0
    7.8021  -21.6040    0.0000 F   0  0  0  0  0  0           0  0  0
  5  4  2  0     0  0
  4  1  1  0     0  0
  5  6  1  0     0  0
 17 23  1  0     0  0
 19 20  1  0     0  0
 20 21  1  0     0  0
 21 22  1  0     0  0
 22 23  1  0     0  0
 10 24  1  1     0  0
  2  3  1  0     0  0
  9 25  1  6     0  0
  3  6  2  0     0  0
 21 26  1  0     0  0
  9 14  1  0     0  0
 26 27  1  0     0  0
 10 11  1  0     0  0
 27 28  2  0     0  0
 28 34  1  0     0  0
 11 12  1  0     0  0
 33 29  1  0     0  0
 29 26  2  0     0  0
 12 13  1  0     0  0
 13 14  1  0     0  0
 30 31  1  0     0  0
  4 30  1  0     0  0
 33 34  1  0     0  0
  1  2  2  0     0  0
 11 15  1  0     0  0
  5  8  1  0     0  0
 13 16  1  1     0  0
  6  7  1  0     0  0
 32 33  2  0     0  0
 34 35  2  0     0  0
 35 36  1  0     0  0
 36 32  1  0     0  0
 16 17  1  0     0  0
 31 37  1  0     0  0
  7 10  1  0     0  0
 31 38  2  0     0  0
 16 18  2  0     0  0
 31 39  2  0     0  0
 17 19  1  0     0  0
 37 40  1  0     0  0
  9  8  1  0     0  0
 37 41  1  0     0  0
  9 10  1  0     0  0
 37 42  1  0     0  0
M  END