
  Mrv0541 05211314572D          

 15 16  0  0  0  0            999 V2000
    0.6193    1.6921    0.0000 N   0  0  0  0  0  0  0  0  0  0  0  0
    1.4039    0.6122    0.0000 C   0  0  0  0  0  0  0  0  0  0  0  0
    0.6193    0.3572    0.0000 C   0  0  0  0  0  0  0  0  0  0  0  0
    0.1344    1.0247    0.0000 C   0  0  0  0  0  0  0  0  0  0  0  0
    1.4039    1.4372    0.0000 C   0  0  0  0  0  0  0  0  0  0  0  0
    0.6615   -1.8251    0.0000 N   0  0  0  0  0  0  0  0  0  0  0  0
    2.1184    0.1997    0.0000 C   0  0  0  0  0  0  0  0  0  0  0  0
    0.3644   -0.4274    0.0000 C   0  0  0  0  0  0  0  0  0  0  0  0
    2.1184    1.8497    0.0000 C   0  0  0  0  0  0  0  0  0  0  0  0
    0.9164   -1.0405    0.0000 C   0  0  0  0  0  0  0  0  0  0  0  0
    2.8329    0.6122    0.0000 C   0  0  0  0  0  0  0  0  0  0  0  0
    2.8329    1.4372    0.0000 C   0  0  0  0  0  0  0  0  0  0  0  0
    3.5473    0.1997    0.0000 O   0  0  0  0  0  0  0  0  0  0  0  0
    1.2135   -2.4382    0.0000 C   0  0  0  0  0  0  0  0  0  0  0  0
   -0.1455   -1.9966    0.0000 C   0  0  0  0  0  0  0  0  0  0  0  0
  2  5  1  0  0  0  0
  3  4  2  0  0  0  0
  4  1  1  0  0  0  0
  5  1  1  0  0  0  0
  6 10  1  0  0  0  0
  7  2  2  0  0  0  0
  8  3  1  0  0  0  0
  9  5  2  0  0  0  0
 10  8  1  0  0  0  0
 11 12  2  0  0  0  0
 12  9  1  0  0  0  0
 13 11  1  0  0  0  0
 14  6  1  0  0  0  0
 15  6  1  0  0  0  0
  3  2  1  0  0  0  0
  7 11  1  0  0  0  0
M  END