
          02060813482D 1   1.00000     0.00000     0

 17 19  0     0  0            999 V2000
   12.7611   -4.8875    0.0000 C   0  0  0  0  0  0           0  0  0
   12.7599   -5.7148    0.0000 C   0  0  0  0  0  0           0  0  0
   13.4747   -6.1277    0.0000 C   0  0  0  0  0  0           0  0  0
   14.1912   -5.7144    0.0000 C   0  0  0  0  0  0           0  0  0
   14.1883   -4.8838    0.0000 C   0  0  0  0  0  0           0  0  0
   13.4729   -4.4747    0.0000 C   0  0  0  0  0  0           0  0  0
   12.0451   -6.1268    0.0000 C   0  0  0  0  0  0           0  0  0
   11.3326   -5.7123    0.0000 C   0  0  0  0  0  0           0  0  0
   11.3364   -7.3623    0.0000 N   0  0  0  0  0  0           0  0  0
   12.0477   -6.9487    0.0000 C   0  0  0  0  0  0           0  0  0
   10.6172   -6.9494    0.0000 C   0  0  0  0  0  0           0  0  0
   10.6183   -6.1238    0.0000 C   0  0  0  0  0  0           0  0  0
    9.9051   -5.7119    0.0000 C   0  0  0  0  0  0           0  0  0
    9.1902   -6.1243    0.0000 C   0  0  0  0  0  0           0  0  0
    9.1931   -6.9530    0.0000 C   0  0  0  0  0  0           0  0  0
    9.9069   -7.3612    0.0000 C   0  0  0  0  0  0           0  0  0
   13.4705   -3.6497    0.0000 Br  0  0  0  0  0  0           0  0  0
  8 12  1  0     0  0
 11  9  1  0     0  0
  4  5  1  0     0  0
  9 10  2  0     0  0
 10  7  1  0     0  0
  2  3  1  0     0  0
  5  6  2  0     0  0
 11 12  1  0     0  0
  6  1  1  0     0  0
 12 13  2  0     0  0
  1  2  2  0     0  0
 13 14  1  0     0  0
  2  7  1  0     0  0
 14 15  2  0     0  0
  3  4  2  0     0  0
 15 16  1  0     0  0
 16 11  2  0     0  0
  7  8  2  0     0  0
  6 17  1  0     0  0
M  END