
  SciTegic12231509382D

 14 14  0  0  0  0            999 V2000
    7.1249   -4.7458    0.0000 C   0  0
    7.9499   -4.7458    0.0000 C   0  0
    8.2067   -3.9617    0.0000 C   0  0
    7.5374   -3.4750    0.0000 O   0  0
    6.8724   -3.9617    0.0000 N   0  0
    6.6391   -5.4126    0.0000 O   0  0
    5.8187   -5.3253    0.0000 C   0  0
    5.3329   -5.9922    0.0000 C   0  0
    4.8474   -6.6596    0.0000 C   0  0
    4.3621   -7.3267    0.0000 C   0  0
    3.5417   -7.2400    0.0000 N   0  3
    3.0564   -7.9071    0.0000 C   0  0
    3.2066   -6.4860    0.0000 C   0  0
    2.7167   -7.2374    0.0000 C   0  0
  1  2  1  0
  2  3  1  0
  3  4  1  0
  4  5  1  0
  5  1  2  0
  1  6  1  0
  6  7  1  0
  7  8  1  0
  8  9  3  0
  9 10  1  0
 10 11  1  0
 11 12  1  0
 11 13  1  0
 11 14  1  0
M  CHG  1  11   1
M  END