
          11280715512D 1   1.00000     0.00000     0

 41 45  0     0  0            999 V2000
   -2.1137   -2.5245    0.0000 C   0  0  0  0  0  0           0  0  0
   -2.1148   -3.3518    0.0000 C   0  0  0  0  0  0           0  0  0
   -1.4000   -3.7646    0.0000 C   0  0  0  0  0  0           0  0  0
   -1.4018   -2.1117    0.0000 C   0  0  0  0  0  0           0  0  0
   -0.6817   -3.3489    0.0000 C   0  0  0  0  0  0           0  0  0
   -0.6865   -2.5209    0.0000 C   0  0  0  0  0  0           0  0  0
   -0.0394   -1.9950    0.0000 N   0  0  3  0  0  0           0  0  0
   -0.0255   -3.8633    0.0000 C   0  0  0  0  0  0           0  0  0
    0.7726   -2.1692    0.0000 C   0  0  0  0  0  0           0  0  0
    0.7851   -3.6703    0.0000 N   0  0  0  0  0  0           0  0  0
    1.1374   -2.9156    0.0000 N   0  0  3  0  0  0           0  0  0
    1.2809   -1.5194    0.0000 O   0  0  0  0  0  0           0  0  0
   -0.2019   -4.6692    0.0000 C   0  0  3  0  0  0           0  0  0
    1.9623   -2.9083    0.0000 C   0  0  0  0  0  0           0  0  0
    2.3812   -3.6189    0.0000 C   0  0  0  0  0  0           0  0  0
    3.2061   -3.6116    0.0000 N   0  0  0  0  0  0           0  0  0
    1.9750   -4.3371    0.0000 O   0  0  0  0  0  0           0  0  0
   -0.2319   -1.1928    0.0000 C   0  0  0  0  0  0           0  0  0
    0.3664   -0.6250    0.0000 C   0  0  0  0  0  0           0  0  0
    0.1740    0.1772    0.0000 C   0  0  3  0  0  0           0  0  0
    1.1574   -0.8594    0.0000 O   0  0  0  0  0  0           0  0  0
   -0.0457    0.9794    0.0000 C   0  0  0  0  0  0           0  0  0
    0.9730    0.3824    0.0000 C   0  0  0  0  0  0           0  0  0
   -0.6233   -0.0348    0.0000 C   0  0  0  0  0  0           0  0  0
    3.6249   -4.3224    0.0000 C   0  0  0  0  0  0           0  0  0
    3.2169   -5.0381    0.0000 C   0  0  0  0  0  0           0  0  0
    3.6350   -5.7484    0.0000 C   0  0  0  0  0  0           0  0  0
    4.4609   -5.7415    0.0000 C   0  0  0  0  0  0           0  0  0
    4.8668   -5.0183    0.0000 C   0  0  0  0  0  0           0  0  0
    4.4462   -4.3111    0.0000 C   0  0  0  0  0  0           0  0  0
    5.6916   -5.0081    0.0000 N   0  0  3  0  0  0           0  0  0
   -0.9856   -4.9188    0.0000 C   0  0  0  0  0  0           0  0  0
   -1.1633   -5.7208    0.0000 C   0  0  0  0  0  0           0  0  0
   -0.5562   -6.2799    0.0000 C   0  0  0  0  0  0           0  0  0
    0.2315   -6.0314    0.0000 C   0  0  0  0  0  0           0  0  0
    0.4120   -5.2237    0.0000 C   0  0  0  0  0  0           0  0  0
    6.1056   -5.7177    0.0000 C   0  0  0  0  0  0           0  0  0
    6.9268   -5.7095    0.0000 C   0  0  0  0  0  0           0  0  0
    7.3343   -4.9919    0.0000 O   0  0  0  0  0  0           0  0  0
    6.9142   -4.2809    0.0000 C   0  0  0  0  0  0           0  0  0
    6.0868   -4.2875    0.0000 C   0  0  0  0  0  0           0  0  0
  9 11  1  0     0  0
 20 23  1  0     0  0
 10 11  1  0     0  0
 20 24  1  0     0  0
  2  3  1  0     0  0
 16 25  1  0     0  0
  9 12  2  0     0  0
 25 26  2  0     0  0
  5  6  1  0     0  0
 26 27  1  0     0  0
  8 13  1  0     0  0
 27 28  2  0     0  0
  3  5  2  0     0  0
 28 29  1  0     0  0
 11 14  1  0     0  0
 29 30  2  0     0  0
 30 25  1  0     0  0
  6  7  1  0     0  0
 29 31  1  0     0  0
 13 32  1  0     0  0
 14 15  1  0     0  0
  1  2  2  0     0  0
 15 16  1  0     0  0
  5  8  1  0     0  0
 15 17  2  0     0  0
 13 36  1  0     0  0
 32 33  1  0     0  0
 33 34  1  0     0  0
 34 35  1  0     0  0
 35 36  1  0     0  0
  6  4  2  0     0  0
  7 18  1  0     0  0
  7  9  1  0     0  0
 18 19  1  0     0  0
  4  1  1  0     0  0
 31 37  1  0     0  0
 19 20  1  0     0  0
  8 10  2  0     0  0
 19 21  2  0     0  0
 20 22  1  0     0  0
 31 41  1  0     0  0
 37 38  1  0     0  0
 38 39  1  0     0  0
 39 40  1  0     0  0
 40 41  1  0     0  0
M  END