
          08180812472D 1   1.00000     0.00000     0

 26 29  0     1  0            999 V2000
   11.2892    0.0733    0.0000 C   0  0  0  0  0  0           0  0  0
   11.2892    0.8986    0.0000 C   0  0  0  0  0  0           0  0  0
   12.0036    1.3112    0.0000 C   0  0  1  0  0  0           0  0  0
   10.5748   -0.3394    0.0000 O   0  0  0  0  0  0           0  0  0
   12.0036   -0.3394    0.0000 C   0  0  0  0  0  0           0  0  0
   12.7179    0.0733    0.0000 C   0  0  2  0  0  0           0  0  0
   13.4323   -0.3394    0.0000 C   0  0  0  0  0  0           0  0  0
   14.1467    0.0733    0.0000 C   0  0  0  0  0  0           0  0  0
   14.1467    0.8986    0.0000 C   0  0  1  0  0  0           0  0  0
   14.8611    1.3112    0.0000 C   0  0  2  0  0  0           0  0  0
   15.6466    1.0512    0.0000 C   0  0  0  0  0  0           0  0  0
   16.1341    1.7239    0.0000 C   0  0  0  0  0  0           0  0  0
   15.6466    2.3874    0.0000 C   0  0  2  0  0  0           0  0  0
   15.9020    3.1729    0.0000 O   0  0  0  0  0  0           0  0  0
   14.8611    2.1365    0.0000 C   0  0  2  0  0  0           0  0  0
   14.8611    2.9619    0.0000 C   0  0  0  0  0  0           0  0  0
   14.1467    2.5492    0.0000 C   0  0  0  0  0  0           0  0  0
   13.4323    2.1365    0.0000 C   0  0  0  0  0  0           0  0  0
   13.4323    1.3112    0.0000 C   0  0  2  0  0  0           0  0  0
   12.7179    0.8986    0.0000 C   0  0  1  0  0  0           0  0  0
   12.7179    1.7239    0.0000 C   0  0  0  0  0  0           0  0  0
   12.7179   -0.7520    0.0000 H   0  0  0  0  0  0           0  0  0
   13.4323    0.4859    0.0000 H   0  0  0  0  0  0           0  0  0
   14.1467    1.7239    0.0000 H   0  0  0  0  0  0           0  0  0
   14.8611    0.4859    0.0000 H   0  0  0  0  0  0           0  0  0
   12.0036    2.1365    0.0000 C   0  0  0  0  0  0           0  0  0
  1  2  1  0     0  0
  2  3  1  0     0  0
  1  4  2  0     0  0
  1  5  1  0     0  0
  5  6  1  0     0  0
  6  7  1  0     0  0
  7  8  1  0     0  0
  8  9  1  0     0  0
  9 10  1  0     0  0
 10 11  1  0     0  0
 11 12  1  0     0  0
 12 13  1  0     0  0
 13 14  1  1     0  0
 13 15  1  0     0  0
 10 15  1  0     0  0
 15 16  1  1     0  0
 15 17  1  0     0  0
 17 18  1  0     0  0
 18 19  1  0     0  0
  9 19  1  0     0  0
 19 20  1  0     0  0
  3 20  1  0     0  0
  6 20  1  0     0  0
 20 21  1  1     0  0
  6 22  1  6     0  0
 19 23  1  6     0  0
  9 24  1  1     0  0
 10 25  1  6     0  0
  3 26  1  6     0  0
M  END