
  Mrv0541 04051115152D          

 28 31  0  0  0  0            999 V2000
   -0.6178   -2.7941    0.0000 C   0  0  0  0  0  0  0  0  0  0  0  0
   -0.0658   -3.4072    0.0000 C   0  0  0  0  0  0  0  0  0  0  0  0
    0.7412   -3.2357    0.0000 C   0  0  0  0  0  0  0  0  0  0  0  0
    1.2932   -3.8488    0.0000 Cl  0  0  0  0  0  0  0  0  0  0  0  0
    0.9961   -2.4511    0.0000 C   0  0  0  0  0  0  0  0  0  0  0  0
    0.4441   -1.8380    0.0000 C   0  0  0  0  0  0  0  0  0  0  0  0
   -0.3629   -2.0095    0.0000 C   0  0  0  0  0  0  0  0  0  0  0  0
   -0.9149   -1.3964    0.0000 C   0  0  0  0  0  0  0  0  0  0  0  0
   -0.6600   -0.6118    0.0000 N   0  0  0  0  0  0  0  0  0  0  0  0
   -1.1449    0.0557    0.0000 C   0  0  0  0  0  0  0  0  0  0  0  0
   -1.9699    0.0557    0.0000 C   0  0  0  0  0  0  0  0  0  0  0  0
   -2.3824   -0.6588    0.0000 O   0  0  0  0  0  0  0  0  0  0  0  0
   -2.3824    0.7701    0.0000 O   0  0  0  0  0  0  0  0  0  0  0  0
    0.1247   -0.3568    0.0000 C   0  0  0  0  0  0  0  0  0  0  0  0
    0.8391   -0.7693    0.0000 C   0  0  0  0  0  0  0  0  0  0  0  0
    1.5536   -0.3568    0.0000 C   0  0  0  0  0  0  0  0  0  0  0  0
    1.5536    0.4682    0.0000 C   0  0  0  0  0  0  0  0  0  0  0  0
    2.2681    0.8807    0.0000 Cl  0  0  0  0  0  0  0  0  0  0  0  0
    0.8391    0.8807    0.0000 C   0  0  0  0  0  0  0  0  0  0  0  0
    0.1247    0.4682    0.0000 C   0  0  0  0  0  0  0  0  0  0  0  0
   -0.6600    0.7231    0.0000 C   0  0  0  0  0  0  0  0  0  0  0  0
   -0.9149    1.5077    0.0000 S   0  0  0  0  0  0  0  0  0  0  0  0
   -0.3629    2.1208    0.0000 C   0  0  0  0  0  0  0  0  0  0  0  0
   -0.6178    2.9054    0.0000 C   0  0  0  0  0  0  0  0  0  0  0  0
   -0.0658    3.5185    0.0000 C   0  0  0  0  0  0  0  0  0  0  0  0
    0.7412    3.3470    0.0000 C   0  0  0  0  0  0  0  0  0  0  0  0
    0.9961    2.5624    0.0000 C   0  0  0  0  0  0  0  0  0  0  0  0
    0.4441    1.9493    0.0000 C   0  0  0  0  0  0  0  0  0  0  0  0
  2  1  1  0  0  0  0
  1  7  2  0  0  0  0
  2  3  2  0  0  0  0
  3  4  1  0  0  0  0
  5  3  1  0  0  0  0
  5  6  2  0  0  0  0
  6  7  1  0  0  0  0
  8  7  1  0  0  0  0
  8  9  1  0  0  0  0
 14  9  1  0  0  0  0
 10  9  1  0  0  0  0
 11 10  1  0  0  0  0
 21 10  2  0  0  0  0
 11 13  2  0  0  0  0
 11 12  1  0  0  0  0
 15 14  1  0  0  0  0
 20 14  2  0  0  0  0
 16 15  2  0  0  0  0
 16 17  1  0  0  0  0
 17 18  1  0  0  0  0
 19 17  2  0  0  0  0
 19 20  1  0  0  0  0
 21 20  1  0  0  0  0
 21 22  1  0  0  0  0
 23 22  1  0  0  0  0
 28 23  2  0  0  0  0
 24 23  1  0  0  0  0
 25 24  2  0  0  0  0
 26 25  1  0  0  0  0
 26 27  2  0  0  0  0
 27 28  1  0  0  0  0
M  END