
          11280714522D 1   1.00000     0.00000     0

 24 26  0     1  0            999 V2000
    6.9250   -7.7000    0.0000 S   0  0  3  0  0  0           0  0  0
    5.8542   -5.0750    0.0000 C   0  0  1  0  0  0           0  0  0
    5.8417   -5.9000    0.0000 C   0  0  0  0  0  0           0  0  0
    6.5750   -4.6667    0.0000 N   0  0  3  0  0  0           0  0  0
    7.1417   -6.9042    0.0000 N   0  0  3  0  0  0           0  0  0
    6.5542   -6.3167    0.0000 C   0  0  1  0  0  0           0  0  0
    5.1292   -4.6667    0.0000 C   0  0  0  0  0  0           0  0  0
    6.1250   -7.4792    0.0000 O   0  0  0  0  0  0           0  0  0
    7.7167   -7.9125    0.0000 O   0  0  0  0  0  0           0  0  0
    7.2792   -5.9125    0.0000 C   0  0  0  0  0  0           0  0  0
    7.2875   -5.0792    0.0000 C   0  0  0  0  0  0           0  0  0
    5.1375   -3.8292    0.0000 C   0  0  0  0  0  0           0  0  0
    6.5750   -3.8292    0.0000 C   0  0  0  0  0  0           0  0  0
    5.8542   -3.4125    0.0000 C   0  0  0  0  0  0           0  0  0
    6.7250   -8.5000    0.0000 C   0  0  0  0  0  0           0  0  0
    7.9375   -6.6875    0.0000 C   0  0  0  0  0  0           0  0  0
    4.4167   -5.0750    0.0000 C   0  0  0  0  0  0           0  0  0
    4.4167   -3.4167    0.0000 C   0  0  0  0  0  0           0  0  0
    5.9292   -8.7250    0.0000 C   0  0  0  0  0  0           0  0  0
    3.7042   -4.6625    0.0000 C   0  0  0  0  0  0           0  0  0
    5.7292   -9.5250    0.0000 C   0  0  0  0  0  0           0  0  0
    3.7042   -3.8375    0.0000 C   0  0  0  0  0  0           0  0  0
    5.1375   -5.4792    0.0000 H   0  0  0  0  0  0           0  0  0
    5.8417   -6.7292    0.0000 H   0  0  0  0  0  0           0  0  0
  2  3  1  0     0  0
  3  6  1  0     0  0
  4 11  1  0     0  0
  5  1  1  0     0  0
  6  5  1  0     0  0
  7  2  1  0     0  0
  8  1  2  0     0  0
  9  1  2  0     0  0
 10  6  1  0     0  0
 11 10  1  0     0  0
 12  7  1  0     0  0
 13  4  1  0     0  0
 14 13  1  0     0  0
 15  1  1  0     0  0
 16  5  1  0     0  0
 17  7  2  0     0  0
 18 12  2  0     0  0
 19 15  1  0     0  0
 20 17  1  0     0  0
 21 19  1  0     0  0
 22 20  2  0     0  0
  2 23  1  1     0  0
  6 24  1  1     0  0
  2  4  1  0     0  0
 14 12  1  0     0  0
 22 18  1  0     0  0
M  END