
  SciTegic06271217572D

 23 24  0  0  0  0            999 V2000
    2.1888  -20.6742    0.0000 S   0  0
    1.7627  -21.3806    0.0000 O   0  0
    2.5876  -21.3964    0.0000 O   0  0
    1.4824  -20.2481    0.0000 N   0  0
    2.9069  -19.4333    0.0000 C   0  0
    2.9057  -20.2607    0.0000 C   0  0
    3.6206  -20.6735    0.0000 C   0  0
    4.3370  -20.2602    0.0000 C   0  0
    4.3341  -19.4297    0.0000 C   0  0
    3.6188  -19.0205    0.0000 C   0  0
    5.0471  -19.0145    0.0000 C   0  0
    5.7631  -19.4243    0.0000 C   0  0
    5.0439  -18.1895    0.0000 O   0  0
    6.4760  -19.0091    0.0000 S   0  0
    7.1920  -19.4189    0.0000 C   0  0
    7.1920  -20.2428    0.0000 N   0  0
    7.9072  -20.6525    0.0000 C   0  0
    8.6211  -20.2372    0.0000 C   0  0
    8.6153  -19.4080    0.0000 C   0  0
    7.8995  -19.0020    0.0000 N   0  0
    9.3376  -20.6461    0.0000 C   0  0
    9.3418  -21.4711    0.0000 C   0  0
   10.0584  -21.8799    0.0000 C   0  0
 11 12  1  0
  6  7  1  0
 11 13  2  0
  1  4  1  0
 12 14  1  0
  7  8  2  0
 14 15  1  0
  2  1  2  0
 15 16  2  0
  8  9  1  0
 16 17  1  0
  1  3  2  0
 17 18  2  0
  9 10  2  0
 18 19  1  0
 10  5  1  0
 19 20  2  0
 20 15  1  0
  6  1  1  0
 18 21  1  0
  5  6  2  0
 21 22  1  0
  9 11  1  0
 22 23  1  0
M  END