
  SciTegic05171617282D

 36 40  0  0  1  0            999 V2000
   -5.1642    0.8901    0.0000 C   0  0
   -6.2087    1.4810    0.0000 O   0  0
   -7.5023    0.7200    0.0000 C   0  0
   -7.4870   -0.7799    0.0000 C   0  0
   -8.7783   -1.5431    0.0000 C   0  0
  -10.0849   -0.8065    0.0000 C   0  0
  -10.1002    0.6935    0.0000 C   0  0
  -11.1455    1.2828    0.0000 F   0  0
   -8.8089    1.4568    0.0000 C   0  0
   -8.8212    2.9576    0.0000 C   0  0
   -7.5281    3.7194    0.0000 N   0  0
   -6.2240    2.9782    0.0000 C   0  0
   -4.9300    3.7369    0.0000 C   0  0  2  0  0  0
   -4.9402    5.2369    0.0000 C   0  0
   -6.2443    5.9781    0.0000 C   0  0
   -7.5382    5.2194    0.0000 C   0  0
   -8.5815    5.8123    0.0000 O   0  0
   -3.6267    2.9927    0.0000 N   0  0
   -3.6187    1.4919    0.0000 C   0  0
   -4.6549    0.8867    0.0000 O   0  0
   -2.3155    0.7475    0.0000 C   0  0
   -2.3155   -0.7475    0.0000 C   0  0
   -1.0028   -1.5132    0.0000 C   0  0
    0.2917   -0.7475    0.0000 C   0  0
    1.7138   -1.2033    0.0000 N   0  0
    2.5889    0.0182    0.0000 N   0  0
    1.7138    1.2033    0.0000 C   0  0
    2.1749    2.6315    0.0000 C   0  0
    1.2517    3.8078    0.0000 C   0  0
    1.8114    5.1995    0.0000 C   0  0
    3.2965    5.4106    0.0000 N   0  0
    4.2218    4.2301    0.0000 C   0  0
    5.4099    4.3989    0.0000 C   0  0
    3.6621    2.8384    0.0000 C   0  0
    0.2917    0.7475    0.0000 C   0  0
   -1.0028    1.5132    0.0000 C   0  0
  1  2  1  0
  2  3  1  0
  3  4  2  0
  4  5  1  0
  5  6  2  0
  6  7  1  0
  7  8  1  0
  7  9  2  0
  3  9  1  0
  9 10  1  0
 10 11  1  0
 11 12  1  0
 12 13  1  0
 13 14  1  0
 14 15  1  0
 15 16  1  0
 11 16  1  0
 16 17  2  0
 13 18  1  6
 18 19  1  0
 19 20  2  0
 19 21  1  0
 21 22  2  0
 22 23  1  0
 23 24  2  0
 24 25  1  0
 25 26  1  0
 26 27  2  0
 27 28  1  0
 28 29  2  0
 29 30  1  0
 30 31  2  0
 31 32  1  0
 32 33  1  0
 32 34  2  0
 28 34  1  0
 27 35  1  0
 24 35  1  0
 35 36  2  0
 21 36  1  0
M  END