
  SciTegic05171617262D

 30 33  0  0  0  0            999 V2000
    2.5984   -2.7004    0.0000 C   0  0
    2.5988   -1.5004    0.0000 S   0  0
    3.6384   -0.9011    0.0000 O   0  0
    3.6377   -2.1009    0.0000 O   0  0
    1.2990   -0.7500    0.0000 N   0  0
    1.2990    0.7500    0.0000 C   0  0
    0.0000    1.5000    0.0000 C   0  0
   -1.2990    0.7500    0.0000 N   0  0
   -1.2990   -0.7500    0.0000 C   0  0
    0.0000   -1.5000    0.0000 C   0  0
   -2.5987    1.5004    0.0000 C   0  0
   -2.6012    3.0004    0.0000 C   0  0
   -3.9015    3.7484    0.0000 C   0  0
   -5.1993    2.9963    0.0000 C   0  0
   -6.5018    3.7420    0.0000 N   0  0
   -7.7993    2.9876    0.0000 C   0  0
   -9.1021    3.7310    0.0000 N   0  0
  -10.3974    2.9744    0.0000 C   0  0
  -10.3898    1.4745    0.0000 C   0  0
  -11.6873    0.7202    0.0000 C   0  0
  -11.6833   -0.4798    0.0000 N   0  0
  -12.7287    1.3164    0.0000 O   0  0
   -9.0870    0.7310    0.0000 C   0  0
   -9.0763   -0.7698    0.0000 N   0  0
   -7.7717   -1.5117    0.0000 C   0  0
   -7.0902   -2.7593    0.0000 C   0  0
   -6.3514   -1.4538    0.0000 C   0  0
   -7.7918    1.4876    0.0000 N   0  0
   -5.1969    1.4963    0.0000 C   0  0
   -3.8967    0.7484    0.0000 C   0  0
  1  2  1  0
  2  3  2  0
  2  4  2  0
  2  5  1  0
  5  6  1  0
  6  7  1  0
  7  8  1  0
  8  9  1  0
  9 10  1  0
  5 10  1  0
  8 11  1  0
 11 12  2  0
 12 13  1  0
 13 14  2  0
 14 15  1  0
 15 16  1  0
 16 17  2  0
 17 18  1  0
 18 19  2  0
 19 20  1  0
 20 21  1  0
 20 22  2  0
 19 23  1  0
 23 24  1  0
 24 25  1  0
 25 26  1  0
 26 27  1  0
 25 27  1  0
 23 28  2  0
 16 28  1  0
 14 29  1  0
 29 30  2  0
 11 30  1  0
M  END