
  CDK    9/16/09,10:4

 29 31  0  0  0  0  0  0  0  0999 V2000
    5.9460  -16.2256    0.0000 C   0  0  0  0  0  0  0  0  0  0  0  0
    5.1950  -15.8868    0.0000 C   0  0  0  0  0  0  0  0  0  0  0  0
    5.2812  -15.0662    0.0000 N   0  0  0  0  0  0  0  0  0  0  0  0
    6.5007  -15.6093    0.0000 C   0  0  0  0  0  0  0  0  0  0  0  0
    6.0885  -14.8976    0.0000 C   0  0  0  0  0  0  0  0  0  0  0  0
    6.4985  -14.1869    0.0000 C   0  0  0  0  0  0  0  0  0  0  0  0
    7.3207  -14.1866    0.0000 C   0  0  0  0  0  0  0  0  0  0  0  0
    7.7311  -14.9030    0.0000 C   0  0  0  0  0  0  0  0  0  0  0  0
    7.3186  -15.6108    0.0000 C   0  0  0  0  0  0  0  0  0  0  0  0
    4.4797  -16.2977    0.0000 C   0  0  0  0  0  0  0  0  0  0  0  0
   -4.0920  -16.2970    0.0000 C   0  0  0  0  0  0  0  0  0  0  0  0
   -3.3775  -15.8845    0.0000 C   0  0  0  0  0  0  0  0  0  0  0  0
   -2.6629  -16.2970    0.0000 C   0  0  0  0  0  0  0  0  0  0  0  0
   -1.9484  -15.8845    0.0000 C   0  0  0  0  0  0  0  0  0  0  0  0
   -1.2339  -16.2970    0.0000 N   0  0  0  0  0  0  0  0  0  0  0  0
   -0.5193  -15.8845    0.0000 C   0  0  0  0  0  0  0  0  0  0  0  0
    0.1952  -16.2970    0.0000 N   0  0  0  0  0  0  0  0  0  0  0  0
   -0.5193  -15.0594    0.0000 N   0  0  0  0  0  0  0  0  0  0  0  0
    0.9097  -15.8845    0.0000 C   0  0  0  0  0  0  0  0  0  0  0  0
    1.6242  -16.2970    0.0000 C   0  0  0  0  0  0  0  0  0  0  0  0
    0.9097  -15.0594    0.0000 O   0  0  0  0  0  0  0  0  0  0  0  0
   -4.8788  -16.0490    0.0000 N   0  0  0  0  0  0  0  0  0  0  0  0
   -5.3579  -16.7206    0.0000 C   0  0  0  0  0  0  0  0  0  0  0  0
   -4.8672  -17.3839    0.0000 N   0  0  0  0  0  0  0  0  0  0  0  0
   -4.0848  -17.1221    0.0000 C   0  0  0  0  0  0  0  0  0  0  0  0
    2.3388  -15.8845    0.0000 C   0  0  0  0  0  0  0  0  0  0  0  0
    3.0532  -16.2970    0.0000 C   0  0  0  0  0  0  0  0  0  0  0  0
    3.7678  -15.8845    0.0000 N   0  0  0  0  0  0  0  0  0  0  0  0
    4.4823  -17.1221    0.0000 O   0  0  0  0  0  0  0  0  0  0  0  0
  6  7  2  0  0  0  0 
 14 15  1  0  0  0  0 
  4  1  1  0  0  0  0 
 15 16  1  0  0  0  0 
  7  8  1  0  0  0  0 
 16 17  2  0  0  0  0 
 16 18  1  0  0  0  0 
  8  9  2  0  0  0  0 
 17 19  1  0  0  0  0 
  9  4  1  0  0  0  0 
 19 20  1  0  0  0  0 
  1  2  2  0  0  0  0 
 19 21  2  0  0  0  0 
 11 22  1  0  0  0  0 
 10  2  1  0  0  0  0 
  4  5  2  0  0  0  0 
  2  3  1  0  0  0  0 
 11 12  1  0  0  0  0 
 22 23  2  0  0  0  0 
 23 24  1  0  0  0  0 
 24 25  1  0  0  0  0 
 25 11  2  0  0  0  0 
  5  6  1  0  0  0  0 
 20 26  1  0  0  0  0 
 12 13  1  0  0  0  0 
 26 27  1  0  0  0  0 
  3  5  1  0  0  0  0 
 27 28  1  0  0  0  0 
 28 10  1  0  0  0  0 
 13 14  1  0  0  0  0 
 10 29  2  0  0  0  0 
M  END