
          08180812492D 1   1.00000     0.00000     0

 33 36  0     0  0            999 V2000
    0.9901  -23.9818    0.0000 C   0  0  0  0  0  0           0  0  0
    0.9890  -24.8091    0.0000 C   0  0  0  0  0  0           0  0  0
    1.7038  -25.2219    0.0000 C   0  0  0  0  0  0           0  0  0
    2.4201  -24.8086    0.0000 C   0  0  0  0  0  0           0  0  0
    2.4173  -23.9782    0.0000 C   0  0  0  0  0  0           0  0  0
    1.7020  -23.5690    0.0000 C   0  0  0  0  0  0           0  0  0
    0.2744  -25.2207    0.0000 C   0  0  0  0  0  0           0  0  0
   -0.4681  -24.8611    0.0000 N   0  0  3  0  0  0           0  0  0
    0.2736  -26.0460    0.0000 O   0  0  0  0  0  0           0  0  0
    3.1302  -23.5630    0.0000 O   0  0  0  0  0  0           0  0  0
    3.1271  -22.7381    0.0000 C   0  0  0  0  0  0           0  0  0
    3.8418  -22.3277    0.0000 C   0  0  0  0  0  0           0  0  0
    3.8390  -21.5036    0.0000 C   0  0  0  0  0  0           0  0  0
    3.1224  -21.0930    0.0000 C   0  0  0  0  0  0           0  0  0
    2.4072  -21.5125    0.0000 C   0  0  0  0  0  0           0  0  0
    2.4135  -22.3353    0.0000 C   0  0  0  0  0  0           0  0  0
    3.1353  -25.2200    0.0000 C   0  0  0  0  0  0           0  0  0
    3.8491  -24.8063    0.0000 N   0  0  0  0  0  0           0  0  0
    4.5641  -25.2177    0.0000 C   0  0  0  0  0  0           0  0  0
   -1.1119  -25.3738    0.0000 C   0  0  0  0  0  0           0  0  0
   -1.9180  -25.1897    0.0000 C   0  0  0  0  0  0           0  0  0
   -0.4673  -24.0371    0.0000 C   0  0  0  0  0  0           0  0  0
   -2.2782  -24.4490    0.0000 C   0  0  0  0  0  0           0  0  0
   -1.1134  -23.5220    0.0000 C   0  0  0  0  0  0           0  0  0
   -1.9181  -23.7080    0.0000 N   0  0  3  0  0  0           0  0  0
   -2.4322  -23.0629    0.0000 C   0  0  3  0  0  0           0  0  0
   -2.5573  -22.2439    0.0000 C   0  0  0  0  0  0           0  0  0
   -3.2025  -22.7580    0.0000 C   0  0  0  0  0  0           0  0  0
    3.1182  -20.2680    0.0000 S   0  0  0  0  0  0           0  0  0
    3.8306  -19.8519    0.0000 C   0  0  3  0  0  0           0  0  0
    4.2372  -20.5612    0.0000 F   0  0  0  0  0  0           0  0  0
    4.5414  -19.4321    0.0000 F   0  0  0  0  0  0           0  0  0
    3.4198  -19.1365    0.0000 F   0  0  0  0  0  0           0  0  0
 16 11  1  0     0  0
  7  8  1  0     0  0
  4 17  1  0     0  0
 17 18  1  0     0  0
  7  9  2  0     0  0
 18 19  1  0     0  0
  4  5  1  0     0  0
  8 20  1  0     0  0
  5 10  1  0     0  0
 20 21  1  0     0  0
  2  3  1  0     0  0
  8 22  1  0     0  0
 10 11  1  0     0  0
 21 23  1  0     0  0
  5  6  2  0     0  0
 22 24  1  0     0  0
 11 12  2  0     0  0
 23 25  1  0     0  0
 24 25  1  0     0  0
  6  1  1  0     0  0
 25 26  1  0     0  0
 27 26  1  0     0  0
 28 27  1  0     0  0
 26 28  1  0     0  0
 12 13  1  0     0  0
  1  2  2  0     0  0
 13 14  2  0     0  0
 14 29  1  0     0  0
  2  7  1  0     0  0
 29 30  1  0     0  0
 14 15  1  0     0  0
 30 31  1  0     0  0
  3  4  2  0     0  0
 30 32  1  0     0  0
 15 16  2  0     0  0
 30 33  1  0     0  0
M  END