
  SciTegic04201616412D

 35 40  0  0  0  0            999 V2000
   -4.9030    0.2736    0.0000 C   0  0
   -4.9030   -1.1574    0.0000 C   0  0
   -3.6404   -1.8939    0.0000 C   0  0
   -3.6404    0.9890    0.0000 C   0  0
   -2.3568    0.2736    0.0000 C   0  0
   -2.3568   -1.1574    0.0000 C   0  0
   -1.1153   -1.8939    0.0000 C   0  0
    0.1263   -1.1574    0.0000 C   0  0
    1.3467   -1.8939    0.0000 C   0  0
    2.6093   -1.1574    0.0000 C   0  0
    2.6093    0.2736    0.0000 C   0  0
    1.3467    0.9890    0.0000 C   0  0
   -1.1153    0.9890    0.0000 C   0  0
    0.1263    0.2736    0.0000 C   0  0
    1.3467    2.4620    0.0000 N   0  0
   -1.1153    2.4620    0.0000 O   0  0
    3.9060    1.0292    0.0000 N   0  0
    3.9064    2.5290    0.0000 C   0  0
    5.2056    3.2787    0.0000 C   0  0  2  0  0  0
    6.5045    2.5283    0.0000 C   0  0
    6.5041    1.0283    0.0000 C   0  0  1  0  0  0
    5.2049    0.2787    0.0000 C   0  0
    1.3288   -3.3948    0.0000 N   0  0
    2.6189   -4.1618    0.0000 C   0  0
    2.6030   -5.6617    0.0000 C   0  0
    3.8940   -6.4254    0.0000 C   0  0
    5.2010   -5.6893    0.0000 C   0  0
    5.2169   -4.1893    0.0000 C   0  0
    3.9259   -3.4256    0.0000 C   0  0
    1.2969   -6.4010    0.0000 C   0  0
    0.2630   -5.7919    0.0000 O   0  0
    1.2859   -7.6010    0.0000 O   0  0
   -1.1153   -3.0939    0.0000 O   0  0
    7.5432    0.4281    0.0000 C   0  0
    5.2060    4.4787    0.0000 C   0  0
  1  2  2  0
  2  3  1  0
  3  6  2  0
  5  4  2  0
  4  1  1  0
  5  6  1  0
  5 13  1  0
  6  7  1  0
  7  8  1  0
 14  8  1  0
 14 12  1  0
  8  9  2  0
  9 10  1  0
 10 11  2  0
 11 12  1  0
 13 14  2  0
 15 16  1  0
 16 13  1  0
 17 18  1  0
 17 22  1  0
 18 19  1  0
 19 20  1  0
 20 21  1  0
 21 22  1  0
 11 17  1  0
  9 23  1  0
 23 24  1  0
 24 25  2  0
 25 26  1  0
 26 27  2  0
 27 28  1  0
 28 29  2  0
 29 24  1  0
 30 31  1  0
 30 32  2  0
 25 30  1  0
 15 12  2  0
  7 33  2  0
 21 34  1  6
 19 35  1  1
M  END