
  SciTegic12231509382D

 20 22  0  0  0  0            999 V2000
   -0.2284    2.0036    0.0000 C   0  0  2  0  0  0
   -0.9428    2.4161    0.0000 C   0  0
   -1.6573    2.0036    0.0000 C   0  0  1  0  0  0
   -1.6573    1.1786    0.0000 C   0  0
   -0.9429    0.7661    0.0000 C   0  0
   -0.2284    1.1786    0.0000 N   0  0
    0.4861    2.4161    0.0000 C   0  0
    1.2006    2.0036    0.0000 C   0  0
    1.2006    1.1786    0.0000 C   0  0
    0.4861    0.7661    0.0000 C   0  0
    0.4861    3.2411    0.0000 C   0  0
    1.2006    3.6536    0.0000 C   0  0
    1.9151    3.2411    0.0000 C   0  0
    1.9151    2.4161    0.0000 C   0  0
   -0.2284    2.8286    0.0000 H   0  0
   -2.3718    2.4161    0.0000 N   0  0
   -3.0863    2.0036    0.0000 S   0  0
   -3.8007    1.5911    0.0000 C   0  0
   -3.0863    1.1786    0.0000 O   0  0
   -3.6696    2.5869    0.0000 O   0  0
  1  2  1  0
  2  3  1  0
  3  4  1  0
  4  5  1  0
  5  6  1  0
  1  7  1  0
  6  1  1  0
 10  6  1  0
  8  9  1  0
  9 10  1  0
  7 11  2  0
  8  7  1  0
  8 14  2  0
 11 12  1  0
 12 13  2  0
 13 14  1  0
  1 15  1  6
  3 16  1  1
 16 17  1  0
 17 18  1  0
 17 19  2  0
 17 20  2  0
M  END