
  SciTegic12231509382D

 30 33  0  0  0  0            999 V2000
    2.6792   -1.1250    0.0000 C   0  0
    2.6417   -0.4167    0.0000 N   0  0
    3.7500   -0.7042    0.0000 N   0  0
    3.3667   -1.3042    0.0000 C   0  0
    3.3042   -0.1542    0.0000 C   0  0
    2.6792   -1.8292    0.0000 C   0  0
    2.0667   -0.7667    0.0000 C   0  0
    1.4625   -1.8292    0.0000 N   0  0
    2.2875    0.2000    0.0000 C   0  0
    3.6250   -1.9625    0.0000 O   0  0
    4.6292   -0.6667    0.0000 C   0  0
   -0.9958   -1.8292    0.0000 C   0  0
   -1.6083   -2.1792    0.0000 C   0  0
    2.0667   -2.1875    0.0000 C   0  0
    1.4625   -1.1250    0.0000 C   0  0
   -0.9958   -1.1167    0.0000 O   0  0
   -2.2208   -1.8292    0.0000 C   0  0
   -1.6083   -2.8917    0.0000 C   0  0
   -2.8333   -2.8917    0.0000 C   0  0
   -2.2125   -3.2417    0.0000 C   0  0
   -2.8333   -2.1792    0.0000 C   0  0
   -3.4458   -3.2417    0.0000 F   0  0
    0.8417   -2.1792    0.0000 C   0  0
    0.2292   -1.8292    0.0000 C   0  0
   -0.3833   -2.1792    0.0000 C   0  0
    2.6417    0.8208    0.0000 C   0  0
    1.5667    0.2000    0.0000 C   0  0
    1.2125    0.8208    0.0000 C   0  0
    2.2875    1.4458    0.0000 C   0  0
    1.5667    1.4458    0.0000 C   0  0
  2  1  1  0
  3  4  1  0
  4  1  1  0
  5  2  1  0
  6  1  1  0
  7  1  1  0
  8 15  1  0
  9  2  1  0
 10  4  2  0
 11  3  1  0
 12 25  1  0
 13 12  1  0
 14  6  1  0
 15  7  1  0
 16 12  2  0
 17 13  2  0
 18 13  1  0
 19 20  1  0
 20 18  2  0
 21 17  1  0
 22 19  1  0
 23  8  1  0
 24 23  1  0
 25 24  1  0
 26  9  2  0
 27  9  1  0
 28 27  2  0
 29 26  1  0
 30 28  1  0
 14  8  1  0
  5  3  1  0
 30 29  2  0
 19 21  2  0
M  END