
  SciTegic06181315362D

 63 70  0  0  0  0            999 V2000
    9.1537  -21.7729    0.0000 N   0  0
    9.8683  -22.1862    0.0000 C   0  0
    9.8661  -23.0091    0.0000 C   0  0
   10.5798  -23.4224    0.0000 C   0  0
   11.2960  -23.0101    0.0000 C   0  0
   11.2913  -22.1827    0.0000 C   0  0
   10.5798  -21.7709    0.0000 C   0  0
   10.4545  -20.9525    0.0000 N   0  0
   12.0616  -21.8792    0.0000 C   0  0
   11.0118  -20.3446    0.0000 C   0  0  2  0  0  0
   12.3032  -21.0885    0.0000 N   0  0
   11.8342  -20.4071    0.0000 C   0  0
   10.7083  -19.5769    0.0000 C   0  0
   11.2214  -18.9302    0.0000 C   0  0
   13.1287  -21.0850    0.0000 C   0  0
   13.5444  -21.7983    0.0000 C   0  0
   13.1356  -22.5167    0.0000 N   0  0
   14.3709  -21.7967    0.0000 O   0  0
   12.0452  -18.9609    0.0000 C   0  0
   12.3334  -18.1873    0.0000 N   0  0
   10.9990  -18.1307    0.0000 C   0  0
   11.6873  -17.6759    0.0000 C   0  0
   11.6369  -16.8544    0.0000 C   0  0
   10.8986  -16.4865    0.0000 C   0  0
   10.2098  -16.9463    0.0000 C   0  0
   10.2637  -17.7664    0.0000 C   0  0
   13.5528  -23.2291    0.0000 C   0  0  2  0  0  0
   13.1445  -23.9465    0.0000 C   0  0
   12.3192  -23.9527    0.0000 O   0  0
   13.5619  -24.6599    0.0000 O   0  0
   14.3783  -23.2239    0.0000 C   0  0
   14.7955  -23.9362    0.0000 C   0  0
   14.3839  -24.6500    0.0000 C   0  0
   14.8003  -25.3618    0.0000 C   0  0
   15.6267  -25.3571    0.0000 C   0  0
   16.0348  -24.6346    0.0000 C   0  0
   15.6159  -23.9257    0.0000 C   0  0
    7.0089  -22.1856    0.0000 N   0  0
    7.7252  -21.7729    0.0000 C   0  0  2  0  0  0
    8.4416  -23.0111    0.0000 O   0  0
    8.4416  -22.1856    0.0000 C   0  0
    7.7252  -20.9474    0.0000 C   0  0
    8.4416  -20.5346    0.0000 C   0  0
    8.4416  -19.7091    0.0000 O   0  0
    9.1537  -20.9474    0.0000 O   0  0
    6.2943  -21.7723    0.0000 C   0  0
    5.5791  -22.1844    0.0000 O   0  0
    6.2950  -20.9468    0.0000 O   0  0
    4.8642  -21.7712    0.0000 C   0  0
    4.0826  -22.0369    0.0000 C   0  0
    2.7450  -22.0547    0.0000 C   0  0
    3.4052  -21.5654    0.0000 C   0  0
    3.3109  -20.7509    0.0000 C   0  0
    2.5568  -20.4247    0.0000 C   0  0
    1.8965  -20.9191    0.0000 C   0  0
    1.9941  -21.7318    0.0000 C   0  0
    3.8363  -22.8249    0.0000 C   0  0
    3.0129  -22.8359    0.0000 C   0  0
    2.6126  -23.5533    0.0000 C   0  0
    3.0345  -24.2601    0.0000 C   0  0
    3.8609  -24.2451    0.0000 C   0  0
    4.2575  -23.5272    0.0000 C   0  0
   12.2455  -19.6920    0.0000 O   0  0
  1  2  1  0
  2  3  2  0
  3  4  1  0
  4  5  2  0
  5  6  1  0
  7  2  1  0
  6  7  2  0
  7  8  1  0
  6  9  1  0
  8 10  1  0
  9 11  1  0
 10 12  1  0
 11 12  1  0
 10 13  1  1
 13 14  1  0
 11 15  1  0
 15 16  1  0
 16 17  1  0
 16 18  2  0
 14 19  2  0
 19 20  1  0
 20 22  1  0
 21 14  1  0
 21 22  2  0
 22 23  1  0
 23 24  2  0
 24 25  1  0
 25 26  2  0
 26 21  1  0
 17 27  1  0
 27 28  1  0
 28 29  1  0
 28 30  2  0
 27 31  1  1
 31 32  1  0
 32 33  2  0
 33 34  1  0
 34 35  2  0
 35 36  1  0
 36 37  2  0
 37 32  1  0
 41  1  1  0
 38 39  1  0
 39 41  1  0
 41 40  2  0
 39 42  1  1
 42 43  1  0
 43 44  2  0
 43 45  1  0
 38 46  1  0
 46 47  1  0
 46 48  2  0
 47 49  1  0
 49 50  1  0
 50 52  1  0
 51 58  1  0
 57 50  1  0
 51 52  2  0
 52 53  1  0
 53 54  2  0
 54 55  1  0
 55 56  2  0
 56 51  1  0
 57 58  2  0
 58 59  1  0
 59 60  2  0
 60 61  1  0
 61 62  2  0
 62 57  1  0
 12 63  2  0
M  END