
  SciTegic10311316212D

 26 29  0  0  0  0            999 V2000
   18.9261  -19.0512    0.0000 C   0  0
   18.9249  -19.8708    0.0000 C   0  0
   19.6330  -20.2798    0.0000 C   0  0
   19.6312  -18.6424    0.0000 C   0  0
   20.3398  -19.0476    0.0000 C   0  0
   20.3401  -19.8663    0.0000 C   0  0
   21.1187  -20.1190    0.0000 S   0  0
   21.5997  -19.4566    0.0000 C   0  0
   21.1183  -18.7945    0.0000 C   0  0
   18.2214  -20.2779    0.0000 N   0  0
   17.4751  -19.9450    0.0000 C   0  0
   16.9278  -20.5519    0.0000 N   0  0
   17.3359  -21.2600    0.0000 N   0  0
   18.1353  -21.0906    0.0000 C   0  0
   18.7410  -21.6346    0.0000 C   0  0
   18.5690  -22.4346    0.0000 C   0  0
   19.1750  -22.9816    0.0000 C   0  0
   19.9534  -22.7298    0.0000 C   0  0
   20.1222  -21.9259    0.0000 C   0  0
   19.5148  -21.3824    0.0000 C   0  0
   17.3059  -19.1455    0.0000 S   0  0
   22.4149  -19.4541    0.0000 C   0  0
   22.8237  -20.1617    0.0000 O   0  0
   22.8232  -18.7463    0.0000 O   0  0
   21.3705  -18.0172    0.0000 Cl  0  0
   20.5610  -23.2762    0.0000 C   0  0
  1  2  2  0
  2  3  1  0
  3  6  2  0
  5  4  2  0
  4  1  1  0
  5  6  1  0
  6  7  1  0
  7  8  1  0
  8  9  2  0
  9  5  1  0
 10 11  1  0
 11 12  2  0
 12 13  1  0
 13 14  2  0
 14 10  1  0
  2 10  1  0
 15 16  2  0
 16 17  1  0
 17 18  2  0
 18 19  1  0
 19 20  2  0
 20 15  1  0
 14 15  1  0
 11 21  1  0
 22 23  1  0
 22 24  2  0
  8 22  1  0
  9 25  1  0
 18 26  1  0
M  END