
  SciTegic09251318272D

 57 64  0  0  0  0            999 V2000
   -5.7807   -2.4154    0.0000 N   0  0
    6.1063    2.7627    0.0000 N   0  0
    6.3994    1.3678    0.0000 N   0  3
    6.9097    2.9310    0.0000 C   0  0
    5.6884    3.4792    0.0000 C   0  0
   -6.4591   -1.9595    0.0000 C   0  0
    7.2028    1.5415    0.0000 C   0  0
   -5.0750   -1.9866    0.0000 C   0  0
   -7.5501   -2.9691    0.0000 C   0  0
   -5.7263   -3.2296    0.0000 C   0  0
   -7.2570   -2.2146    0.0000 C   0  0
    7.4633    2.3231    0.0000 C   0  0
   -7.1267   -3.6856    0.0000 N   0  0
    6.2529    4.0980    0.0000 C   0  0
   -6.3126   -3.7995    0.0000 C   0  0
    4.8688    3.4847    0.0000 C   0  0
    7.0074    3.7560    0.0000 C   0  0
    6.3180    0.5482    0.0000 C   0  0
    7.6099    0.8250    0.0000 C   0  0
    7.0671    0.2117    0.0000 C   0  0
   -4.3748   -0.7382    0.0000 N   0  0
   -5.0805   -1.1616    0.0000 C   0  0
    4.3695    2.8171    0.0000 S   0  0
   -4.9285   -3.4684    0.0000 N   0  0
   -2.9473    0.1085    0.0000 N   0  0
    4.1741    0.1411    0.0000 C   0  0
   -4.4725   -2.5620    0.0000 O   0  0
   -8.3589   -2.9473    0.0000 O   0  0
    4.3803    4.1631    0.0000 C   0  0
    3.5879    3.0776    0.0000 C   0  0
    5.6015    0.1411    0.0000 C   0  0
    3.5879    3.9081    0.0000 C   0  0
    4.9720    2.4696    0.0000 F   0  0
    5.1022    1.4601    0.0000 F   0  0
    4.1741   -0.6839    0.0000 O   0  0
    5.6884    2.0463    0.0000 B   0  5
    3.4576    0.5482    0.0000 N   0  0
   -4.3911    0.0814    0.0000 C   0  0
   -3.6475   -1.1399    0.0000 C   0  0
   -3.6746    0.4993    0.0000 C   0  0
   -2.9473   -0.7219    0.0000 C   0  0
    4.8905    0.5482    0.0000 C   0  0
   -7.8379   -1.6664    0.0000 C   0  0
   -6.2800   -1.1453    0.0000 C   0  0
   -6.1334   -4.5974    0.0000 C   0  0
   -2.2417    0.5211    0.0000 C   0  0
    1.3244    0.1248    0.0000 O   0  0
   -0.8087    0.5211    0.0000 O   0  0
   -4.7330   -4.2718    0.0000 C   0  0
    2.7574    0.1303    0.0000 C   0  0
   -1.5252    0.1085    0.0000 C   0  0
    2.0354    0.5482    0.0000 C   0  0
   -0.0977    0.1248    0.0000 C   0  0
    0.6080    0.5319    0.0000 C   0  0
   -5.3355   -4.8362    0.0000 C   0  0
   -7.6967   -0.8522    0.0000 C   0  0
   -6.8880   -0.5917    0.0000 C   0  0
  2  4  1  0
  3 18  2  0
  4 12  1  0
  5  2  1  0
  6  1  1  0
  7  3  1  0
  8  1  1  0
  9 11  1  0
 10  1  1  0
 11  6  2  0
 12  7  2  0
 13 15  1  0
 36  2  1  0
 14 17  1  0
 15 10  2  0
 16  5  1  0
 17  4  2  0
 18 31  1  0
 19 20  2  0
 20 18  1  0
 21 22  1  0
 22  8  1  0
 23 16  1  0
 24 10  1  0
 25 41  1  0
 26 37  1  0
 27  8  2  0
 28  9  2  0
 29 16  2  0
 30 23  1  0
 31 42  1  0
 32 29  1  0
 33 36  1  0
 34 36  1  0
 35 26  2  0
 36  3  1  0
 37 50  1  0
 38 21  1  0
 39 21  1  0
 40 38  1  0
 41 39  1  0
 42 26  1  0
 43 11  1  0
 44  6  1  0
 45 15  1  0
 46 25  1  0
 47 54  1  0
 48 51  1  0
 49 24  2  0
 50 52  1  0
 51 46  1  0
 52 47  1  0
 53 48  1  0
 54 53  1  0
 55 49  1  0
 56 57  1  0
 57 44  2  0
 13  9  1  0
 45 55  2  0
 43 56  2  0
 40 25  1  0
  7 19  1  0
  5 14  2  0
 32 30  2  0
M  CHG  2   3   1  36  -1
M  END