
  SciTegic09261414482D

 14 14  0  0  0  0            999 V2000
    3.9483   -5.6171    0.0000 C   0  0
    3.9472   -6.4367    0.0000 C   0  0
    4.6552   -6.8456    0.0000 C   0  0
    5.3649   -6.4362    0.0000 C   0  0
    5.3621   -5.6135    0.0000 C   0  0
    4.6535   -5.2083    0.0000 C   0  0
    6.0733   -6.8437    0.0000 C   0  0
    6.0745   -7.6609    0.0000 O   0  0
    6.7803   -6.4340    0.0000 C   0  0
    7.4887   -6.8414    0.0000 N   0  0
    8.1957   -6.4317    0.0000 C   0  0
    8.9041   -6.8392    0.0000 C   0  0
    8.1945   -5.6146    0.0000 C   0  0
    3.2392   -6.8447    0.0000 C   0  0
  1  2  2  0
  2  3  1  0
  3  4  2  0
  4  5  1  0
  5  6  2  0
  6  1  1  0
  4  7  1  0
  7  8  1  0
  7  9  1  0
  9 10  1  0
 10 11  1  0
 11 12  1  0
 11 13  1  0
  2 14  1  0
M  END