
  SciTegic11111309142D

 49 53  0  0  0  0            999 V2000
   -0.8478  -15.4845    0.0000 C   0  0
    0.0611  -22.4956    0.0000 C   0  0
    0.8475  -22.7468    0.0000 C   0  0
    1.3291  -22.0786    0.0000 C   0  0
    0.8438  -21.4168    0.0000 C   0  0
    0.0611  -21.6710    0.0000 C   0  0
   -1.9695  -18.2380    0.0000 O   0  0
   -2.4544  -18.9055    0.0000 C   0  0
   -2.1519  -19.6731    0.0000 C   0  0
   -2.6534  -20.2847    0.0000 C   0  0
   -2.3728  -21.0186    0.0000 C   0  0
   -1.5962  -21.1223    0.0000 C   0  0
   -1.1346  -20.4883    0.0000 C   0  0
   -1.4570  -19.7660    0.0000 C   0  0
   -3.4678  -20.1527    0.0000 Cl  0  0
   -0.9630  -19.1053    0.0000 Cl  0  0
   -0.3141  -20.5744    0.0000 S   0  0
   -0.2278  -19.7540    0.0000 O   0  0
   -0.4003  -21.3949    0.0000 O   0  0
    1.5583  -21.0043    0.0000 C   0  0
    2.2721  -21.4164    0.0000 N   0  0
    1.5583  -20.1784    0.0000 O   0  0
    2.2721  -22.2430    0.0000 C   0  0
    2.9818  -22.6528    0.0000 C   0  0
    3.6922  -22.2427    0.0000 N   0  0
    3.6922  -21.4209    0.0000 C   0  0
    2.9820  -21.0064    0.0000 C   0  0
    4.4032  -22.6532    0.0000 C   0  0
    4.4032  -23.4738    0.0000 O   0  0
    5.1215  -22.2385    0.0000 C   0  0
   -2.3061  -17.4820    0.0000 C   0  0
   -2.9772  -15.9746    0.0000 C   0  0
   -3.4639  -16.6490    0.0000 C   0  0
   -3.1253  -17.4019    0.0000 C   0  0
   -2.1533  -16.0615    0.0000 C   0  0
   -1.8213  -16.8182    0.0000 C   0  0
   -1.0019  -16.9077    0.0000 N   0  0
   -0.5135  -16.2416    0.0000 C   0  0
   -1.6689  -15.3978    0.0000 C   0  0
    0.3094  -16.3301    0.0000 C   0  0
   -2.0048  -14.6415    0.0000 C   0  0
    5.8381  -22.6523    0.0000 C   0  0
    6.5548  -22.2385    0.0000 C   0  0
    7.2715  -22.6523    0.0000 C   0  0
    7.9882  -22.2385    0.0000 N   0  3
    8.7049  -22.6523    0.0000 C   0  0
    7.9882  -21.4109    0.0000 C   0  0
    7.9801  -23.0657    0.0000 C   0  0
    0.5060  -20.6641    0.0000 N   0  0
  5 20  1  0
 20 21  1  0
 20 22  2  0
 21 23  1  0
 21 27  1  0
 23 24  1  0
 24 25  1  0
 25 26  1  0
 26 27  1  0
 25 28  1  0
 28 29  2  0
 28 30  1  0
  7 31  1  0
 31 36  2  0
  2  3  1  0
 35 32  2  0
  3  4  1  0
 32 33  1  0
  4  5  1  0
 33 34  2  0
 34 31  1  0
  5  6  1  0
  6  2  1  0
 35 36  1  0
  7  8  1  0
 36 37  1  0
  8  9  1  0
 37 38  2  0
 38  1  1  0
  9 10  2  0
  1 39  2  0
 39 35  1  0
 10 11  1  0
 38 40  1  0
 11 12  2  0
 39 41  1  0
 12 13  1  0
 30 42  1  0
 13 14  2  0
 42 43  1  0
 14  9  1  0
 43 44  1  0
 10 15  1  0
 44 45  1  0
 14 16  1  0
 45 46  1  0
 13 17  1  0
 45 47  1  0
 17 18  2  0
 45 48  1  0
 17 19  2  0
 17 49  1  0
 49  5  1  0
M  CHG  1  45   1
M  END