
          11280714542D 1   1.00000     0.00000     0

 33 36  0     1  0            999 V2000
    3.7292   -4.3625    0.0000 O   0  0  0  0  0  0           0  0  0
    3.7292   -6.0167    0.0000 O   0  0  0  0  0  0           0  0  0
    4.4500   -4.7792    0.0000 C   0  0  2  0  0  0           0  0  0
    4.4500   -5.6042    0.0000 C   0  0  1  0  0  0           0  0  0
    3.0167   -4.7792    0.0000 C   0  0  0  0  0  0           0  0  0
    8.7375   -5.6167    0.0000 C   0  0  0  0  0  0           0  0  0
    3.0167   -5.6042    0.0000 C   0  0  0  0  0  0           0  0  0
    5.1667   -4.3667    0.0000 C   0  0  0  0  0  0           0  0  0
    8.7292   -4.8000    0.0000 C   0  0  0  0  0  0           0  0  0
    9.4417   -6.0375    0.0000 C   0  0  0  0  0  0           0  0  0
    5.8792   -4.7875    0.0000 C   0  0  0  0  0  0           0  0  0
    5.1667   -3.5500    0.0000 C   0  0  0  0  0  0           0  0  0
    8.0167   -6.0292    0.0000 O   0  0  0  0  0  0           0  0  0
    5.1625   -6.0167    0.0000 C   0  0  0  0  0  0           0  0  0
    5.8792   -5.6125    0.0000 N   0  0  0  0  0  0           0  0  0
    5.8792   -3.1375    0.0000 C   0  0  0  0  0  0           0  0  0
    6.5917   -4.3792    0.0000 C   0  0  0  0  0  0           0  0  0
    6.5917   -3.5500    0.0000 C   0  0  0  0  0  0           0  0  0
    8.0167   -4.3792    0.0000 O   0  0  0  0  0  0           0  0  0
    9.4417   -6.8625    0.0000 O   0  0  0  0  0  0           0  0  0
   10.1667   -4.8042    0.0000 C   0  0  0  0  0  0           0  0  0
    2.3042   -4.3667    0.0000 C   0  0  0  0  0  0           0  0  0
    2.3042   -6.0167    0.0000 C   0  0  0  0  0  0           0  0  0
    9.4417   -4.3792    0.0000 C   0  0  0  0  0  0           0  0  0
   10.1625   -5.6292    0.0000 C   0  0  0  0  0  0           0  0  0
    6.5917   -6.0250    0.0000 C   0  0  0  0  0  0           0  0  0
    7.3042   -5.6167    0.0000 C   0  0  0  0  0  0           0  0  0
    7.3125   -3.1417    0.0000 C   0  0  0  0  0  0           0  0  0
   10.1542   -7.2792    0.0000 C   0  0  0  0  0  0           0  0  0
    8.0250   -3.5542    0.0000 C   0  0  0  0  0  0           0  0  0
    7.3125   -2.3167    0.0000 C   0  0  0  0  0  0           0  0  0
    1.5917   -5.6042    0.0000 C   0  0  0  0  0  0           0  0  0
    1.5917   -4.7792    0.0000 C   0  0  0  0  0  0           0  0  0
  2  7  1  0     0  0
  3  1  1  0     0  0
  4  3  1  0     0  0
  5  1  1  0     0  0
  6 13  1  0     0  0
  7  5  1  0     0  0
  3  8  1  1     0  0
  9  6  1  0     0  0
 10  6  2  0     0  0
 11  8  2  0     0  0
 12  8  1  0     0  0
 13 27  1  0     0  0
  4 14  1  1     0  0
 15 14  1  0     0  0
 16 12  2  0     0  0
 17 11  1  0     0  0
 18 16  1  0     0  0
 19  9  1  0     0  0
 20 10  1  0     0  0
 21 25  2  0     0  0
 22  5  2  0     0  0
 23  7  2  0     0  0
 24  9  2  0     0  0
 25 10  1  0     0  0
 26 15  1  0     0  0
 27 26  1  0     0  0
 28 18  1  0     0  0
 29 20  1  0     0  0
 30 19  1  0     0  0
 31 28  1  0     0  0
 32 33  2  0     0  0
 33 22  1  0     0  0
  4  2  1  0     0  0
 32 23  1  0     0  0
 17 18  2  0     0  0
 24 21  1  0     0  0
M  END