
  SciTegic01161211222D

 20 22  0  0  0  0            999 V2000
   11.7195   -5.3470    0.0000 C   0  0
   11.7195   -6.1756    0.0000 C   0  0
   12.4331   -6.5876    0.0000 C   0  0
   12.4331   -4.9304    0.0000 C   0  0
   13.1513   -5.3470    0.0000 C   0  0
   13.1478   -6.1756    0.0000 C   0  0
   13.8597   -6.5907    0.0000 O   0  0
   14.5795   -6.1817    0.0000 C   0  0
   14.5832   -5.3531    0.0000 C   0  0
   13.8667   -4.9335    0.0000 C   0  0
   15.2962   -4.9480    0.0000 C   0  0
   16.0075   -5.3659    0.0000 C   0  0
   16.7211   -4.9612    0.0000 C   0  0
   16.7298   -4.1368    0.0000 C   0  0
   16.0185   -3.7189    0.0000 C   0  0
   15.2986   -4.1253    0.0000 C   0  0
   11.0058   -6.5876    0.0000 O   0  0
   13.8690   -4.1095    0.0000 O   0  0
   17.4470   -3.7313    0.0000 O   0  0
   18.1569   -4.1498    0.0000 C   0  0
  8  9  2  0
  9 10  1  0
 11 12  1  0
  5  6  2  0
  1  2  1  0
  1  4  2  0
  2  3  2  0
  3  6  1  0
 11 16  2  0
 12 13  2  0
 13 14  1  0
 14 15  2  0
 15 16  1  0
  9 11  1  0
  5  4  1  0
  2 17  1  0
  5 10  1  0
 10 18  2  0
  6  7  1  0
 14 19  1  0
  7  8  1  0
 19 20  1  0
M  END