
  SciTegic02181312462D

 35 39  0  0  0  0            999 V2000
   26.1333  -27.3579    0.0000 C   0  0
   26.8430  -26.9485    0.0000 C   0  0
   26.8402  -26.1258    0.0000 C   0  0
   26.1315  -25.7206    0.0000 C   0  0
   25.4253  -26.9490    0.0000 C   0  0
   25.4265  -26.1279    0.0000 C   0  0
   24.6460  -25.8730    0.0000 N   0  0
   24.1623  -26.5366    0.0000 N   0  0
   24.6440  -27.2015    0.0000 C   0  0
   26.1331  -28.1751    0.0000 O   0  0
   25.4017  -28.5540    0.0000 C   0  0
   24.7147  -28.1148    0.0000 C   0  0
   23.9917  -28.4940    0.0000 C   0  0
   23.9584  -29.3114    0.0000 C   0  0
   24.6542  -29.7481    0.0000 N   0  0
   25.3744  -29.3664    0.0000 C   0  0
   27.5463  -25.7146    0.0000 C   0  0
   28.2556  -26.1205    0.0000 N   0  0
   27.5433  -24.8974    0.0000 O   0  0
   28.9617  -25.7093    0.0000 C   0  0
   29.6694  -26.1186    0.0000 N   0  0
   30.3751  -25.7080    0.0000 C   0  0
   30.3725  -24.8899    0.0000 C   0  0
   29.6582  -24.4842    0.0000 N   0  0
   28.9555  -24.8971    0.0000 C   0  0
   31.0781  -24.4777    0.0000 C   0  0
   23.2354  -29.6923    0.0000 C   0  0
   22.5441  -29.2565    0.0000 N   0  0
   23.2037  -30.5088    0.0000 O   0  0
   23.3011  -28.0571    0.0000 F   0  0
   23.3451  -26.5354    0.0000 C   0  0
   22.9376  -25.8271    0.0000 C   0  0
   22.3572  -28.4642    0.0000 C   0  0
   21.7356  -29.4321    0.0000 C   0  0
   21.5526  -28.6505    0.0000 C   0  0
  5  1  1  0
  1  2  2  0
  2  3  1  0
  3  4  2  0
  4  6  1  0
  5  6  1  0
  6  7  2  0
  7  8  1  0
  8  9  1  0
  9  5  2  0
  1 10  1  0
 10 11  1  0
 11 12  2  0
 12 13  1  0
 13 14  2  0
 14 15  1  0
 15 16  2  0
 16 11  1  0
  3 17  1  0
 17 18  1  0
 17 19  2  0
 18 20  1  0
 20 21  2  0
 21 22  1  0
 22 23  2  0
 23 24  1  0
 24 25  2  0
 25 20  1  0
 23 26  1  0
 14 27  1  0
 27 28  1  0
 27 29  2  0
 13 30  1  0
  8 31  1  0
 31 32  1  0
 28 33  1  0
 28 34  1  0
 33 35  1  0
 34 35  1  0
M  END