
          11280715512D 1   1.00000     0.00000     0

 20 21  0     1  0            999 V2000
    0.6416   -1.0527    0.0000 C   0  0  0  0  0  0           0  0  0
    0.2291   -0.3410    0.0000 N   0  0  3  0  0  0           0  0  0
    0.6416    0.3748    0.0000 C   0  0  0  0  0  0           0  0  0
    1.4666    0.3748    0.0000 C   0  0  0  0  0  0           0  0  0
    1.8791   -0.3410    0.0000 C   0  0  0  0  0  0           0  0  0
    1.4666   -1.0527    0.0000 N   0  0  3  0  0  0           0  0  0
    0.2291   -1.7686    0.0000 O   0  0  0  0  0  0           0  0  0
    0.2291    1.0907    0.0000 O   0  0  0  0  0  0           0  0  0
   -0.5959   -0.3410    0.0000 C   0  0  0  0  0  0           0  0  0
   -0.6750   -1.8072    0.0000 N   0  0  0  0  0  0           0  0  0
   -1.2873   -2.3602    0.0000 N   0  0  0  0  0  0           0  0  0
   -2.0031   -1.9477    0.0000 N   0  0  0  0  0  0           0  0  0
   -1.8308   -1.1376    0.0000 N   0  0  0  0  0  0           0  0  0
   -1.0084   -1.0527    0.0000 C   0  0  0  0  0  0           0  0  0
    1.8791   -1.7686    0.0000 C   0  0  0  0  0  0           0  0  0
    2.7041   -1.7686    0.0000 C   0  0  1  0  0  0           0  0  0
    3.1166   -1.0527    0.0000 C   0  0  0  0  0  0           0  0  0
    3.9416   -1.0527    0.0000 O   0  0  0  0  0  0           0  0  0
    2.7041   -0.3410    0.0000 O   0  0  0  0  0  0           0  0  0
    3.1166   -2.4845    0.0000 N   0  0  0  0  0  0           0  0  0
  1  2  1  0     0  0
  2  3  1  0     0  0
  3  4  1  0     0  0
  4  5  2  0     0  0
  5  6  1  0     0  0
  1  6  1  0     0  0
  1  7  2  0     0  0
  3  8  2  0     0  0
 10 11  1  0     0  0
 11 12  1  0     0  0
 12 13  2  0     0  0
 13 14  1  0     0  0
 10 14  2  0     0  0
  9 14  1  0     0  0
  2  9  1  0     0  0
 15 16  1  0     0  0
 17 18  2  0     0  0
 17 19  1  0     0  0
 16 17  1  0     0  0
 16 20  1  1     0  0
  6 15  1  0     0  0
M  END