
  SciTegic12231509382D

 20 22  0  0  0  0            999 V2000
   -2.6111    0.7486    0.0000 C   0  0
   -2.6111   -0.7486    0.0000 N   0  0
   -1.2964   -1.4973    0.0000 C   0  0
   -1.2964    1.4973    0.0000 C   0  0
    0.0000    0.7486    0.0000 C   0  0
    0.0000   -0.7486    0.0000 C   0  0
    1.2964   -1.4973    0.0000 C   0  0
    2.5929   -0.7486    0.0000 C   0  0
    2.5929    0.7486    0.0000 C   0  0
    1.2964    1.4973    0.0000 C   0  0
    1.2964    2.9981    0.0000 S   0  0
   -0.0028    3.7494    0.0000 N   0  0
    2.3358    3.5978    0.0000 O   0  0
    2.3356    2.3980    0.0000 O   0  0
   -2.6901    3.3565    0.0000 C   0  0
   -3.2373    4.7532    0.0000 N   0  0
   -2.4864    6.0517    0.0000 C   0  0
   -1.2571    2.9134    0.0000 C   0  0
    0.0959    5.2534    0.0000 C   0  0
   -1.0030    6.2743    0.0000 C   0  0
  1  2  2  0
  2  3  1  0
  1  4  1  0
  4  5  2  0
  3  6  2  0
  5  6  1  0
  6  7  1  0
  7  8  2  0
  8  9  1  0
  5 10  1  0
  9 10  2  0
 10 11  1  0
 11 12  1  0
 11 13  2  0
 11 14  2  0
 15 16  1  0
 16 17  1  0
 12 18  1  0
 15 18  1  0
 12 19  1  0
 17 20  1  0
 19 20  1  0
M  END