
  CDK    9/16/09,9:48

 29 32  0  0  0  0  0  0  0  0999 V2000
   -3.2970  -16.7793    0.0000 C   0  0  0  0  0  0  0  0  0  0  0  0
   -3.2982  -17.6069    0.0000 C   0  0  0  0  0  0  0  0  0  0  0  0
   -2.5853  -18.0199    0.0000 C   0  0  0  0  0  0  0  0  0  0  0  0
   -1.8659  -17.6064    0.0000 C   0  0  0  0  0  0  0  0  0  0  0  0
   -1.8691  -16.7753    0.0000 C   0  0  0  0  0  0  0  0  0  0  0  0
   -2.5873  -16.3666    0.0000 C   0  0  0  0  0  0  0  0  0  0  0  0
   -1.1566  -16.3593    0.0000 C   0  0  0  0  0  0  0  0  0  0  0  0
   -0.4402  -16.7683    0.0000 C   0  0  0  0  0  0  0  0  0  0  0  0
   -1.1608  -15.5343    0.0000 C   0  0  0  0  0  0  0  0  0  0  0  0
   -1.8772  -15.1254    0.0000 C   0  0  0  0  0  0  0  0  0  0  0  0
   -1.8821  -14.2954    0.0000 C   0  0  0  0  0  0  0  0  0  0  0  0
   -2.5944  -13.8866    0.0000 C   0  0  0  0  0  0  0  0  0  0  0  0
   -3.3093  -14.2990    0.0000 O   0  0  0  0  0  0  0  0  0  0  0  0
   -3.3072  -15.1250    0.0000 C   0  0  0  0  0  0  0  0  0  0  0  0
   -2.5902  -15.5384    0.0000 C   0  0  0  0  0  0  0  0  0  0  0  0
   -4.0133  -18.0184    0.0000 S   0  0  0  0  0  0  0  0  0  0  0  0
   -4.7299  -18.4248    0.0000 C   0  0  0  0  0  0  0  0  0  0  0  0
   -3.6041  -18.7347    0.0000 O   0  0  0  0  0  0  0  0  0  0  0  0
   -4.4235  -17.3026    0.0000 O   0  0  0  0  0  0  0  0  0  0  0  0
   -0.4361  -17.5933    0.0000 O   0  0  0  0  0  0  0  0  0  0  0  0
    0.2722  -16.3522    0.0000 N   0  0  0  0  0  0  0  0  0  0  0  0
    0.9888  -16.7611    0.0000 C   0  0  0  0  0  0  0  0  0  0  0  0
    1.0742  -17.5783    0.0000 S   0  0  0  0  0  0  0  0  0  0  0  0
    1.8821  -17.7459    0.0000 C   0  0  0  0  0  0  0  0  0  0  0  0
    2.2911  -17.0293    0.0000 C   0  0  0  0  0  0  0  0  0  0  0  0
    1.7359  -16.4190    0.0000 N   0  0  0  0  0  0  0  0  0  0  0  0
   -5.5538  -18.4184    0.0000 C   0  0  0  0  0  0  0  0  0  0  0  0
   -5.1474  -19.1350    0.0000 C   0  0  0  0  0  0  0  0  0  0  0  0
    2.2213  -18.4979    0.0000 F   0  0  0  0  0  0  0  0  0  0  0  0
 12 13  1  0  0  0  0 
 13 14  1  0  0  0  0 
 14 15  1  0  0  0  0 
  3  4  2  0  0  0  0 
  2 16  1  0  0  0  0 
  7  8  1  0  0  0  0 
 16 17  1  0  0  0  0 
 16 18  2  0  0  0  0 
  7  9  1  1  0  0  0 
 16 19  2  0  0  0  0 
  4  5  1  0  0  0  0 
  8 20  2  0  0  0  0 
  9 10  1  0  0  0  0 
  8 21  1  0  0  0  0 
 10 11  1  0  0  0  0 
 21 22  1  0  0  0  0 
 22 23  1  0  0  0  0 
  2  3  1  0  0  0  0 
  5  6  2  0  0  0  0 
  6  1  1  0  0  0  0 
  1  2  2  0  0  0  0 
 23 24  1  0  0  0  0 
 24 25  2  0  0  0  0 
 25 26  1  0  0  0  0 
 26 22  2  0  0  0  0 
 27 17  1  0  0  0  0 
 28 27  1  0  0  0  0 
 17 28  1  0  0  0  0 
  5  7  1  0  0  0  0 
 10 15  1  0  0  0  0 
 11 12  1  0  0  0  0 
 24 29  1  0  0  0  0 
M  END