
  CDK    6/4/10,11:41

 27 28  0  0  0  0  0  0  0  0999 V2000
    8.2823   -5.5698    0.0000 C   0  0  0  0  0  0  0  0  0  0  0  0
    8.2812   -6.3989    0.0000 C   0  0  0  0  0  0  0  0  0  0  0  0
    8.9975   -6.8126    0.0000 C   0  0  0  0  0  0  0  0  0  0  0  0
    9.7154   -6.3984    0.0000 C   0  0  0  0  0  0  0  0  0  0  0  0
    9.7126   -5.5662    0.0000 C   0  0  0  0  0  0  0  0  0  0  0  0
    8.9957   -5.1562    0.0000 C   0  0  0  0  0  0  0  0  0  0  0  0
    7.5649   -6.8117    0.0000 S   0  0  0  0  0  0  0  0  0  0  0  0
    6.8434   -7.2191    0.0000 N   0  0  0  0  0  0  0  0  0  0  0  0
    7.9746   -7.5298    0.0000 O   0  0  0  0  0  0  0  0  0  0  0  0
    7.1570   -6.0926    0.0000 O   0  0  0  0  0  0  0  0  0  0  0  0
    6.8353   -8.0457    0.0000 C   0  0  0  0  0  0  0  0  0  0  0  0
    6.1650   -8.5286    0.0000 N   0  0  0  0  0  0  0  0  0  0  0  0
    6.4129   -9.3174    0.0000 N   0  0  0  0  0  0  0  0  0  0  0  0
    7.2396   -9.3253    0.0000 C   0  0  0  0  0  0  0  0  0  0  0  0
    7.5024   -8.5416    0.0000 S   0  0  0  0  0  0  0  0  0  0  0  0
   10.4258   -5.1524    0.0000 C   0  0  0  0  0  0  0  0  0  0  0  0
   11.1397   -5.5657    0.0000 C   0  0  0  0  0  0  0  0  0  0  0  0
   11.8537   -5.1524    0.0000 C   0  0  0  0  0  0  0  0  0  0  0  0
   12.5677   -5.5657    0.0000 C   0  0  0  0  0  0  0  0  0  0  0  0
   13.2817   -5.1524    0.0000 C   0  0  0  0  0  0  0  0  0  0  0  0
   13.9956   -5.5657    0.0000 C   0  0  0  0  0  0  0  0  0  0  0  0
   14.7096   -5.1524    0.0000 C   0  0  0  0  0  0  0  0  0  0  0  0
   15.4236   -5.5657    0.0000 C   0  0  0  0  0  0  0  0  0  0  0  0
   16.1376   -5.1524    0.0000 C   0  0  0  0  0  0  0  0  0  0  0  0
   16.8516   -5.5657    0.0000 C   0  0  0  0  0  0  0  0  0  0  0  0
   17.5655   -5.1524    0.0000 C   0  0  0  0  0  0  0  0  0  0  0  0
   18.2795   -5.5657    0.0000 C   0  0  0  0  0  0  0  0  0  0  0  0
  2  7  1  0  0  0  0 
 12 13  1  0  0  0  0 
 13 14  2  0  0  0  0 
 14 15  1  0  0  0  0 
 15 11  1  0  0  0  0 
  3  4  2  0  0  0  0 
  5 16  1  0  0  0  0 
  7  8  1  0  0  0  0 
 16 17  1  0  0  0  0 
 17 18  1  0  0  0  0 
  7  9  2  0  0  0  0 
 18 19  1  0  0  0  0 
  4  5  1  0  0  0  0 
 19 20  1  0  0  0  0 
  7 10  2  0  0  0  0 
 20 21  1  0  0  0  0 
  2  3  1  0  0  0  0 
 21 22  1  0  0  0  0 
  8 11  1  0  0  0  0 
 22 23  1  0  0  0  0 
 11 12  2  0  0  0  0 
 23 24  1  0  0  0  0 
  5  6  2  0  0  0  0 
 24 25  1  0  0  0  0 
  6  1  1  0  0  0  0 
 25 26  1  0  0  0  0 
  1  2  2  0  0  0  0 
 26 27  1  0  0  0  0 
M  END