
          11280714522D 1   1.00000     0.00000     0

 55 60  0     1  0            999 V2000
    5.9917   -2.9417    0.0000 N   0  0  0  0  0  0           0  0  0
    6.3500   -2.1917    0.0000 C   0  0  2  0  0  0           0  0  0
    5.1750   -1.2542    0.0000 N   0  0  3  0  0  0           0  0  0
    5.9875   -1.4375    0.0000 C   0  0  0  0  0  0           0  0  0
    5.1792   -3.1292    0.0000 C   0  0  0  0  0  0           0  0  0
    4.5250   -2.6125    0.0000 C   0  0  0  0  0  0           0  0  0
    7.1750   -2.1875    0.0000 N   0  0  0  0  0  0           0  0  0
    4.5250   -1.7792    0.0000 C   0  0  0  0  0  0           0  0  0
    7.5875   -2.9000    0.0000 C   0  0  0  0  0  0           0  0  0
    7.1792   -6.4667    0.0000 C   0  0  0  0  0  0           0  0  0
    8.4125   -2.9000    0.0000 N   0  0  0  0  0  0           0  0  0
    0.1792  -11.4875    0.0000 N   0  0  3  0  0  0           0  0  0
    6.3542   -7.9000    0.0000 C   0  0  0  0  0  0           0  0  0
    6.5000   -0.7917    0.0000 O   0  0  0  0  0  0           0  0  0
    7.5917   -7.1792    0.0000 N   0  0  0  0  0  0           0  0  0
    4.9917   -3.9375    0.0000 C   0  0  0  0  0  0           0  0  0
    7.1792   -3.6167    0.0000 O   0  0  0  0  0  0           0  0  0
    6.3542   -6.4667    0.0000 O   0  0  0  0  0  0           0  0  0
    7.5917   -5.7542    0.0000 O   0  0  0  0  0  0           0  0  0
    8.8292   -3.6125    0.0000 C   0  0  0  0  0  0           0  0  0
    5.9417   -7.1875    0.0000 O   0  0  0  0  0  0           0  0  0
    1.0042  -11.4792    0.0000 C   0  0  0  0  0  0           0  0  0
    1.4167  -10.7667    0.0000 C   0  0  0  0  0  0           0  0  0
    7.1792   -7.9000    0.0000 C   0  0  0  0  0  0           0  0  0
    5.9417   -8.6125    0.0000 N   0  0  0  0  0  0           0  0  0
    4.9875   -0.4542    0.0000 C   0  0  0  0  0  0           0  0  0
    8.4167   -4.3167    0.0000 C   0  0  0  0  0  0           0  0  0
    2.2417  -10.7625    0.0000 C   0  0  0  0  0  0           0  0  0
    8.4167   -5.7542    0.0000 C   0  0  0  0  0  0           0  0  0
    3.8042   -3.0250    0.0000 C   0  0  0  0  0  0           0  0  0
    8.8292   -5.0375    0.0000 C   0  0  0  0  0  0           0  0  0
    2.6417  -10.0417    0.0000 C   0  0  0  0  0  0           0  0  0
    3.8042   -1.3667    0.0000 C   0  0  0  0  0  0           0  0  0
    4.7042   -9.3292    0.0000 C   0  0  0  0  0  0           0  0  0
    3.4667  -10.0417    0.0000 O   0  0  0  0  0  0           0  0  0
   -0.2208  -12.2042    0.0000 C   0  0  0  0  0  0           0  0  0
   -0.2333  -10.7750    0.0000 C   0  0  0  0  0  0           0  0  0
    1.4125   -9.3292    0.0000 C   0  0  0  0  0  0           0  0  0
   10.0667   -4.3167    0.0000 C   0  0  0  0  0  0           0  0  0
    5.1167   -8.6125    0.0000 C   0  0  0  0  0  0           0  0  0
    9.6500   -3.6042    0.0000 C   0  0  0  0  0  0           0  0  0
    1.0000  -10.0500    0.0000 C   0  0  0  0  0  0           0  0  0
    4.2042   -4.1792    0.0000 C   0  0  0  0  0  0           0  0  0
    5.6000   -4.4917    0.0000 C   0  0  0  0  0  0           0  0  0
    3.8792   -9.3292    0.0000 C   0  0  0  0  0  0           0  0  0
    9.6542   -5.0375    0.0000 C   0  0  0  0  0  0           0  0  0
    2.2375   -9.3292    0.0000 C   0  0  0  0  0  0           0  0  0
    3.0917   -2.6125    0.0000 C   0  0  0  0  0  0           0  0  0
    3.0917   -1.7875    0.0000 C   0  0  0  0  0  0           0  0  0
   -1.0458  -12.2042    0.0000 C   0  0  0  0  0  0           0  0  0
   -1.0500  -10.7750    0.0000 C   0  0  0  0  0  0           0  0  0
    4.0250   -4.9792    0.0000 C   0  0  0  0  0  0           0  0  0
    5.4167   -5.2917    0.0000 C   0  0  0  0  0  0           0  0  0
    4.6292   -5.5417    0.0000 C   0  0  0  0  0  0           0  0  0
   -1.4625  -11.4917    0.0000 C   0  0  0  0  0  0           0  0  0
  2  1  1  0     0  0
  3  4  1  0     0  0
  4  2  1  0     0  0
  5  1  2  0     0  0
  6  5  1  0     0  0
  2  7  1  6     0  0
  8  6  1  0     0  0
  9  7  1  0     0  0
 10 19  1  0     0  0
 11  9  1  0     0  0
 12 22  1  0     0  0
 13 24  1  0     0  0
 14  4  2  0     0  0
 15 10  1  0     0  0
 16  5  1  0     0  0
 17  9  2  0     0  0
 18 10  2  0     0  0
 19 29  1  0     0  0
 20 11  1  0     0  0
 21 13  2  0     0  0
 22 23  1  0     0  0
 23 28  2  0     0  0
 24 15  1  0     0  0
 25 13  1  0     0  0
 26  3  1  0     0  0
 27 20  2  0     0  0
 28 32  1  0     0  0
 29 31  1  0     0  0
 30  6  2  0     0  0
 31 27  1  0     0  0
 32 35  1  0     0  0
 33  8  2  0     0  0
 34 40  1  0     0  0
 35 45  1  0     0  0
 36 12  1  0     0  0
 37 12  1  0     0  0
 38 47  1  0     0  0
 39 41  2  0     0  0
 40 25  1  0     0  0
 41 20  1  0     0  0
 42 38  2  0     0  0
 43 16  2  0     0  0
 44 16  1  0     0  0
 45 34  1  0     0  0
 46 39  1  0     0  0
 47 32  2  0     0  0
 48 30  1  0     0  0
 49 48  2  0     0  0
 50 36  1  0     0  0
 51 37  1  0     0  0
 52 43  1  0     0  0
 53 44  2  0     0  0
 54 53  1  0     0  0
 55 51  1  0     0  0
  8  3  1  0     0  0
 52 54  2  0     0  0
 33 49  1  0     0  0
 31 46  2  0     0  0
 42 23  1  0     0  0
 50 55  1  0     0  0
M  END