
          11280715222D 1   1.00000     0.00000     0

 14 15  0     0  0            999 V2000
    2.8792    0.3875    0.0000 C   0  0  0  0  0  0           0  0  0
    2.8792    1.2125    0.0000 C   0  0  0  0  0  0           0  0  0
    2.1750   -0.0292    0.0000 C   0  0  0  0  0  0           0  0  0
    2.1625    1.6208    0.0000 O   0  0  0  0  0  0           0  0  0
    3.5917    1.6333    0.0000 N   0  0  0  0  0  0           0  0  0
    2.1750   -0.8542    0.0000 C   0  0  0  0  0  0           0  0  0
    4.3042    1.2208    0.0000 O   0  0  0  0  0  0           0  0  0
    3.6000   -0.0167    0.0000 C   0  0  0  0  0  0           0  0  0
    1.4542    0.3833    0.0000 C   0  0  0  0  0  0           0  0  0
    3.6042   -0.8500    0.0000 C   0  0  0  0  0  0           0  0  0
    2.8917   -1.2667    0.0000 C   0  0  0  0  0  0           0  0  0
    1.4542   -1.2667    0.0000 C   0  0  0  0  0  0           0  0  0
    0.7417   -0.0292    0.0000 C   0  0  0  0  0  0           0  0  0
    0.7417   -0.8542    0.0000 C   0  0  0  0  0  0           0  0  0
  2  1  1  0     0  0
  3  1  1  0     0  0
  4  2  2  0     0  0
  5  2  1  0     0  0
  6  3  2  0     0  0
  7  5  1  0     0  0
  8  1  2  0     0  0
  9  3  1  0     0  0
 10  8  1  0     0  0
 11 10  2  0     0  0
 12  6  1  0     0  0
 13  9  2  0     0  0
 14 13  1  0     0  0
  6 11  1  0     0  0
 12 14  2  0     0  0
M  END