
          11280714452D 1   1.00000     0.00000     0

 25 27  0     0  0            999 V2000
    1.0667   -4.0417    0.0000 C   0  0  0  0  0  0           0  0  0
    1.8750   -3.8667    0.0000 N   0  0  0  0  0  0           0  0  0
    1.9625   -3.0500    0.0000 C   0  0  0  0  0  0           0  0  0
    1.2042   -2.7167    0.0000 N   0  0  0  0  0  0           0  0  0
    0.6542   -3.3292    0.0000 C   0  0  0  0  0  0           0  0  0
    0.7292   -4.7917    0.0000 C   0  0  0  0  0  0           0  0  0
    1.1417   -5.5125    0.0000 S   0  0  0  0  0  0           0  0  0
    2.6792   -2.6375    0.0000 C   0  0  0  0  0  0           0  0  0
   -0.0750   -4.9667    0.0000 C   0  0  0  0  0  0           0  0  0
    0.5917   -6.1250    0.0000 C   0  0  0  0  0  0           0  0  0
   -0.1583   -5.7917    0.0000 C   0  0  0  0  0  0           0  0  0
    7.6792   -1.3792    0.0000 N   0  0  0  0  0  0           0  0  0
    3.3917   -3.0500    0.0000 C   0  0  0  0  0  0           0  0  0
    2.6792   -1.8125    0.0000 C   0  0  0  0  0  0           0  0  0
    4.8167   -1.3917    0.0000 O   0  0  0  0  0  0           0  0  0
    6.2500   -1.3875    0.0000 C   0  0  3  0  0  0           0  0  0
    4.1042   -1.8042    0.0000 C   0  0  0  0  0  0           0  0  0
    6.9667   -1.7917    0.0000 C   0  0  0  0  0  0           0  0  0
    5.5375   -1.8000    0.0000 C   0  0  0  0  0  0           0  0  0
    3.3917   -1.3917    0.0000 C   0  0  0  0  0  0           0  0  0
    4.1042   -2.6375    0.0000 C   0  0  0  0  0  0           0  0  0
    6.2417   -0.5625    0.0000 O   0  0  0  0  0  0           0  0  0
    8.3917   -1.7917    0.0000 C   0  0  3  0  0  0           0  0  0
    9.1042   -1.3750    0.0000 C   0  0  0  0  0  0           0  0  0
    8.3917   -2.6167    0.0000 C   0  0  0  0  0  0           0  0  0
  2  1  1  0     0  0
  3  2  2  0     0  0
  4  5  1  0     0  0
  5  1  2  0     0  0
  6  1  1  0     0  0
  7  6  1  0     0  0
  8  3  1  0     0  0
  9  6  2  0     0  0
 10  7  1  0     0  0
 11  9  1  0     0  0
 12 18  1  0     0  0
 13  8  2  0     0  0
 14  8  1  0     0  0
 15 17  1  0     0  0
 16 19  1  0     0  0
 17 20  1  0     0  0
 18 16  1  0     0  0
 19 15  1  0     0  0
 20 14  2  0     0  0
 21 13  1  0     0  0
 22 16  1  0     0  0
 23 12  1  0     0  0
 24 23  1  0     0  0
 25 23  1  0     0  0
  3  4  1  0     0  0
 11 10  2  0     0  0
 21 17  2  0     0  0
M  END