
  SciTegic12191613392D

 38 41  0  0  0  0            999 V2000
    1.2990   -0.7500    0.0000 C   0  0
    1.2990    0.7500    0.0000 N   0  0
    0.0000    1.5000    0.0000 C   0  0
   -1.2990    0.7500    0.0000 C   0  0
   -1.2990   -0.7500    0.0000 C   0  0
    0.0000   -1.5000    0.0000 N   0  0
    2.3383   -1.3500    0.0000 O   0  0
    0.0000   -2.7000    0.0000 C   0  0
   -2.5987   -1.5004    0.0000 N   0  0
   -0.0031    3.0008    0.0000 O   0  0
   -1.3039    3.7494    0.0000 C   0  0
   -1.3070    5.2502    0.0000 C   0  0
   -2.6061    6.0003    0.0000 C   0  0
   -2.6061    7.5003    0.0000 C   0  0
   -1.3071    8.2503    0.0000 C   0  0
   -0.0080    7.5003    0.0000 C   0  0
   -0.0080    6.0003    0.0000 C   0  0
    1.0312    8.1004    0.0000 F   0  0
   -3.6454    8.1002    0.0000 F   0  0
   -1.3040    9.7511    0.0000 O   0  0
   -0.0032   10.4997    0.0000 C   0  0
    0.0020   11.9998    0.0000 C   0  0
    1.3036   12.7453    0.0000 C   0  0
    2.6001   11.9908    0.0000 C   0  0
    2.5949   10.4908    0.0000 C   0  0
    1.2933    9.7453    0.0000 C   0  0
    3.6413   12.5873    0.0000 Cl  0  0
    1.3087   14.2461    0.0000 C   0  0
    0.2720   14.8503    0.0000 F   0  0
    2.3502   14.8422    0.0000 F   0  0
    1.3134   15.4461    0.0000 F   0  0
   -3.8991   -0.7525    0.0000 C   0  0
   -5.1969   -1.5046    0.0000 C   0  0
   -5.1945   -3.0046    0.0000 S   0  0
   -3.8943   -3.7525    0.0000 C   0  0
   -2.5964   -3.0004    0.0000 C   0  0
   -6.2203   -2.3818    0.0000 O   0  0
   -5.1644   -4.2042    0.0000 O   0  0
  1  2  1  0
  2  3  2  0
  3  4  1  0
  4  5  2  0
  5  6  1  0
  1  6  1  0
  1  7  2  0
  6  8  1  0
  5  9  1  0
 11 12  1  0
 12 13  1  0
 13 14  2  0
 14 15  1  0
 15 16  2  0
 16 17  1  0
 12 17  2  0
 16 18  1  0
 14 19  1  0
 21 22  1  0
 22 23  2  0
 23 24  1  0
 24 25  2  0
 25 26  1  0
 21 26  2  0
 20 21  1  0
 24 27  1  0
 15 20  1  0
 10 11  1  0
  3 10  1  0
 28 29  1  0
 28 30  1  0
 28 31  1  0
 23 28  1  0
  9 32  1  0
  9 36  1  0
 32 33  1  0
 33 34  1  0
 34 35  1  0
 35 36  1  0
 34 37  2  0
 34 38  2  0
M  END