
  SciTegic11201309402D

 57 61  0  0  0  0            999 V2000
   -0.3717  -19.7294    0.0000 C   0  0
   -1.0885  -20.1378    0.0000 C   0  0
   -1.0932  -20.9583    0.0000 C   0  0
   -0.3828  -21.3765    0.0000 C   0  0
    0.3341  -20.9681    0.0000 C   0  0
    0.3405  -20.1414    0.0000 C   0  0
   -3.2352  -19.6775    0.0000 C   0  0
   -2.5117  -19.2850    0.0000 C   0  0  1  0  0  0
   -1.8074  -19.7159    0.0000 C   0  0
   -1.8267  -20.5396    0.0000 O   0  0
   -3.2586  -20.5012    0.0000 C   0  0
   -3.9857  -20.8950    0.0000 C   0  0
   -4.0054  -21.7174    0.0000 C   0  0
   -3.3003  -22.1498    0.0000 C   0  0
   -2.5729  -21.7503    0.0000 C   0  0
   -2.5546  -20.9299    0.0000 C   0  0
   -3.3220  -22.9735    0.0000 O   0  0
    0.3424  -19.3189    0.0000 C   0  0
    1.0587  -19.7309    0.0000 O   0  0
    1.0587  -18.0805    0.0000 C   0  0  2  0  0  0
    1.0587  -17.2565    0.0000 C   0  0
    1.7708  -18.4925    0.0000 C   0  0
    1.7708  -16.8444    0.0000 O   0  0
    2.4872  -18.0805    0.0000 C   0  0
    2.4872  -17.2565    0.0000 O   0  0
    0.3424  -16.0203    0.0000 C   0  0  2  0  0  0
   -3.1965  -18.0279    0.0000 C   0  0
   -3.1731  -17.2001    0.0000 C   0  0
   -3.9200  -18.4206    0.0000 O   0  0
   -0.3938  -15.5927    0.0000 C   0  0
   -0.3935  -14.7421    0.0000 O   0  0
   -1.8665  -15.5922    0.0000 C   0  0  1  0  0  0
   -2.6030  -16.0192    0.0000 C   0  0
   -2.6033  -16.8698    0.0000 S   0  0
   -1.8662  -14.7415    0.0000 C   0  0
   -2.6023  -14.3180    0.0000 O   0  0
    1.0576  -15.6088    0.0000 C   0  0
    1.0587  -14.7836    0.0000 C   0  0
    0.6462  -13.5131    0.0000 N   0  0
    0.3904  -14.2975    0.0000 C   0  0
    1.4715  -13.5142    0.0000 C   0  0
    1.7215  -14.2985    0.0000 C   0  0
    2.5243  -14.4728    0.0000 C   0  0
    3.0777  -13.8635    0.0000 C   0  0
    2.8228  -13.0774    0.0000 C   0  0
    2.0207  -12.9069    0.0000 C   0  0
   -4.0473  -23.3670    0.0000 P   0  0
   -4.7507  -22.9359    0.0000 O   0  0
   -4.0690  -24.1920    0.0000 O   0  0
   -4.2397  -22.5647    0.0000 O   0  0
   -2.4938  -18.4602    0.0000 N   0  0
   -1.0891  -19.2677    0.0000 N   0  0
    0.3448  -18.4939    0.0000 N   0  0
    0.3435  -16.8453    0.0000 N   0  0
    3.2001  -18.4440    0.0000 N   0  0
   -1.1302  -15.9645    0.0000 N   0  0
   -1.1296  -14.3186    0.0000 N   0  0
 27 28  1  0
 27 29  2  0
 26 30  1  0
 30 31  2  0
 32 33  1  0
 33 34  1  0
 32 35  1  1
 35 36  2  0
 28 34  1  0
 26 37  1  6
 37 38  1  0
 38 42  1  0
 41 39  1  0
 39 40  1  0
 40 38  2  0
 41 42  2  0
 42 43  1  0
 43 44  2  0
 44 45  1  0
 45 46  2  0
 46 41  1  0
 17 47  1  0
 47 48  1  0
 47 49  2  0
 47 50  1  0
  1  2  1  0
  1  6  1  0
  2  3  1  0
  3  4  1  0
  4  5  1  0
  5  6  1  0
  8  7  1  6
  8  9  1  0
  9 10  2  0
  7 11  1  0
 11 12  2  0
 12 13  1  0
 13 14  2  0
 14 15  1  0
 15 16  2  0
 16 11  1  0
 14 17  1  0
  1 18  1  0
 18 19  2  0
 20 21  1  0
 20 22  1  6
 21 23  2  0
 22 24  1  0
 24 25  2  0
 21 54  1  0
 54 26  1  0
  9 52  1  0
 52  1  1  0
 24 55  1  0
  8 51  1  0
 51 27  1  0
 30 56  1  0
 56 32  1  0
 18 53  1  0
 53 20  1  0
 35 57  1  0
M  END