
          11280715032D 1   1.00000     0.00000     0

 34 37  0     1  0            999 V2000
    3.3792   -4.0042    0.0000 C   0  0  1  0  0  0           0  0  0
    2.5542   -4.0042    0.0000 O   0  0  0  0  0  0           0  0  0
    3.6375   -3.2167    0.0000 C   0  0  2  0  0  0           0  0  0
    3.8625   -4.6750    0.0000 C   0  0  0  0  0  0           0  0  0
    2.9667   -2.7375    0.0000 C   0  0  1  0  0  0           0  0  0
    2.3000   -3.2167    0.0000 C   0  0  0  0  0  0           0  0  0
    8.7792   -3.6750    0.0000 C   0  0  0  0  0  0           0  0  0
    3.6750    0.9833    0.0000 C   0  0  0  0  0  0           0  0  0
    2.9625   -1.9125    0.0000 O   0  0  0  0  0  0           0  0  0
    4.0000   -6.0875    0.0000 N   0  0  0  0  0  0           0  0  0
    8.7792   -4.5000    0.0000 O   0  0  0  0  0  0           0  0  0
    3.6667    1.7958    0.0000 C   0  0  0  0  0  0           0  0  0
    4.3917    0.5708    0.0000 C   0  0  0  0  0  0           0  0  0
    2.9625    0.5625    0.0000 C   0  0  0  0  0  0           0  0  0
    5.8167   -3.2625    0.0000 C   0  0  0  0  0  0           0  0  0
    6.6417   -3.2625    0.0000 C   0  0  0  0  0  0           0  0  0
    3.6792   -1.4917    0.0000 C   0  0  0  0  0  0           0  0  0
    3.6750   -0.6667    0.0000 C   0  0  0  0  0  0           0  0  0
    9.5000   -3.2625    0.0000 O   0  0  0  0  0  0           0  0  0
    2.9625   -0.2625    0.0000 C   0  0  0  0  0  0           0  0  0
    4.3917   -0.2542    0.0000 C   0  0  0  0  0  0           0  0  0
    3.5250   -5.4250    0.0000 C   0  0  0  0  0  0           0  0  0
    4.4250   -2.9625    0.0000 C   0  0  0  0  0  0           0  0  0
    8.0667   -3.2625    0.0000 C   0  0  0  0  0  0           0  0  0
    4.6750   -4.5875    0.0000 C   0  0  0  0  0  0           0  0  0
    4.8250   -6.0042    0.0000 C   0  0  0  0  0  0           0  0  0
    5.0292   -3.5167    0.0000 C   0  0  0  0  0  0           0  0  0
    7.3542   -3.6750    0.0000 C   0  0  0  0  0  0           0  0  0
    4.3917    2.2125    0.0000 C   0  0  0  0  0  0           0  0  0
    2.9542    2.2083    0.0000 C   0  0  0  0  0  0           0  0  0
    5.1625   -5.2500    0.0000 C   0  0  0  0  0  0           0  0  0
    4.3875    3.0458    0.0000 C   0  0  0  0  0  0           0  0  0
    2.9542    3.0458    0.0000 C   0  0  0  0  0  0           0  0  0
    3.6750    3.4583    0.0000 C   0  0  0  0  0  0           0  0  0
  2  1  1  0     0  0
  3  1  1  0     0  0
  1  4  1  1     0  0
  5  3  1  0     0  0
  6  2  1  0     0  0
  7 24  1  0     0  0
  8 13  2  0     0  0
  5  9  1  1     0  0
 10 22  1  0     0  0
 11  7  2  0     0  0
 12  8  1  0     0  0
 13 21  1  0     0  0
 14 20  2  0     0  0
 15 27  1  0     0  0
 16 15  2  0     0  0
 17  9  1  0     0  0
 18 17  1  0     0  0
 19  7  1  0     0  0
 20 18  1  0     0  0
 21 18  2  0     0  0
 22  4  2  0     0  0
  3 23  1  6     0  0
 24 28  1  0     0  0
 25  4  1  0     0  0
 26 31  1  0     0  0
 27 23  1  0     0  0
 28 16  1  0     0  0
 29 12  2  0     0  0
 30 12  1  0     0  0
 31 25  2  0     0  0
 32 29  1  0     0  0
 33 30  2  0     0  0
 34 33  1  0     0  0
  5  6  1  0     0  0
 10 26  2  0     0  0
 14  8  1  0     0  0
 32 34  2  0     0  0
M  END