
  CDK    9/16/09,9:48

 29 33  0  0  0  0  0  0  0  0999 V2000
    0.2292  -24.7370    0.0000 O   0  0  0  0  0  0  0  0  0  0  0  0
   -0.5603  -24.9949    0.0000 C   0  0  0  0  0  0  0  0  0  0  0  0
   -0.5565  -25.8235    0.0000 C   0  0  0  0  0  0  0  0  0  0  0  0
    0.2328  -26.0765    0.0000 C   0  0  0  0  0  0  0  0  0  0  0  0
    0.7178  -25.4045    0.0000 C   0  0  0  0  0  0  0  0  0  0  0  0
   -1.2272  -24.5144    0.0000 C   0  0  0  0  0  0  0  0  0  0  0  0
   -1.1420  -23.6931    0.0000 C   0  0  0  0  0  0  0  0  0  0  0  0
   -1.8098  -23.2106    0.0000 C   0  0  0  0  0  0  0  0  0  0  0  0
   -2.5632  -23.5482    0.0000 N   0  0  0  0  0  0  0  0  0  0  0  0
   -2.6446  -24.3732    0.0000 C   0  0  0  0  0  0  0  0  0  0  0  0
   -1.9758  -24.8520    0.0000 C   0  0  0  0  0  0  0  0  0  0  0  0
   -1.2206  -26.3115    0.0000 C   0  0  0  0  0  0  0  0  0  0  0  0
   -1.9758  -25.9777    0.0000 C   0  0  0  0  0  0  0  0  0  0  0  0
   -2.6404  -26.4644    0.0000 C   0  0  0  0  0  0  0  0  0  0  0  0
   -1.1298  -27.1278    0.0000 C   0  0  0  0  0  0  0  0  0  0  0  0
   -1.7913  -27.6166    0.0000 C   0  0  0  0  0  0  0  0  0  0  0  0
   -2.5558  -27.2850    0.0000 C   0  0  0  0  0  0  0  0  0  0  0  0
   -3.1074  -27.9096    0.0000 C   0  0  0  0  0  0  0  0  0  0  0  0
   -2.6839  -28.6273    0.0000 C   0  0  0  0  0  0  0  0  0  0  0  0
   -1.8705  -28.4462    0.0000 C   0  0  0  0  0  0  0  0  0  0  0  0
   -3.9284  -27.8312    0.0000 N   0  0  0  0  0  0  0  0  0  0  0  0
   -4.4066  -28.5030    0.0000 O   0  0  0  0  0  0  0  0  0  0  0  0
    1.5408  -25.4020    0.0000 C   0  0  0  0  0  0  0  0  0  0  0  0
    1.9509  -24.6866    0.0000 N   0  0  0  0  0  0  0  0  0  0  0  0
    2.7747  -24.6881    0.0000 C   0  0  0  0  0  0  0  0  0  0  0  0
    3.1847  -23.9769    0.0000 C   0  0  0  0  0  0  0  0  0  0  0  0
    2.7738  -23.2615    0.0000 O   0  0  0  0  0  0  0  0  0  0  0  0
    1.9481  -23.2620    0.0000 C   0  0  0  0  0  0  0  0  0  0  0  0
    1.5335  -23.9779    0.0000 C   0  0  0  0  0  0  0  0  0  0  0  0
 14 17  2  0  0  0  0 
  1  2  1  0  0  0  0 
 16 15  2  0  0  0  0 
 15 12  1  0  0  0  0 
  3 12  1  0  0  0  0 
 16 17  1  0  0  0  0 
  7  8  1  0  0  0  0 
  3  4  1  0  0  0  0 
  8  9  2  0  0  0  0 
  4  5  2  0  0  0  0 
  9 10  1  0  0  0  0 
 17 18  1  0  0  0  0 
 18 19  1  0  0  0  0 
 19 20  1  0  0  0  0 
 20 16  1  0  0  0  0 
  5  1  1  0  0  0  0 
 18 21  2  0  0  0  0 
 10 11  2  0  0  0  0 
 21 22  1  0  0  0  0 
 11  6  1  0  0  0  0 
  5 23  1  0  0  0  0 
  2  6  1  0  0  0  0 
 23 24  1  0  0  0  0 
 24 25  1  0  0  0  0 
  2  3  2  0  0  0  0 
 12 13  2  0  0  0  0 
  6  7  2  0  0  0  0 
 13 14  1  0  0  0  0 
 24 29  1  0  0  0  0 
 25 26  1  0  0  0  0 
 26 27  1  0  0  0  0 
 27 28  1  0  0  0  0 
 28 29  1  0  0  0  0 
M  END