
          11280715412D 1   1.00000     0.00000     0

 49 53  0     0  0            999 V2000
   -0.1583    1.1500    0.0000 S   0  0  3  0  0  0           0  0  0
    0.5542   -0.0792    0.0000 C   0  0  0  0  0  0           0  0  0
    0.5542    0.7458    0.0000 N   0  0  0  0  0  0           0  0  0
    1.2750   -0.4917    0.0000 C   0  0  0  0  0  0           0  0  0
   -0.1583   -0.5000    0.0000 N   0  0  0  0  0  0           0  0  0
    0.5542   -1.7375    0.0000 N   0  0  0  0  0  0           0  0  0
   -0.1583   -1.3250    0.0000 C   0  0  0  0  0  0           0  0  0
    1.2750   -1.3250    0.0000 C   0  0  0  0  0  0           0  0  0
   -0.1625    1.9750    0.0000 C   0  0  0  0  0  0           0  0  0
    1.9875   -0.0792    0.0000 O   0  0  0  0  0  0           0  0  0
    5.5625   -4.6167    0.0000 N   0  0  0  0  0  0           0  0  0
    4.8500   -5.0292    0.0000 C   0  0  0  0  0  0           0  0  0
    0.5542    2.3833    0.0000 N   0  0  0  0  0  0           0  0  0
    2.7042   -0.4875    0.0000 C   0  0  0  0  0  0           0  0  0
   -0.9583    1.3708    0.0000 O   0  0  0  0  0  0           0  0  0
   -0.3750    0.3583    0.0000 O   0  0  0  0  0  0           0  0  0
    2.7042   -2.9667    0.0000 C   0  0  0  0  0  0           0  0  0
    3.4167   -3.3792    0.0000 C   0  0  0  0  0  0           0  0  0
    6.2792   -5.0250    0.0000 C   0  0  0  0  0  0           0  0  0
    6.9875   -4.6042    0.0000 N   0  0  0  0  0  0           0  0  0
    0.5500    3.2083    0.0000 C   0  0  0  0  0  0           0  0  0
   -0.8708   -1.7375    0.0000 C   0  0  0  0  0  0           0  0  0
    4.8500   -5.8542    0.0000 O   0  0  0  0  0  0           0  0  0
   -0.1708    3.6208    0.0000 C   0  0  0  0  0  0           0  0  0
   -0.8750    2.3833    0.0000 C   0  0  0  0  0  0           0  0  0
    6.9917   -6.2542    0.0000 N   0  0  0  0  0  0           0  0  0
   -2.2958   -2.5542    0.0000 N   0  0  0  0  0  0           0  0  0
    3.4042   -0.0667    0.0000 C   0  0  0  0  0  0           0  0  0
   -0.8833    3.2083    0.0000 C   0  0  0  0  0  0           0  0  0
    1.9917   -1.7375    0.0000 O   0  0  0  0  0  0           0  0  0
    4.1292   -4.6167    0.0000 O   0  0  0  0  0  0           0  0  0
   -0.1708    4.4417    0.0000 C   0  0  3  0  0  0           0  0  0
    6.2750   -5.8500    0.0000 C   0  0  0  0  0  0           0  0  0
    3.4000    0.7500    0.0000 O   0  0  0  0  0  0           0  0  0
    1.9917   -2.5625    0.0000 C   0  0  0  0  0  0           0  0  0
    4.1292   -3.7917    0.0000 C   0  0  0  0  0  0           0  0  0
    7.7000   -5.0167    0.0000 C   0  0  0  0  0  0           0  0  0
    2.7042   -1.3125    0.0000 C   0  0  0  0  0  0           0  0  0
    7.7042   -5.8417    0.0000 C   0  0  0  0  0  0           0  0  0
   -1.5833   -2.9667    0.0000 C   0  0  0  0  0  0           0  0  0
   -2.2958   -1.7292    0.0000 C   0  0  0  0  0  0           0  0  0
   -0.8708   -2.5542    0.0000 C   0  0  0  0  0  0           0  0  0
   -1.5833   -1.3167    0.0000 C   0  0  0  0  0  0           0  0  0
    4.1250   -0.4750    0.0000 C   0  0  0  0  0  0           0  0  0
   -0.8833    4.8542    0.0000 C   0  0  0  0  0  0           0  0  0
    0.5417    4.8542    0.0000 C   0  0  0  0  0  0           0  0  0
    2.6792    1.1583    0.0000 C   0  0  0  0  0  0           0  0  0
    3.4167   -1.7167    0.0000 C   0  0  0  0  0  0           0  0  0
    4.1292   -1.3042    0.0000 C   0  0  0  0  0  0           0  0  0
  2  3  1  0     0  0
  3  1  1  0     0  0
  4  2  2  0     0  0
  5  2  1  0     0  0
  6  7  1  0     0  0
  7  5  2  0     0  0
  8  4  1  0     0  0
  9  1  1  0     0  0
 10  4  1  0     0  0
 11 12  1  0     0  0
 12 31  1  0     0  0
 13  9  2  0     0  0
 14 10  1  0     0  0
 15  1  2  0     0  0
 16  1  2  0     0  0
 17 35  1  0     0  0
 18 17  3  0     0  0
 19 11  1  0     0  0
 20 19  1  0     0  0
 21 13  1  0     0  0
 22  7  1  0     0  0
 23 12  2  0     0  0
 24 29  1  0     0  0
 25  9  1  0     0  0
 26 33  1  0     0  0
 27 41  2  0     0  0
 28 14  1  0     0  0
 29 25  2  0     0  0
 30  8  1  0     0  0
 31 36  1  0     0  0
 32 24  1  0     0  0
 33 19  2  0     0  0
 34 28  1  0     0  0
 35 30  1  0     0  0
 36 18  1  0     0  0
 37 20  2  0     0  0
 38 14  2  0     0  0
 39 26  2  0     0  0
 40 42  2  0     0  0
 41 43  1  0     0  0
 42 22  1  0     0  0
 43 22  2  0     0  0
 44 28  2  0     0  0
 45 32  1  0     0  0
 46 32  1  0     0  0
 47 34  1  0     0  0
 48 38  1  0     0  0
 49 48  2  0     0  0
 21 24  2  0     0  0
  8  6  2  0     0  0
 40 27  1  0     0  0
 49 44  1  0     0  0
 37 39  1  0     0  0
M  END