
  SciTegic11201309402D

 68 70  0  0  1  0            999 V2000
   11.6375   -2.5667    0.0000 N   0  0
   11.1292   -2.2750    0.0000 C   0  0
   12.2917   -1.7542    0.0000 C   0  0
   12.1750   -2.3292    0.0000 C   0  0
    9.6000   -2.5667    0.0000 C   0  0
    6.5375   -2.5667    0.0000 C   0  0
   11.8542   -1.3667    0.0000 N   0  0
    8.5750   -2.5667    0.0000 N   0  0
    5.5125   -2.5667    0.0000 N   0  0
   10.6167   -2.5667    0.0000 C   0  0  1  0  0  0
    8.0667   -2.2750    0.0000 C   0  0
    5.0042   -2.2750    0.0000 C   0  0
   10.1042   -2.2750    0.0000 N   0  0
    7.0417   -2.2750    0.0000 N   0  0
    6.0292   -2.2750    0.0000 C   0  0  1  0  0  0
    9.0875   -2.2750    0.0000 C   0  0  1  0  0  0
   11.9875   -0.7792    0.0000 C   0  0  2  0  0  0
   11.8792   -3.1042    0.0000 C   0  0
    7.5542   -2.5667    0.0000 C   0  0  1  0  0  0
   11.7792   -3.8042    0.0000 N   0  0
   12.4167   -2.8625    0.0000 C   0  0
    5.5125   -4.9292    0.0000 C   0  0
   11.5500   -0.3917    0.0000 C   0  0
   11.0375   -3.7750    0.0000 C   0  0
   10.6167   -3.1542    0.0000 C   0  0
    3.9792   -2.2750    0.0000 N   0  0
   11.3750   -4.9500    0.0000 N   0  0
   11.9792   -4.5375    0.0000 C   0  0
    3.4792   -2.5667    0.0000 C   0  0
    4.4917   -2.5667    0.0000 C   0  0  1  0  0  0
    5.5125   -4.3417    0.0000 N   0  0
   11.1292   -1.6875    0.0000 O   0  0
   12.8625   -1.5792    0.0000 O   0  0
    6.5375   -3.1542    0.0000 O   0  0
    9.6000   -3.1542    0.0000 O   0  0
   10.7792   -4.4792    0.0000 C   0  0
    8.0667   -1.6875    0.0000 O   0  0
    5.0042   -1.6875    0.0000 O   0  0
    7.5542   -3.1542    0.0000 C   0  0
   10.9875   -0.5750    0.0000 O   0  0
    3.4792   -3.1542    0.0000 O   0  0
    6.0292   -5.2167    0.0000 N   0  0
    5.0042   -5.2167    0.0000 N   0  0
    6.0292   -1.6875    0.0000 C   0  0
    9.0875   -1.6875    0.0000 C   0  0  2  0  0  0
   12.5417   -0.6042    0.0000 C   0  0  1  0  0  0
    8.0667   -3.4542    0.0000 C   0  0
   11.6750    0.1875    0.0000 O   0  0
    9.0875   -4.0375    0.0000 C   0  0
    2.4542   -2.5667    0.0000 N   0  0
    8.5750   -3.1542    0.0000 C   0  0
    8.0667   -4.0375    0.0000 C   0  0
    9.0875   -3.4542    0.0000 C   0  0
    8.5750   -4.3417    0.0000 C   0  0
    9.6000   -4.3417    0.0000 O   0  0
    2.9667   -2.2750    0.0000 C   0  0
    5.0042   -4.0375    0.0000 C   0  0
    4.4917   -3.1542    0.0000 C   0  0
    2.3000   -3.1417    0.0000 C   0  0
    8.5750   -1.3917    0.0000 C   0  0
   12.6667   -0.0167    0.0000 C   0  0
    5.5125   -1.3917    0.0000 C   0  0
    6.5375   -1.3917    0.0000 C   0  0
    9.6000   -1.3917    0.0000 C   0  0
   12.9792   -1.0042    0.0000 C   0  0
    5.0042   -3.4542    0.0000 C   0  0
    8.5750   -0.8042    0.0000 C   0  0
   13.2292    0.1625    0.0000 C   0  0
  2  1  1  0
  3  4  1  0
  4  1  1  0
  5 13  1  0
  6 14  1  0
  7  3  1  0
 16  8  1  1
 15  9  1  1
 10  2  1  0
 11  8  1  0
 12  9  1  0
 10 13  1  6
 19 14  1  6
 15  6  1  0
 16  5  1  0
 17  7  1  6
 18  1  1  0
 19 11  1  0
 20 24  1  0
 21 18  1  0
 22 31  2  0
 23 17  1  0
 24 25  1  0
 10 25  1  0
 30 26  1  6
 27 36  1  0
 28 20  2  0
 29 26  1  0
 30 12  1  0
 31 57  1  0
 32  2  2  0
 33  3  2  0
 34  6  2  0
 35  5  2  0
 36 24  2  0
 37 11  2  0
 38 12  2  0
 19 39  1  0
 40 23  2  0
 41 29  2  0
 42 22  1  0
 43 22  1  0
 15 44  1  0
 16 45  1  0
 17 46  1  0
 47 39  1  0
 48 23  1  0
 49 54  2  0
 50 56  1  0
 51 47  1  0
 52 47  2  0
 53 51  2  0
 54 52  1  0
 55 49  1  0
 56 29  1  0
 57 66  1  0
 30 58  1  0
 59 50  1  0
 60 45  1  0
 61 46  1  0
 62 44  1  0
 63 44  1  0
 45 64  1  6
 46 65  1  1
 66 58  1  0
 67 60  1  0
 68 61  1  0
 21  4  1  0
 28 27  1  0
 53 49  1  0
M  END