
  SciTegic01311317052D

 24 27  0  0  0  0            999 V2000
    1.4930   -0.6210    0.0000 C   0  0
    2.3052   -0.4758    0.0000 C   0  0
    2.5855    0.3001    0.0000 C   0  0  2  0  0  0
    3.3976    0.4454    0.0000 O   0  0
    2.0536    0.9309    0.0000 C   0  0
    1.2415    0.7856    0.0000 C   0  0
    0.7097    1.4163    0.0000 C   0  0
   -0.1024    1.2711    0.0000 C   0  0
   -0.3827    0.4952    0.0000 C   0  0  2  0  0  0
    0.1491   -0.1355    0.0000 C   0  0  1  0  0  0
    0.9612    0.0097    0.0000 C   0  0  1  0  0  0
   -0.1312   -0.9114    0.0000 C   0  0
   -0.9433   -1.0566    0.0000 C   0  0
   -1.4751   -0.4259    0.0000 C   0  0  1  0  0  0
   -1.1948    0.3500    0.0000 C   0  0  1  0  0  0
   -1.8462    0.8563    0.0000 C   0  0
   -2.5290    0.3934    0.0000 C   0  0
   -2.2997   -0.3991    0.0000 C   0  0  2  0  0  0
   -2.8061   -1.0505    0.0000 O   0  0
   -1.8350   -1.1683    0.0000 C   0  0
    0.6809   -0.7662    0.0000 C   0  0
   -1.1948    1.1750    0.0000 H   0  0
    0.3318    0.9077    0.0000 H   0  0
   -0.5654   -0.5480    0.0000 H   0  0
  1 11  1  0
  1  2  1  0
  2  3  1  0
  3  5  1  0
  3  4  1  1
  5  6  1  0
 11  6  1  0
  6  7  2  0
  7  8  1  0
  9  8  1  0
 15  9  1  0
  9 10  1  0
 10 12  1  0
 11 10  1  0
 11 21  1  1
 12 13  1  0
 13 14  1  0
 14 18  1  0
 14 20  1  1
 14 15  1  0
 15 16  1  0
 16 17  1  0
 17 18  1  0
 18 19  1  1
 15 22  1  6
  9 23  1  1
 10 24  1  6
M  END