
  SciTegic11201309402D

 51 56  0  0  0  0            999 V2000
   17.5615   -5.3729    0.0000 N   0  0
   16.1889   -7.2603    0.0000 N   0  0
   17.3899   -6.1908    0.0000 C   0  0
   16.9037   -6.8599    0.0000 C   0  0  1  0  0  0
   17.3899   -4.5665    0.0000 C   0  0  2  0  0  0
   15.3653   -7.3461    0.0000 C   0  0
   16.9037   -3.8973    0.0000 C   0  0
   13.9697   -4.2176    0.0000 N   0  0
   16.1889   -3.4855    0.0000 N   0  0
   14.5874   -3.6571    0.0000 C   0  0
   14.5874   -7.1001    0.0000 C   0  0  1  0  0  0
   13.9697   -6.5397    0.0000 N   0  0
   16.1889   -8.0953    0.0000 C   0  0
   18.3851   -5.4701    0.0000 C   0  0
   18.1048   -4.1547    0.0000 C   0  0
   13.6323   -5.7847    0.0000 C   0  0
   17.6244   -7.2603    0.0000 C   0  0
   15.3653   -3.3998    0.0000 C   0  0  2  0  0  0
   18.7225   -4.7038    0.0000 C   0  0
   13.0146   -1.5810    0.0000 C   0  0
   14.1756   -7.8094    0.0000 C   0  0
   13.6323   -4.9611    0.0000 C   0  0
   16.9037   -8.5071    0.0000 C   0  0
   13.3406   -7.8094    0.0000 C   0  0
   17.6244   -8.0953    0.0000 C   0  0
   12.8602   -8.4786    0.0000 S   0  0
   18.1449   -6.5225    0.0000 O   0  0
   15.2795   -8.1697    0.0000 O   0  0
   12.2710   -1.2378    0.0000 N   0  0
   17.4586   -3.2910    0.0000 O   0  0
   14.1756   -2.9365    0.0000 O   0  0
   12.8259   -5.9563    0.0000 O   0  0
   12.0709   -8.2212    0.0000 C   0  0
   12.8602   -7.1402    0.0000 C   0  0
   12.0709   -7.3976    0.0000 C   0  0
   13.6838   -1.0948    0.0000 N   0  0
   13.1004   -2.3988    0.0000 N   0  0
   13.3063   -3.7258    0.0000 C   0  0
   18.8655   -6.1279    0.0000 C   0  0
   15.2795   -2.5762    0.0000 C   0  0
   19.5347   -4.6180    0.0000 C   0  0
   18.3336   -8.5071    0.0000 C   0  0
   16.9037   -9.3307    0.0000 C   0  0
   14.4387   -1.4266    0.0000 C   0  0
   14.5245   -2.2502    0.0000 C   0  0
   19.6891   -6.0421    0.0000 C   0  0
   20.0265   -5.2871    0.0000 C   0  0
   18.3336   -9.3307    0.0000 C   0  0
   17.6244   -9.7483    0.0000 C   0  0
   17.5983   -3.5885    0.0000 H   0  0
   17.8801   -6.6440    0.0000 H   0  0
  4  2  1  0
  3  1  1  0
  4  3  1  0
  5  1  1  0
  6  2  1  0
  7  5  1  0
  8 10  1  0
  9  7  1  0
 10 18  1  0
 11  6  1  0
 12 11  1  0
 13  2  1  0
 14  1  1  0
 15  5  1  0
 16 12  1  0
 17  4  1  0
 18  9  1  0
 19 14  1  0
 20 36  2  0
 11 21  1  6
 22  8  1  0
 23 25  2  0
 24 21  1  0
 25 17  1  0
 26 24  1  0
 27  3  2  0
 28  6  2  0
 29 20  1  0
 30  7  2  0
 31 10  2  0
 32 16  2  0
 33 26  1  0
 34 24  2  0
 35 34  1  0
 36 44  1  0
 37 20  1  0
 38  8  1  0
 39 14  1  0
 18 40  1  6
 41 19  1  0
 42 25  1  0
 43 23  1  0
 44 45  1  0
 45 40  1  0
 46 39  1  0
 47 46  1  0
 48 42  2  0
 49 48  1  0
 15 19  1  0
 41 47  1  0
 13 23  1  0
 16 22  1  0
 43 49  2  0
 35 33  2  0
  5 50  1  1
  4 51  1  6
M  END