
  SciTegic04091414352D

 52 56  0  0  0  0            999 V2000
    1.2326  -15.5266    0.0000 C   0  0
    1.2315  -16.3461    0.0000 C   0  0
    1.9395  -16.7551    0.0000 C   0  0
    1.9377  -15.1177    0.0000 C   0  0
    2.6464  -15.5230    0.0000 C   0  0
    2.6466  -16.3462    0.0000 C   0  0
    3.4296  -16.6003    0.0000 S   0  0
    3.9133  -15.9342    0.0000 C   0  0
    3.4292  -15.2685    0.0000 N   0  0
    4.7288  -15.9342    0.0000 C   0  0
    5.2094  -16.5951    0.0000 C   0  0
    5.9865  -16.3423    0.0000 N   0  0
    5.9862  -15.5250    0.0000 C   0  0
    5.2089  -15.2729    0.0000 S   0  0
    6.6471  -15.0444    0.0000 C   0  0
    6.5614  -14.2317    0.0000 C   0  0
    4.9572  -17.3724    0.0000 O   0  0
    3.6814  -14.4912    0.0000 C   0  0
    6.6478  -16.8224    0.0000 C   0  0
    6.5627  -17.6351    0.0000 C   0  0
    7.2234  -13.7526    0.0000 N   0  3
    7.1381  -12.9406    0.0000 C   0  0
    6.3908  -12.6078    0.0000 C   0  0
    5.7280  -13.0931    0.0000 C   0  0
    5.8166  -13.9033    0.0000 C   0  0
    7.9696  -14.0857    0.0000 C   0  0
    8.6312  -13.6059    0.0000 C   0  0
    9.3774  -13.9390    0.0000 C   0  0
   10.0390  -13.4593    0.0000 C   0  0
   10.7852  -13.7923    0.0000 C   0  0
   11.4468  -13.3126    0.0000 C   0  0
   12.1930  -13.6457    0.0000 N   0  0
   12.8546  -13.1659    0.0000 C   0  0
   13.6008  -13.4990    0.0000 C   0  0
   12.7699  -12.3531    0.0000 O   0  0
   14.2624  -13.0193    0.0000 C   0  0
   15.0086  -13.3523    0.0000 C   0  0
   15.6702  -12.8726    0.0000 C   0  0
   16.4164  -13.2057    0.0000 C   0  0  2  0  0  0
   16.5835  -14.0028    0.0000 S   0  0
   17.3961  -14.0890    0.0000 C   0  0
   17.1223  -12.7955    0.0000 C   0  0  2  0  0  0
   17.7264  -13.3412    0.0000 C   0  0  1  0  0  0
   18.4322  -12.9353    0.0000 N   0  0
   18.2643  -12.1386    0.0000 C   0  0
   17.4547  -12.0523    0.0000 N   0  0
   18.8120  -11.5322    0.0000 O   0  0
   16.5378  -12.2125    0.0000 H   0  0
   18.3001  -13.9170    0.0000 H   0  0
    0.5248  -15.1182    0.0000 O   0  0
    0.5246  -14.3010    0.0000 C   0  0
   10.0333  -16.0838    0.0000 Cl  0  5
  1  2  2  0
  2  3  1  0
  3  6  2  0
  5  4  2  0
  4  1  1  0
  5  6  1  0
  6  7  1  0
  7  8  1  0
  8  9  1  0
  9  5  1  0
 10 11  1  0
 11 12  1  0
 12 13  1  0
 13 14  1  0
 14 10  1  0
  8 10  2  0
 13 15  2  0
 15 16  1  0
 11 17  2  0
  9 18  1  0
 12 19  1  0
 19 20  1  0
 16 21  2  0
 21 22  1  0
 22 23  2  0
 23 24  1  0
 24 25  2  0
 25 16  1  0
 21 26  1  0
 26 27  1  0
 27 28  1  0
 28 29  1  0
 29 30  1  0
 30 31  1  0
 31 32  1  0
 32 33  1  0
 33 34  1  0
 33 35  2  0
 34 36  1  0
 36 37  1  0
 37 38  1  0
 39 38  1  1
 39 40  1  0
 40 41  1  0
 41 43  1  0
 42 39  1  0
 42 43  1  0
 43 44  1  0
 44 45  1  0
 45 46  1  0
 46 42  1  0
 45 47  2  0
 42 48  1  6
 43 49  1  6
  1 50  1  0
 50 51  1  0
M  CHG  2  21   1  52  -1
M  END