
          11280715312D 1   1.00000     0.00000     0

 42 44  0     0  0            999 V2000
    0.2917   -1.3542    0.0000 N   0  0  0  0  0  0           0  0  0
    0.2917   -2.1917    0.0000 C   0  0  0  0  0  0           0  0  0
   -1.1333   -1.3542    0.0000 C   0  0  0  0  0  0           0  0  0
   -0.4208   -0.9625    0.0000 C   0  0  0  0  0  0           0  0  0
   -0.4208   -2.6042    0.0000 N   0  0  0  0  0  0           0  0  0
   -1.1333   -2.1917    0.0000 C   0  0  0  0  0  0           0  0  0
    6.7167   -2.5875    0.0000 C   0  0  0  0  0  0           0  0  0
   -1.8458   -0.9625    0.0000 C   0  0  0  0  0  0           0  0  0
    7.4292   -2.1667    0.0000 C   0  0  0  0  0  0           0  0  0
   -1.8458   -2.6042    0.0000 C   0  0  0  0  0  0           0  0  0
   -2.5583   -1.3542    0.0000 C   0  0  0  0  0  0           0  0  0
   -2.5583   -2.1917    0.0000 C   0  0  0  0  0  0           0  0  0
    1.0042   -2.6000    0.0000 N   0  0  3  0  0  0           0  0  0
    6.0042   -2.1792    0.0000 N   0  0  3  0  0  0           0  0  0
    6.7250   -3.4125    0.0000 O   0  0  0  0  0  0           0  0  0
    8.1500   -2.5792    0.0000 C   0  0  0  0  0  0           0  0  0
   -0.4125   -0.1375    0.0000 N   0  0  0  0  0  0           0  0  0
   -3.2625   -0.9292    0.0000 O   0  0  0  0  0  0           0  0  0
   -3.2625   -2.6167    0.0000 O   0  0  0  0  0  0           0  0  0
    8.8667   -3.8167    0.0000 N   0  0  0  0  0  0           0  0  0
   13.8542   -3.4000    0.0000 N   0  0  0  0  0  0           0  0  0
    7.4292   -1.3500    0.0000 C   0  0  0  0  0  0           0  0  0
    8.1500   -3.4042    0.0000 C   0  0  0  0  0  0           0  0  0
    1.7167   -2.1875    0.0000 C   0  0  0  0  0  0           0  0  0
    5.2917   -2.5917    0.0000 C   0  0  0  0  0  0           0  0  0
    1.0042   -3.4250    0.0000 C   0  0  0  0  0  0           0  0  0
    6.0042   -1.3500    0.0000 C   0  0  0  0  0  0           0  0  0
    8.8625   -2.1667    0.0000 C   0  0  0  0  0  0           0  0  0
    9.5792   -3.4042    0.0000 C   0  0  0  0  0  0           0  0  0
   13.1417   -3.8125    0.0000 C   0  0  0  0  0  0           0  0  0
   -3.9875   -1.3292    0.0000 C   0  0  0  0  0  0           0  0  0
   -3.9875   -2.2167    0.0000 C   0  0  0  0  0  0           0  0  0
    2.4375   -2.6000    0.0000 C   0  0  0  0  0  0           0  0  0
    4.5792   -2.1792    0.0000 C   0  0  0  0  0  0           0  0  0
   10.2917   -3.8167    0.0000 C   0  0  0  0  0  0           0  0  0
   12.4292   -3.4042    0.0000 C   0  0  0  0  0  0           0  0  0
   11.7167   -3.8167    0.0000 C   0  0  0  0  0  0           0  0  0
    3.1500   -2.1792    0.0000 C   0  0  0  0  0  0           0  0  0
    3.8667   -2.5917    0.0000 C   0  0  0  0  0  0           0  0  0
   11.0042   -3.4042    0.0000 C   0  0  0  0  0  0           0  0  0
    8.1375   -0.9292    0.0000 C   0  0  0  0  0  0           0  0  0
    8.8542   -1.3417    0.0000 C   0  0  0  0  0  0           0  0  0
  2  1  2  0     0  0
  3  4  2  0     0  0
  4  1  1  0     0  0
  5  2  1  0     0  0
  6  3  1  0     0  0
  7 14  1  0     0  0
  8  3  1  0     0  0
  9  7  1  0     0  0
 10  6  1  0     0  0
 11  8  2  0     0  0
 12 11  1  0     0  0
 13  2  1  0     0  0
 14 25  1  0     0  0
 15  7  2  0     0  0
 16  9  2  0     0  0
 17  4  1  0     0  0
 18 11  1  0     0  0
 19 12  1  0     0  0
 20 23  1  0     0  0
 21 30  1  0     0  0
 22  9  1  0     0  0
 23 16  1  0     0  0
 24 13  1  0     0  0
 25 34  1  0     0  0
 26 13  1  0     0  0
 27 14  1  0     0  0
 28 16  1  0     0  0
 29 20  1  0     0  0
 30 36  1  0     0  0
 31 18  1  0     0  0
 32 19  1  0     0  0
 33 24  1  0     0  0
 34 39  1  0     0  0
 35 29  1  0     0  0
 36 37  1  0     0  0
 37 40  1  0     0  0
 38 33  1  0     0  0
 39 38  1  0     0  0
 40 35  1  0     0  0
 41 22  2  0     0  0
 42 41  1  0     0  0
  6  5  2  0     0  0
 10 12  2  0     0  0
 28 42  2  0     0  0
M  END