
          11280714452D 1   1.00000     0.00000     0

 35 40  0     0  0            999 V2000
    0.9375   -1.6167    0.0000 N   0  0  3  0  0  0           0  0  0
    1.4167   -2.2875    0.0000 C   0  0  0  0  0  0           0  0  0
    0.9375   -2.9500    0.0000 C   0  0  0  0  0  0           0  0  0
    0.1542   -1.8667    0.0000 C   0  0  0  0  0  0           0  0  0
    0.1542   -2.6917    0.0000 C   0  0  0  0  0  0           0  0  0
    1.1542   -3.7417    0.0000 C   0  0  0  0  0  0           0  0  0
    2.2417   -2.2917    0.0000 C   0  0  0  0  0  0           0  0  0
   -0.5583   -1.4542    0.0000 C   0  0  0  0  0  0           0  0  0
    1.2000   -0.8292    0.0000 C   0  0  0  0  0  0           0  0  0
    0.5750   -4.3292    0.0000 C   0  0  0  0  0  0           0  0  0
    0.7875   -5.1167    0.0000 C   0  0  0  0  0  0           0  0  0
   -0.5583   -3.1042    0.0000 C   0  0  0  0  0  0           0  0  0
    2.8417    0.4833    0.0000 C   0  0  0  0  0  0           0  0  0
    1.5917   -5.3292    0.0000 C   0  0  0  0  0  0           0  0  0
    3.5167   -0.0042    0.0000 C   0  0  0  0  0  0           0  0  0
    0.3375   -5.8167    0.0000 O   0  0  0  0  0  0           0  0  0
    3.1042    1.2625    0.0000 O   0  0  0  0  0  0           0  0  0
    1.6292   -6.1625    0.0000 O   0  0  0  0  0  0           0  0  0
    4.1792    0.4833    0.0000 O   0  0  0  0  0  0           0  0  0
    1.9500   -3.9542    0.0000 C   0  0  0  0  0  0           0  0  0
    3.9292    1.2625    0.0000 C   0  0  0  0  0  0           0  0  0
    0.8542   -6.4625    0.0000 C   0  0  0  0  0  0           0  0  0
    2.1000    0.1500    0.0000 C   0  0  0  0  0  0           0  0  0
    2.0042   -0.6667    0.0000 C   0  0  0  0  0  0           0  0  0
    2.6542   -1.5750    0.0000 O   0  0  0  0  0  0           0  0  0
    2.1667   -4.7500    0.0000 C   0  0  0  0  0  0           0  0  0
    3.4167   -0.8292    0.0000 C   0  0  0  0  0  0           0  0  0
   -1.2750   -1.8750    0.0000 C   0  0  0  0  0  0           0  0  0
    2.6542   -3.0042    0.0000 O   0  0  0  0  0  0           0  0  0
   -1.2750   -2.6917    0.0000 C   0  0  0  0  0  0           0  0  0
    2.6667   -1.1542    0.0000 C   0  0  0  0  0  0           0  0  0
   -1.9875   -1.4542    0.0000 O   0  0  0  0  0  0           0  0  0
   -1.9875   -0.6292    0.0000 C   0  0  0  0  0  0           0  0  0
   -2.7000   -0.2167    0.0000 C   0  0  0  0  0  0           0  0  0
   -2.7000    0.6083    0.0000 C   0  0  0  0  0  0           0  0  0
  2  1  1  0     0  0
  3  2  2  0     0  0
  4  1  1  0     0  0
  5  4  1  0     0  0
  6  3  1  0     0  0
  7  2  1  0     0  0
  8  4  2  0     0  0
  9  1  1  0     0  0
 10  6  2  0     0  0
 11 10  1  0     0  0
 12  5  2  0     0  0
 13 23  2  0     0  0
 14 26  1  0     0  0
 15 27  2  0     0  0
 16 11  1  0     0  0
 17 13  1  0     0  0
 18 14  1  0     0  0
 19 15  1  0     0  0
 20  6  1  0     0  0
 21 17  1  0     0  0
 22 16  1  0     0  0
 23 24  1  0     0  0
 24  9  1  0     0  0
 25  7  2  0     0  0
 26 20  2  0     0  0
 27 31  1  0     0  0
 28  8  1  0     0  0
 29  7  1  0     0  0
 30 28  2  0     0  0
 31 24  2  0     0  0
 32 28  1  0     0  0
 33 32  1  0     0  0
 34 33  1  0     0  0
 35 34  1  0     0  0
  3  5  1  0     0  0
 30 12  1  0     0  0
 15 13  1  0     0  0
 21 19  1  0     0  0
 11 14  2  0     0  0
 18 22  1  0     0  0
M  END