
          11280714572D 1   1.00000     0.00000     0

 22 24  0     0  0            999 V2000
    4.8167   -1.0292    0.0000 C   0  0  0  0  0  0           0  0  0
    4.2917   -1.3250    0.0000 N   0  0  3  0  0  0           0  0  0
    2.6917   -2.7917    0.0000 N   0  0  0  0  0  0           0  0  0
    2.7292   -2.1917    0.0000 C   0  0  0  0  0  0           0  0  0
    5.3792   -1.1917    0.0000 N   0  0  0  0  0  0           0  0  0
    1.7917   -2.4375    0.0000 N   0  0  0  0  0  0           0  0  0
    2.1167   -2.9417    0.0000 C   0  0  0  0  0  0           0  0  0
    4.8042   -0.4292    0.0000 S   0  0  0  0  0  0           0  0  0
    6.4792   -1.0417    0.0000 C   0  0  0  0  0  0           0  0  0
    2.1792   -1.9792    0.0000 C   0  0  0  0  0  0           0  0  0
    3.2542   -1.9000    0.0000 C   0  0  3  0  0  0           0  0  0
    3.7792   -1.0167    0.0000 C   0  0  0  0  0  0           0  0  0
    4.2792   -1.9167    0.0000 C   0  0  0  0  0  0           0  0  0
    5.9042   -0.8917    0.0000 C   0  0  0  0  0  0           0  0  0
    6.9917   -0.7500    0.0000 C   0  0  0  0  0  0           0  0  0
    3.7667   -2.2042    0.0000 C   0  0  0  0  0  0           0  0  0
    3.2542   -1.3042    0.0000 C   0  0  0  0  0  0           0  0  0
    6.9917   -0.1500    0.0000 Cl  0  0  0  0  0  0           0  0  0
    6.4792   -1.6417    0.0000 C   0  0  0  0  0  0           0  0  0
    7.5167   -1.0500    0.0000 C   0  0  0  0  0  0           0  0  0
    6.9792   -1.9417    0.0000 C   0  0  0  0  0  0           0  0  0
    7.5042   -1.6542    0.0000 C   0  0  0  0  0  0           0  0  0
  2  1  1  0     0  0
  3  4  1  0     0  0
  4 11  1  0     0  0
  5  1  1  0     0  0
  6 10  1  0     0  0
  7  3  2  0     0  0
  8  1  2  0     0  0
  9 14  1  0     0  0
 10  4  2  0     0  0
 11 16  1  0     0  0
 12  2  1  0     0  0
 13  2  1  0     0  0
 14  5  1  0     0  0
 15  9  1  0     0  0
 16 13  1  0     0  0
 17 12  1  0     0  0
 18 15  1  0     0  0
 19  9  2  0     0  0
 20 15  2  0     0  0
 21 19  1  0     0  0
 22 21  2  0     0  0
 17 11  1  0     0  0
 22 20  1  0     0  0
  6  7  1  0     0  0
M  END