
  SciTegic05221516342D

 16 17  0  0  0  0            999 V2000
    6.8553   -8.6139    0.0000 N   0  0
    7.3356   -9.2750    0.0000 C   0  0
    6.8553   -9.9361    0.0000 N   0  0
    6.0781   -9.6836    0.0000 C   0  0
    5.3704  -10.0922    0.0000 N   0  0
    4.6627   -9.6836    0.0000 C   0  0
    4.6627   -8.8664    0.0000 N   0  0
    5.3704   -8.4578    0.0000 C   0  0
    6.0781   -8.8664    0.0000 C   0  0
    5.3704   -7.6406    0.0000 O   0  0
    8.1528   -9.2750    0.0000 S   0  0
    8.5614   -9.9827    0.0000 C   0  0
    9.3786   -9.9827    0.0000 C   0  0
    9.7872   -9.2750    0.0000 C   0  0
    9.7872  -10.6904    0.0000 O   0  0
    3.9549  -10.0922    0.0000 N   0  0
  1  2  2  0
  2  3  1  0
  3  4  1  0
  4  5  1  0
  5  6  2  0
  6  7  1  0
  7  8  1  0
  8  9  1  0
  1  9  1  0
  4  9  2  0
  8 10  2  0
 12 13  1  0
 13 14  1  0
 13 15  2  0
 11 12  1  0
  2 11  1  0
  6 16  1  0
M  END