
  SciTegic03041510302D

 11 12  0  0  0  0            999 V2000
   11.6016   -8.2916    0.0000 C   0  0
   11.6016   -9.1088    0.0000 C   0  0  1  0  0  0
   12.3069   -9.5133    0.0000 C   0  0
   13.0122   -9.1088    0.0000 C   0  0
   12.3069   -7.8789    0.0000 C   0  0
   13.0114   -8.2860    0.0000 C   0  0
   13.6163   -7.7418    0.0000 C   0  0
   13.2856   -6.9983    0.0000 C   0  0
   12.4764   -7.0831    0.0000 O   0  0
   14.4156   -7.9120    0.0000 C   0  0
   10.8945   -9.5184    0.0000 C   0  0
  1  2  1  0
  1  5  1  0
  2  3  1  0
  3  4  1  0
  4  6  1  0
  5  6  2  0
  6  7  1  0
  7  8  2  0
  8  9  1  0
  9  5  1  0
  7 10  1  0
  2 11  1  1
M  END