
  SciTegic11201309402D

 27 30  0  0  0  0            999 V2000
    1.9595   -0.4671    0.0000 C   0  0
    2.7716   -0.3218    0.0000 C   0  0
    3.0519    0.4541    0.0000 C   0  0
    2.5201    1.0848    0.0000 C   0  0
    1.7080    0.9396    0.0000 C   0  0
    1.1761    1.5703    0.0000 C   0  0
    0.3640    1.4251    0.0000 C   0  0
    0.0837    0.6491    0.0000 C   0  0  2  0  0  0
    0.6155    0.0184    0.0000 C   0  0  1  0  0  0
    1.4277    0.1637    0.0000 C   0  0  1  0  0  0
    0.3352   -0.7575    0.0000 C   0  0
   -0.4769   -0.9027    0.0000 C   0  0
   -1.0087   -0.2720    0.0000 C   0  0  1  0  0  0
   -0.7284    0.5039    0.0000 C   0  0  1  0  0  0
   -1.3797    1.0103    0.0000 C   0  0
   -2.0626    0.5473    0.0000 C   0  0
   -1.8333   -0.2452    0.0000 C   0  0  2  0  0  0
   -1.3686   -1.0144    0.0000 C   0  0
    1.1474   -0.6123    0.0000 C   0  0
   -2.3396   -0.8965    0.0000 C   0  0
   -3.1569   -0.7837    0.0000 C   0  0
    3.8640    0.5993    0.0000 O   0  0
   -2.0287   -1.6607    0.0000 O   0  0
   -3.6632   -1.4350    0.0000 O   0  0
   -0.4888    1.4748    0.0000 H   0  0
    1.2602   -0.7461    0.0000 H   0  0
   -0.5609    1.4136    0.0000 H   0  0
  1  2  1  0
  1 10  1  0
  2  3  1  0
  3  4  1  0
  3 22  2  0
  4  5  2  0
  5  6  1  0
 10  5  1  0
  6  7  1  0
  8  7  1  0
  8  9  1  0
 14  8  1  0
 10  9  1  0
  9 11  1  0
 10 19  1  1
 11 12  1  0
 12 13  1  0
 13 14  1  0
 13 17  1  0
 13 18  1  1
 14 15  1  0
 15 16  1  0
 16 17  1  0
 17 20  1  1
 20 21  1  0
 20 23  2  0
 21 24  1  0
 14 25  1  6
  9 26  1  6
  8 27  1  1
M  END