
          11280715022D 1   1.00000     0.00000     0

 27 30  0     1  0            999 V2000
    1.8917   -2.3542    0.0000 S   0  0  3  0  0  0           0  0  0
    2.4167   -2.0625    0.0000 N   0  0  3  0  0  0           0  0  0
    2.4250   -0.2625    0.0000 N   0  0  3  0  0  0           0  0  0
    2.4167   -1.4625    0.0000 C   0  0  2  0  0  0           0  0  0
    1.9042   -0.5625    0.0000 C   0  0  1  0  0  0           0  0  0
    1.9000   -1.1625    0.0000 C   0  0  0  0  0  0           0  0  0
    1.3792   -0.2625    0.0000 C   0  0  0  0  0  0           0  0  0
    2.9417   -1.1625    0.0000 C   0  0  1  0  0  0           0  0  0
    1.3792    0.3458    0.0000 C   0  0  0  0  0  0           0  0  0
    2.9417   -0.5625    0.0000 C   0  0  0  0  0  0           0  0  0
    1.3750   -2.0542    0.0000 O   0  0  0  0  0  0           0  0  0
    2.3167   -2.7750    0.0000 O   0  0  0  0  0  0           0  0  0
    0.8625   -0.5625    0.0000 C   0  0  0  0  0  0           0  0  0
    2.4250    0.3458    0.0000 C   0  0  0  0  0  0           0  0  0
    0.8625    0.6458    0.0000 C   0  0  0  0  0  0           0  0  0
    1.9042    0.6500    0.0000 C   0  0  0  0  0  0           0  0  0
    1.4667   -2.7750    0.0000 C   0  0  0  0  0  0           0  0  0
    2.9375   -2.3625    0.0000 C   0  0  0  0  0  0           0  0  0
    0.3417    0.3458    0.0000 C   0  0  0  0  0  0           0  0  0
    0.3417   -0.2625    0.0000 C   0  0  0  0  0  0           0  0  0
    3.4625   -1.4625    0.0000 C   0  0  0  0  0  0           0  0  0
   -0.1708    0.6458    0.0000 O   0  0  0  0  0  0           0  0  0
    3.4542   -2.0667    0.0000 C   0  0  0  0  0  0           0  0  0
   -0.6958    0.3458    0.0000 C   0  0  0  0  0  0           0  0  0
    1.3792   -0.8542    0.0000 H   0  0  0  0  0  0           0  0  0
    1.9000   -1.7542    0.0000 H   0  0  0  0  0  0           0  0  0
    3.4625   -0.8625    0.0000 H   0  0  0  0  0  0           0  0  0
  2  1  1  0     0  0
  3 10  1  0     0  0
  4  2  1  0     0  0
  5  6  1  0     0  0
  6  4  1  0     0  0
  7  5  1  0     0  0
  8  4  1  0     0  0
  9  7  1  0     0  0
 10  8  1  0     0  0
 11  1  2  0     0  0
 12  1  2  0     0  0
 13  7  2  0     0  0
 14  3  1  0     0  0
 15  9  2  0     0  0
 16 14  1  0     0  0
 17  1  1  0     0  0
 18  2  1  0     0  0
 19 20  2  0     0  0
 20 13  1  0     0  0
 21 23  1  0     0  0
 22 19  1  0     0  0
 23 18  1  0     0  0
 24 22  1  0     0  0
  5 25  1  6     0  0
  4 26  1  1     0  0
  8 27  1  6     0  0
  8 21  1  0     0  0
  5  3  1  0     0  0
  9 16  1  0     0  0
 15 19  1  0     0  0
M  END