
  CDK    9/16/09,9:20

 22 24  0  0  0  0  0  0  0  0999 V2000
    1.8679   -0.5403    0.0000 C   0  0  0  0  0  0  0  0  0  0  0  0
    1.8679   -1.3688    0.0000 C   0  0  0  0  0  0  0  0  0  0  0  0
    2.5815   -1.7809    0.0000 C   0  0  0  0  0  0  0  0  0  0  0  0
    2.5815   -0.1236    0.0000 C   0  0  0  0  0  0  0  0  0  0  0  0
    3.2998   -0.5403    0.0000 C   0  0  0  0  0  0  0  0  0  0  0  0
    3.2963   -1.3688    0.0000 C   0  0  0  0  0  0  0  0  0  0  0  0
    4.0081   -1.7839    0.0000 C   0  0  0  0  0  0  0  0  0  0  0  0
    4.7282   -1.3750    0.0000 C   0  0  0  0  0  0  0  0  0  0  0  0
    4.0152   -0.1267    0.0000 C   0  0  0  0  0  0  0  0  0  0  0  0
    4.7286   -0.5452    0.0000 C   0  0  0  0  0  0  0  0  0  0  0  0
    5.4457   -0.1368    0.0000 C   0  0  0  0  0  0  0  0  0  0  0  0
    5.4506    0.6900    0.0000 C   0  0  0  0  0  0  0  0  0  0  0  0
    4.7324    1.1068    0.0000 C   0  0  0  0  0  0  0  0  0  0  0  0
    4.0183    0.6960    0.0000 C   0  0  0  0  0  0  0  0  0  0  0  0
    3.2917    0.2838    0.0000 C   0  0  0  0  0  0  0  0  0  0  0  0
    3.2917   -2.1884    0.0000 H   0  0  0  0  0  0  0  0  0  0  0  0
    2.1609   -2.4905    0.0000 C   0  0  0  0  0  0  0  0  0  0  0  0
    2.7881   -2.5730    0.0000 C   0  0  0  0  0  0  0  0  0  0  0  0
    6.1659    1.0992    0.0000 O   0  0  0  0  0  0  0  0  0  0  0  0
    6.1569   -0.5530    0.0000 C   0  0  0  0  0  0  0  0  0  0  0  0
    6.1520   -1.3771    0.0000 C   0  0  0  0  0  0  0  0  0  0  0  0
    6.8729   -0.1453    0.0000 C   0  0  0  0  0  0  0  0  0  0  0  0
  5  6  1  0  0  0  0 
 10 11  1  0  0  0  0 
 11 12  2  0  0  0  0 
  1  2  1  0  0  0  0 
 12 13  1  0  0  0  0 
  1  4  1  0  0  0  0 
 13 14  2  0  0  0  0 
 14  9  1  0  0  0  0 
  2  3  1  0  0  0  0 
  5 15  1  1  0  0  0 
  5  9  1  0  0  0  0 
  6 16  1  6  0  0  0 
  6  7  1  0  0  0  0 
  3 17  1  0  0  0  0 
  7  8  1  0  0  0  0 
  3 18  1  0  0  0  0 
  8 10  1  0  0  0  0 
 12 19  1  0  0  0  0 
  3  6  1  0  0  0  0 
 11 20  1  0  0  0  0 
  5  4  1  0  0  0  0 
 20 21  1  0  0  0  0 
  9 10  2  0  0  0  0 
 20 22  1  0  0  0  0 
M  END