
          11280715072D 1   1.00000     0.00000     0

 21 23  0     0  0            999 V2000
    3.0042   -4.3792    0.0000 C   0  0  0  0  0  0           0  0  0
    3.5292   -4.6875    0.0000 C   0  0  0  0  0  0           0  0  0
    2.4875   -4.6875    0.0000 C   0  0  0  0  0  0           0  0  0
    3.0042   -3.7792    0.0000 C   0  0  0  0  0  0           0  0  0
    4.0500   -4.3792    0.0000 C   0  0  0  0  0  0           0  0  0
    4.0500   -3.7792    0.0000 C   0  0  0  0  0  0           0  0  0
    3.5292   -3.4792    0.0000 O   0  0  0  0  0  0           0  0  0
    1.9667   -4.3792    0.0000 C   0  0  0  0  0  0           0  0  0
    2.4875   -3.4792    0.0000 C   0  0  0  0  0  0           0  0  0
    1.9667   -3.7875    0.0000 C   0  0  0  0  0  0           0  0  0
    3.5250   -5.2875    0.0000 O   0  0  0  0  0  0           0  0  0
    4.5667   -3.4792    0.0000 C   0  0  0  0  0  0           0  0  0
    2.4917   -5.2875    0.0000 O   0  0  0  0  0  0           0  0  0
    1.4500   -3.4792    0.0000 O   0  0  0  0  0  0           0  0  0
    1.4500   -4.6875    0.0000 C   0  0  0  0  0  0           0  0  0
    4.5667   -2.8875    0.0000 C   0  0  0  0  0  0           0  0  0
    5.0875   -3.7875    0.0000 C   0  0  0  0  0  0           0  0  0
    1.4417   -2.8792    0.0000 C   0  0  0  0  0  0           0  0  0
    5.0875   -2.5875    0.0000 C   0  0  0  0  0  0           0  0  0
    5.6042   -3.4875    0.0000 C   0  0  0  0  0  0           0  0  0
    5.6042   -2.8875    0.0000 C   0  0  0  0  0  0           0  0  0
  2  1  1  0     0  0
  3  1  2  0     0  0
  4  1  1  0     0  0
  5  2  1  0     0  0
  6  7  1  0     0  0
  7  4  1  0     0  0
  8  3  1  0     0  0
  9  4  2  0     0  0
 10  9  1  0     0  0
 11  2  2  0     0  0
 12  6  1  0     0  0
 13  3  1  0     0  0
 14 10  1  0     0  0
 15  8  1  0     0  0
 16 12  1  0     0  0
 17 12  2  0     0  0
 18 14  1  0     0  0
 19 16  2  0     0  0
 20 17  1  0     0  0
 21 20  2  0     0  0
 10  8  2  0     0  0
  6  5  2  0     0  0
 21 19  1  0     0  0
M  END