
  SciTegic01091216402D

 21 24  0  0  0  0            999 V2000
   11.1294   -9.0865    0.0000 C   0  0
   11.1294   -9.9137    0.0000 O   0  0
   11.8433  -10.3231    0.0000 C   0  0
   12.5556   -9.9119    0.0000 C   0  0
   13.2685  -10.3242    0.0000 C   0  0
   13.9834   -9.9122    0.0000 C   0  0
   13.9810   -9.0837    0.0000 C   0  0
   11.8433   -8.6687    0.0000 C   0  0
   12.5548   -9.0870    0.0000 C   0  0
   13.2707   -8.6800    0.0000 C   0  0
   13.2762   -7.8550    0.0000 C   0  0
   12.5600   -7.4386    0.0000 C   0  0
   11.8470   -7.8480    0.0000 C   0  0
   13.9946   -7.4448    0.0000 C   0  0
   14.7068   -7.8672    0.0000 C   0  0
   15.4230   -7.4606    0.0000 C   0  0
   15.4312   -6.6331    0.0000 N   0  0
   14.7171   -6.2138    0.0000 C   0  0
   13.9946   -6.6221    0.0000 N   0  0
   16.1358   -7.8804    0.0000 C   0  0
   14.7239   -5.3867    0.0000 N   0  0
  9 10  1  0
 10 11  1  0
  4  5  1  0
 11 12  2  0
  1  8  1  0
 12 13  1  0
 13  8  2  0
  5  6  2  0
 11 14  1  0
 14 15  2  0
  2  3  1  0
  6  7  1  0
  7 10  2  0
  3  4  1  0
  1  2  1  0
 14 19  1  0
 15 16  1  0
 16 17  2  0
 17 18  1  0
 18 19  2  0
  8  9  1  0
 16 20  1  0
  9  4  2  0
 18 21  1  0
M  END