
          11280714542D 1   1.00000     0.00000     0

 29 30  0     0  0            999 V2000
    0.5167    0.3708    0.0000 C   0  0  3  0  0  0           0  0  0
   -0.0083   -2.3375    0.0000 C   0  0  0  0  0  0           0  0  0
    1.0917    0.2125    0.0000 C   0  0  0  0  0  0           0  0  0
    0.5167   -0.2292    0.0000 C   0  0  0  0  0  0           0  0  0
    0.5167   -2.0417    0.0000 O   0  0  0  0  0  0           0  0  0
   -0.5208   -2.0292    0.0000 O   0  0  0  0  0  0           0  0  0
    1.4042   -0.2167    0.0000 O   0  0  0  0  0  0           0  0  0
   -0.0083    0.6625    0.0000 C   0  0  0  0  0  0           0  0  0
   -0.0083   -2.9375    0.0000 N   0  0  0  0  0  0           0  0  0
    1.0417   -0.5292    0.0000 C   0  0  0  0  0  0           0  0  0
    0.0042   -0.5375    0.0000 C   0  0  0  0  0  0           0  0  0
    0.5167   -1.4375    0.0000 C   0  0  0  0  0  0           0  0  0
    1.5167    0.6458    0.0000 O   0  0  0  0  0  0           0  0  0
    3.1000    0.7708    0.0000 N   0  0  3  0  0  0           0  0  0
    0.0042   -1.1375    0.0000 C   0  0  0  0  0  0           0  0  0
    1.0417   -1.1375    0.0000 C   0  0  0  0  0  0           0  0  0
    2.0917    0.4958    0.0000 C   0  0  0  0  0  0           0  0  0
    0.6667    0.9500    0.0000 C   0  0  0  0  0  0           0  0  0
    2.5167    0.9208    0.0000 C   0  0  0  0  0  0           0  0  0
   -0.5208    0.3583    0.0000 C   0  0  0  0  0  0           0  0  0
   -0.0083    1.2625    0.0000 C   0  0  0  0  0  0           0  0  0
    3.2542    0.1875    0.0000 C   0  0  0  0  0  0           0  0  0
    3.5167    1.1958    0.0000 C   0  0  0  0  0  0           0  0  0
    0.5042   -3.2417    0.0000 C   0  0  0  0  0  0           0  0  0
    3.8375    0.0333    0.0000 C   0  0  0  0  0  0           0  0  0
    4.1000    1.0458    0.0000 C   0  0  0  0  0  0           0  0  0
   -1.0375    0.6583    0.0000 C   0  0  0  0  0  0           0  0  0
   -0.5250    1.5583    0.0000 C   0  0  0  0  0  0           0  0  0
   -1.0458    1.2583    0.0000 C   0  0  0  0  0  0           0  0  0
  2  5  1  0     0  0
  3  1  1  0     0  0
  4  1  1  0     0  0
  5 12  1  0     0  0
  6  2  2  0     0  0
  7  3  2  0     0  0
  8  1  1  0     0  0
  9  2  1  0     0  0
 10  4  2  0     0  0
 11  4  1  0     0  0
 12 15  1  0     0  0
 13  3  1  0     0  0
 14 19  1  0     0  0
 15 11  2  0     0  0
 16 10  1  0     0  0
 17 13  1  0     0  0
 18  1  1  0     0  0
 19 17  1  0     0  0
 20  8  1  0     0  0
 21  8  2  0     0  0
 22 14  1  0     0  0
 23 14  1  0     0  0
 24  9  1  0     0  0
 25 22  1  0     0  0
 26 23  1  0     0  0
 27 20  2  0     0  0
 28 21  1  0     0  0
 29 28  2  0     0  0
 12 16  2  0     0  0
 27 29  1  0     0  0
M  END