
          11280715332D 1   1.00000     0.00000     0

 31 33  0     0  0            999 V2000
    3.6292   -5.2417    0.0000 N   0  0  0  0  0  0           0  0  0
    2.2042   -5.2500    0.0000 C   0  0  0  0  0  0           0  0  0
    2.9167   -4.8292    0.0000 C   0  0  0  0  0  0           0  0  0
    2.2042   -6.0750    0.0000 C   0  0  0  0  0  0           0  0  0
    3.6375   -6.0667    0.0000 C   0  0  0  0  0  0           0  0  0
    2.9250   -6.4875    0.0000 N   0  0  0  0  0  0           0  0  0
    1.4917   -4.8375    0.0000 C   0  0  0  0  0  0           0  0  0
    1.4917   -6.4917    0.0000 C   0  0  0  0  0  0           0  0  0
   11.4792   -6.4667    0.0000 C   0  0  0  0  0  0           0  0  0
   10.7667   -6.0500    0.0000 C   0  0  0  0  0  0           0  0  0
    0.7792   -5.2500    0.0000 C   0  0  0  0  0  0           0  0  0
    0.7792   -6.0792    0.0000 C   0  0  0  0  0  0           0  0  0
   12.2375   -6.1375    0.0000 O   0  0  0  0  0  0           0  0  0
   11.5667   -7.2917    0.0000 C   0  0  0  0  0  0           0  0  0
   10.7667   -5.2250    0.0000 O   0  0  0  0  0  0           0  0  0
   12.7875   -6.7542    0.0000 C   0  0  0  0  0  0           0  0  0
   12.3750   -7.4667    0.0000 C   0  0  0  0  0  0           0  0  0
    4.3542   -6.4792    0.0000 N   0  0  0  0  0  0           0  0  0
    2.9125   -4.0042    0.0000 N   0  0  0  0  0  0           0  0  0
   10.0542   -6.4625    0.0000 N   0  0  0  0  0  0           0  0  0
    0.0625   -4.8417    0.0000 O   0  0  0  0  0  0           0  0  0
    0.0667   -6.4917    0.0000 O   0  0  0  0  0  0           0  0  0
    5.0667   -6.0667    0.0000 C   0  0  0  0  0  0           0  0  0
    9.3417   -6.0500    0.0000 C   0  0  0  0  0  0           0  0  0
    0.0667   -7.3167    0.0000 C   0  0  0  0  0  0           0  0  0
   -0.6583   -5.2542    0.0000 C   0  0  0  0  0  0           0  0  0
    8.6292   -6.4667    0.0000 C   0  0  0  0  0  0           0  0  0
    5.7792   -6.4750    0.0000 C   0  0  0  0  0  0           0  0  0
    7.9167   -6.0542    0.0000 C   0  0  0  0  0  0           0  0  0
    6.4917   -6.0542    0.0000 C   0  0  0  0  0  0           0  0  0
    7.2042   -6.4667    0.0000 C   0  0  0  0  0  0           0  0  0
  2  3  1  0     0  0
  3  1  2  0     0  0
  4  6  1  0     0  0
  5  1  1  0     0  0
  6  5  2  0     0  0
  7  2  2  0     0  0
  8  4  2  0     0  0
  9 10  1  0     0  0
 10 20  1  0     0  0
 11  7  1  0     0  0
 12  8  1  0     0  0
 13  9  1  0     0  0
 14  9  2  0     0  0
 15 10  2  0     0  0
 16 13  1  0     0  0
 17 14  1  0     0  0
 18  5  1  0     0  0
 19  3  1  0     0  0
 20 24  1  0     0  0
 21 11  1  0     0  0
 22 12  1  0     0  0
 23 18  1  0     0  0
 24 27  1  0     0  0
 25 22  1  0     0  0
 26 21  1  0     0  0
 27 29  1  0     0  0
 28 23  1  0     0  0
 29 31  1  0     0  0
 30 28  1  0     0  0
 31 30  1  0     0  0
  2  4  1  0     0  0
 11 12  2  0     0  0
 16 17  2  0     0  0
M  END