
          11280715012D 1   1.00000     0.00000     0

 30 33  0     0  0            999 V2000
    6.8375   -1.6792    0.0000 N   0  0  3  0  0  0           0  0  0
    6.3542   -1.0167    0.0000 C   0  0  0  0  0  0           0  0  0
    5.5417   -1.1000    0.0000 N   0  0  3  0  0  0           0  0  0
    5.6917   -2.5167    0.0000 N   0  0  0  0  0  0           0  0  0
    6.5042   -2.4292    0.0000 C   0  0  0  0  0  0           0  0  0
    5.2042   -1.8542    0.0000 C   0  0  0  0  0  0           0  0  0
   10.5542   -0.9625    0.0000 C   0  0  3  0  0  0           0  0  0
    7.6625   -1.6750    0.0000 C   0  0  0  0  0  0           0  0  0
   11.3792   -0.9625    0.0000 C   0  0  0  0  0  0           0  0  0
    8.9042   -0.9625    0.0000 N   0  0  3  0  0  0           0  0  0
    6.6042   -0.2292    0.0000 O   0  0  0  0  0  0           0  0  0
    7.0000   -3.0917    0.0000 O   0  0  0  0  0  0           0  0  0
   10.1417   -1.6792    0.0000 C   0  0  0  0  0  0           0  0  0
   10.1417   -0.2500    0.0000 C   0  0  0  0  0  0           0  0  0
   11.7917   -1.6792    0.0000 C   0  0  0  0  0  0           0  0  0
   11.7375   -0.3625    0.0000 O   0  0  0  0  0  0           0  0  0
    8.0750   -0.9625    0.0000 C   0  0  0  0  0  0           0  0  0
    9.3167   -1.6792    0.0000 C   0  0  0  0  0  0           0  0  0
    9.3167   -0.2500    0.0000 C   0  0  0  0  0  0           0  0  0
    5.0542   -0.4375    0.0000 C   0  0  0  0  0  0           0  0  0
   11.3792   -2.3917    0.0000 C   0  0  0  0  0  0           0  0  0
   12.6167   -1.6750    0.0000 C   0  0  0  0  0  0           0  0  0
   10.7667   -0.1542    0.0000 O   0  0  0  0  0  0           0  0  0
   12.6167   -3.1042    0.0000 C   0  0  0  0  0  0           0  0  0
    4.3875   -1.9417    0.0000 C   0  0  0  0  0  0           0  0  0
   13.0292   -2.3792    0.0000 C   0  0  0  0  0  0           0  0  0
   11.7917   -3.1042    0.0000 C   0  0  0  0  0  0           0  0  0
   13.0250   -3.8167    0.0000 F   0  0  0  0  0  0           0  0  0
    4.2375   -0.5167    0.0000 C   0  0  0  0  0  0           0  0  0
    3.9042   -1.2750    0.0000 C   0  0  0  0  0  0           0  0  0
  2  1  1  0     0  0
  3  2  1  0     0  0
  4  5  1  0     0  0
  5  1  1  0     0  0
  6  4  2  0     0  0
  7 14  1  0     0  0
  8  1  1  0     0  0
  9  7  1  0     0  0
 10 17  1  0     0  0
 11  2  2  0     0  0
 12  5  2  0     0  0
 13 18  1  0     0  0
 14 19  1  0     0  0
 15  9  1  0     0  0
 16  9  2  0     0  0
 17  8  1  0     0  0
 18 10  1  0     0  0
 19 10  1  0     0  0
 20  3  1  0     0  0
 21 15  2  0     0  0
 22 15  1  0     0  0
 23  7  1  0     0  0
 24 26  1  0     0  0
 25  6  1  0     0  0
 26 22  2  0     0  0
 27 21  1  0     0  0
 28 24  1  0     0  0
 29 20  1  0     0  0
 30 25  1  0     0  0
  6  3  1  0     0  0
 13  7  1  0     0  0
 29 30  1  0     0  0
 27 24  2  0     0  0
M  END