
  SciTegic09261414462D

 21 23  0  0  0  0            999 V2000
    5.9505  -19.8114    0.0000 N   0  0
    6.4267  -20.4684    0.0000 C   0  0
    5.9505  -21.1338    0.0000 N   0  0
    5.1732  -20.8812    0.0000 C   0  0
    4.4696  -21.2898    0.0000 N   0  0
    3.7577  -20.8812    0.0000 C   0  0
    3.7577  -20.0639    0.0000 N   0  0
    4.4696  -19.6553    0.0000 C   0  0
    5.1732  -20.0639    0.0000 C   0  0
    4.4696  -18.8381    0.0000 O   0  0
    7.2440  -20.4643    0.0000 S   0  0
    7.6526  -19.7606    0.0000 C   0  0
    8.4740  -19.7606    0.0000 C   0  0
    8.8826  -19.0487    0.0000 C   0  0
    8.4740  -18.3450    0.0000 C   0  0
    9.7040  -17.6331    0.0000 C   0  0
    9.7040  -19.0487    0.0000 C   0  0
    8.8826  -17.6331    0.0000 C   0  0
   10.1127  -18.3450    0.0000 C   0  0
    8.8826  -20.4642    0.0000 O   0  0
    3.0458  -21.2898    0.0000 N   0  0
  1  2  1  0
  2  3  2  0
  3  4  1  0
  4  5  1  0
  5  6  2  0
  6  7  1  0
  7  8  1  0
  8  9  1  0
  1  9  1  0
  4  9  2  0
  8 10  2  0
 12 13  1  0
 14 15  1  0
 14 17  2  0
 15 18  2  0
 16 18  1  0
 16 19  2  0
 17 19  1  0
 13 14  1  0
 13 20  2  0
 11 12  1  0
  2 11  1  0
  6 21  1  0
M  END