
  SciTegic03291108552D

 31 35  0  0  0  0            999 V2000
   -2.6755    1.3396    0.0000 S   0  0
   -1.3629    3.4237    0.0000 S   0  0
   -3.4416    1.0334    0.0000 O   0  0
   -2.5070    0.5321    0.0000 O   0  0
    0.0763    4.3710    0.0000 O   0  0
    5.1911    0.8165    0.0000 O   0  0
    0.8291    3.1565    0.0000 N   0  0
    2.2831    2.3765    0.0000 N   0  0
   -1.8955    2.7937    0.0000 C   0  0
   -2.7201    2.7679    0.0000 C   0  0
   -1.4609    2.0924    0.0000 C   0  0
   -3.1101    2.0409    0.0000 C   0  0
   -0.5991    3.1118    0.0000 C   0  0
   -1.8509    1.3654    0.0000 C   0  0
   -0.6597    2.2891    0.0000 C   0  0
    0.1021    3.5464    0.0000 C   0  0
   -3.1547    3.4691    0.0000 C   0  0
   -3.9347    2.0151    0.0000 C   0  0
   -3.9793    3.4434    0.0000 C   0  0
   -4.3693    2.7164    0.0000 C   0  0
    1.5304    3.5911    0.0000 C   0  0
    0.8549    2.3319    0.0000 C   0  0
    2.2574    3.2011    0.0000 C   0  0
    1.5819    1.9419    0.0000 C   0  0
    3.0101    1.9865    0.0000 C   0  0
    3.7114    2.4211    0.0000 C   0  0
    3.0359    1.1619    0.0000 C   0  0
    4.4641    1.2065    0.0000 C   0  0
    4.4384    2.0311    0.0000 C   0  0
    3.7629    0.7719    0.0000 C   0  0
    5.8924    1.2511    0.0000 C   0  0
  1  3  2  0
  1  4  2  0
  1 12  1  0
  1 14  1  0
  2  9  1  0
  2 13  1  0
  5 16  2  0
  6 28  1  0
  6 31  1  0
  7 16  1  0
  7 21  1  0
  7 22  1  0
  8 23  1  0
  8 24  1  0
  8 25  1  0
  9 10  1  0
  9 11  2  0
 10 12  1  0
 10 17  2  0
 11 14  1  0
 11 15  1  0
 12 18  2  0
 13 15  2  0
 13 16  1  0
 17 19  1  0
 18 20  1  0
 19 20  2  0
 21 23  1  0
 22 24  1  0
 25 26  2  0
 25 27  1  0
 26 29  1  0
 27 30  2  0
 28 29  2  0
 28 30  1  0
M  END