
  SciTegic02271217242D

 42 45  0  0  0  0            999 V2000
   14.2902  -24.6625    0.0000 C   0  0
   14.2891  -25.4898    0.0000 C   0  0
   15.0039  -25.9027    0.0000 C   0  0
   15.7203  -25.4894    0.0000 C   0  0
   15.7175  -24.6588    0.0000 C   0  0
   15.0021  -24.2497    0.0000 C   0  0
   16.4304  -24.2436    0.0000 O   0  0
   17.1464  -24.6534    0.0000 C   0  0
   17.1462  -25.4761    0.0000 C   0  0
   17.8613  -25.8858    0.0000 C   0  0
   18.5752  -25.4706    0.0000 C   0  0
   18.5695  -24.6413    0.0000 C   0  0
   17.8537  -24.2353    0.0000 C   0  0
   19.2918  -25.8794    0.0000 Cl  0  0
   17.8463  -23.4104    0.0000 N   0  0
   18.5571  -22.9915    0.0000 S   0  0
   19.2752  -23.3976    0.0000 C   0  0
   18.1375  -22.2708    0.0000 O   0  0
   18.9625  -22.2708    0.0000 O   0  0
   19.2796  -24.2219    0.0000 C   0  0
   19.9969  -24.6279    0.0000 C   0  0
   20.7086  -24.2090    0.0000 C   0  0
   20.6986  -23.3798    0.0000 C   0  0
   19.9807  -22.9775    0.0000 C   0  0
   21.4273  -24.6141    0.0000 Cl  0  0
   13.5743  -25.9018    0.0000 C   0  0
   12.8601  -25.4887    0.0000 N   0  0
   13.5736  -26.7268    0.0000 O   0  0
   12.8608  -24.6637    0.0000 C   0  0
   12.1466  -24.2506    0.0000 C   0  0
   11.4318  -24.6626    0.0000 N   0  0
   10.7155  -24.2425    0.0000 C   0  0
   10.0028  -24.6509    0.0000 C   0  0
    9.9979  -25.4763    0.0000 C   0  0
   10.7119  -25.8915    0.0000 C   0  0
   11.4308  -25.4815    0.0000 C   0  0
   21.4078  -22.9584    0.0000 C   0  0
   22.1274  -23.3619    0.0000 F   0  0
   21.3975  -22.1334    0.0000 F   0  0
   22.1167  -22.5417    0.0000 F   0  0
   17.8640  -26.7108    0.0000 O   0  0
   17.1509  -27.1257    0.0000 C   0  0
  9 10  1  0
 20 21  1  0
  2  3  1  0
 21 22  2  0
 10 11  2  0
 22 23  1  0
  5  6  2  0
 23 24  2  0
 24 17  1  0
 11 12  1  0
 22 25  1  0
  6  1  1  0
  2 26  1  0
 12 13  2  0
 26 27  1  0
 13  8  1  0
 26 28  2  0
  1  2  2  0
 27 29  1  0
 11 14  1  0
 29 30  1  0
  5  7  1  0
 30 31  1  0
 31 32  1  0
 13 15  1  0
  3  4  2  0
 15 16  1  0
  7  8  1  0
 16 17  1  0
 31 36  1  0
 32 33  1  0
 33 34  1  0
 34 35  1  0
 35 36  1  0
 23 37  1  0
 16 18  2  0
 37 38  1  0
  8  9  2  0
 37 39  1  0
 16 19  2  0
 37 40  1  0
  4  5  1  0
 10 41  1  0
 17 20  2  0
 41 42  1  0
M  END