
          11280715082D 1   1.00000     0.00000     0

 30 32  0     1  0            999 V2000
    5.8417   -3.7667    0.0000 C   0  0  0  0  0  0           0  0  0
   10.6875   -5.1750    0.0000 S   0  0  3  0  0  0           0  0  0
    5.8417   -2.9417    0.0000 C   0  0  0  0  0  0           0  0  0
    6.6292   -4.0292    0.0000 S   0  0  0  0  0  0           0  0  0
    7.1250   -3.3542    0.0000 C   0  0  0  0  0  0           0  0  0
    5.0417   -4.0250    0.0000 S   0  0  0  0  0  0           0  0  0
    6.6375   -2.6792    0.0000 C   0  0  0  0  0  0           0  0  0
   10.7000   -4.3417    0.0000 N   0  0  0  0  0  0           0  0  0
   10.1167   -3.7667    0.0000 C   0  0  2  0  0  0           0  0  0
    7.9542   -3.3542    0.0000 C   0  0  0  0  0  0           0  0  0
    5.0542   -2.6792    0.0000 C   0  0  0  0  0  0           0  0  0
    4.5625   -3.3542    0.0000 C   0  0  0  0  0  0           0  0  0
   10.8250   -3.3500    0.0000 C   0  0  0  0  0  0           0  0  0
    8.6750   -3.7667    0.0000 N   0  0  0  0  0  0           0  0  0
   11.5167   -5.1750    0.0000 O   0  0  0  0  0  0           0  0  0
    9.8542   -5.1750    0.0000 O   0  0  0  0  0  0           0  0  0
    9.3917   -3.3542    0.0000 C   0  0  0  0  0  0           0  0  0
    0.8167   -4.0292    0.0000 N   0  0  0  0  0  0           0  0  0
    8.1625   -2.5625    0.0000 O   0  0  0  0  0  0           0  0  0
   10.8250   -2.5167    0.0000 O   0  0  0  0  0  0           0  0  0
    3.7292   -3.3500    0.0000 C   0  0  0  0  0  0           0  0  0
   10.6875   -6.0042    0.0000 C   0  0  0  0  0  0           0  0  0
   11.5542   -3.7542    0.0000 O   0  0  0  0  0  0           0  0  0
    3.3042   -4.0667    0.0000 C   0  0  0  0  0  0           0  0  0
    2.4792   -4.0625    0.0000 C   0  0  3  0  0  0           0  0  0
    1.2375   -3.3167    0.0000 C   0  0  0  0  0  0           0  0  0
    1.2167   -4.7542    0.0000 C   0  0  0  0  0  0           0  0  0
    2.0667   -3.3292    0.0000 C   0  0  0  0  0  0           0  0  0
    2.0625   -4.7750    0.0000 C   0  0  0  0  0  0           0  0  0
    9.6917   -4.4792    0.0000 H   0  0  0  0  0  0           0  0  0
  2  8  1  0     0  0
  3  1  2  0     0  0
  4  1  1  0     0  0
  5  4  1  0     0  0
  6  1  1  0     0  0
  7  3  1  0     0  0
  9  8  1  1     0  0
  9 17  1  0     0  0
 10  5  1  0     0  0
 11  3  1  0     0  0
 12  6  1  0     0  0
 13  9  1  0     0  0
 14 10  1  0     0  0
 15  2  2  0     0  0
 16  2  2  0     0  0
 17 14  1  0     0  0
 18 27  1  0     0  0
 19 10  2  0     0  0
 20 13  2  0     0  0
 21 12  1  0     0  0
 22  2  1  0     0  0
 23 13  1  0     0  0
 24 21  1  0     0  0
 25 24  1  0     0  0
 26 28  1  0     0  0
 27 29  1  0     0  0
 28 25  1  0     0  0
 29 25  1  0     0  0
  9 30  1  6     0  0
 12 11  2  0     0  0
  7  5  2  0     0  0
 18 26  1  0     0  0
M  END