
  SciTegic05171617272D

 40 43  0  0  1  0            999 V2000
   10.8877   -4.0079    0.0000 C   0  0
    9.6938   -4.1290    0.0000 C   0  0
    8.8153   -2.9121    0.0000 C   0  0
    7.3221   -3.0635    0.0000 N   0  0
    6.4437   -1.8466    0.0000 C   0  0
    6.9354   -0.7520    0.0000 O   0  0
    4.9531   -1.9978    0.0000 C   0  0
    3.9511   -0.8815    0.0000 C   0  0
    2.5987   -1.5004    0.0000 N   0  0
    2.7343   -2.9815    0.0000 N   0  0
    4.2010   -3.2956    0.0000 N   0  0
    1.2990   -0.7500    0.0000 C   0  0
    1.2990    0.7500    0.0000 C   0  0
    0.0000    1.5000    0.0000 C   0  0
   -1.2990    0.7500    0.0000 C   0  0
   -1.2990   -0.7500    0.0000 C   0  0  1  0  0  0
   -2.6003   -1.4978    0.0000 O   0  0
   -3.8990   -0.7455    0.0000 C   0  0  2  0  0  0
   -3.8939    0.7546    0.0000 O   0  0
   -5.1904    1.5090    0.0000 C   0  0
   -5.1821    3.0099    0.0000 C   0  0
   -4.1399    3.6048    0.0000 O   0  0
   -6.4920    0.7635    0.0000 C   0  0  2  0  0  0
   -7.5291    1.3671    0.0000 O   0  0
   -6.4971   -0.7365    0.0000 C   0  0  1  0  0  0
   -5.2007   -1.4909    0.0000 C   0  0
   -5.2049   -2.6909    0.0000 O   0  0
   -7.7994   -1.4823    0.0000 N   0  0
   -7.9448   -2.9625    0.0000 C   0  0
   -9.4135   -3.2670    0.0000 C   0  0
  -10.1570   -1.9642    0.0000 N   0  0
   -9.1477   -0.8545    0.0000 N   0  0
  -10.0327   -4.6313    0.0000 C   0  0
   -9.3339   -5.6069    0.0000 O   0  0
  -11.5262   -4.7785    0.0000 N   0  0
  -12.1464   -6.1452    0.0000 C   0  0
  -13.6400   -6.2924    0.0000 C   0  0
  -14.1359   -7.3852    0.0000 C   0  0
    0.0000   -1.5000    0.0000 C   0  0
    0.0000   -2.7000    0.0000 O   0  0
  1  2  1  0
  2  3  1  0
  3  4  1  0
  4  5  1  0
  5  6  2  0
  5  7  1  0
  7  8  2  0
  8  9  1  0
  9 10  1  0
 10 11  2  0
  7 11  1  0
  9 12  1  0
 12 13  1  0
 13 14  1  0
 14 15  1  0
 15 16  1  0
 16 17  1  6
 18 17  1  1
 18 19  1  0
 19 20  1  0
 20 21  1  0
 21 22  1  0
 20 23  1  0
 23 24  1  1
 23 25  1  0
 25 26  1  0
 18 26  1  0
 26 27  1  0
 25 28  1  1
 28 29  1  0
 29 30  2  0
 30 31  1  0
 31 32  2  0
 28 32  1  0
 30 33  1  0
 33 34  2  0
 33 35  1  0
 35 36  1  0
 36 37  1  0
 37 38  1  0
 16 39  1  0
 12 39  1  0
 39 40  1  0
M  END