
  SciTegic01161211242D

 12 11  0  0  0  0            999 V2000
   -2.2542  -12.2083    0.0000 C   0  0
   -1.5397  -11.7958    0.0000 C   0  0
   -0.8252  -12.2083    0.0000 C   0  0
   -2.9686  -11.7958    0.0000 C   0  0
   -0.1108  -11.7958    0.0000 C   0  0
    0.6037  -12.2083    0.0000 C   0  0
   -0.1108  -10.9708    0.0000 C   0  0
    0.6037  -10.5583    0.0000 C   0  0
    1.3182  -11.7958    0.0000 S   0  0
    2.0327  -12.2083    0.0000 C   0  0
    2.7471  -11.7958    0.0000 N   0  0
    2.0327  -13.0333    0.0000 N   0  0
  1  2  1  0
  5  7  1  0
  1  4  1  0
  7  8  1  0
  6  9  1  0
  3  5  2  0
  9 10  1  0
  2  3  1  0
 10 11  1  0
  5  6  1  0
 10 12  2  0
M  END