
  SciTegic01061111512D

 36 38  0  0  0  0            999 V2000
    0.8126    3.1510    0.0000 C   0  0  2  0  0  0
    0.8126    2.3259    0.0000 C   0  0  2  0  0  0
    1.5253    1.9196    0.0000 C   0  0  1  0  0  0
    2.2378    2.3259    0.0000 C   0  0  2  0  0  0
    2.2378    3.1510    0.0000 C   0  0  1  0  0  0
    1.5253    3.5697    0.0000 O   0  0
    2.9542    3.5634    0.0000 O   0  0
    2.9524    1.9145    0.0000 N   0  0
    3.6680    2.3238    0.0000 C   0  0
    4.3824    1.9124    0.0000 C   0  0
    3.6692    3.1489    0.0000 O   0  0
    1.5253    1.0945    0.0000 O   0  0
    0.1023    1.9145    0.0000 O   0  0
    0.1005    3.5634    0.0000 C   0  0
    0.0981    4.3927    0.0000 O   0  0
   -0.6133    2.3238    0.0000 C   0  0  2  0  0  0
   -0.6123    3.1521    0.0000 O   0  0
   -1.3239    3.5656    0.0000 C   0  0  1  0  0  0
   -2.0408    3.1535    0.0000 C   0  0  1  0  0  0
   -2.0416    2.3275    0.0000 C   0  0  1  0  0  0
   -1.3255    1.9136    0.0000 C   0  0  1  0  0  0
   -0.0331    2.9147    0.0000 H   0  0
   -1.3220    4.3989    0.0000 C   0  0
   -2.0361    4.8076    0.0000 O   0  0
   -2.7525    3.5737    0.0000 O   0  0
   -2.7574    1.9184    0.0000 N   0  0
   -1.3252    1.0892    0.0000 O   0  0
   -3.5058    2.2551    0.0000 N   0  0
   -4.0563    1.6461    0.0000 N   0  0
   -3.6472    0.9302    0.0000 C   0  0
   -2.8397    1.0993    0.0000 C   0  0
   -3.9824    0.1767    0.0000 C   0  0
   -4.8031    0.0924    0.0000 N   0  0
   -3.5012   -0.4925    0.0000 O   0  0
   -5.1426   -0.6611    0.0000 C   0  0
    2.9566    4.3927    0.0000 C   0  0
  8  9  1  0
  2  3  1  0
  9 10  1  0
 16 21  1  0
 17 18  1  0
 18 19  1  0
 19 20  1  0
 20 21  1  0
  3  4  1  0
 16 22  1  6
  9 11  2  0
 18 23  1  1
  4  5  1  0
 23 24  1  0
  3 12  1  1
 19 25  1  1
  5  6  1  0
 20 26  1  1
  2 13  1  6
 21 27  1  6
 26 28  1  0
  1 14  1  1
  5  7  1  1
 14 15  1  0
 28 29  2  0
 29 30  1  0
 30 31  2  0
 31 26  1  0
  1  2  1  0
 30 32  1  0
 13 16  1  0
 32 33  1  0
 16 17  1  0
 32 34  2  0
  4  8  1  6
 33 35  1  0
  1  6  1  0
  7 36  1  0
M  END