
  SciTegic10191216002D

 30 33  0  0  0  0            999 V2000
   13.2947   -9.7579    0.0000 C   0  0
   13.2934  -10.5855    0.0000 C   0  0
   14.0064  -10.9983    0.0000 C   0  0
   14.0044   -9.3450    0.0000 C   0  0
   14.7225   -9.7539    0.0000 C   0  0
   14.7216  -10.5875    0.0000 C   0  0
   15.4391  -11.0028    0.0000 C   0  0
   16.1622  -10.5890    0.0000 N   0  0
   16.1630   -9.7554    0.0000 C   0  0
   15.4409   -9.3356    0.0000 C   0  0
   15.4407   -8.5106    0.0000 C   0  0
   16.1541   -8.1010    0.0000 C   0  0
   16.1542   -7.2768    0.0000 C   0  0
   15.4390   -6.8637    0.0000 C   0  0
   14.7224   -7.2809    0.0000 C   0  0
   14.7258   -8.1037    0.0000 C   0  0
   16.8756  -11.0034    0.0000 C   0  0
   12.5784  -10.9969    0.0000 O   0  0
   11.8645  -10.5834    0.0000 C   0  0
   11.8657   -9.7584    0.0000 C   0  0
   11.1518   -9.3449    0.0000 C   0  0
   11.1530   -8.5199    0.0000 N   0  0
   11.8712   -8.1108    0.0000 C   0  0
   11.8743   -7.2895    0.0000 C   0  0
   11.1622   -6.8721    0.0000 C   0  0
   10.4454   -7.2823    0.0000 C   0  0
   10.4405   -8.1100    0.0000 C   0  0
   11.1665   -6.0471    0.0000 F   0  0
   15.4353   -6.0398    0.0000 C   0  0
   15.4340   -5.2148    0.0000 N   0  0
  1  2  2  0
 14 15  1  0
  5  4  2  0
 15 16  2  0
 16 11  1  0
  4  1  1  0
  8 17  1  0
  5 10  1  0
  2 18  1  0
  6  7  1  0
 18 19  1  0
  7  8  1  0
 19 20  1  0
  8  9  1  0
 20 21  1  0
  9 10  1  0
 21 22  1  0
 22 23  1  0
  5  6  1  0
 10 11  1  0
 11 12  2  0
  2  3  1  0
 22 27  1  0
 23 24  1  0
 24 25  1  0
 25 26  1  0
 26 27  1  0
 12 13  1  0
 25 28  1  0
  3  6  2  0
 13 14  2  0
 29 30  3  0
 14 29  1  0
M  END