
  SciTegic01161211242D

 38 42  0  0  0  0            999 V2000
    9.9706   -2.4152    0.0000 C   0  0
   10.6870   -2.0019    0.0000 C   0  0
   10.6841   -1.1713    0.0000 C   0  0
    9.9688   -0.7622    0.0000 C   0  0
    9.2557   -2.0023    0.0000 C   0  0
    9.2524   -1.1734    0.0000 C   0  0
   11.3971   -0.7561    0.0000 C   0  0
   12.1131   -1.1659    0.0000 N   0  0
   11.3939    0.0689    0.0000 O   0  0
   12.8260   -0.7508    0.0000 C   0  0
   13.5420   -1.1606    0.0000 C   0  0
   13.5420   -1.9844    0.0000 C   0  0
   14.2572   -2.3941    0.0000 C   0  0
   14.9711   -1.9789    0.0000 C   0  0
   14.9653   -1.1496    0.0000 C   0  0
   14.2495   -0.7437    0.0000 C   0  0
   15.6727   -0.7333    0.0000 C   0  0
   16.3905   -1.1423    0.0000 C   0  0
   17.1014   -0.7253    0.0000 C   0  0
   17.0959    0.1006    0.0000 C   0  0
   16.3734    0.5076    0.0000 C   0  0
   15.6654    0.0883    0.0000 C   0  0
   17.8187   -1.1329    0.0000 C   0  0
   17.8294   -1.9539    0.0000 N   0  0
   17.1200   -2.3794    0.0000 C   0  0
   17.1349   -3.2006    0.0000 C   0  0  2  0  0  0
   17.8560   -3.6022    0.0000 N   0  0
   18.5637   -3.1763    0.0000 C   0  0
   18.5503   -2.3488    0.0000 C   0  0
    8.5376   -0.7615    0.0000 C   0  0
    8.5369    0.0635    0.0000 N   0  0
   16.4275   -3.6251    0.0000 C   0  0
   15.6876   -2.3878    0.0000 F   0  0
    9.2495    0.4742    0.0000 C   0  0
    9.2509    1.2956    0.0000 C   0  0
    8.5379    1.7113    0.0000 C   0  0
    7.8219    1.2995    0.0000 C   0  0
    7.8189    0.4719    0.0000 C   0  0
 18 19  1  0
  4  6  1  0
 19 20  2  0
  8 10  1  0
 20 21  1  0
  5  6  2  0
 21 22  2  0
 22 17  1  0
 15 17  1  0
 10 11  1  0
 19 23  1  0
  1  2  2  0
 23 24  1  0
 24 25  1  0
 11 12  2  0
  5  1  1  0
 12 13  1  0
  2  3  1  0
 13 14  2  0
 24 29  1  0
 25 26  1  0
 26 27  1  0
 27 28  1  0
 28 29  1  0
  3  7  1  0
  6 30  1  0
 14 15  1  0
 30 31  1  0
 26 32  1  1
 15 16  2  0
 14 33  1  0
 31 34  1  0
 16 11  1  0
  7  8  1  0
  3  4  2  0
 17 18  2  0
  7  9  2  0
 31 38  1  0
 34 35  1  0
 35 36  1  0
 36 37  1  0
 37 38  1  0
M  END