
  SciTegic01181116592D

 25 27  0  0  0  0            999 V2000
    5.1777   -4.5041    0.0000 C   0  0
    5.1766   -5.3315    0.0000 C   0  0
    5.8914   -5.7444    0.0000 C   0  0
    6.6078   -5.3310    0.0000 C   0  0
    6.6050   -4.5005    0.0000 C   0  0
    5.8896   -4.0914    0.0000 C   0  0
    4.4618   -5.7434    0.0000 Cl  0  0
    7.3179   -4.0853    0.0000 C   0  0
    8.0339   -4.4951    0.0000 C   0  0
    7.3148   -3.2603    0.0000 O   0  0
    5.8912   -6.5694    0.0000 S   0  0
    6.6056   -6.9820    0.0000 N   0  0
    5.0875   -6.3500    0.0000 O   0  0
    5.3000   -7.1500    0.0000 O   0  0
    8.7469   -4.0798    0.0000 N   0  0
    9.4917   -2.9767    0.0000 N   0  0
    8.7164   -3.2583    0.0000 C   0  0
    9.9994   -3.6271    0.0000 C   0  0
    9.5367   -4.3092    0.0000 C   0  0
    9.8961   -5.0488    0.0000 C   0  0
   10.7180   -5.1076    0.0000 C   0  0
   11.1792   -4.4206    0.0000 C   0  0
   10.8172   -3.6838    0.0000 C   0  0
    7.9974   -2.8539    0.0000 C   0  0
    7.9881   -2.0289    0.0000 C   0  0
  6  1  1  0
 11 13  2  0
  1  2  2  0
 11 14  2  0
  2  7  1  0
  9 15  1  0
 15 19  1  0
  3  4  2  0
  5  8  1  0
 18 16  1  0
 16 17  2  0
 17 15  1  0
  8  9  1  0
 18 19  2  0
  4  5  1  0
 19 20  1  0
  8 10  2  0
 20 21  2  0
  2  3  1  0
 21 22  1  0
  3 11  1  0
 22 23  2  0
 23 18  1  0
  5  6  2  0
 17 24  1  0
 11 12  1  0
 24 25  1  0
M  END