
  CDK    9/16/09,9:56

 33 35  0  0  0  0  0  0  0  0999 V2000
   12.8720  -22.4249    0.0000 O   0  0  0  0  0  0  0  0  0  0  0  0
   12.8686  -23.2473    0.0000 C   0  0  0  0  0  0  0  0  0  0  0  0
   12.1333  -23.6217    0.0000 C   0  0  0  0  0  0  0  0  0  0  0  0
   11.4001  -23.2452    0.0000 C   0  0  0  0  0  0  0  0  0  0  0  0
   11.2708  -22.4288    0.0000 O   0  0  0  0  0  0  0  0  0  0  0  0
   10.8153  -23.8288    0.0000 C   0  0  0  0  0  0  0  0  0  0  0  0
    9.9993  -23.6963    0.0000 O   0  0  0  0  0  0  0  0  0  0  0  0
   11.1896  -24.5640    0.0000 C   0  0  0  0  0  0  0  0  0  0  0  0
   12.0009  -24.4377    0.0000 O   0  0  0  0  0  0  0  0  0  0  0  0
   10.8131  -25.2972    0.0000 N   0  0  0  0  0  0  0  0  0  0  0  0
    9.9968  -25.4265    0.0000 C   0  0  0  0  0  0  0  0  0  0  0  0
    9.8643  -26.2425    0.0000 N   0  0  0  0  0  0  0  0  0  0  0  0
   10.6026  -26.6161    0.0000 C   0  0  0  0  0  0  0  0  0  0  0  0
   10.8143  -27.4147    0.0000 C   0  0  0  0  0  0  0  0  0  0  0  0
   10.2295  -27.9983    0.0000 N   0  0  0  0  0  0  0  0  0  0  0  0
   11.6108  -27.6298    0.0000 N   0  0  0  0  0  0  0  0  0  0  0  0
   12.1956  -27.0462    0.0000 C   0  0  0  0  0  0  0  0  0  0  0  0
   11.9829  -26.2516    0.0000 N   0  0  0  0  0  0  0  0  0  0  0  0
   11.1864  -26.0365    0.0000 C   0  0  0  0  0  0  0  0  0  0  0  0
   13.5710  -23.6799    0.0000 N   0  0  0  0  0  0  0  0  0  0  0  0
   17.1250  -22.4292    0.0000 C   0  0  0  0  0  0  0  0  0  0  0  0
   17.8395  -22.0167    0.0000 N   0  0  0  0  0  0  0  0  0  0  0  0
   16.4064  -22.0167    0.0000 C   0  0  0  0  0  0  0  0  0  0  0  0
   17.1250  -23.2583    0.0000 O   0  0  0  0  0  0  0  0  0  0  0  0
   15.6877  -22.4292    0.0000 C   0  0  0  0  0  0  0  0  0  0  0  0
   14.9691  -22.0167    0.0000 C   0  0  0  0  0  0  0  0  0  0  0  0
   14.2533  -22.4225    0.0000 C   0  0  0  0  0  0  0  0  0  0  0  0
   14.2744  -23.2508    0.0000 C   0  0  0  0  0  0  0  0  0  0  0  0
   18.5539  -22.4292    0.0000 C   0  0  0  0  0  0  0  0  0  0  0  0
   19.2684  -22.0167    0.0000 C   0  0  0  0  0  0  0  0  0  0  0  0
   19.9829  -22.4292    0.0000 C   0  0  0  0  0  0  0  0  0  0  0  0
   20.6974  -22.0167    0.0000 C   0  0  0  0  0  0  0  0  0  0  0  0
   21.4118  -22.4292    0.0000 N   0  0  0  0  0  0  0  0  0  0  0  0
 13 14  1  0  0  0  0 
 14 15  1  0  0  0  0 
 14 16  2  0  0  0  0 
 16 17  1  0  0  0  0 
 17 18  2  0  0  0  0 
 18 19  1  0  0  0  0 
 13 19  2  0  0  0  0 
 10 19  1  0  0  0  0 
  2 20  1  0  0  0  0 
  1  2  2  0  0  0  0 
  3  2  1  1  0  0  0 
 21 22  1  0  0  0  0 
  3  4  1  0  0  0  0 
 21 23  1  0  0  0  0 
  4  5  1  6  0  0  0 
 21 24  2  0  0  0  0 
  4  6  1  0  0  0  0 
 23 25  1  0  0  0  0 
  6  7  1  6  0  0  0 
 25 26  1  0  0  0  0 
  6  8  1  0  0  0  0 
 26 27  1  0  0  0  0 
  8  9  1  0  0  0  0 
 27 28  1  0  0  0  0 
 28 20  1  0  0  0  0 
  3  9  1  0  0  0  0 
 22 29  1  0  0  0  0 
  8 10  1  1  0  0  0 
 29 30  1  0  0  0  0 
 10 11  1  0  0  0  0 
 30 31  1  0  0  0  0 
 11 12  2  0  0  0  0 
 31 32  1  0  0  0  0 
 12 13  1  0  0  0  0 
 32 33  1  0  0  0  0 
M  END