
  SciTegic10311316262D

 28 30  0  0  0  0            999 V2000
   12.9513  -17.5457    0.0000 C   0  0
   12.9502  -18.3731    0.0000 C   0  0
   13.6650  -18.7859    0.0000 C   0  0
   14.3814  -18.3726    0.0000 C   0  0
   14.3786  -17.5421    0.0000 C   0  0
   13.6632  -17.1329    0.0000 C   0  0
   15.0915  -17.1269    0.0000 N   0  0
   15.8075  -17.5367    0.0000 C   0  0
   16.5204  -17.1215    0.0000 C   0  0
   15.8106  -18.3617    0.0000 O   0  0
   17.2364  -17.5313    0.0000 S   0  0
   17.9493  -17.1161    0.0000 C   0  0
   18.6652  -17.5291    0.0000 N   0  0
   19.3760  -17.1174    0.0000 C   0  0
   19.3772  -16.2920    0.0000 C   0  0
   18.6613  -15.8800    0.0000 C   0  0
   17.9443  -16.2934    0.0000 N   0  0
   18.6610  -15.0550    0.0000 O   0  0
   20.0923  -15.8838    0.0000 C   0  0
   20.8068  -15.4713    0.0000 N   0  0
   20.0888  -17.5290    0.0000 C   0  0
   20.0875  -18.3551    0.0000 C   0  0
   20.8011  -18.7676    0.0000 C   0  0
   21.5166  -18.3550    0.0000 C   0  0
   21.5139  -17.5258    0.0000 C   0  0
   20.7997  -17.1171    0.0000 C   0  0
   22.2316  -18.7666    0.0000 Cl  0  0
   12.2368  -17.1334    0.0000 Cl  0  0
  1  2  2  0
  2  3  1  0
  3  4  2  0
  4  5  1  0
  5  6  2  0
  6  1  1  0
  5  7  1  0
  7  8  1  0
  8  9  1  0
  8 10  2  0
  9 11  1  0
 11 12  1  0
 12 13  2  0
 12 17  1  0
 13 14  1  0
 14 15  2  0
 15 16  1  0
 16 17  1  0
 16 18  2  0
 19 20  3  0
 15 19  1  0
 21 22  2  0
 22 23  1  0
 23 24  2  0
 24 25  1  0
 25 26  2  0
 26 21  1  0
 14 21  1  0
 24 27  1  0
  1 28  1  0
M  END