
          11280715102D 1   1.00000     0.00000     0

 15 15  0     0  0            999 V2000
    1.4042   -0.9042    0.0000 N   0  0  0  0  0  0           0  0  0
    1.4042   -1.5042    0.0000 C   0  0  0  0  0  0           0  0  0
    1.9167   -0.6042    0.0000 C   0  0  0  0  0  0           0  0  0
    2.9542   -1.8042    0.0000 C   0  0  0  0  0  0           0  0  0
    2.4375   -1.5042    0.0000 C   0  0  3  0  0  0           0  0  0
    1.9167   -1.8042    0.0000 C   0  0  0  0  0  0           0  0  0
    2.4375   -0.9042    0.0000 C   0  0  0  0  0  0           0  0  0
    0.8792   -1.8000    0.0000 O   0  0  0  0  0  0           0  0  0
    1.9167   -0.0042    0.0000 O   0  0  0  0  0  0           0  0  0
    2.9542   -2.4042    0.0000 O   0  0  0  0  0  0           0  0  0
    3.4792   -1.5042    0.0000 S   0  0  0  0  0  0           0  0  0
    3.9917   -1.8042    0.0000 C   0  0  0  0  0  0           0  0  0
    4.5167   -1.5042    0.0000 C   0  0  0  0  0  0           0  0  0
    5.0375   -1.8042    0.0000 C   0  0  0  0  0  0           0  0  0
    5.5542   -1.5042    0.0000 C   0  0  0  0  0  0           0  0  0
  2  1  1  0     0  0
  3  1  1  0     0  0
  4  5  1  0     0  0
  5  7  1  0     0  0
  6  2  1  0     0  0
  7  3  1  0     0  0
  8  2  2  0     0  0
  9  3  2  0     0  0
 10  4  2  0     0  0
 11  4  1  0     0  0
 12 11  1  0     0  0
 13 12  1  0     0  0
 14 13  1  0     0  0
 15 14  1  0     0  0
  6  5  1  0     0  0
M  END