
  CDK    9/16/09,9:46

  7  6  0  0  0  0  0  0  0  0999 V2000
    0.5542   -1.4042    0.0000 N   0  0  0  0  0  0  0  0  0  0  0  0
    1.2686   -0.9917    0.0000 C   0  0  0  0  0  0  0  0  0  0  0  0
    1.9831   -1.4042    0.0000 C   0  0  0  0  0  0  0  0  0  0  0  0
    2.6976   -0.9917    0.0000 C   0  0  0  0  0  0  0  0  0  0  0  0
    3.4121   -1.4042    0.0000 C   0  0  0  0  0  0  0  0  0  0  0  0
    3.4156   -2.2309    0.0000 O   0  0  0  0  0  0  0  0  0  0  0  0
    4.1301   -0.9934    0.0000 O   0  0  0  0  0  0  0  0  0  0  0  0
  3  4  2  0  0  0  0 
  4  5  1  0  0  0  0 
  2  3  1  0  0  0  0 
  1  2  1  0  0  0  0 
  5  6  1  0  0  0  0 
  5  7  2  0  0  0  0 
M  END