
  SciTegic01161211232D

 28 30  0  0  0  0            999 V2000
   -5.3251  -17.4852    0.0000 C   0  0
   -5.3262  -18.3124    0.0000 C   0  0
   -4.6119  -18.7252    0.0000 C   0  0
   -4.6136  -17.0724    0.0000 C   0  0
   -3.8987  -17.4818    0.0000 C   0  0
   -3.8954  -18.3145    0.0000 C   0  0
   -3.1766  -18.7258    0.0000 O   0  0
   -2.4565  -18.3089    0.0000 C   0  0
   -2.4597  -17.4762    0.0000 C   0  0  1  0  0  0
   -3.1832  -17.0603    0.0000 O   0  0
   -1.7464  -17.0616    0.0000 C   0  0
   -1.0307  -17.4721    0.0000 N   0  0
   -0.3174  -17.0575    0.0000 C   0  0
    0.3983  -17.4680    0.0000 C   0  0
    1.1115  -17.0534    0.0000 O   0  0
    1.8273  -17.4639    0.0000 C   0  0
    1.8247  -18.2878    0.0000 C   0  0
    2.5394  -18.6982    0.0000 C   0  0
    3.2538  -18.2835    0.0000 C   0  0
    1.1100  -18.7001    0.0000 O   0  0
    1.1097  -19.5251    0.0000 C   0  0
    2.5333  -17.0477    0.0000 C   0  0
    3.2467  -17.4573    0.0000 C   0  0
    3.9542  -17.0466    0.0000 C   0  0
    3.9545  -16.2245    0.0000 C   0  0
    3.2412  -15.8149    0.0000 C   0  0
    2.5275  -16.2273    0.0000 C   0  0
   -1.1714  -16.5317    0.0000 Cl  0  0
 12 13  1  0
 13 14  1  0
  2  3  1  0
 14 15  1  0
  3  6  2  0
 15 16  1  0
 16 17  2  0
  5  4  2  0
 17 18  1  0
  5 10  1  0
 18 19  2  0
 19 23  1  0
 22 16  1  0
  6  7  1  0
 17 20  1  0
  7  8  1  0
 20 21  1  0
 22 23  2  0
  8  9  1  0
  9 10  1  0
  4  1  1  0
  9 11  1  1
  5  6  1  0
 11 12  1  0
 22 27  1  0
 23 24  1  0
 24 25  1  0
 25 26  1  0
 26 27  1  0
  1  2  2  0
M  END