
  SciTegic01091216402D

 23 24  0  0  0  0            999 V2000
    8.8748   -7.0574    0.0000 N   0  0
    8.8934   -7.8837    0.0000 N   0  0
    9.6819   -8.1170    0.0000 C   0  0
   10.1517   -7.4373    0.0000 C   0  0
    9.6503   -6.7831    0.0000 C   0  0
    8.1955   -6.5873    0.0000 C   0  0
    7.4780   -6.9945    0.0000 N   0  0
    8.2029   -5.7647    0.0000 N   0  0
   10.9780   -7.4188    0.0000 C   0  0
   11.4055   -8.1215    0.0000 C   0  0
    8.9204   -5.3574    0.0000 C   0  0
    9.6304   -5.7727    0.0000 C   0  0
    6.7673   -6.5780    0.0000 S   0  0
    7.1833   -5.8692    0.0000 O   0  0
    6.0649   -7.0130    0.0000 C   0  0
    6.0910   -7.8376    0.0000 C   0  0
    5.3886   -8.2725    0.0000 C   0  0
    4.6600   -7.8829    0.0000 C   0  0
    4.6339   -7.0583    0.0000 C   0  0
    5.3363   -6.6234    0.0000 C   0  0
    6.1792   -5.9875    0.0000 O   0  0
    6.8180   -8.2276    0.0000 Cl  0  0
    5.3415   -5.7988    0.0000 Cl  0  0
  3  4  1  0
  4  5  1  0
  1  5  1  0
  6  7  2  0
  6  8  1  0
  1  6  1  0
  9 10  1  0
  4  9  1  0
 11 12  1  0
  8 11  1  0
 13 14  2  0
 15 16  1  0
 16 17  2  0
 17 18  1  0
 18 19  2  0
 19 20  1  0
 15 20  2  0
 13 15  1  0
  7 13  1  0
 13 21  2  0
  1  2  1  0
 16 22  1  0
  2  3  2  0
 20 23  1  0
M  END