
  Mrv0541 05211314572D          

 37 41  0  0  0  0            999 V2000
    5.2345   -5.8731    0.0000 C   0  0  0  0  0  0  0  0  0  0  0  0
    5.9490   -6.2856    0.0000 C   0  0  0  0  0  0  0  0  0  0  0  0
    6.6634   -5.8731    0.0000 C   0  0  0  0  0  0  0  0  0  0  0  0
    7.3779   -6.2856    0.0000 N   0  0  0  0  0  0  0  0  0  0  0  0
    6.6634   -5.0481    0.0000 O   0  0  0  0  0  0  0  0  0  0  0  0
    8.0924   -5.8731    0.0000 C   0  0  0  0  0  0  0  0  0  0  0  0
    8.8068   -6.2856    0.0000 C   0  0  0  0  0  0  0  0  0  0  0  0
    8.8068   -7.1106    0.0000 N   0  0  0  0  0  0  0  0  0  0  0  0
    8.0924   -7.5231    0.0000 C   0  0  0  0  0  0  0  0  0  0  0  0
    7.3779   -7.1106    0.0000 C   0  0  0  0  0  0  0  0  0  0  0  0
    9.5213   -7.5231    0.0000 C   0  0  0  0  0  0  0  0  0  0  0  0
   10.2358   -7.1106    0.0000 C   0  0  0  0  0  0  0  0  0  0  0  0
   10.9503   -7.5231    0.0000 C   0  0  0  0  0  0  0  0  0  0  0  0
   10.9503   -8.3481    0.0000 C   0  0  0  0  0  0  0  0  0  0  0  0
   10.2358   -8.7606    0.0000 C   0  0  0  0  0  0  0  0  0  0  0  0
    9.5213   -8.3481    0.0000 C   0  0  0  0  0  0  0  0  0  0  0  0
   11.6647   -8.7606    0.0000 N   0  3  0  0  0  0  0  0  0  0  0  0
   11.6647   -9.5856    0.0000 O   0  0  0  0  0  0  0  0  0  0  0  0
   12.3792   -8.3481    0.0000 O   0  5  0  0  0  0  0  0  0  0  0  0
    4.5200   -6.2856    0.0000 N   0  0  0  0  0  0  0  0  0  0  0  0
    4.5200   -7.1106    0.0000 C   0  0  0  0  0  0  0  0  0  0  0  0
    3.8055   -5.8731    0.0000 C   0  0  0  0  0  0  0  0  0  0  0  0
    3.0911   -6.2856    0.0000 C   0  0  0  0  0  0  0  0  0  0  0  0
    2.3766   -5.8731    0.0000 C   0  0  0  0  0  0  0  0  0  0  0  0
    0.9477   -5.0481    0.0000 S   0  0  0  0  0  0  0  0  0  0  0  0
    0.9477   -5.8731    0.0000 C   0  0  0  0  0  0  0  0  0  0  0  0
    1.6621   -6.2856    0.0000 C   0  0  0  0  0  0  0  0  0  0  0  0
    1.6621   -7.1106    0.0000 C   0  0  0  0  0  0  0  0  0  0  0  0
    0.9477   -7.5231    0.0000 C   0  0  0  0  0  0  0  0  0  0  0  0
    0.2332   -7.1106    0.0000 C   0  0  0  0  0  0  0  0  0  0  0  0
    0.2332   -6.2856    0.0000 C   0  0  0  0  0  0  0  0  0  0  0  0
    2.3766   -5.0481    0.0000 C   0  0  0  0  0  0  0  0  0  0  0  0
    1.6621   -4.6356    0.0000 C   0  0  0  0  0  0  0  0  0  0  0  0
    1.6621   -3.8106    0.0000 C   0  0  0  0  0  0  0  0  0  0  0  0
    2.3766   -3.3981    0.0000 C   0  0  0  0  0  0  0  0  0  0  0  0
    3.0911   -3.8106    0.0000 C   0  0  0  0  0  0  0  0  0  0  0  0
    3.0911   -4.6356    0.0000 C   0  0  0  0  0  0  0  0  0  0  0  0
 17 18  2  0  0  0  0
 17 19  1  0  0  0  0
 14 17  1  0  0  0  0
  8  9  1  0  0  0  0
  1 20  1  0  0  0  0
  9 10  1  0  0  0  0
 20 21  1  0  0  0  0
  4  6  1  0  0  0  0
 20 22  1  0  0  0  0
  8 11  1  0  0  0  0
 22 23  1  0  0  0  0
  2  3  1  0  0  0  0
 23 24  1  0  0  0  0
 24 27  1  0  0  0  0
 11 12  2  0  0  0  0
 24 32  1  0  0  0  0
 26 25  1  0  0  0  0
 25 33  1  0  0  0  0
  1  2  1  0  0  0  0
 12 13  1  0  0  0  0
 26 27  2  0  0  0  0
  3  4  1  0  0  0  0
 27 28  1  0  0  0  0
 13 14  2  0  0  0  0
 28 29  2  0  0  0  0
 29 30  1  0  0  0  0
 14 15  1  0  0  0  0
 30 31  2  0  0  0  0
 31 26  1  0  0  0  0
  3  5  2  0  0  0  0
 15 16  2  0  0  0  0
 32 33  2  0  0  0  0
 16 11  1  0  0  0  0
 33 34  1  0  0  0  0
  4 10  1  0  0  0  0
 34 35  2  0  0  0  0
  6  7  1  0  0  0  0
 35 36  1  0  0  0  0
  7  8  1  0  0  0  0
 36 37  2  0  0  0  0
 37 32  1  0  0  0  0
M  CHG  2  17   1  19  -1
M  END