
  SciTegic10041313232D

 32 34  0  0  1  0            999 V2000
    5.4000   -9.8750    0.0000 C   0  0
    3.2542   -9.4500    0.0000 C   0  0
    3.9667   -9.8667    0.0000 N   0  0
    4.6875   -9.4542    0.0000 C   0  0  1  0  0  0
    6.1167   -9.4667    0.0000 N   0  0
    8.3650   -8.9848    0.0000 N   0  0
    7.5375   -9.4667    0.0000 C   0  0
    5.3917  -10.7000    0.0000 O   0  0
    3.2500   -8.6250    0.0000 O   0  0
    2.5417   -9.8625    0.0000 C   0  0
    4.6917   -8.6292    0.0000 C   0  0
    6.8292   -9.8792    0.0000 C   0  0  2  0  0  0
    1.1167  -10.6875    0.0000 N   0  0
    7.5417  -11.1167    0.0000 O   0  0
    5.1000   -7.9125    0.0000 C   0  0
    8.9667  -11.1167    0.0000 C   0  0
    6.8292  -10.7042    0.0000 C   0  0
    1.1167   -9.8625    0.0000 C   0  0
    1.8292  -11.0917    0.0000 C   0  0
    8.2542  -10.7042    0.0000 C   0  0
    1.8292   -9.4417    0.0000 C   0  0
    2.5417  -10.6875    0.0000 C   0  0
    8.9667  -11.9417    0.0000 C   0  0
    9.6792  -10.7000    0.0000 C   0  0
    5.9250   -7.9042    0.0000 C   0  0
    4.6792   -7.2000    0.0000 C   0  0
   10.3917  -11.1042    0.0000 C   0  0
    9.6792  -12.3542    0.0000 C   0  0
    5.0875   -6.4792    0.0000 C   0  0
    6.3292   -7.1917    0.0000 C   0  0
    5.9125   -6.4750    0.0000 C   0  0
   10.3917  -11.9375    0.0000 C   0  0
  2  3  1  0
  3  4  1  0
  4  1  1  0
  5  1  1  0
  6  7  3  0
  7 12  1  0
  8  1  2  0
  9  2  2  0
 10  2  1  0
  4 11  1  1
 12  5  1  0
 13 19  2  0
 14 17  1  0
 15 11  1  0
 16 20  1  0
 12 17  1  6
 18 21  2  0
 19 22  1  0
 20 14  1  0
 21 10  1  0
 22 10  2  0
 23 16  2  0
 24 16  1  0
 25 15  1  0
 26 15  1  0
 27 24  2  0
 28 23  1  0
 29 26  1  0
 30 25  1  0
 31 29  1  0
 32 27  1  0
 30 31  1  0
 18 13  1  0
 28 32  2  0
M  END