
          11280715122D 1   1.00000     0.00000     0

 34 37  0     0  0            999 V2000
    5.0667   -3.6542    0.0000 C   0  0  0  0  0  0           0  0  0
    5.0667   -4.4875    0.0000 C   0  0  0  0  0  0           0  0  0
    2.9250   -3.2500    0.0000 N   0  3  0  0  0  0           0  0  0
    8.0792   -8.8167    0.0000 C   0  0  0  0  0  0           0  0  0
    7.5500  -10.0417    0.0000 N   0  0  0  0  0  0           0  0  0
    3.6417   -3.6625    0.0000 C   0  0  0  0  0  0           0  0  0
    8.2542   -9.6250    0.0000 N   0  0  0  0  0  0           0  0  0
    6.9292   -9.5125    0.0000 N   0  0  0  0  0  0           0  0  0
    4.3542   -4.9000    0.0000 N   0  0  0  0  0  0           0  0  0
    4.3542   -3.2417    0.0000 C   0  0  0  0  0  0           0  0  0
    7.2625   -8.7417    0.0000 N   0  0  0  0  0  0           0  0  0
    8.6292   -8.2000    0.0000 C   0  0  0  0  0  0           0  0  0
    5.7792   -4.9000    0.0000 N   0  0  3  0  0  0           0  0  0
    5.7917   -3.2375    0.0000 C   0  0  0  0  0  0           0  0  0
    8.6292   -7.3750    0.0000 C   0  0  0  0  0  0           0  0  0
    3.6417   -4.4875    0.0000 C   0  0  0  0  0  0           0  0  0
    2.9250   -2.4250    0.0000 O   0  5  0  0  0  0           0  0  0
    2.2167   -3.6667    0.0000 O   0  0  0  0  0  0           0  0  0
    7.9167   -6.9625    0.0000 C   0  0  0  0  0  0           0  0  0
    5.7792   -5.7250    0.0000 C   0  0  0  0  0  0           0  0  0
    5.7875   -2.4042    0.0000 O   0  0  0  0  0  0           0  0  0
    7.2042   -7.3750    0.0000 C   0  0  0  0  0  0           0  0  0
    7.9167   -6.1292    0.0000 C   0  0  0  0  0  0           0  0  0
    6.4917   -6.1375    0.0000 C   0  0  0  0  0  0           0  0  0
    6.5125   -3.6500    0.0000 O   0  0  0  0  0  0           0  0  0
    7.2000   -5.7167    0.0000 C   0  0  0  0  0  0           0  0  0
    6.4917   -6.9625    0.0000 C   0  0  0  0  0  0           0  0  0
    6.4917   -4.4875    0.0000 C   0  0  0  0  0  0           0  0  0
    9.3417   -8.6125    0.0000 C   0  0  0  0  0  0           0  0  0
    9.3417   -6.9625    0.0000 C   0  0  0  0  0  0           0  0  0
    7.2000   -4.9000    0.0000 C   0  0  0  0  0  0           0  0  0
   10.0542   -8.2000    0.0000 C   0  0  0  0  0  0           0  0  0
   10.0542   -7.3667    0.0000 C   0  0  0  0  0  0           0  0  0
    7.9042   -4.4917    0.0000 C   0  0  0  0  0  0           0  0  0
  2  1  1  0     0  0
  3  6  1  0     0  0
  4 12  1  0     0  0
  5  7  2  0     0  0
  6 10  1  0     0  0
  7  4  1  0     0  0
  8 11  1  0     0  0
  9  2  2  0     0  0
 10  1  2  0     0  0
 11  4  2  0     0  0
 12 15  2  0     0  0
 13  2  1  0     0  0
 14  1  1  0     0  0
 15 19  1  0     0  0
 16  6  2  0     0  0
 17  3  1  0     0  0
 18  3  2  0     0  0
 19 22  2  0     0  0
 20 13  1  0     0  0
 21 14  2  0     0  0
 22 27  1  0     0  0
 23 26  2  0     0  0
 24 20  1  0     0  0
 25 14  1  0     0  0
 26 24  1  0     0  0
 27 24  2  0     0  0
 28 13  1  0     0  0
 29 12  1  0     0  0
 30 15  1  0     0  0
 31 28  1  0     0  0
 32 33  1  0     0  0
 33 30  2  0     0  0
 34 31  1  0     0  0
 16  9  1  0     0  0
 19 23  1  0     0  0
 29 32  2  0     0  0
  8  5  1  0     0  0
M  CHG  2   3   1  17  -1
M  END