
          11280715352D 1   1.00000     0.00000     0

 16 14  0     0  0            999 V2000
    4.3500   -4.5292    0.0000 C   0  0  0  0  0  0           0  0  0
    3.9375   -5.2542    0.0000 C   0  0  0  0  0  0           0  0  0
    4.6500   -1.9292    0.0000 N   0  0  0  0  0  0           0  0  0
    4.3500   -5.9667    0.0000 O   0  0  0  0  0  0           0  0  0
    3.9375   -3.8167    0.0000 O   0  0  0  0  0  0           0  0  0
    5.3667   -1.5167    0.0000 C   0  0  3  0  0  0           0  0  0
    5.1792   -4.5292    0.0000 O   0  0  0  0  0  0           0  0  0
    3.1042   -5.2542    0.0000 O   0  0  0  0  0  0           0  0  0
    3.9375   -1.5125    0.0000 C   0  0  0  0  0  0           0  0  0
    3.2250   -1.9250    0.0000 C   0  0  3  0  0  0           0  0  0
    3.2250   -2.7500    0.0000 O   0  0  0  0  0  0           0  0  0
    1.8000   -1.9250    0.0000 O   0  0  0  0  0  0           0  0  0
    2.5042   -1.5125    0.0000 C   0  0  0  0  0  0           0  0  0
    6.0792   -1.9292    0.0000 C   0  0  0  0  0  0           0  0  0
    5.3667   -0.6917    0.0000 C   0  0  0  0  0  0           0  0  0
    5.9500   -0.9375    0.0000 C   0  0  0  0  0  0           0  0  0
  2  1  1  0     0  0
  4  2  2  0     0  0
  5  1  2  0     0  0
  6  3  1  0     0  0
  7  1  1  0     0  0
  8  2  1  0     0  0
  9  3  1  0     0  0
 10  9  1  0     0  0
 11 10  1  0     0  0
 12 13  1  0     0  0
 13 10  1  0     0  0
 14  6  1  0     0  0
 15  6  1  0     0  0
 16  6  1  0     0  0
M  END