
          11280715402D 1   1.00000     0.00000     0

 21 23  0     0  0            999 V2000
   -0.5625   -7.0917    0.0000 N   0  0  0  0  0  0           0  0  0
   -0.0458   -6.7917    0.0000 C   0  0  0  0  0  0           0  0  0
    0.4750   -7.0917    0.0000 C   0  0  0  0  0  0           0  0  0
   -0.5625   -7.6917    0.0000 C   0  0  0  0  0  0           0  0  0
   -0.0458   -7.9917    0.0000 N   0  0  0  0  0  0           0  0  0
    0.4750   -7.6917    0.0000 C   0  0  0  0  0  0           0  0  0
    0.9917   -6.7875    0.0000 C   0  0  0  0  0  0           0  0  0
    2.0292   -6.7792    0.0000 N   0  0  0  0  0  0           0  0  0
    0.9917   -7.9917    0.0000 C   0  0  0  0  0  0           0  0  0
   -0.0500   -6.1917    0.0000 N   0  0  0  0  0  0           0  0  0
   -1.0833   -7.9917    0.0000 N   0  0  0  0  0  0           0  0  0
    1.5125   -7.0792    0.0000 C   0  0  0  0  0  0           0  0  0
    2.5542   -7.0750    0.0000 C   0  0  0  0  0  0           0  0  0
    3.0667   -6.7667    0.0000 C   0  0  0  0  0  0           0  0  0
    4.1000   -6.1667    0.0000 C   0  0  0  0  0  0           0  0  0
    1.5167   -7.6875    0.0000 C   0  0  0  0  0  0           0  0  0
    4.1042   -6.7667    0.0000 C   0  0  0  0  0  0           0  0  0
    3.5750   -5.8667    0.0000 C   0  0  0  0  0  0           0  0  0
    3.5875   -7.0667    0.0000 C   0  0  0  0  0  0           0  0  0
    3.0625   -6.1750    0.0000 C   0  0  0  0  0  0           0  0  0
    4.6167   -5.8625    0.0000 O   0  0  0  0  0  0           0  0  0
  2  1  2  0     0  0
  3  2  1  0     0  0
  4  1  1  0     0  0
  5  4  2  0     0  0
  6  5  1  0     0  0
  7  3  2  0     0  0
  8 12  1  0     0  0
  9  6  2  0     0  0
 10  2  1  0     0  0
 11  4  1  0     0  0
 12  7  1  0     0  0
 13  8  1  0     0  0
 14 13  1  0     0  0
 15 18  1  0     0  0
 16  9  1  0     0  0
 17 19  1  0     0  0
 18 20  2  0     0  0
 19 14  2  0     0  0
 20 14  1  0     0  0
 21 15  1  0     0  0
  3  6  1  0     0  0
 16 12  2  0     0  0
 17 15  2  0     0  0
M  END