
  SciTegic02271514512D

 41 45  0  0  0  0            999 V2000
   -3.9121  -20.6896    0.0000 C   0  0
   -4.8115  -20.6901    0.0000 C   0  0
   -3.4985  -21.0480    0.0000 C   0  0
   -3.4534  -22.0166    0.0000 C   0  0
   -4.2538  -22.1920    0.0000 C   0  0
   -3.8427  -21.6199    0.0000 C   0  0
   -4.9302  -21.4744    0.0000 C   0  0
   -4.4400  -21.0575    0.0000 C   0  0
   -3.3712  -20.2623    0.0000 N   0  0
   -2.6606  -19.0347    0.0000 C   0  0
   -2.6595  -19.8543    0.0000 C   0  0
   -1.9560  -20.2632    0.0000 C   0  0
   -1.2459  -19.8538    0.0000 C   0  0
   -1.2431  -19.0311    0.0000 C   0  0
   -1.9542  -18.6259    0.0000 C   0  0
   -0.5378  -18.6199    0.0000 C   0  0
    0.1739  -19.0258    0.0000 N   0  0
   -0.5429  -17.8027    0.0000 O   0  0
    0.8801  -18.6145    0.0000 C   0  0
    1.5893  -19.0205    0.0000 C   0  0
    1.5893  -19.8365    0.0000 C   0  0
    2.2977  -20.2424    0.0000 C   0  0
    3.0049  -19.8311    0.0000 C   0  0
    2.9991  -19.0097    0.0000 C   0  0
    2.2902  -18.6075    0.0000 C   0  0
    3.7038  -18.5959    0.0000 C   0  0
    4.4145  -18.9993    0.0000 C   0  0  2  0  0  0
    5.1192  -18.5856    0.0000 C   0  0
    0.8823  -20.2463    0.0000 O   0  0
    0.8836  -21.0635    0.0000 C   0  0
    0.1766  -21.4733    0.0000 C   0  0
    0.1780  -22.2905    0.0000 C   0  0
    5.8304  -18.9886    0.0000 O   0  0
    5.1138  -17.7680    0.0000 O   0  0
    4.4205  -19.8165    0.0000 C   0  0
    5.1311  -20.2199    0.0000 C   0  0
    5.1334  -21.0376    0.0000 C   0  0
    5.8432  -21.4409    0.0000 C   0  0
    6.5489  -21.0271    0.0000 C   0  0
    6.5403  -20.2057    0.0000 C   0  0
    5.8299  -19.8061    0.0000 C   0  0
  3  4  1  0
  4  5  1  0
  5  6  1  0
  1  6  1  0
  7  8  1  0
  8  3  1  0
  3  9  1  0
  9  1  1  0
  1  2  1  0
  2  7  1  0
 10 11  2  0
 11 12  1  0
 12 13  2  0
 13 14  1  0
 14 15  2  0
 15 10  1  0
 14 16  1  0
 16 17  1  0
 16 18  2  0
 17 19  1  0
 19 20  1  0
 20 21  2  0
 21 22  1  0
 22 23  2  0
 23 24  1  0
 24 25  2  0
 25 20  1  0
 24 26  1  0
 26 27  1  0
 27 28  1  0
 21 29  1  0
 29 30  1  0
 30 31  1  0
 31 32  1  0
 28 33  1  0
 28 34  2  0
 27 35  1  6
 35 36  1  0
 36 37  2  0
 37 38  1  0
 38 39  2  0
 39 40  1  0
 40 41  2  0
 41 36  1  0
 11  9  1  0
M  END