
  SciTegic11201309402D

 52 56  0  0  1  0            999 V2000
    5.1042   -0.9792    0.0000 C   0  0
    2.2667    2.1208    0.0000 N   0  0
    5.8167   -1.3917    0.0000 N   0  0
    6.5542    1.2833    0.0000 N   0  0
    7.1375    0.7000    0.0000 C   0  0
    4.3875   -1.3792    0.0000 C   0  0  2  0  0  0
    6.5292   -0.9917    0.0000 C   0  0
    6.5542    2.1083    0.0000 C   0  0  2  0  0  0
    5.8417    2.5208    0.0000 C   0  0
    1.5167    2.4583    0.0000 C   0  0
    5.1250    2.1125    0.0000 N   0  0
    2.2667    1.2958    0.0000 C   0  0
    0.9625    1.8458    0.0000 C   0  0
    7.2667    2.5208    0.0000 C   0  0
    3.6792   -0.9667    0.0000 C   0  0  1  0  0  0
    1.3750    1.1333    0.0000 C   0  0
    7.9792    2.1083    0.0000 C   0  0
    2.9792    2.5333    0.0000 C   0  0
    4.7875   -2.9167    0.0000 C   0  0
    4.3792   -2.2042    0.0000 C   0  0
    1.2542    3.2458    0.0000 C   0  0
    0.0917   -2.1667    0.0000 C   0  0
    2.9542   -1.3667    0.0000 C   0  0
    5.1125   -0.1542    0.0000 O   0  0
    3.6792   -0.1417    0.0000 C   0  0
    7.9625    0.7000    0.0000 O   0  0
    0.1542    2.0083    0.0000 C   0  0
    5.8417    3.3458    0.0000 O   0  0
    3.2792    0.5750    0.0000 C   0  0
    7.9792    1.2833    0.0000 O   0  0
    5.6125   -2.9167    0.0000 O   0  0
    0.1042   -1.3417    0.0000 O   0  0
    3.6917    2.1125    0.0000 C   0  0  1  0  0  0
    4.4125    2.5250    0.0000 C   0  0
    2.9500   -2.1917    0.0000 C   0  0
    2.2500   -0.9417    0.0000 C   0  0
    0.8042   -2.5792    0.0000 C   0  0
    8.7000    2.5208    0.0000 N   0  0
    0.4500    3.4083    0.0000 C   0  0
   -0.1000    2.7958    0.0000 C   0  0
    1.5250   -2.1792    0.0000 C   0  0
    4.3667   -3.6292    0.0000 O   0  0
   -0.6208   -2.5667    0.0000 O   0  0
    2.2417   -2.5917    0.0000 C   0  0
    1.5292   -1.3500    0.0000 C   0  0
    6.5292   -1.8167    0.0000 C   0  0
    7.2417   -0.5750    0.0000 C   0  0
    3.6917    1.2875    0.0000 C   0  0
   -0.9083    2.9708    0.0000 C   0  0
    7.9542   -0.9917    0.0000 C   0  0
    7.2417   -2.2250    0.0000 C   0  0
    7.9542   -1.8167    0.0000 C   0  0
  2 18  1  0
  3  1  1  0
  4  5  1  0
  5  7  1  0
  6  1  1  0
  7  3  1  0
  8  4  1  0
  9  8  1  0
 10  2  1  0
 11  9  1  0
 12  2  1  0
 13 10  2  0
  8 14  1  6
 15  6  1  0
 16 12  2  0
 17 14  1  0
 33 18  1  1
 19 20  1  0
  6 20  1  1
 21 10  1  0
 22 37  1  0
 15 23  1  1
 24  1  2  0
 15 25  1  0
 26  5  2  0
 27 13  1  0
 28  9  2  0
 29 25  2  0
 30 17  2  0
 31 19  2  0
 32 22  2  0
 33 48  1  0
 34 33  1  0
 35 23  1  0
 36 23  2  0
 37 41  1  0
 38 17  1  0
 39 21  2  0
 40 39  1  0
 41 45  2  0
 42 19  1  0
 43 22  1  0
 44 35  2  0
 45 36  1  0
 46  7  1  0
 47  7  1  0
 48 29  1  0
 49 40  1  0
 50 47  1  0
 51 46  1  0
 52 50  1  0
 41 44  1  0
 52 51  1  0
 11 34  1  0
 16 13  1  0
 40 27  2  0
M  END