
          11280715342D 1   1.00000     0.00000     0

 16 17  0     0  0            999 V2000
   -1.3708   -0.5792    0.0000 N   0  0  3  0  0  0           0  0  0
   -1.9500   -0.0042    0.0000 C   0  0  0  0  0  0           0  0  0
   -0.2500    0.3000    0.0000 C   0  0  0  0  0  0           0  0  0
    0.0542    1.0708    0.0000 C   0  0  0  0  0  0           0  0  0
    1.1875    1.9583    0.0000 N   0  0  3  0  0  0           0  0  0
   -1.7458   -1.3042    0.0000 C   0  0  0  0  0  0           0  0  0
   -2.6750   -0.3792    0.0000 C   0  0  0  0  0  0           0  0  0
   -1.8333    0.8125    0.0000 O   0  0  0  0  0  0           0  0  0
   -2.5625   -1.1750    0.0000 C   0  0  3  0  0  0           0  0  0
   -0.5583   -0.4625    0.0000 C   0  0  0  0  0  0           0  0  0
    0.3667    1.8458    0.0000 C   0  0  0  0  0  0           0  0  0
    1.8250    1.4333    0.0000 C   0  0  0  0  0  0           0  0  0
    1.4917    2.7250    0.0000 C   0  0  0  0  0  0           0  0  0
   -3.1583   -1.7375    0.0000 C   0  0  0  0  0  0           0  0  0
    2.5167    1.8708    0.0000 C   0  0  0  0  0  0           0  0  0
    2.3167    2.6708    0.0000 C   0  0  0  0  0  0           0  0  0
  2  1  1  0     0  0
  3 10  1  0     0  0
  4  3  3  0     0  0
  5 11  1  0     0  0
  6  1  1  0     0  0
  7  2  1  0     0  0
  8  2  2  0     0  0
  9  6  1  0     0  0
 10  1  1  0     0  0
 11  4  1  0     0  0
 12  5  1  0     0  0
 13  5  1  0     0  0
 14  9  1  0     0  0
 15 12  1  0     0  0
 16 13  1  0     0  0
  9  7  1  0     0  0
 16 15  1  0     0  0
M  END