
  CDK    9/16/09,9:57

 23 24  0  0  0  0  0  0  0  0999 V2000
    4.0215  -10.6240    0.0000 C   0  0  0  0  0  0  0  0  0  0  0  0
    4.0460  -11.4489    0.0000 C   0  0  0  0  0  0  0  0  0  0  0  0
    4.7733  -11.8380    0.0000 N   0  0  0  0  0  0  0  0  0  0  0  0
    5.4760  -11.4064    0.0000 C   0  0  0  0  0  0  0  0  0  0  0  0
    6.1991  -11.7955    0.0000 N   0  0  0  0  0  0  0  0  0  0  0  0
    5.4514  -10.5815    0.0000 N   0  0  0  0  0  0  0  0  0  0  0  0
    6.9017  -11.3638    0.0000 C   0  0  0  0  0  0  0  0  0  0  0  0
    7.6290  -11.7530    0.0000 C   0  0  0  0  0  0  0  0  0  0  0  0
    6.8772  -10.5389    0.0000 O   0  0  0  0  0  0  0  0  0  0  0  0
    3.2942  -10.2307    0.0000 C   0  0  0  0  0  0  0  0  0  0  0  0
    3.2697   -9.4058    0.0000 C   0  0  0  0  0  0  0  0  0  0  0  0
    3.6822   -8.1386    0.0000 C   0  0  0  0  0  0  0  0  0  0  0  0
    2.8569   -8.1376    0.0000 N   0  0  0  0  0  0  0  0  0  0  0  0
    2.6003   -8.9218    0.0000 C   0  0  0  0  0  0  0  0  0  0  0  0
    3.9367   -8.9235    0.0000 N   0  0  0  0  0  0  0  0  0  0  0  0
    8.3317  -11.3213    0.0000 C   0  0  0  0  0  0  0  0  0  0  0  0
    8.3071  -10.4964    0.0000 C   0  0  0  0  0  0  0  0  0  0  0  0
    9.0090  -10.0646    0.0000 C   0  0  0  0  0  0  0  0  0  0  0  0
    8.9849   -9.2405    0.0000 C   0  0  0  0  0  0  0  0  0  0  0  0
    8.2571   -8.8505    0.0000 C   0  0  0  0  0  0  0  0  0  0  0  0
    7.5521   -9.2866    0.0000 C   0  0  0  0  0  0  0  0  0  0  0  0
    7.5797  -10.1094    0.0000 C   0  0  0  0  0  0  0  0  0  0  0  0
    9.0589  -11.7104    0.0000 C   0  0  0  0  0  0  0  0  0  0  0  0
  4  6  2  0  0  0  0 
  1  2  1  0  0  0  0 
  5  7  1  0  0  0  0 
  3  4  1  0  0  0  0 
 13 14  1  0  0  0  0 
 14 11  2  0  0  0  0 
 11 15  1  0  0  0  0 
 15 12  2  0  0  0  0 
  7  8  1  0  0  0  0 
  8 16  1  0  0  0  0 
 16 17  1  0  0  0  0 
  7  9  2  0  0  0  0 
 17 18  1  0  0  0  0 
  4  5  1  0  0  0  0 
 18 19  1  0  0  0  0 
  1 10  1  0  0  0  0 
 19 20  1  0  0  0  0 
  2  3  1  0  0  0  0 
 20 21  1  0  0  0  0 
 10 11  1  0  0  0  0 
 21 22  1  0  0  0  0 
 22 17  1  0  0  0  0 
 12 13  1  0  0  0  0 
 16 23  1  0  0  0  0 
M  END