
  SciTegic09261414462D

 28 31  0  0  0  0            999 V2000
    8.8570  -12.6665    0.0000 O   0  0
    8.0687  -12.8811    0.0000 S   0  0
    8.6487  -13.4565    0.0000 O   0  0
    5.2525  -14.5278    0.0000 C   0  0
    5.2514  -15.3473    0.0000 C   0  0
    5.9594  -15.7563    0.0000 C   0  0
    5.9577  -14.1189    0.0000 C   0  0
    6.6663  -14.5242    0.0000 C   0  0
    6.6670  -15.3432    0.0000 C   0  0
    7.3756  -15.7503    0.0000 C   0  0
    8.0838  -15.3395    0.0000 C   0  0
    8.0791  -14.5173    0.0000 C   0  0
    7.3700  -14.1140    0.0000 C   0  0
    7.3773  -16.5675    0.0000 O   0  0
    8.7931  -15.7453    0.0000 S   0  0
    7.3657  -13.2968    0.0000 N   0  0
    8.0669  -12.0673    0.0000 C   0  0
    8.7765  -11.6583    0.0000 C   0  0
    8.7725  -10.8419    0.0000 C   0  0
    8.0621  -10.4393    0.0000 C   0  0
    7.3542  -10.8530    0.0000 C   0  0
    7.3617  -11.6681    0.0000 C   0  0
    8.0566   -9.6221    0.0000 Br  0  0
    8.7963  -16.5625    0.0000 C   0  0
    8.1371  -17.0509    0.0000 N   0  0
    8.3926  -17.8271    0.0000 C   0  0
    9.2099  -17.8239    0.0000 N   0  0
    9.4593  -17.0457    0.0000 N   0  0
  2  1  2  0
  3  2  2  0
  4  5  2  0
  5  6  1  0
  6  9  2  0
  8  7  2  0
  7  4  1  0
  8  9  1  0
  9 10  1  0
 10 11  2  0
 11 12  1  0
 12 13  2  0
 13  8  1  0
 10 14  1  0
 11 15  1  0
 13 16  1  0
 16  2  1  0
  2 17  1  0
 17 18  2  0
 18 19  1  0
 19 20  2  0
 20 21  1  0
 21 22  2  0
 22 17  1  0
 20 23  1  0
 15 24  1  0
 24 25  1  0
 25 26  2  0
 26 27  1  0
 27 28  1  0
 28 24  2  0
M  END