
  SciTegic12151613572D

 26 28  0  0  0  0            999 V2000
   -2.3155    0.7475    0.0000 C   0  0
   -2.3155   -0.7475    0.0000 C   0  0
   -1.0028   -1.5132    0.0000 C   0  0
   -1.0028    1.5132    0.0000 C   0  0
    0.2917    0.7475    0.0000 C   0  0
    0.2917   -0.7475    0.0000 C   0  0
    1.7138   -1.2033    0.0000 N   0  0
    2.5889    0.0182    0.0000 C   0  0
    1.7138    1.2033    0.0000 N   0  0
    2.0907   -2.3426    0.0000 C   0  0
    2.0825    2.3453    0.0000 C   0  0
    3.7889    0.0269    0.0000 O   0  0
   -3.6187   -1.4919    0.0000 N   0  0
   -3.6267   -2.9927    0.0000 S   0  0
   -4.9300   -3.7369    0.0000 C   0  0
   -2.5905   -3.5979    0.0000 O   0  0
   -2.5844   -2.3981    0.0000 O   0  0
   -4.9371   -5.2369    0.0000 C   0  0
   -6.2397   -5.9808    0.0000 C   0  0
   -7.5351   -5.2246    0.0000 C   0  0
   -7.5280   -3.7247    0.0000 C   0  0
   -6.2255   -2.9808    0.0000 C   0  0
   -3.6187    1.4919    0.0000 O   0  0
   -3.6251    2.6919    0.0000 C   0  0
   -8.5772   -5.8197    0.0000 Br  0  0
   -3.9007   -5.8418    0.0000 C   0  0
  1  2  2  0
  2  3  1  0
  3  6  2  0
  5  4  2  0
  4  1  1  0
  5  6  1  0
  6  7  1  0
  7  8  1  0
  8  9  1  0
  9  5  1  0
  7 10  1  0
  9 11  1  0
  8 12  2  0
  2 13  1  0
 13 14  1  0
 14 15  1  0
 14 16  2  0
 14 17  2  0
 15 18  2  0
 18 19  1  0
 19 20  2  0
 20 21  1  0
 21 22  2  0
 22 15  1  0
  1 23  1  0
 23 24  1  0
 20 25  1  0
 18 26  1  0
M  END