
  CDK    9/16/09,9:46

108113  0  0  0  0  0  0  0  0999 V2000
   18.8898  -11.0432    0.0000 N   0  0  0  0  0  0  0  0  0  0  0  0
   19.5388  -10.5779    0.0000 C   0  0  0  0  0  0  0  0  0  0  0  0
   20.2208  -11.8525    0.0000 O   0  0  0  0  0  0  0  0  0  0  0  0
   20.2177  -11.0308    0.0000 C   0  0  0  0  0  0  0  0  0  0  0  0
   19.5392   -9.7448    0.0000 C   0  0  0  0  0  0  0  0  0  0  0  0
   20.2474   -9.3382    0.0000 S   0  0  0  0  0  0  0  0  0  0  0  0
   20.9427  -10.6412    0.0000 O   0  0  0  0  0  0  0  0  0  0  0  0
   15.1830   -9.9798    0.0000 N   0  0  0  0  0  0  0  0  0  0  0  0
   15.8274   -9.5053    0.0000 C   0  0  0  0  0  0  0  0  0  0  0  0
   16.5095  -10.7891    0.0000 O   0  0  0  0  0  0  0  0  0  0  0  0
   16.5064   -9.9674    0.0000 C   0  0  0  0  0  0  0  0  0  0  0  0
   15.8277   -8.6814    0.0000 C   0  0  0  0  0  0  0  0  0  0  0  0
   17.2331   -9.5811    0.0000 N   0  0  0  0  0  0  0  0  0  0  0  0
   13.1338   -9.5795    0.0000 N   0  0  0  0  0  0  0  0  0  0  0  0
   13.7783  -10.0494    0.0000 C   0  0  0  0  0  0  0  0  0  0  0  0
   14.4602   -8.7702    0.0000 O   0  0  0  0  0  0  0  0  0  0  0  0
   14.4572   -9.5919    0.0000 C   0  0  0  0  0  0  0  0  0  0  0  0
   13.7786  -10.8734    0.0000 C   0  0  0  0  0  0  0  0  0  0  0  0
   14.4869  -11.2845    0.0000 C   0  0  0  0  0  0  0  0  0  0  0  0
   14.4872  -12.1028    0.0000 C   0  0  0  0  0  0  0  0  0  0  0  0
   15.1993  -10.8727    0.0000 C   0  0  0  0  0  0  0  0  0  0  0  0
   17.3482   -8.7704    0.0000 C   0  0  0  0  0  0  0  0  0  0  0  0
   18.1586   -8.6276    0.0000 C   0  0  0  0  0  0  0  0  0  0  0  0
   18.5448   -9.3543    0.0000 C   0  0  0  0  0  0  0  0  0  0  0  0
   17.9731   -9.9461    0.0000 C   0  0  0  0  0  0  0  0  0  0  0  0
   18.1140  -10.7569    0.0000 C   0  0  0  0  0  0  0  0  0  0  0  0
   17.4823  -11.2844    0.0000 O   0  0  0  0  0  0  0  0  0  0  0  0
   16.4041   -8.0939    0.0000 C   0  0  0  0  0  0  0  0  0  0  0  0
   17.2015   -8.3024    0.0000 C   0  0  0  0  0  0  0  0  0  0  0  0
   17.7775   -7.7157    0.0000 C   0  0  0  0  0  0  0  0  0  0  0  0
   17.5572   -6.9219    0.0000 C   0  0  0  0  0  0  0  0  0  0  0  0
   16.7555   -6.7179    0.0000 C   0  0  0  0  0  0  0  0  0  0  0  0
   16.1828   -7.3060    0.0000 C   0  0  0  0  0  0  0  0  0  0  0  0
   18.1327   -6.3336    0.0000 O   0  0  0  0  0  0  0  0  0  0  0  0
    9.3721  -11.0319    0.0000 C   0  0  0  0  0  0  0  0  0  0  0  0
    9.8750  -11.6864    0.0000 C   0  0  0  0  0  0  0  0  0  0  0  0
   10.7024  -11.7005    0.0000 C   0  0  0  0  0  0  0  0  0  0  0  0
    9.5724  -10.2291    0.0000 C   0  0  0  0  0  0  0  0  0  0  0  0
   11.2315  -11.0688    0.0000 C   0  0  0  0  0  0  0  0  0  0  0  0
   10.3256   -9.8829    0.0000 C   0  0  0  0  0  0  0  0  0  0  0  0
   11.0634  -10.2599    0.0000 N   0  0  0  0  0  0  0  0  0  0  0  0
    8.9389   -9.7038    0.0000 N   0  0  0  0  0  0  0  0  0  0  0  0
   10.3427   -9.0602    0.0000 O   0  0  0  0  0  0  0  0  0  0  0  0
   11.7177   -9.7609    0.0000 C   0  0  0  0  0  0  0  0  0  0  0  0
   12.4769  -10.0780    0.0000 C   0  0  0  0  0  0  0  0  0  0  0  0
   12.4415  -10.9002    0.0000 O   0  0  0  0  0  0  0  0  0  0  0  0
    6.8732  -10.1055    0.0000 N   0  0  0  0  0  0  0  0  0  0  0  0
    7.5269   -9.6311    0.0000 C   0  0  0  0  0  0  0  0  0  0  0  0
    8.2180  -10.9239    0.0000 O   0  0  0  0  0  0  0  0  0  0  0  0
    8.2150  -10.0930    0.0000 C   0  0  0  0  0  0  0  0  0  0  0  0
    7.5272   -8.7979    0.0000 C   0  0  0  0  0  0  0  0  0  0  0  0
    2.6626  -10.1055    0.0000 N   0  0  0  0  0  0  0  0  0  0  0  0
    3.3116   -9.6311    0.0000 C   0  0  0  0  0  0  0  0  0  0  0  0
    3.9982  -10.9193    0.0000 O   0  0  0  0  0  0  0  0  0  0  0  0
    3.9952  -10.0930    0.0000 C   0  0  0  0  0  0  0  0  0  0  0  0
    4.7212   -9.7057    0.0000 N   0  0  0  0  0  0  0  0  0  0  0  0
    0.6040   -9.7057    0.0000 N   0  0  0  0  0  0  0  0  0  0  0  0
    1.2531  -10.1802    0.0000 C   0  0  0  0  0  0  0  0  0  0  0  0
    1.9396   -8.8918    0.0000 O   0  0  0  0  0  0  0  0  0  0  0  0
    1.9365   -9.7182    0.0000 C   0  0  0  0  0  0  0  0  0  0  0  0
    1.2534  -11.0086    0.0000 C   0  0  0  0  0  0  0  0  0  0  0  0
    1.9663  -11.4199    0.0000 O   0  0  0  0  0  0  0  0  0  0  0  0
    0.5408  -11.4204    0.0000 C   0  0  0  0  0  0  0  0  0  0  0  0
    5.4637  -10.1802    0.0000 C   0  0  0  0  0  0  0  0  0  0  0  0
    6.1503   -8.8918    0.0000 O   0  0  0  0  0  0  0  0  0  0  0  0
    6.1472   -9.7182    0.0000 C   0  0  0  0  0  0  0  0  0  0  0  0
    5.4641  -11.0086    0.0000 C   0  0  0  0  0  0  0  0  0  0  0  0
    6.1889  -12.2446    0.0000 N   0  0  0  0  0  0  0  0  0  0  0  0
    6.9741  -12.4909    0.0000 C   0  0  0  0  0  0  0  0  0  0  0  0
    7.4509  -11.8202    0.0000 N   0  0  0  0  0  0  0  0  0  0  0  0
    6.9605  -11.1594    0.0000 C   0  0  0  0  0  0  0  0  0  0  0  0
    6.1804  -11.4216    0.0000 C   0  0  0  0  0  0  0  0  0  0  0  0
   -3.6048   -9.7341    0.0000 N   0  0  0  0  0  0  0  0  0  0  0  0
   -2.9558  -10.2085    0.0000 C   0  0  0  0  0  0  0  0  0  0  0  0
   -2.2646   -8.9157    0.0000 O   0  0  0  0  0  0  0  0  0  0  0  0
   -2.2677   -9.7466    0.0000 C   0  0  0  0  0  0  0  0  0  0  0  0
   -2.9554  -11.0417    0.0000 C   0  0  0  0  0  0  0  0  0  0  0  0
   -2.2389  -12.2879    0.0000 C   0  0  0  0  0  0  0  0  0  0  0  0
   -2.2389  -11.4604    0.0000 C   0  0  0  0  0  0  0  0  0  0  0  0
   -1.5217  -11.0443    0.0000 C   0  0  0  0  0  0  0  0  0  0  0  0
   -0.8044  -11.4604    0.0000 C   0  0  0  0  0  0  0  0  0  0  0  0
   -0.8044  -12.2879    0.0000 C   0  0  0  0  0  0  0  0  0  0  0  0
   -1.5217  -12.6994    0.0000 C   0  0  0  0  0  0  0  0  0  0  0  0
   -1.5370  -10.1339    0.0000 N   0  0  0  0  0  0  0  0  0  0  0  0
   -3.5926   -7.1947    0.0000 N   0  0  0  0  0  0  0  0  0  0  0  0
   -5.6771  -10.1339    0.0000 N   0  0  0  0  0  0  0  0  0  0  0  0
   -5.0235   -9.6549    0.0000 C   0  0  0  0  0  0  0  0  0  0  0  0
   -4.3324  -10.9522    0.0000 O   0  0  0  0  0  0  0  0  0  0  0  0
   -4.3354  -10.1214    0.0000 C   0  0  0  0  0  0  0  0  0  0  0  0
   -5.0232   -8.8217    0.0000 C   0  0  0  0  0  0  0  0  0  0  0  0
   -4.3058   -8.4106    0.0000 C   0  0  0  0  0  0  0  0  0  0  0  0
   -4.3055   -7.5831    0.0000 C   0  0  0  0  0  0  0  0  0  0  0  0
   -3.5703   -6.3675    0.0000 C   0  0  0  0  0  0  0  0  0  0  0  0
   -2.8467   -5.9756    0.0000 N   0  0  0  0  0  0  0  0  0  0  0  0
   -4.2762   -5.9370    0.0000 N   0  0  0  0  0  0  0  0  0  0  0  0
   -0.1099  -10.1235    0.0000 C   0  0  0  0  0  0  0  0  0  0  0  0
   -0.8269   -9.7123    0.0000 C   0  0  0  0  0  0  0  0  0  0  0  0
   -0.8339   -8.8854    0.0000 C   0  0  0  0  0  0  0  0  0  0  0  0
   -1.6608   -8.8923    0.0000 C   0  0  0  0  0  0  0  0  0  0  0  0
   -0.8369   -8.0562    0.0000 C   0  0  0  0  0  0  0  0  0  0  0  0
   -0.0047   -8.8823    0.0000 S   0  0  0  0  0  0  0  0  0  0  0  0
   -0.1029  -10.9504    0.0000 O   0  0  0  0  0  0  0  0  0  0  0  0
    8.2401   -8.3868    0.0000 C   0  0  0  0  0  0  0  0  0  0  0  0
    8.9498   -8.8019    0.0000 C   0  0  0  0  0  0  0  0  0  0  0  0
    9.6622   -8.3913    0.0000 C   0  0  0  0  0  0  0  0  0  0  0  0
    9.6630   -7.5675    0.0000 C   0  0  0  0  0  0  0  0  0  0  0  0
    8.9455   -7.1559    0.0000 C   0  0  0  0  0  0  0  0  0  0  0  0
    8.2360   -7.5688    0.0000 C   0  0  0  0  0  0  0  0  0  0  0  0
 53 55  1  0  0  0  0 
 55 54  2  0  0  0  0 
 26 27  2  0  0  0  0 
 55 56  1  0  0  0  0 
 12 28  1  0  0  0  0 
 14 15  1  0  0  0  0 
 28 29  2  0  0  0  0 
 58 57  1  6  0  0  0 
 58 60  1  0  0  0  0 
 60 59  2  0  0  0  0 
 58 61  1  0  0  0  0 
 15 17  1  0  0  0  0 
 29 30  1  0  0  0  0 
 17 16  2  0  0  0  0 
 61 62  1  6  0  0  0 
 30 31  2  0  0  0  0 
 61 63  1  0  0  0  0 
 60 52  1  0  0  0  0 
 15 18  1  6  0  0  0 
 31 32  1  0  0  0  0 
 56 64  1  0  0  0  0 
 64 66  1  0  0  0  0 
 66 65  2  0  0  0  0 
 64 67  1  6  0  0  0 
  1  2  1  0  0  0  0 
 32 33  2  0  0  0  0 
 67 72  1  0  0  0  0 
 33 28  1  0  0  0  0 
  8  9  1  0  0  0  0 
 68 69  1  0  0  0  0 
 31 34  1  0  0  0  0 
 69 70  2  0  0  0  0 
  9 11  1  0  0  0  0 
 70 71  1  0  0  0  0 
 18 19  1  0  0  0  0 
 71 72  2  0  0  0  0 
 72 68  1  0  0  0  0 
 66 47  1  0  0  0  0 
 35 36  1  0  0  0  0 
 11 10  2  0  0  0  0 
 36 37  1  0  0  0  0 
 73 74  1  0  0  0  0 
 74 76  1  0  0  0  0 
 76 75  2  0  0  0  0 
 74 77  1  6  0  0  0 
 19 20  1  0  0  0  0 
 38 35  1  0  0  0  0 
 77 79  1  0  0  0  0 
  9 12  1  1  0  0  0 
 37 39  1  0  0  0  0 
 78 79  2  0  0  0  0 
 19 21  1  0  0  0  0 
 79 80  1  0  0  0  0 
 38 40  1  0  0  0  0 
 80 81  2  0  0  0  0 
 17  8  1  0  0  0  0 
 81 82  1  0  0  0  0 
 39 41  1  0  0  0  0 
 82 83  2  0  0  0  0 
 83 78  1  0  0  0  0 
 40 41  1  0  0  0  0 
 76 84  1  0  0  0  0 
 13 22  1  0  0  0  0 
 38 42  1  1  0  0  0 
  2  4  1  0  0  0  0 
 40 43  2  0  0  0  0 
 86 87  1  0  0  0  0 
 87 89  1  0  0  0  0 
 89 88  2  0  0  0  0 
 87 90  1  1  0  0  0 
  5  6  1  0  0  0  0 
 41 44  1  0  0  0  0 
  4  3  2  0  0  0  0 
 90 91  1  0  0  0  0 
 44 45  1  0  0  0  0 
 91 92  1  0  0  0  0 
 92 85  1  0  0  0  0 
 89 73  1  0  0  0  0 
 45 14  1  0  0  0  0 
 85 93  1  0  0  0  0 
 11 13  1  0  0  0  0 
 93 94  2  0  0  0  0 
 45 46  2  0  0  0  0 
 93 95  1  0  0  0  0 
 22 23  1  0  0  0  0 
 23 24  1  0  0  0  0 
 24 25  1  0  0  0  0 
 47 48  1  0  0  0  0 
 48 50  1  0  0  0  0 
 50 49  2  0  0  0  0 
 48 51  1  1  0  0  0 
 97 84  1  6  0  0  0 
 96 97  1  0  0  0  0 
 97 98  1  0  0  0  0 
 98 99  1  0  0  0  0 
 98100  1  0  0  0  0 
 98101  1  0  0  0  0 
 96102  2  0  0  0  0 
 96 57  1  0  0  0  0 
 25 13  1  0  0  0  0 
 51103  1  0  0  0  0 
  4  7  1  0  0  0  0 
103104  2  0  0  0  0 
 25 26  1  1  0  0  0 
104105  1  0  0  0  0 
 26  1  1  0  0  0  0 
105106  2  0  0  0  0 
  2  5  1  1  0  0  0 
106107  1  0  0  0  0 
 52 53  1  0  0  0  0 
107108  2  0  0  0  0 
108103  1  0  0  0  0 
 50 42  1  0  0  0  0 
M  END