
          03140815512D 1   1.00000     0.00000     0

 18 19  0     0  0            999 V2000
    9.7572   -6.1458    0.0000 C   0  0  0  0  0  0           0  0  0
    9.7572   -6.9754    0.0000 C   0  0  0  0  0  0           0  0  0
   10.4717   -7.3878    0.0000 N   0  0  3  0  0  0           0  0  0
   11.1906   -6.9754    0.0000 C   0  0  0  0  0  0           0  0  0
   11.1906   -6.1458    0.0000 C   0  0  0  0  0  0           0  0  0
   10.4717   -5.7287    0.0000 C   0  0  0  0  0  0           0  0  0
   10.4705   -8.2128    0.0000 S   0  0  3  0  0  0           0  0  0
   10.4630   -9.0331    0.0000 N   0  0  0  0  0  0           0  0  0
   11.2954   -8.2171    0.0000 O   0  0  0  0  0  0           0  0  0
    9.6455   -8.2130    0.0000 O   0  0  0  0  0  0           0  0  0
    9.7448   -9.4390    0.0000 C   0  0  0  0  0  0           0  0  0
    9.0374   -9.0173    0.0000 C   0  0  0  0  0  0           0  0  0
    8.3197   -9.4225    0.0000 C   0  0  0  0  0  0           0  0  0
    8.3118  -10.2483    0.0000 C   0  0  0  0  0  0           0  0  0
    9.0274  -10.6671    0.0000 C   0  0  0  0  0  0           0  0  0
    9.7421  -10.2595    0.0000 C   0  0  0  0  0  0           0  0  0
   10.4547  -10.6750    0.0000 C   0  0  0  0  0  0           0  0  0
    7.5941  -10.6551    0.0000 C   0  0  0  0  0  0           0  0  0
  7  9  2  0     0  0
  2  3  1  0     0  0
  7 10  2  0     0  0
  3  4  1  0     0  0
  8 11  1  0     0  0
  4  5  1  0     0  0
 11 12  2  0     0  0
  5  6  1  0     0  0
 12 13  1  0     0  0
 13 14  2  0     0  0
  3  7  1  0     0  0
 14 15  1  0     0  0
  1  2  1  0     0  0
 15 16  2  0     0  0
 16 11  1  0     0  0
  7  8  1  0     0  0
 16 17  1  0     0  0
  1  6  1  0     0  0
 14 18  1  0     0  0
M  END