
  SciTegic12231509382D

 18 19  0  0  0  0            999 V2000
   10.1547  -21.8113    0.0000 N   0  0
   10.1534  -22.6389    0.0000 C   0  0
   10.8664  -23.0518    0.0000 C   0  0
   11.5857  -22.6383    0.0000 C   0  0
   11.5826  -21.8073    0.0000 C   0  0
   10.8644  -21.3986    0.0000 C   0  0
   10.8606  -20.5736    0.0000 N   0  0
   12.2949  -21.3913    0.0000 C   0  0
   13.0115  -21.8003    0.0000 N   0  3
   13.1038  -22.6156    0.0000 C   0  0
   13.9117  -22.7831    0.0000 C   0  0
   14.3206  -22.0666    0.0000 S   0  0
   13.7655  -21.4563    0.0000 C   0  0
   14.2509  -23.5350    0.0000 C   0  0
   13.7693  -24.2049    0.0000 C   0  0
   14.1087  -24.9568    0.0000 O   0  0
    9.4384  -23.0504    0.0000 Cl  0  0
   12.4945  -23.1716    0.0000 C   0  0
  8  9  1  0
  9 10  1  0
  1  2  2  0
  4  5  1  0
  5  6  2  0
 10 11  2  0
 11 12  1  0
 12 13  1  0
 13  9  2  0
  6  1  1  0
 11 14  1  0
  2  3  1  0
 14 15  1  0
  6  7  1  0
 15 16  1  0
  2 17  1  0
  5  8  1  0
 10 18  1  0
  3  4  2  0
M  CHG  1   9   1
M  END