
  CDK    9/16/09,10:0

 27 29  0  0  0  0  0  0  0  0999 V2000
    3.6298  -26.2628    0.0000 N   0  0  0  0  0  0  0  0  0  0  0  0
    3.2253  -25.5464    0.0000 C   0  0  0  0  0  0  0  0  0  0  0  0
    2.4039  -25.5410    0.0000 C   0  0  0  0  0  0  0  0  0  0  0  0
    1.9846  -26.2518    0.0000 C   0  0  0  0  0  0  0  0  0  0  0  0
    2.3928  -26.9699    0.0000 C   0  0  0  0  0  0  0  0  0  0  0  0
    3.2204  -26.9769    0.0000 C   0  0  0  0  0  0  0  0  0  0  0  0
    4.4548  -26.2655    0.0000 C   0  0  0  0  0  0  0  0  0  0  0  0
    4.8649  -26.9813    0.0000 C   0  0  0  0  0  0  0  0  0  0  0  0
    4.8696  -25.5525    0.0000 C   0  0  0  0  0  0  0  0  0  0  0  0
   -4.2501  -26.6874    0.0000 C   0  0  0  0  0  0  0  0  0  0  0  0
   -4.2514  -27.5149    0.0000 C   0  0  0  0  0  0  0  0  0  0  0  0
   -3.5384  -27.9278    0.0000 C   0  0  0  0  0  0  0  0  0  0  0  0
   -2.8192  -27.5144    0.0000 C   0  0  0  0  0  0  0  0  0  0  0  0
   -2.8223  -26.6833    0.0000 C   0  0  0  0  0  0  0  0  0  0  0  0
   -3.5404  -26.2746    0.0000 C   0  0  0  0  0  0  0  0  0  0  0  0
   -2.1099  -26.2673    0.0000 C   0  0  0  0  0  0  0  0  0  0  0  0
   -1.3934  -26.6763    0.0000 C   0  0  0  0  0  0  0  0  0  0  0  0
   -1.3006  -27.4961    0.0000 C   0  0  0  0  0  0  0  0  0  0  0  0
   -0.4928  -27.6636    0.0000 N   0  0  0  0  0  0  0  0  0  0  0  0
   -0.0841  -26.9475    0.0000 C   0  0  0  0  0  0  0  0  0  0  0  0
   -0.6388  -26.3370    0.0000 N   0  0  0  0  0  0  0  0  0  0  0  0
   -0.4710  -25.5293    0.0000 C   0  0  0  0  0  0  0  0  0  0  0  0
    0.7407  -26.9550    0.0000 O   0  0  0  0  0  0  0  0  0  0  0  0
   -2.1140  -25.4424    0.0000 O   0  0  0  0  0  0  0  0  0  0  0  0
    1.1597  -26.2443    0.0000 C   0  0  0  0  0  0  0  0  0  0  0  0
   -4.9649  -26.2755    0.0000 Cl  0  0  0  0  0  0  0  0  0  0  0  0
   -3.5398  -28.7528    0.0000 Cl  0  0  0  0  0  0  0  0  0  0  0  0
 13 14  1  0  0  0  0 
  1  7  1  0  0  0  0 
 14 15  2  0  0  0  0 
 15 10  1  0  0  0  0 
 14 16  1  0  0  0  0 
  7  8  1  0  0  0  0 
 16 17  1  0  0  0  0 
 17 18  2  0  0  0  0 
  1  6  1  0  0  0  0 
  7  9  1  0  0  0  0 
  2  3  1  0  0  0  0 
  3  4  1  0  0  0  0 
 18 19  1  0  0  0  0 
 19 20  2  0  0  0  0 
 20 21  1  0  0  0  0 
 21 17  1  0  0  0  0 
 10 11  2  0  0  0  0 
 21 22  1  0  0  0  0 
  4  5  1  0  0  0  0 
 20 23  1  0  0  0  0 
 11 12  1  0  0  0  0 
 16 24  2  0  0  0  0 
  5  6  1  0  0  0  0 
 23 25  1  0  0  0  0 
 25  4  1  0  0  0  0 
 12 13  2  0  0  0  0 
 10 26  1  0  0  0  0 
  1  2  1  0  0  0  0 
 12 27  1  0  0  0  0 
M  END