
  SciTegic04091416462D

 17 18  0  0  0  0            999 V2000
   21.5235  -19.6597    0.0000 N   0  0
   20.7533  -19.3775    0.0000 C   0  0
   17.3022  -18.0491    0.0000 C   0  0
   18.7244  -18.0487    0.0000 C   0  0
   20.7874  -18.5575    0.0000 C   0  0
   20.1471  -17.2260    0.0000 O   0  0
   17.3033  -17.2263    0.0000 C   0  0
   21.5734  -18.3337    0.0000 C   0  0
   18.7216  -17.2227    0.0000 C   0  0
   19.4392  -18.4598    0.0000 N   0  0
   18.0124  -18.4618    0.0000 C   0  0
   18.0107  -16.8179    0.0000 N   0  0
   22.0298  -19.0147    0.0000 N   0  0
   20.1478  -18.0469    0.0000 C   0  0
   21.8548  -17.5665    0.0000 C   0  0
   21.7470  -20.4457    0.0000 C   0  0
   21.1780  -21.0323    0.0000 C   0  0
  7  3  2  0
 14  6  2  0
  9 12  2  0
  3 11  1  0
  4 10  1  0
 13  8  2  0
 14  5  1  0
  4  9  1  0
 11  4  2  0
  1 13  1  0
 10 14  1  0
 12  7  1  0
  2  1  1  0
  5  2  2  0
  8  5  1  0
  8 15  1  0
  1 16  1  0
 16 17  1  0
M  END