
  SciTegic01161211212D

 16 18  0  0  0  0            999 V2000
   11.0622  -22.7724    0.0000 C   0  0
   11.0610  -23.5989    0.0000 C   0  0
   11.7751  -24.0113    0.0000 C   0  0
   11.7733  -22.3600    0.0000 C   0  0
   12.4880  -22.7688    0.0000 C   0  0
   12.4928  -23.5943    0.0000 C   0  0
   13.2794  -23.8449    0.0000 Se  0  0
   13.7609  -23.1741    0.0000 N   0  0
   13.2717  -22.5091    0.0000 C   0  0
   14.5830  -23.1688    0.0000 C   0  0
   14.9987  -23.8816    0.0000 C   0  0
   15.8221  -23.8771    0.0000 C   0  0
   16.2308  -23.1605    0.0000 C   0  0
   15.8100  -22.4468    0.0000 C   0  0
   14.9881  -22.4549    0.0000 C   0  0
   13.5217  -21.7238    0.0000 O   0  0
  6  7  1  0
  7  8  1  0
  8  9  1  0
  9  5  1  0
  4  1  1  0
  5  6  1  0
 10 11  2  0
 11 12  1  0
  2  3  1  0
 12 13  2  0
  3  6  2  0
 13 14  1  0
  1  2  2  0
 14 15  2  0
 15 10  1  0
  8 10  1  0
  5  4  2  0
  9 16  2  0
M  END