
  SciTegic05171617282D

 37 40  0  0  0  0            999 V2000
    2.5956   -2.7031    0.0000 C   0  0
    2.5973   -1.5031    0.0000 C   0  0
    1.2990   -0.7500    0.0000 N   0  0
    1.2990    0.7500    0.0000 C   0  0
    0.0000    1.5000    0.0000 C   0  0
   -1.2990    0.7500    0.0000 C   0  0
   -1.2990   -0.7500    0.0000 C   0  0
    0.0000   -1.5000    0.0000 C   0  0
   -2.5987    1.5004    0.0000 C   0  0
   -2.6012    3.0004    0.0000 C   0  0
   -3.9015    3.7484    0.0000 C   0  0
   -5.1993    2.9963    0.0000 C   0  0
   -6.5018    3.7420    0.0000 N   0  0
   -7.7993    2.9876    0.0000 C   0  0
   -9.1021    3.7310    0.0000 N   0  0
  -10.3974    2.9744    0.0000 C   0  0
  -10.3898    1.4745    0.0000 C   0  0
   -9.0870    0.7310    0.0000 C   0  0
   -9.0763   -0.7698    0.0000 C   0  0
   -7.7717   -1.5117    0.0000 C   0  0
   -7.7611   -3.0125    0.0000 C   0  0
   -9.0563   -3.7692    0.0000 C   0  0
   -9.0487   -5.2692    0.0000 C   0  0
   -7.7459   -6.0126    0.0000 C   0  0
   -6.4507   -5.2560    0.0000 C   0  0
   -6.4583   -3.7560    0.0000 C   0  0
   -5.1608   -3.0017    0.0000 C   0  0
   -3.8583   -3.7474    0.0000 C   0  0
   -3.8543   -4.9474    0.0000 N   0  0
   -2.8209   -3.1443    0.0000 O   0  0
   -7.7918    1.4876    0.0000 N   0  0
  -11.6858    0.7175    0.0000 C   0  0
  -12.7284    1.3116    0.0000 F   0  0
  -11.6793   -0.4825    0.0000 F   0  0
  -12.7217    0.1118    0.0000 F   0  0
   -5.1969    1.4963    0.0000 C   0  0
   -3.8967    0.7484    0.0000 C   0  0
  1  2  1  0
  2  3  1  0
  3  4  1  0
  4  5  1  0
  5  6  1  0
  6  7  1  0
  7  8  1  0
  3  8  1  0
  6  9  1  0
  9 10  2  0
 10 11  1  0
 11 12  2  0
 12 13  1  0
 13 14  1  0
 14 15  2  0
 15 16  1  0
 16 17  2  0
 17 18  1  0
 18 19  1  0
 19 20  1  0
 20 21  1  0
 21 22  2  0
 22 23  1  0
 23 24  2  0
 24 25  1  0
 25 26  2  0
 21 26  1  0
 26 27  1  0
 27 28  1  0
 28 29  1  0
 28 30  2  0
 18 31  2  0
 14 31  1  0
 17 32  1  0
 32 33  1  0
 32 34  1  0
 32 35  1  0
 12 36  1  0
 36 37  2  0
  9 37  1  0
M  END