
  SciTegic01161211242D

 48 51  0  0  0  0            999 V2000
    5.7125   -4.7333    0.0000 C   0  0  2  0  0  0
    3.5542   -5.9625    0.0000 C   0  0  1  0  0  0
    6.4292   -4.3292    0.0000 C   0  0  2  0  0  0
    5.6958   -5.5625    0.0000 C   0  0  2  0  0  0
    4.2708   -5.5458    0.0000 C   0  0  2  0  0  0
    4.9833   -5.9667    0.0000 C   0  0  1  0  0  0
    7.8583   -4.3583    0.0000 N   0  3
    1.4125   -5.5542    0.0000 N   0  3
    2.1208   -5.9625    0.0000 C   0  0  2  0  0  0
    7.1417   -4.7583    0.0000 C   0  0  1  0  0  0
    2.1208   -6.7875    0.0000 C   0  0  2  0  0  0
    2.8375   -5.5458    0.0000 C   0  0
    3.5500   -6.7875    0.0000 C   0  0  2  0  0  0
    4.9958   -4.3125    0.0000 C   0  0
    6.4417   -3.5042    0.0000 O   0  0
    2.8375   -7.2000    0.0000 C   0  0
    4.2750   -4.7208    0.0000 C   0  0
    6.4042   -5.9875    0.0000 C   0  0
    1.4083   -7.2000    0.0000 O   0  0
    7.1292   -5.5833    0.0000 C   0  0
    4.9833   -6.7958    0.0000 C   0  0
    5.7333   -3.0833    0.0000 C   0  0
    1.4083   -8.0250    0.0000 C   0  0
    4.2625   -7.2042    0.0000 C   0  0
    2.1208   -8.4375    0.0000 O   0  0
    5.0167   -3.4833    0.0000 O   0  0
    5.7042   -3.9083    0.0000 C   0  0
    3.5458   -5.1375    0.0000 C   0  0
    7.8500   -5.1833    0.0000 C   0  0
    1.4042   -6.3750    0.0000 C   0  0
    7.8708   -3.5375    0.0000 C   0  0
    1.4125   -4.7292    0.0000 C   0  0
    0.7000   -5.9667    0.0000 C   0  0
    8.5625   -4.7833    0.0000 C   0  0
    5.7458   -2.2583    0.0000 C   0  0
    0.6958   -8.4375    0.0000 C   0  0
    9.2833   -4.3875    0.0000 C   0  0
    8.5917   -3.1375    0.0000 C   0  0
    0.7000   -4.3167    0.0000 C   0  0
   -0.0125   -5.5542    0.0000 C   0  0
   -0.0125   -4.7292    0.0000 C   0  0
    9.3000   -3.5625    0.0000 C   0  0
    4.2667   -6.3667    0.0000 H   0  0
    4.9750   -5.1417    0.0000 H   0  0
    5.6917   -6.3833    0.0000 H   0  0
    3.5458   -7.6083    0.0000 H   0  0
    0.4917   -2.1208    0.0000 Br  0  5
    8.2625   -8.3042    0.0000 Br  0  5
  2  5  1  0
  3  1  1  0
  4  1  1  0
  5  6  1  0
  6  4  1  0
 10  7  1  1
  9  8  1  1
  9 12  1  0
 10  3  1  0
 11 16  1  0
 12  2  1  0
 13  2  1  0
 14  1  1  0
  3 15  1  1
 16 13  1  0
 17 14  1  0
 18  4  1  0
 11 19  1  6
 20 10  1  0
 21  6  1  0
 22 15  1  0
 23 19  1  0
 24 21  1  0
 25 23  2  0
 26 22  2  0
  1 27  1  1
  2 28  1  1
 29  7  1  0
 30  8  1  0
 31  7  1  0
 32  8  1  0
 33  8  1  0
 34  7  1  0
 35 22  1  0
 36 23  1  0
 37 34  1  0
 38 31  1  0
 39 32  1  0
 40 33  1  0
 41 40  1  0
 42 37  1  0
  5 43  1  6
  6 44  1  1
  4 45  1  6
 13 46  1  6
 17  5  1  0
 20 18  1  0
 24 13  1  0
 38 42  1  0
 11  9  1  0
 41 39  1  0
M  CHG  4   7   1   8   1  47  -1  48  -1
M  END