
  CDK    9/16/09,10:7

 20 21  0  0  0  0  0  0  0  0999 V2000
   -4.4189   -0.1325    0.0000 C   0  0  0  0  0  0  0  0  0  0  0  0
   -4.8377   -0.8479    0.0000 O   0  0  0  0  0  0  0  0  0  0  0  0
   -4.4298   -1.5644    0.0000 C   0  0  0  0  0  0  0  0  0  0  0  0
   -3.6015   -1.5717    0.0000 C   0  0  0  0  0  0  0  0  0  0  0  0
   -3.1827   -0.8562    0.0000 C   0  0  0  0  0  0  0  0  0  0  0  0
   -3.5922   -0.1336    0.0000 C   0  0  0  0  0  0  0  0  0  0  0  0
   -5.2331   -1.7681    0.0000 C   0  0  0  0  0  0  0  0  0  0  0  0
   -4.2253   -2.3581    0.0000 C   0  0  0  0  0  0  0  0  0  0  0  0
   -4.8137   -2.9356    0.0000 C   0  0  0  0  0  0  0  0  0  0  0  0
   -2.7755   -1.5618    0.0000 C   0  0  0  0  0  0  0  0  0  0  0  0
   -2.4732   -0.4351    0.0000 C   0  0  0  0  0  0  0  0  0  0  0  0
   -1.7542   -0.8419    0.0000 C   0  0  0  0  0  0  0  0  0  0  0  0
   -1.0452   -0.4215    0.0000 C   0  0  0  0  0  0  0  0  0  0  0  0
   -1.0547    0.4043    0.0000 C   0  0  0  0  0  0  0  0  0  0  0  0
   -1.7792    0.8079    0.0000 C   0  0  0  0  0  0  0  0  0  0  0  0
   -2.4852    0.3853    0.0000 C   0  0  0  0  0  0  0  0  0  0  0  0
   -1.9511   -1.5620    0.0000 C   0  0  0  0  0  0  0  0  0  0  0  0
   -1.5390   -2.2760    0.0000 N   0  0  0  0  0  0  0  0  0  0  0  0
   -0.3464    0.8261    0.0000 O   0  0  0  0  0  0  0  0  0  0  0  0
    0.3731    0.4234    0.0000 C   0  0  0  0  0  0  0  0  0  0  0  0
  5 10  1  0  0  0  0 
  3  4  1  0  0  0  0 
  5 11  1  0  0  0  0 
  4  5  1  0  0  0  0 
 11 12  2  0  0  0  0 
  5  6  1  0  0  0  0 
 12 13  1  0  0  0  0 
 13 14  2  0  0  0  0 
  3  7  1  0  0  0  0 
 14 15  1  0  0  0  0 
  1  2  1  0  0  0  0 
 15 16  2  0  0  0  0 
 16 11  1  0  0  0  0 
  3  8  1  0  0  0  0 
 10 17  1  0  0  0  0 
  1  6  1  0  0  0  0 
 17 18  1  0  0  0  0 
  8  9  1  0  0  0  0 
 14 19  1  0  0  0  0 
  2  3  1  0  0  0  0 
 19 20  1  0  0  0  0 
M  END