
          02180811102D 1   1.00000     0.00000     0

 35 37  0     0  0            999 V2000
   -4.0223   -7.1541    0.0000 C   0  0  0  0  0  0           0  0  0
   -4.0234   -7.9815    0.0000 C   0  0  0  0  0  0           0  0  0
   -3.3086   -8.3944    0.0000 C   0  0  0  0  0  0           0  0  0
   -2.5922   -7.9810    0.0000 C   0  0  0  0  0  0           0  0  0
   -2.5950   -7.1505    0.0000 C   0  0  0  0  0  0           0  0  0
   -3.3104   -6.7414    0.0000 C   0  0  0  0  0  0           0  0  0
   -1.8821   -6.7353    0.0000 S   0  0  3  0  0  0           0  0  0
   -1.1708   -6.3167    0.0000 N   0  0  3  0  0  0           0  0  0
   -1.4653   -7.4473    0.0000 O   0  0  0  0  0  0           0  0  0
   -2.2992   -6.0235    0.0000 O   0  0  0  0  0  0           0  0  0
   -4.7382   -8.3934    0.0000 C   0  0  0  0  0  0           0  0  0
   -0.4529   -6.7232    0.0000 C   0  0  0  0  0  0           0  0  0
   -1.1777   -5.4917    0.0000 C   0  0  0  0  0  0           0  0  0
   -0.4637   -5.0763    0.0000 C   0  0  0  0  0  0           0  0  0
   -0.4703   -4.2521    0.0000 C   0  0  0  0  0  0           0  0  0
   -1.1887   -3.8448    0.0000 C   0  0  0  0  0  0           0  0  0
   -1.9020   -4.2677    0.0000 C   0  0  0  0  0  0           0  0  0
   -1.8920   -5.0905    0.0000 C   0  0  0  0  0  0           0  0  0
    0.2581   -6.3047    0.0000 C   0  0  0  0  0  0           0  0  0
   -2.6014   -5.5116    0.0000 C   0  0  0  0  0  0           0  0  0
    0.9760   -6.7112    0.0000 N   0  0  0  0  0  0           0  0  0
    0.2511   -5.4797    0.0000 O   0  0  0  0  0  0           0  0  0
    1.6870   -6.2927    0.0000 C   0  0  0  0  0  0           0  0  0
    2.4049   -6.6992    0.0000 C   0  0  0  0  0  0           0  0  0
    3.1158   -6.2808    0.0000 C   0  0  0  0  0  0           0  0  0
    3.8323   -6.6887    0.0000 C   0  0  0  0  0  0           0  0  0
    4.5428   -6.2709    0.0000 C   0  0  0  0  0  0           0  0  0
    4.5364   -5.4451    0.0000 C   0  0  0  0  0  0           0  0  0
    3.8134   -5.0388    0.0000 C   0  0  0  0  0  0           0  0  0
    3.1059   -5.4589    0.0000 C   0  0  0  0  0  0           0  0  0
    5.2468   -5.0257    0.0000 O   0  0  0  0  0  0           0  0  0
   -3.3208   -5.1077    0.0000 C   0  0  0  0  0  0           0  0  0
    5.2388   -4.2007    0.0000 C   0  0  0  0  0  0           0  0  0
    5.2605   -6.6778    0.0000 O   0  0  0  0  0  0           0  0  0
    5.2671   -7.5028    0.0000 C   0  0  0  0  0  0           0  0  0
 17 18  2  0     0  0
 18 13  1  0     0  0
  7  9  2  0     0  0
 12 19  1  0     0  0
  4  5  1  0     0  0
 18 20  1  0     0  0
  7 10  2  0     0  0
 19 21  1  0     0  0
  2  3  1  0     0  0
 19 22  2  0     0  0
  2 11  1  0     0  0
 21 23  1  0     0  0
  5  6  2  0     0  0
 23 24  1  0     0  0
  8 12  1  0     0  0
 24 25  1  0     0  0
  6  1  1  0     0  0
 25 26  2  0     0  0
  8 13  1  0     0  0
 26 27  1  0     0  0
  1  2  2  0     0  0
 27 28  2  0     0  0
 13 14  2  0     0  0
 28 29  1  0     0  0
  5  7  1  0     0  0
 29 30  2  0     0  0
 30 25  1  0     0  0
 14 15  1  0     0  0
 28 31  1  0     0  0
  3  4  2  0     0  0
 20 32  1  0     0  0
 15 16  2  0     0  0
 31 33  1  0     0  0
  7  8  1  0     0  0
 27 34  1  0     0  0
 16 17  1  0     0  0
 34 35  1  0     0  0
M  END