
          02060813472D 1   1.00000     0.00000     0

 71 72  0     1  0            999 V2000
    7.3517  -23.2783    0.0000 C   0  0  0  0  0  0           0  0  0
    6.6379  -22.8599    0.0000 S   0  0  0  0  0  0           0  0  0
    5.9184  -23.2656    0.0000 S   0  0  0  0  0  0           0  0  0
    5.2044  -22.8474    0.0000 C   0  0  0  0  0  0           0  0  0
    5.2151  -22.0172    0.0000 C   0  0  0  0  0  0           0  0  0
    4.5020  -21.6031    0.0000 C   0  0  0  0  0  0           0  0  0
    4.5107  -20.7784    0.0000 N   0  0  0  0  0  0           0  0  0
    3.7798  -22.0046    0.0000 O   0  0  0  0  0  0           0  0  0
    3.7969  -20.3546    0.0000 C   0  0  2  0  0  0           0  0  0
    3.8034  -19.5299    0.0000 C   0  0  0  0  0  0           0  0  0
    3.0774  -20.7594    0.0000 C   0  0  0  0  0  0           0  0  0
    2.3698  -20.3399    0.0000 C   0  0  0  0  0  0           0  0  0
    2.3766  -19.5159    0.0000 C   0  0  0  0  0  0           0  0  0
    1.6631  -19.0958    0.0000 C   0  0  0  0  0  0           0  0  0
    0.9458  -19.4977    0.0000 C   0  0  0  0  0  0           0  0  0
    0.9393  -20.3344    0.0000 C   0  0  0  0  0  0           0  0  0
    1.6512  -20.7485    0.0000 C   0  0  0  0  0  0           0  0  0
    4.5278  -19.1243    0.0000 N   0  0  0  0  0  0           0  0  0
    3.0903  -19.1116    0.0000 O   0  0  0  0  0  0           0  0  0
    5.2409  -19.5384    0.0000 C   0  0  2  0  0  0           0  0  0
    5.9508  -19.1368    0.0000 C   0  0  0  0  0  0           0  0  0
    6.6639  -19.5573    0.0000 N   0  0  0  0  0  0           0  0  0
    5.9615  -18.3089    0.0000 O   0  0  0  0  0  0           0  0  0
    7.3883  -19.1517    0.0000 C   0  0  2  0  0  0           0  0  0
    8.1014  -19.5658    0.0000 C   0  0  0  0  0  0           0  0  0
    7.3948  -18.3174    0.0000 C   0  0  0  0  0  0           0  0  0
    8.1143  -17.9159    0.0000 C   0  0  0  0  0  0           0  0  0
    8.1208  -17.0912    0.0000 C   0  0  0  0  0  0           0  0  0
    8.8404  -16.6822    0.0000 N   0  0  0  0  0  0           0  0  0
    7.4077  -16.6729    0.0000 O   0  0  0  0  0  0           0  0  0
    8.8209  -19.1601    0.0000 O   0  0  0  0  0  0           0  0  0
    8.0949  -20.3905    0.0000 N   0  0  0  0  0  0           0  0  0
    8.8079  -20.8142    0.0000 C   0  0  2  0  0  0           0  0  0
    8.7973  -21.6389    0.0000 C   0  0  0  0  0  0           0  0  0
    9.5179  -20.4052    0.0000 C   0  0  0  0  0  0           0  0  0
   10.2358  -20.8290    0.0000 C   0  0  0  0  0  0           0  0  0
   10.9554  -20.4179    0.0000 N   0  0  0  0  0  0           0  0  0
   10.2293  -21.6537    0.0000 O   0  0  0  0  0  0           0  0  0
    8.0777  -22.0446    0.0000 N   0  0  0  0  0  0           0  0  0
    9.5049  -22.0530    0.0000 O   0  0  0  0  0  0           0  0  0
    8.0690  -22.8747    0.0000 C   0  0  2  0  0  0           0  0  0
    8.7821  -23.2889    0.0000 C   0  0  0  0  0  0           0  0  0
    9.4984  -22.8873    0.0000 O   0  0  0  0  0  0           0  0  0
    8.7739  -24.1138    0.0000 N   0  0  0  0  0  0           0  0  0
    9.4753  -25.3550    0.0000 C   0  0  3  0  0  0           0  0  0
    9.4878  -24.5305    0.0000 C   0  0  1  0  0  0           0  0  0
   10.2087  -24.1240    0.0000 C   0  0  0  0  0  0           0  0  0
   10.9195  -24.5384    0.0000 N   0  0  0  0  0  0           0  0  0
   10.2167  -23.2991    0.0000 O   0  0  0  0  0  0           0  0  0
   11.6341  -24.1341    0.0000 C   0  0  2  0  0  0           0  0  0
   12.3490  -24.5526    0.0000 C   0  0  0  0  0  0           0  0  0
   11.6420  -23.3092    0.0000 C   0  0  0  0  0  0           0  0  0
   12.3566  -22.9028    0.0000 C   0  0  3  0  0  0           0  0  0
   12.3667  -22.0778    0.0000 C   0  0  0  0  0  0           0  0  0
   13.0674  -23.3171    0.0000 C   0  0  0  0  0  0           0  0  0
   12.3410  -25.3776    0.0000 O   0  0  0  0  0  0           0  0  0
   13.0636  -24.1420    0.0000 N   0  0  0  0  0  0           0  0  0
   13.7744  -24.5627    0.0000 C   0  0  0  0  0  0           0  0  0
   14.4953  -24.1563    0.0000 C   0  0  0  0  0  0           0  0  0
   15.2060  -24.5706    0.0000 N   0  0  0  0  0  0           0  0  0
   14.5032  -23.3313    0.0000 O   0  0  0  0  0  0           0  0  0
   -0.4826  -19.4981    0.0000 C   0  0  0  0  0  0           0  0  0
   -1.1965  -19.0823    0.0000 C   0  0  0  0  0  0           0  0  0
    9.4709  -26.1772    0.0000 C   0  0  0  0  0  0           0  0  0
    8.6503  -25.3466    0.0000 C   0  0  0  0  0  0           0  0  0
   10.3002  -25.3660    0.0000 C   0  0  0  0  0  0           0  0  0
    5.2334  -20.3634    0.0000 C   0  0  3  0  0  0           0  0  0
    5.2253  -21.1891    0.0000 C   0  0  0  0  0  0           0  0  0
    6.0583  -20.3733    0.0000 C   0  0  0  0  0  0           0  0  0
    4.4084  -20.3612    0.0000 C   0  0  0  0  0  0           0  0  0
    0.2315  -19.0849    0.0000 O   0  0  0  0  0  0           0  0  0
 41  1  1  0     0  0
  1  2  1  0     0  0
  2  3  1  0     0  0
  3  4  1  0     0  0
  4  5  1  0     0  0
  5  6  1  0     0  0
  6  7  1  0     0  0
  6  8  2  0     0  0
  7  9  1  0     0  0
  9 10  1  0     0  0
  9 11  1  1     0  0
 11 12  1  0     0  0
 12 13  2  0     0  0
 13 14  1  0     0  0
 14 15  2  0     0  0
 15 16  1  0     0  0
 16 17  2  0     0  0
 17 12  1  0     0  0
 10 18  1  0     0  0
 10 19  2  0     0  0
 18 20  1  0     0  0
 20 21  1  0     0  0
 21 22  1  0     0  0
 21 23  2  0     0  0
 22 24  1  0     0  0
 24 25  1  0     0  0
 24 26  1  1     0  0
 26 27  1  0     0  0
 27 28  1  0     0  0
 28 29  1  0     0  0
 28 30  2  0     0  0
 25 31  2  0     0  0
 25 32  1  0     0  0
 32 33  1  0     0  0
 33 34  1  0     0  0
 33 35  1  1     0  0
 35 36  1  0     0  0
 36 37  1  0     0  0
 36 38  2  0     0  0
 34 39  1  0     0  0
 34 40  2  0     0  0
 39 41  1  0     0  0
 41 42  1  6     0  0
 42 43  2  0     0  0
 42 44  1  0     0  0
 44 46  1  0     0  0
 45 46  1  0     0  0
 46 47  1  6     0  0
 47 48  1  0     0  0
 47 49  2  0     0  0
 48 50  1  0     0  0
 50 51  1  0     0  0
 50 52  1  1     0  0
 52 53  1  0     0  0
 53 54  1  0     0  0
 53 55  1  0     0  0
 51 56  2  0     0  0
 51 57  1  0     0  0
 57 58  1  0     0  0
 58 59  1  0     0  0
 59 60  1  0     0  0
 59 61  2  0     0  0
 62 63  1  0     0  0
 45 64  1  0     0  0
 45 65  1  0     0  0
 45 66  1  0     0  0
 20 67  1  6     0  0
 67 68  1  0     0  0
 67 69  1  0     0  0
 67 70  1  0     0  0
 15 71  1  0     0  0
 71 62  1  0     0  0
M  END