
          11280714462D 1   1.00000     0.00000     0

 24 25  0     0  0            999 V2000
    3.1917   -2.4042    0.0000 C   0  0  0  0  0  0           0  0  0
    3.1292   -3.0000    0.0000 N   0  0  3  0  0  0           0  0  0
    2.6667   -2.1042    0.0000 C   0  0  0  0  0  0           0  0  0
    2.5792   -3.2375    0.0000 C   0  0  0  0  0  0           0  0  0
    3.6167   -3.3500    0.0000 C   0  0  0  0  0  0           0  0  0
    3.5500   -3.9417    0.0000 C   0  0  0  0  0  0           0  0  0
    2.5167   -3.8292    0.0000 C   0  0  0  0  0  0           0  0  0
    3.0000   -4.1917    0.0000 C   0  0  0  0  0  0           0  0  0
    2.6667   -1.4917    0.0000 C   0  0  0  0  0  0           0  0  0
    3.1917   -1.1875    0.0000 O   0  0  0  0  0  0           0  0  0
    3.7667   -2.2250    0.0000 C   0  0  0  0  0  0           0  0  0
    2.9375   -4.7875    0.0000 O   0  0  0  0  0  0           0  0  0
    5.3292   -1.7417    0.0000 N   0  0  0  0  0  0           0  0  0
    4.3000   -1.3292    0.0000 C   0  0  3  0  0  0           0  0  0
    3.7167   -1.4875    0.0000 C   0  0  0  0  0  0           0  0  0
    4.7292   -1.7417    0.0000 C   0  0  0  0  0  0           0  0  0
    2.1417   -2.4042    0.0000 C   0  0  0  0  0  0           0  0  0
    4.4417   -0.7417    0.0000 O   0  0  0  0  0  0           0  0  0
    5.6875   -2.2292    0.0000 C   0  0  3  0  0  0           0  0  0
    2.1417   -1.1917    0.0000 C   0  0  0  0  0  0           0  0  0
    6.2875   -2.1667    0.0000 C   0  0  0  0  0  0           0  0  0
    5.4417   -2.7792    0.0000 C   0  0  0  0  0  0           0  0  0
    1.6250   -2.1042    0.0000 C   0  0  0  0  0  0           0  0  0
    1.6250   -1.5000    0.0000 C   0  0  0  0  0  0           0  0  0
  2  1  1  0     0  0
  3  1  1  0     0  0
  4  2  1  0     0  0
  5  2  1  0     0  0
  6  5  2  0     0  0
  7  4  2  0     0  0
  8  6  1  0     0  0
  9  3  1  0     0  0
 10  9  1  0     0  0
 11  1  2  0     0  0
 12  8  2  0     0  0
 13 16  1  0     0  0
 14 15  1  0     0  0
 15 10  1  0     0  0
 16 14  1  0     0  0
 17  3  2  0     0  0
 18 14  1  0     0  0
 19 13  1  0     0  0
 20  9  2  0     0  0
 21 19  1  0     0  0
 22 19  1  0     0  0
 23 17  1  0     0  0
 24 23  2  0     0  0
 24 20  1  0     0  0
  8  7  1  0     0  0
M  END