
          08180812482D 1   1.00000     0.00000     0

 37 41  0     1  0            999 V2000
   -4.0786   -6.5089    0.0000 C   0  0  0  0  0  0           0  0  0
   -3.6440   -7.2131    0.0000 C   0  0  0  0  0  0           0  0  0
   -2.8189   -7.1878    0.0000 C   0  0  0  0  0  0           0  0  0
   -2.4273   -6.4591    0.0000 C   0  0  0  0  0  0           0  0  0
   -2.8670   -5.7545    0.0000 C   0  0  0  0  0  0           0  0  0
   -3.6907   -5.7833    0.0000 C   0  0  0  0  0  0           0  0  0
   -4.1271   -5.0830    0.0000 O   0  0  0  0  0  0           0  0  0
   -1.6027   -6.4324    0.0000 C   0  0  0  0  0  0           0  0  0
   -4.0349   -7.9397    0.0000 C   0  0  0  0  0  0           0  0  0
   -2.3847   -7.8893    0.0000 C   0  0  0  0  0  0           0  0  0
   -2.3919   -8.7132    0.0000 C   0  0  1  0  0  0           0  0  0
   -1.6809   -9.1320    0.0000 C   0  0  0  0  0  0           0  0  0
   -3.1100   -9.1195    0.0000 N   0  0  0  0  0  0           0  0  0
   -0.9629   -8.7256    0.0000 N   0  0  3  0  0  0           0  0  0
   -1.6881   -9.9570    0.0000 O   0  0  0  0  0  0           0  0  0
   -0.2581   -9.1480    0.0000 C   0  0  1  0  0  0           0  0  0
    0.4577   -8.7451    0.0000 C   0  0  0  0  0  0           0  0  0
   -0.9637   -7.9032    0.0000 C   0  0  0  0  0  0           0  0  0
   -0.2415   -7.4989    0.0000 C   0  0  0  0  0  0           0  0  0
    0.4686   -7.9206    0.0000 C   0  0  0  0  0  0           0  0  0
    1.1867   -7.5164    0.0000 C   0  0  0  0  0  0           0  0  0
    1.1959   -6.6908    0.0000 C   0  0  0  0  0  0           0  0  0
    0.4810   -6.2710    0.0000 C   0  0  0  0  0  0           0  0  0
   -0.2342   -6.6775    0.0000 C   0  0  0  0  0  0           0  0  0
   -0.2694   -9.9729    0.0000 C   0  0  0  0  0  0           0  0  0
   -0.9896  -10.3757    0.0000 O   0  0  0  0  0  0           0  0  0
    0.4393  -10.3953    0.0000 N   0  0  0  0  0  0           0  0  0
    1.1595   -9.9925    0.0000 C   0  0  0  0  0  0           0  0  0
    1.8683  -10.4148    0.0000 C   0  0  0  0  0  0           0  0  0
    1.9447  -11.2346    0.0000 S   0  0  0  0  0  0           0  0  0
    2.6279  -10.0878    0.0000 N   0  0  0  0  0  0           0  0  0
    3.1717  -10.7084    0.0000 C   0  0  0  0  0  0           0  0  0
    2.7486  -11.4151    0.0000 C   0  0  0  0  0  0           0  0  0
    3.1492  -12.1327    0.0000 C   0  0  0  0  0  0           0  0  0
    3.9725  -12.1448    0.0000 C   0  0  0  0  0  0           0  0  0
    4.3938  -11.4332    0.0000 C   0  0  0  0  0  0           0  0  0
    3.9908  -10.7186    0.0000 C   0  0  0  0  0  0           0  0  0
 17 20  1  0     0  0
 19 18  1  0     0  0
  2  9  1  0     0  0
  4  5  1  0     0  0
 19 20  2  0     0  0
  3 10  1  0     0  0
 20 21  1  0     0  0
  2  3  1  0     0  0
 21 22  2  0     0  0
 11 10  1  1     0  0
 22 23  1  0     0  0
  5  6  2  0     0  0
 23 24  2  0     0  0
 24 19  1  0     0  0
 11 12  1  0     0  0
 16 25  1  1     0  0
  6  1  1  0     0  0
 25 26  2  0     0  0
 11 13  1  0     0  0
 25 27  1  0     0  0
  1  2  2  0     0  0
 27 28  1  0     0  0
 12 14  1  0     0  0
 28 29  1  0     0  0
 29 30  1  0     0  0
  6  7  1  0     0  0
 12 15  2  0     0  0
 30 33  1  0     0  0
 32 31  1  0     0  0
 31 29  2  0     0  0
 14 16  1  0     0  0
  3  4  2  0     0  0
 32 33  2  0     0  0
  4  8  1  0     0  0
 33 34  1  0     0  0
 34 35  2  0     0  0
 14 18  1  0     0  0
 35 36  1  0     0  0
 16 17  1  0     0  0
 36 37  2  0     0  0
 37 32  1  0     0  0
M  END