
          11280715412D 1   1.00000     0.00000     0

 27 30  0     0  0            999 V2000
    5.5417   -1.4542    0.0000 C   0  0  0  0  0  0           0  0  0
    4.8167   -1.8667    0.0000 O   0  0  0  0  0  0           0  0  0
    9.1042   -2.7125    0.0000 N   0  0  3  0  0  0           0  0  0
    5.5417   -0.6250    0.0000 C   0  0  0  0  0  0           0  0  0
    4.8167   -0.2042    0.0000 O   0  0  0  0  0  0           0  0  0
    6.2542   -1.8750    0.0000 C   0  0  3  0  0  0           0  0  0
    7.6792   -1.8792    0.0000 N   0  0  3  0  0  0           0  0  0
    4.1000   -1.4542    0.0000 C   0  0  0  0  0  0           0  0  0
    9.8167   -3.1292    0.0000 C   0  0  0  0  0  0           0  0  0
    6.9667   -1.4625    0.0000 C   0  0  0  0  0  0           0  0  0
    4.1042   -0.6250    0.0000 C   0  0  0  0  0  0           0  0  0
    9.1042   -1.8792    0.0000 C   0  0  0  0  0  0           0  0  0
    8.3875   -3.1167    0.0000 C   0  0  0  0  0  0           0  0  0
   10.5167   -2.7167    0.0000 C   0  0  0  0  0  0           0  0  0
    7.6750   -2.7042    0.0000 C   0  0  0  0  0  0           0  0  0
    8.3917   -1.4667    0.0000 C   0  0  0  0  0  0           0  0  0
    6.2542   -2.7000    0.0000 O   0  0  0  0  0  0           0  0  0
   10.5292   -1.8917    0.0000 O   0  0  0  0  0  0           0  0  0
    9.8042   -3.9542    0.0000 C   0  0  0  0  0  0           0  0  0
    3.3875   -1.8667    0.0000 C   0  0  0  0  0  0           0  0  0
    3.3875   -0.2125    0.0000 C   0  0  0  0  0  0           0  0  0
   11.2375   -3.1292    0.0000 C   0  0  0  0  0  0           0  0  0
   11.2417   -1.4792    0.0000 C   0  0  0  0  0  0           0  0  0
   10.5167   -4.3667    0.0000 C   0  0  0  0  0  0           0  0  0
    2.6750   -1.4542    0.0000 C   0  0  0  0  0  0           0  0  0
    2.6750   -0.6250    0.0000 C   0  0  0  0  0  0           0  0  0
   11.2375   -3.9625    0.0000 C   0  0  0  0  0  0           0  0  0
  2  1  1  0     0  0
  3 12  1  0     0  0
  4  1  2  0     0  0
  5  4  1  0     0  0
  6  1  1  0     0  0
  7 10  1  0     0  0
  8  2  1  0     0  0
  9  3  1  0     0  0
 10  6  1  0     0  0
 11  5  1  0     0  0
 12 16  1  0     0  0
 13 15  1  0     0  0
 14  9  1  0     0  0
 15  7  1  0     0  0
 16  7  1  0     0  0
 17  6  1  0     0  0
 18 14  1  0     0  0
 19  9  2  0     0  0
 20  8  2  0     0  0
 21 11  2  0     0  0
 22 14  2  0     0  0
 23 18  1  0     0  0
 24 19  1  0     0  0
 25 20  1  0     0  0
 26 21  1  0     0  0
 27 24  2  0     0  0
 11  8  1  0     0  0
 13  3  1  0     0  0
 26 25  2  0     0  0
 22 27  1  0     0  0
M  END