
  SciTegic04091511462D

 75 78  0  0  1  0            999 V2000
    6.0572   -6.5675    0.0000 N   0  0
    5.4044    0.0438    0.0000 N   0  0
    3.5718   -1.4814    0.0000 N   0  0
    6.6663   -5.9969    0.0000 C   0  0
    4.6472   -0.2524    0.0000 C   0  0
    3.3633   -2.2879    0.0000 C   0  0
    6.5017   -5.1849    0.0000 C   0  0  2  0  0  0
    7.0174   -0.1207    0.0000 C   0  0
    7.2588   -4.8777    0.0000 N   0  0
    4.0162   -0.7791    0.0000 C   0  0  2  0  0  0
    8.5482   -2.8476    0.0000 N   0  0
    7.7032   -0.5816    0.0000 N   0  0
    7.8898   -4.3619    0.0000 C   0  0
    6.8528   -7.8075    0.0000 C   0  0
    8.5098   -2.0136    0.0000 C   0  0
    6.2274    0.0932    0.0000 C   0  0  2  0  0  0
    8.3342   -3.6596    0.0000 C   0  0  2  0  0  0
    6.1451   -7.3960    0.0000 C   0  0  2  0  0  0
    3.4072   -3.1274    0.0000 C   0  0
    6.8528   -8.6579    0.0000 N   0  0
    9.0859   -3.9998    0.0000 C   0  0
    8.2135   -1.2345    0.0000 C   0  0  2  0  0  0
    7.5606   -9.9088    0.0000 C   0  0
    4.8941   -5.0093    0.0000 S   0  0
    4.2028   -4.5594    0.0000 S   0  0
    9.1682   -4.8283    0.0000 C   0  0
    3.6925   -3.9065    0.0000 C   0  0
    8.2629  -10.3259    0.0000 N   0  0
    7.5606   -9.0694    0.0000 C   0  0  2  0  0  0
    8.9706  -11.5878    0.0000 C   0  0
   10.3368   -0.8121    0.0000 C   0  0
    7.4399   -6.2603    0.0000 O   0  0
    4.2357    0.4718    0.0000 O   0  0
    3.4072   -0.2195    0.0000 C   0  0
    2.5513   -2.1947    0.0000 O   0  0
    7.3466    0.6364    0.0000 O   0  0
    5.6842   -5.2233    0.0000 C   0  0
    7.5606   -7.3960    0.0000 O   0  0
    8.4988   -4.9215    0.0000 O   0  0
    9.3054   -1.8326    0.0000 O   0  0
    6.8528  -10.3259    0.0000 O   0  0
    8.5098   -5.3221    0.0000 O   0  0
    9.6784  -11.1653    0.0000 O   0  0
   11.0337   -1.2345    0.0000 O   0  0
    8.9213   -0.8121    0.0000 C   0  0
    8.2629  -11.1653    0.0000 C   0  0
    6.3097    0.9218    0.0000 C   0  0  2  0  0  0
    5.2562   -6.3920    0.0000 C   0  0
    9.9144   -5.1739    0.0000 N   0  0
    9.6290   -1.2345    0.0000 C   0  0
    3.5773    0.6035    0.0000 C   0  0
   10.3368    0.0274    0.0000 N   0  0
    8.9706  -12.4108    0.0000 N   0  0
    2.8202   -1.1413    0.0000 C   0  0
    3.9175    2.2385    0.0000 C   0  0
    4.3509    0.8668    0.0000 C   0  0
    2.9683    1.1631    0.0000 C   0  0
   10.3917   -9.0694    0.0000 N   0  0
    3.1329    1.9752    0.0000 C   0  0
    4.5265    1.6734    0.0000 C   0  0
    5.3988   -7.7417    0.0000 C   0  0
    4.0876    3.0560    0.0000 O   0  0
    4.8557   -7.1162    0.0000 C   0  0
    3.0835   -3.4292    0.0000 C   0  0
    3.7913   -4.6911    0.0000 C   0  0
    8.2629   -8.6579    0.0000 C   0  0
    9.6784   -8.6579    0.0000 C   0  0
    7.0613    1.2619    0.0000 C   0  0
    5.6513    1.4100    0.0000 C   0  0
    8.9706   -9.0694    0.0000 C   0  0
    7.1491    2.1013    0.0000 C   0  0
    2.3758   -3.8516    0.0000 C   0  0
    3.0835   -5.1081    0.0000 C   0  0
    2.3758   -4.6911    0.0000 C   0  0
    5.3146    1.0424    0.0000 H   0  0
  2  5  1  0
  3  6  1  0
  4  1  1  0
  5 10  1  0
  6 19  1  0
  7  4  1  1
  8 12  1  0
  9  7  1  0
 10  3  1  0
 11 17  1  0
 12 22  1  0
 13  9  1  0
 18 14  1  6
 15 11  1  0
 16  8  1  0
 17 13  1  0
 18  1  1  0
 19 27  1  0
 20 14  1  0
 17 21  1  1
 22 15  1  0
 23 29  1  0
 24 37  1  0
 25 24  1  0
 26 21  1  0
 27 25  1  0
 28 23  1  0
 29 20  1  1
 30 46  1  0
 31 50  1  0
 32  4  2  0
 33  5  2  0
 10 34  1  1
 35  6  2  0
 36  8  2  0
  7 37  1  0
 38 14  2  0
 39 13  2  0
 40 15  2  0
 41 23  2  0
 42 26  2  0
 43 30  2  0
 44 31  2  0
 22 45  1  1
 46 28  1  0
 16 47  1  0
 48  1  1  0
 49 26  1  0
 50 45  1  0
 51 34  1  0
 52 31  1  0
 53 30  1  0
 54  3  1  0
 55 59  1  0
 56 51  2  0
 57 51  1  0
 58 67  1  0
 59 57  2  0
 60 56  1  0
 18 61  1  0
 62 55  1  0
 63 48  1  0
 64 27  1  0
 65 27  1  0
 29 66  1  0
 67 70  1  0
 68 47  1  0
 47 69  1  1
 70 66  1  0
 71 68  1  0
 72 64  1  0
 73 65  1  0
 74 73  1  0
 61 63  1  0
 74 72  1  0
 16  2  1  0
 55 60  2  0
 16 75  1  6
M  END