
  CDK    6/4/10,11:42

 32 35  0  0  0  0  0  0  0  0999 V2000
    5.3652    1.6625    0.0000 C   0  0  0  0  0  0  0  0  0  0  0  0
    5.3641    0.8352    0.0000 C   0  0  0  0  0  0  0  0  0  0  0  0
    6.0789    0.4223    0.0000 C   0  0  0  0  0  0  0  0  0  0  0  0
    6.0771    2.0753    0.0000 C   0  0  0  0  0  0  0  0  0  0  0  0
    6.7925    1.6662    0.0000 C   0  0  0  0  0  0  0  0  0  0  0  0
    6.7913    0.8331    0.0000 C   0  0  0  0  0  0  0  0  0  0  0  0
    7.5082    0.4178    0.0000 N   0  0  0  0  0  0  0  0  0  0  0  0
    8.2308    0.8310    0.0000 C   0  0  0  0  0  0  0  0  0  0  0  0
    8.2320    1.6641    0.0000 C   0  0  0  0  0  0  0  0  0  0  0  0
    7.5106    2.0840    0.0000 C   0  0  0  0  0  0  0  0  0  0  0  0
    8.9441    0.4165    0.0000 O   0  0  0  0  0  0  0  0  0  0  0  0
    6.0786   -0.4027    0.0000 O   0  0  0  0  0  0  0  0  0  0  0  0
    4.6493    0.4232    0.0000 O   0  0  0  0  0  0  0  0  0  0  0  0
    3.9351    0.8363    0.0000 C   0  0  0  0  0  0  0  0  0  0  0  0
    5.3640   -0.8149    0.0000 C   0  0  0  0  0  0  0  0  0  0  0  0
    4.6497   -0.4022    0.0000 C   0  0  0  0  0  0  0  0  0  0  0  0
    3.9350   -0.8144    0.0000 C   0  0  0  0  0  0  0  0  0  0  0  0
    3.2207   -0.4017    0.0000 C   0  0  0  0  0  0  0  0  0  0  0  0
    2.5061   -0.8139    0.0000 C   0  0  0  0  0  0  0  0  0  0  0  0
    8.9475    2.0749    0.0000 C   0  0  0  0  0  0  0  0  0  0  0  0
    9.6610    1.6606    0.0000 N   0  0  0  0  0  0  0  0  0  0  0  0
    8.9495    2.8999    0.0000 O   0  0  0  0  0  0  0  0  0  0  0  0
   10.3765    2.0714    0.0000 C   0  0  0  0  0  0  0  0  0  0  0  0
   11.0899    1.6571    0.0000 C   0  0  0  0  0  0  0  0  0  0  0  0
   11.0827    0.8323    0.0000 C   0  0  0  0  0  0  0  0  0  0  0  0
   11.7953    0.4181    0.0000 C   0  0  0  0  0  0  0  0  0  0  0  0
   11.7980    2.0686    0.0000 C   0  0  0  0  0  0  0  0  0  0  0  0
   12.5112    1.6582    0.0000 C   0  0  0  0  0  0  0  0  0  0  0  0
   12.5075    0.8328    0.0000 C   0  0  0  0  0  0  0  0  0  0  0  0
   13.2913    0.5741    0.0000 O   0  0  0  0  0  0  0  0  0  0  0  0
   13.7796    1.2398    0.0000 C   0  0  0  0  0  0  0  0  0  0  0  0
   13.2973    1.9097    0.0000 O   0  0  0  0  0  0  0  0  0  0  0  0
  5  4  2  0  0  0  0 
 15 16  1  0  0  0  0 
  4  1  1  0  0  0  0 
 16 17  1  0  0  0  0 
  5 10  1  0  0  0  0 
 17 18  1  0  0  0  0 
  6  7  1  0  0  0  0 
 18 19  1  0  0  0  0 
  7  8  1  0  0  0  0 
  9 20  1  0  0  0  0 
  8  9  1  0  0  0  0 
 20 21  1  0  0  0  0 
  9 10  2  0  0  0  0 
 20 22  2  0  0  0  0 
  5  6  1  0  0  0  0 
 21 23  1  0  0  0  0 
  8 11  2  0  0  0  0 
 23 24  1  0  0  0  0 
 24 25  2  0  0  0  0 
  3 12  1  0  0  0  0 
 25 26  1  0  0  0  0 
 26 29  2  0  0  0  0 
  2  3  1  0  0  0  0 
 28 27  2  0  0  0  0 
 27 24  1  0  0  0  0 
 28 29  1  0  0  0  0 
  2 13  1  0  0  0  0 
  3  6  2  0  0  0  0 
 13 14  1  0  0  0  0 
  1  2  2  0  0  0  0 
 12 15  1  0  0  0  0 
 29 30  1  0  0  0  0 
 30 31  1  0  0  0  0 
 31 32  1  0  0  0  0 
 32 28  1  0  0  0  0 
M  END