
  SciTegic02271217242D

 41 44  0  0  0  0            999 V2000
   14.5361  -12.9791    0.0000 C   0  0
   14.5349  -13.8065    0.0000 C   0  0
   15.2497  -14.2194    0.0000 C   0  0
   15.9662  -13.8060    0.0000 C   0  0
   15.9633  -12.9755    0.0000 C   0  0
   15.2479  -12.5664    0.0000 C   0  0
   16.6762  -12.5603    0.0000 O   0  0
   17.3922  -12.9701    0.0000 C   0  0
   17.3920  -13.7928    0.0000 C   0  0
   18.1072  -14.2025    0.0000 C   0  0
   18.8211  -13.7872    0.0000 C   0  0
   18.8153  -12.9580    0.0000 C   0  0
   18.0995  -12.5520    0.0000 C   0  0
   19.5376  -14.1961    0.0000 Cl  0  0
   18.0922  -11.7270    0.0000 N   0  0
   18.8029  -11.3081    0.0000 S   0  0
   19.5210  -11.7142    0.0000 C   0  0
   18.3833  -10.5875    0.0000 O   0  0
   19.2083  -10.5875    0.0000 O   0  0
   19.5254  -12.5386    0.0000 C   0  0
   20.2427  -12.9446    0.0000 C   0  0
   20.9545  -12.5256    0.0000 C   0  0
   20.9444  -11.6964    0.0000 C   0  0
   20.2265  -11.2942    0.0000 C   0  0
   21.6731  -12.9308    0.0000 Cl  0  0
   13.8201  -14.2184    0.0000 C   0  0
   13.1060  -13.8054    0.0000 N   0  0
   13.8195  -15.0434    0.0000 O   0  0
   13.1066  -12.9804    0.0000 C   0  0
   12.3925  -12.5673    0.0000 C   0  0
   11.6777  -12.9792    0.0000 N   0  0
   21.6536  -11.2750    0.0000 C   0  0
   22.3732  -11.6786    0.0000 F   0  0
   21.6434  -10.4501    0.0000 F   0  0
   22.3625  -10.8583    0.0000 F   0  0
   10.9270  -12.6444    0.0000 C   0  0
   10.3745  -13.2570    0.0000 C   0  0
   10.7864  -13.9719    0.0000 C   0  0
   11.5935  -13.8009    0.0000 C   0  0
   16.6813  -14.2174    0.0000 O   0  0
   16.6826  -15.0424    0.0000 C   0  0
 17 20  2  0
  9 10  1  0
 20 21  1  0
  2  3  1  0
 21 22  2  0
 10 11  2  0
 22 23  1  0
  5  6  2  0
 23 24  2  0
 24 17  1  0
 11 12  1  0
 22 25  1  0
  6  1  1  0
  2 26  1  0
 12 13  2  0
 26 27  1  0
 13  8  1  0
 26 28  2  0
  1  2  2  0
 27 29  1  0
 11 14  1  0
 29 30  1  0
  5  7  1  0
 30 31  1  0
 13 15  1  0
 23 32  1  0
  3  4  2  0
 32 33  1  0
 15 16  1  0
 32 34  1  0
  7  8  1  0
 32 35  1  0
 31 36  1  0
 16 17  1  0
 16 18  2  0
  8  9  2  0
 36 37  1  0
 37 38  1  0
 38 39  1  0
 39 31  1  0
 16 19  2  0
  4 40  1  0
  4  5  1  0
 40 41  1  0
M  END