
          11280714442D 1   1.00000     0.00000     0

 18 20  0     0  0            999 V2000
    3.4542   -3.6875    0.0000 C   0  0  3  0  0  0           0  0  0
    2.7375   -3.2750    0.0000 O   0  0  0  0  0  0           0  0  0
    4.2667   -3.8292    0.0000 C   0  0  0  0  0  0           0  0  0
    4.8375   -3.2250    0.0000 N   0  0  0  0  0  0           0  0  0
    2.7375   -4.9250    0.0000 O   0  0  0  0  0  0           0  0  0
    2.0250   -3.6875    0.0000 C   0  0  0  0  0  0           0  0  0
    3.4542   -4.5042    0.0000 C   0  0  0  0  0  0           0  0  0
    4.6625   -4.5500    0.0000 N   0  0  0  0  0  0           0  0  0
    2.0250   -4.5042    0.0000 C   0  0  0  0  0  0           0  0  0
    3.6667   -2.8917    0.0000 C   0  0  0  0  0  0           0  0  0
    5.5667   -3.5750    0.0000 C   0  0  0  0  0  0           0  0  0
    5.4750   -4.3917    0.0000 C   0  0  0  0  0  0           0  0  0
    1.3125   -3.2750    0.0000 C   0  0  0  0  0  0           0  0  0
    1.3125   -4.9250    0.0000 C   0  0  0  0  0  0           0  0  0
    3.0792   -2.3042    0.0000 C   0  0  0  0  0  0           0  0  0
    0.5917   -3.6875    0.0000 C   0  0  0  0  0  0           0  0  0
    3.2875   -1.5167    0.0000 C   0  0  0  0  0  0           0  0  0
    0.5917   -4.5042    0.0000 C   0  0  0  0  0  0           0  0  0
  2  1  1  0     0  0
  3  1  1  0     0  0
  4  3  2  0     0  0
  5  7  1  0     0  0
  6  2  1  0     0  0
  7  1  1  0     0  0
  8  3  1  0     0  0
  9  5  1  0     0  0
 10  1  1  0     0  0
 11  4  1  0     0  0
 12  8  1  0     0  0
 13  6  2  0     0  0
 14  9  2  0     0  0
 15 10  1  0     0  0
 16 13  1  0     0  0
 17 15  1  0     0  0
 18 14  1  0     0  0
  6  9  1  0     0  0
 12 11  1  0     0  0
 16 18  2  0     0  0
M  END