
          11280715352D 1   1.00000     0.00000     0

 34 37  0     0  0            999 V2000
   -0.1875    1.2833    0.0000 S   0  0  3  0  0  0           0  0  0
   -0.1958    2.1083    0.0000 N   0  0  0  0  0  0           0  0  0
   -1.6250    3.7583    0.0000 N   0  0  0  0  0  0           0  0  0
   -0.9083    3.3375    0.0000 N   0  0  3  0  0  0           0  0  0
   -0.9083    2.5208    0.0000 C   0  0  0  0  0  0           0  0  0
   -1.6250    4.5792    0.0000 C   0  0  0  0  0  0           0  0  0
   -0.2083    4.5792    0.0000 C   0  0  3  0  0  0           0  0  0
   -0.1958    0.4583    0.0000 C   0  0  0  0  0  0           0  0  0
   -0.2000    3.7583    0.0000 C   0  0  0  0  0  0           0  0  0
   -0.9125    0.0500    0.0000 C   0  0  0  0  0  0           0  0  0
    0.5125    0.0458    0.0000 C   0  0  0  0  0  0           0  0  0
    0.6042    1.0708    0.0000 O   0  0  0  0  0  0           0  0  0
   -0.9083    0.8708    0.0000 O   0  0  0  0  0  0           0  0  0
   -2.2083    5.1542    0.0000 C   0  0  0  0  0  0           0  0  0
   -0.9208   -0.7667    0.0000 C   0  0  0  0  0  0           0  0  0
    0.5125   -0.7750    0.0000 C   0  0  0  0  0  0           0  0  0
    0.3792    5.1667    0.0000 C   0  0  0  0  0  0           0  0  0
   -1.6208    2.1000    0.0000 N   0  0  0  0  0  0           0  0  0
   -0.2083   -1.1875    0.0000 C   0  0  0  0  0  0           0  0  0
   -3.0000    4.9500    0.0000 C   0  0  0  0  0  0           0  0  0
   -1.9958    5.9625    0.0000 C   0  0  0  0  0  0           0  0  0
   -3.3750    6.3292    0.0000 C   0  0  0  0  0  0           0  0  0
   -2.5750    6.5417    0.0000 C   0  0  0  0  0  0           0  0  0
   -3.5875    5.5292    0.0000 C   0  0  0  0  0  0           0  0  0
   -3.9583    6.9042    0.0000 Cl  0  0  0  0  0  0           0  0  0
    1.2292    0.4583    0.0000 C   0  0  0  0  0  0           0  0  0
   -1.6208    0.4708    0.0000 C   0  0  0  0  0  0           0  0  0
    0.1625    5.9542    0.0000 C   0  0  0  0  0  0           0  0  0
    1.1750    4.9500    0.0000 C   0  0  0  0  0  0           0  0  0
   -0.2083   -2.0125    0.0000 C   0  0  0  0  0  0           0  0  0
   -1.6208    1.2750    0.0000 C   0  0  0  0  0  0           0  0  0
    1.7542    5.5292    0.0000 C   0  0  0  0  0  0           0  0  0
    0.7417    6.5417    0.0000 C   0  0  0  0  0  0           0  0  0
    1.5417    6.3292    0.0000 C   0  0  0  0  0  0           0  0  0
  2  1  1  0     0  0
  3  4  1  0     0  0
  4  5  1  0     0  0
  5  2  1  0     0  0
  6  3  2  0     0  0
  7  9  1  0     0  0
  8  1  1  0     0  0
  9  4  1  0     0  0
 10  8  2  0     0  0
 11  8  1  0     0  0
 12  1  2  0     0  0
 13  1  2  0     0  0
 14  6  1  0     0  0
 15 10  1  0     0  0
 16 11  2  0     0  0
 17  7  1  0     0  0
 18  5  2  0     0  0
 19 16  1  0     0  0
 20 14  1  0     0  0
 21 14  2  0     0  0
 22 23  2  0     0  0
 23 21  1  0     0  0
 24 20  2  0     0  0
 25 22  1  0     0  0
 26 11  1  0     0  0
 27 10  1  0     0  0
 28 17  1  0     0  0
 29 17  2  0     0  0
 30 19  1  0     0  0
 31 18  1  0     0  0
 32 29  1  0     0  0
 33 28  2  0     0  0
 34 32  2  0     0  0
 19 15  2  0     0  0
  6  7  1  0     0  0
 22 24  1  0     0  0
 34 33  1  0     0  0
M  END