
          11280714572D 1   1.00000     0.00000     0

 32 35  0     0  0            999 V2000
    8.3917   -4.5875    0.0000 C   0  0  0  0  0  0           0  0  0
    4.1167   -4.6250    0.0000 S   0  0  3  0  0  0           0  0  0
    7.6875   -5.8292    0.0000 N   0  0  3  0  0  0           0  0  0
    8.4000   -5.4125    0.0000 C   0  0  0  0  0  0           0  0  0
    6.9667   -4.5917    0.0000 C   0  0  0  0  0  0           0  0  0
    6.9667   -5.4167    0.0000 C   0  0  0  0  0  0           0  0  0
    4.8292   -4.2042    0.0000 N   0  0  0  0  0  0           0  0  0
    7.6917   -6.6542    0.0000 C   0  0  0  0  0  0           0  0  0
    9.7750   -4.2125    0.0000 N   0  0  3  0  0  0           0  0  0
   10.9042   -4.9167    0.0000 N   0  0  0  0  0  0           0  0  0
    8.9792   -4.0000    0.0000 C   0  0  0  0  0  0           0  0  0
    3.4000   -4.2125    0.0000 C   0  0  0  0  0  0           0  0  0
    8.4125   -7.0625    0.0000 C   0  0  0  0  0  0           0  0  0
   10.0750   -4.9750    0.0000 C   0  0  0  0  0  0           0  0  0
    3.5292   -5.2042    0.0000 O   0  0  0  0  0  0           0  0  0
    4.5250   -5.3375    0.0000 O   0  0  0  0  0  0           0  0  0
    6.2625   -5.8417    0.0000 C   0  0  0  0  0  0           0  0  0
    8.4167   -7.8875    0.0000 C   0  0  0  0  0  0           0  0  0
    6.2500   -4.1917    0.0000 C   0  0  0  0  0  0           0  0  0
    5.5417   -4.6125    0.0000 C   0  0  0  0  0  0           0  0  0
   11.1042   -4.1292    0.0000 C   0  0  0  0  0  0           0  0  0
   10.4125   -3.6875    0.0000 C   0  0  0  0  0  0           0  0  0
    7.7042   -8.3042    0.0000 O   0  0  0  0  0  0           0  0  0
    2.6792   -4.6250    0.0000 C   0  0  0  0  0  0           0  0  0
    3.4000   -3.3792    0.0000 C   0  0  0  0  0  0           0  0  0
    5.5417   -5.4375    0.0000 C   0  0  0  0  0  0           0  0  0
    9.1167   -5.8250    0.0000 C   0  0  0  0  0  0           0  0  0
    1.9667   -3.3875    0.0000 C   0  0  0  0  0  0           0  0  0
    9.1292   -8.2917    0.0000 O   0  0  0  0  0  0           0  0  0
    2.6792   -2.9667    0.0000 C   0  0  0  0  0  0           0  0  0
    1.9667   -4.2125    0.0000 C   0  0  0  0  0  0           0  0  0
    1.2542   -2.9750    0.0000 F   0  0  0  0  0  0           0  0  0
  2  7  1  0     0  0
  3  4  1  0     0  0
  4  1  2  0     0  0
  5  1  1  0     0  0
  6  5  1  0     0  0
  7 20  1  0     0  0
  8  3  1  0     0  0
  9 11  1  0     0  0
 10 14  2  0     0  0
 11  1  1  0     0  0
 12  2  1  0     0  0
 13  8  1  0     0  0
 14  9  1  0     0  0
 15  2  2  0     0  0
 16  2  2  0     0  0
 17  6  2  0     0  0
 18 13  1  0     0  0
 19  5  2  0     0  0
 20 19  1  0     0  0
 21 22  2  0     0  0
 22  9  1  0     0  0
 23 18  2  0     0  0
 24 12  2  0     0  0
 25 12  1  0     0  0
 26 20  2  0     0  0
 27  4  1  0     0  0
 28 30  1  0     0  0
 29 18  1  0     0  0
 30 25  2  0     0  0
 31 24  1  0     0  0
 32 28  1  0     0  0
  6  3  1  0     0  0
 10 21  1  0     0  0
 26 17  1  0     0  0
 31 28  2  0     0  0
M  END