
  SciTegic01161211232D

 20 21  0  0  0  0            999 V2000
   -3.3264    1.8084    0.0000 C   0  0
   -3.3276    0.9810    0.0000 C   0  0
   -2.6128    0.5681    0.0000 C   0  0
   -1.8963    0.9815    0.0000 C   0  0
   -1.8992    1.8120    0.0000 C   0  0
   -2.6146    2.2211    0.0000 C   0  0
   -4.0424    0.5691    0.0000 O   0  0
   -4.7565    0.9821    0.0000 C   0  0
   -5.4713    0.5702    0.0000 C   0  0
   -1.1863    2.2272    0.0000 C   0  0
   -0.4696    1.8176    0.0000 C   0  0
   -0.2232    1.0309    0.0000 S   0  0
    0.6017    1.0229    0.0000 C   0  0
    0.8649    1.8055    0.0000 N   0  0
    0.2015    2.2963    0.0000 C   0  0
    1.0802    0.3508    0.0000 O   0  0
    0.2090    3.1213    0.0000 O   0  0
    1.5812    2.2150    0.0000 C   0  0
    2.2939    1.7994    0.0000 C   0  0
    3.0101    2.2088    0.0000 N   0  0
  5 10  1  0
  2  3  1  0
 10 11  2  0
 11 12  1  0
  5  6  2  0
  6  1  1  0
  1  2  2  0
  2  7  1  0
 12 13  1  0
 13 14  1  0
 14 15  1  0
 15 11  1  0
  3  4  2  0
 13 16  2  0
  7  8  1  0
 15 17  2  0
 14 18  1  0
  8  9  1  0
 18 19  1  0
  4  5  1  0
 19 20  1  0
M  END