
  SciTegic12011113542D

337377  0  0  0  0            999 V2000
    1.7450   -3.5353    0.0000 O   0  0
    1.2617   -2.8670    0.0000 C   0  0
    0.4411   -2.9443    0.0000 C   0  0  1  0  0  0
   -0.7780   -3.4848    0.0000 C   0  0
   -0.8595   -2.6625    0.0000 C   0  0  1  0  0  0
   -0.1053   -2.3323    0.0000 O   0  0
   -1.5719   -2.2465    0.0000 N   0  0
   -2.2927   -2.6545    0.0000 C   0  0
   -2.2939   -3.4828    0.0000 O   0  0
   -3.0051   -2.2385    0.0000 N   0  0
   -3.0003   -1.4123    0.0000 C   0  0
   -3.7128   -0.9963    0.0000 O   0  0
   -2.2852   -1.0057    0.0000 C   0  0
   -1.5728   -1.4218    0.0000 C   0  0
    5.3008   -0.6634    0.0000 O   0  0
    4.5702   -0.2771    0.0000 C   0  0
    3.8970   -0.7494    0.0000 C   0  0  2  0  0  0
    3.8786   -1.5725    0.0000 C   0  0  1  0  0  0
    4.5371   -2.0720    0.0000 O   0  0
    3.0920   -1.8134    0.0000 C   0  0
    2.6207   -1.1361    0.0000 C   0  0  1  0  0  0
    3.1152   -0.4807    0.0000 O   0  0
    1.7966   -1.1218    0.0000 N   0  0
    1.2971   -1.7803    0.0000 C   0  0
    0.5153   -1.5117    0.0000 N   0  0
    0.5306   -0.6835    0.0000 C   0  0
   -0.0693   -0.1207    0.0000 C   0  0
   -0.8599   -0.3606    0.0000 O   0  0
    0.1173    0.6829    0.0000 N   0  0
    0.9038    0.9238    0.0000 C   0  0
    1.0904    1.7274    0.0000 N   0  0
    1.5078    0.3600    0.0000 N   0  0
    1.3212   -0.4436    0.0000 C   0  0
    9.6234   -1.8227    0.0000 O   0  0
    9.6059   -0.9964    0.0000 C   0  0
    8.8660   -0.6376    0.0000 C   0  0  2  0  0  0
    8.1376   -1.0215    0.0000 C   0  0
    7.5449   -0.4512    0.0000 C   0  0  1  0  0  0
    6.7310   -0.5964    0.0000 O   0  0
    7.9077    0.2899    0.0000 C   0  0  1  0  0  0
    8.7208    0.1762    0.0000 O   0  0
    7.5197    1.0171    0.0000 N   0  0
    6.7014    1.1336    0.0000 C   0  0
    6.5562    1.9474    0.0000 N   0  0
    7.2875    2.3365    0.0000 C   0  0
    7.4877    3.1344    0.0000 C   0  0
    6.8938    3.7088    0.0000 O   0  0
    8.2808    3.3619    0.0000 N   0  0
    8.8735    2.7915    0.0000 C   0  0
    9.6665    3.0190    0.0000 N   0  0
    8.6744    1.9896    0.0000 N   0  0
    7.8814    1.7621    0.0000 C   0  0
   11.9281   -4.3659    0.0000 O   0  0
   11.6371   -3.5883    0.0000 C   0  0
   12.1143   -2.9163    0.0000 C   0  0  2  0  0  0
   11.8465   -2.1360    0.0000 C   0  0  1  0  0  0
   11.0535   -1.8910    0.0000 O   0  0
   12.5012   -1.6394    0.0000 C   0  0
   13.1784   -2.1133    0.0000 C   0  0  1  0  0  0
   12.9347   -2.9021    0.0000 O   0  0
   13.8892   -1.6975    0.0000 N   0  0
   13.8865   -0.8692    0.0000 C   0  0
   13.1649   -0.4625    0.0000 O   0  0
   14.5981   -0.4519    0.0000 N   0  0
   15.3161   -0.8607    0.0000 C   0  0
   16.0278   -0.4433    0.0000 O   0  0
   15.3203   -1.6833    0.0000 C   0  0
   16.0383   -2.0921    0.0000 C   0  0
   14.6087   -2.1006    0.0000 C   0  0
   13.2338   -6.6584    0.0000 O   0  0
   14.0542   -6.5726    0.0000 C   0  0
   14.3962   -5.8227    0.0000 C   0  0  2  0  0  0
   13.9861   -5.1069    0.0000 C   0  0  1  0  0  0
   13.1573   -5.0952    0.0000 O   0  0
   14.5354   -4.4958    0.0000 C   0  0
   15.2899   -4.8348    0.0000 C   0  0  1  0  0  0
   15.1992   -5.6541    0.0000 O   0  0
   16.0041   -4.4244    0.0000 N   0  0
   16.0083   -3.5961    0.0000 C   0  0
   15.2902   -3.1834    0.0000 O   0  0
   16.7234   -3.1848    0.0000 N   0  0
   17.4379   -3.5996    0.0000 C   0  0
   18.1531   -3.1882    0.0000 O   0  0
   17.4352   -4.4222    0.0000 C   0  0
   16.7201   -4.8336    0.0000 C   0  0
   10.4379   -8.1160    0.0000 C   0  0
   11.0949   -8.6105    0.0000 C   0  0  2  0  0  0
   11.8835   -8.3739    0.0000 C   0  0  1  0  0  0
   12.1553   -7.5933    0.0000 O   0  0
   12.3554   -9.0477    0.0000 C   0  0
   11.8568   -9.7050    0.0000 C   0  0  1  0  0  0
   11.0807   -9.4370    0.0000 O   0  0
   12.0975  -10.4933    0.0000 N   0  0
   12.8781  -10.7651    0.0000 C   0  0
   12.8639  -11.5917    0.0000 N   0  0
   12.0715  -11.8328    0.0000 C   0  0
   11.7214  -12.5771    0.0000 C   0  0
   12.1936  -13.2551    0.0000 O   0  0
   10.8994  -12.6477    0.0000 N   0  0
   10.4275  -11.9740    0.0000 C   0  0
    9.6055  -12.0446    0.0000 N   0  0
   10.7772  -11.2254    0.0000 N   0  0
   11.5992  -11.1548    0.0000 C   0  0
    9.6798   -8.4387    0.0000 O   0  0
    7.3894   -8.6381    0.0000 C   0  0
    7.4273   -9.4595    0.0000 C   0  0  2  0  0  0
    8.1124   -9.9163    0.0000 C   0  0  1  0  0  0
    8.8859   -9.6282    0.0000 O   0  0
    7.8941  -10.7094    0.0000 C   0  0
    7.0697  -10.7443    0.0000 C   0  0  1  0  0  0
    6.7815   -9.9756    0.0000 O   0  0
    6.6159  -11.4324    0.0000 N   0  0
    6.9041  -12.2070    0.0000 C   0  0
    6.2582  -12.7230    0.0000 N   0  0
    5.5673  -12.2662    0.0000 C   0  0
    4.7706  -12.4710    0.0000 C   0  0
    4.5494  -13.2671    0.0000 O   0  0
    4.1922  -11.8828    0.0000 N   0  0
    4.4105  -11.0897    0.0000 C   0  0
    3.8321  -10.5014    0.0000 N   0  0
    5.2101  -10.8819    0.0000 N   0  0
    5.7885  -11.4702    0.0000 C   0  0
    8.9378   -8.8048    0.0000 P   0  0
    6.6568   -8.2587    0.0000 O   0  0
    8.1077   -8.8120    0.0000 O   0  0
    8.5167   -8.0955    0.0000 N   0  0
   12.9657   -7.4387    0.0000 P   0  0
   13.1750   -8.2334    0.0000 N   0  0
   13.7875   -7.4375    0.0000 O   0  0
   12.7547   -4.3751    0.0000 P   0  0
   13.4667   -3.9584    0.0000 O   0  0
   12.7500   -3.5500    0.0000 N   0  0
   10.3204   -2.2695    0.0000 P   0  0
    9.9000   -2.9792    0.0000 N   0  0
   10.7250   -2.9792    0.0000 O   0  0
    5.9976   -0.2180    0.0000 P   0  0
    5.4083    0.3708    0.0000 N   0  0
    6.4042    0.5000    0.0000 O   0  0
    6.0523   -8.8201    0.0000 C   0  0
    5.2638   -8.5773    0.0000 C   0  0
    6.2362   -9.6244    0.0000 O   0  0
    4.6593   -9.1387    0.0000 C   0  0
    3.8708   -8.8959    0.0000 C   0  0
    3.6869   -8.0917    0.0000 C   0  0
    4.2912   -7.5309    0.0000 C   0  0  2  0  0  0
    5.0595   -7.8210    0.0000 S   0  0
    5.5767   -7.1782    0.0000 C   0  0
    4.3290   -6.7038    0.0000 C   0  0  2  0  0  0
    5.1204   -6.4867    0.0000 C   0  0  1  0  0  0
    5.1586   -5.6669    0.0000 N   0  0
    4.3907   -5.3773    0.0000 C   0  0
    3.8781   -6.0181    0.0000 N   0  0
    3.5464   -6.9773    0.0000 H   0  0
    5.8934   -6.2081    0.0000 H   0  0
    4.1725   -4.5817    0.0000 O   0  0
    4.4340   -2.8905    0.0000 P   0  0
    5.2583   -2.8875    0.0000 N   0  0
    4.6458   -3.6834    0.0000 O   0  0
    4.8734  -16.5450    0.0000 O   0  0
    4.8925  -17.3696    0.0000 C   0  0
    4.9654  -18.1898    0.0000 C   0  0  2  0  0  0
    5.6770  -18.6072    0.0000 C   0  0
    5.5043  -19.4086    0.0000 C   0  0
    4.6809  -19.4898    0.0000 C   0  0  1  0  0  0
    4.3523  -18.7350    0.0000 O   0  0
    4.2635  -20.2014    0.0000 N   0  0
    4.6701  -20.9230    0.0000 C   0  0
    5.4984  -20.9259    0.0000 O   0  0
    4.2526  -21.6346    0.0000 N   0  0
    3.4264  -21.6281    0.0000 C   0  0
    3.0089  -22.3397    0.0000 O   0  0
    3.0213  -20.9122    0.0000 C   0  0
    3.4388  -20.2006    0.0000 C   0  0
    1.8998  -15.7915    0.0000 C   0  0
    2.4041  -16.4410    0.0000 C   0  0  2  0  0  0
    3.2272  -16.4195    0.0000 C   0  0  1  0  0  0
    3.6942  -15.7376    0.0000 O   0  0
    3.5058  -17.1935    0.0000 C   0  0
    2.8522  -17.6971    0.0000 C   0  0  1  0  0  0
    2.1736  -17.2349    0.0000 O   0  0
    2.8778  -18.5209    0.0000 N   0  0
    3.5597  -18.9879    0.0000 C   0  0
    3.3293  -19.7818    0.0000 N   0  0
    2.5014  -19.8066    0.0000 C   0  0
    1.9683  -20.4331    0.0000 C   0  0
    2.2462  -21.2112    0.0000 O   0  0
    1.1566  -20.2857    0.0000 N   0  0
    0.8779  -19.5117    0.0000 C   0  0
    0.0662  -19.3643    0.0000 N   0  0
    1.4117  -18.8811    0.0000 N   0  0
    2.2234  -19.0286    0.0000 C   0  0
    4.5167  -15.8009    0.0000 P   0  0
    4.5725  -14.9699    0.0000 O   0  0
    5.2550  -15.4334    0.0000 N   0  0
    2.2111  -15.0275    0.0000 O   0  0
    0.1148  -12.8404    0.0000 O   0  0
   -0.4901  -13.4035    0.0000 C   0  0
   -0.2957  -14.1754    0.0000 C   0  0  2  0  0  0
    0.4804  -14.4504    0.0000 C   0  0  1  0  0  0
    1.1947  -14.0245    0.0000 O   0  0
    0.4631  -15.2729    0.0000 C   0  0
   -0.3276  -15.5087    0.0000 C   0  0  1  0  0  0
   -0.7954  -14.8340    0.0000 O   0  0
   -0.5990  -16.2869    0.0000 N   0  0
   -0.1298  -16.9673    0.0000 C   0  0
   -0.6295  -17.6259    0.0000 N   0  0
   -1.4113  -17.3523    0.0000 C   0  0
   -2.1335  -17.7461    0.0000 C   0  0
   -2.1530  -18.5721    0.0000 O   0  0
   -2.8384  -17.3175    0.0000 N   0  0
   -2.8212  -16.4951    0.0000 C   0  0
   -3.5261  -16.0665    0.0000 N   0  0
   -2.0968  -16.0977    0.0000 N   0  0
   -1.3919  -16.5263    0.0000 C   0  0
   -1.0160   -9.9904    0.0000 O   0  0
   -1.7356  -10.3935    0.0000 C   0  0
   -1.7534  -11.2175    0.0000 C   0  0  2  0  0  0
   -1.0937  -11.7129    0.0000 C   0  0  1  0  0  0
   -0.3007  -11.4710    0.0000 O   0  0
   -1.3568  -12.4914    0.0000 C   0  0
   -2.1833  -12.4769    0.0000 C   0  0  1  0  0  0
   -2.4244  -11.6897    0.0000 O   0  0
   -2.6787  -13.1366    0.0000 N   0  0
   -2.3565  -13.8996    0.0000 C   0  0
   -1.5339  -13.9963    0.0000 O   0  0
   -2.8519  -14.5593    0.0000 N   0  0
   -3.6721  -14.4593    0.0000 C   0  0
   -4.1675  -15.1190    0.0000 O   0  0
   -3.9934  -13.7021    0.0000 C   0  0
   -4.8136  -13.6021    0.0000 C   0  0
   -3.4980  -13.0424    0.0000 C   0  0
   -1.0071   -9.1699    0.0000 P   0  0
   -0.1833   -9.1667    0.0000 O   0  0
    0.3023  -12.0341    0.0000 P   0  0
    0.8833  -11.4459    0.0000 N   0  0
    1.0125  -12.4459    0.0000 O   0  0
    1.9933  -14.2316    0.0000 P   0  0
    2.0463  -13.4011    0.0000 O   0  0
    2.7302  -13.8624    0.0000 N   0  0
    0.3008   -6.2442    0.0000 O   0  0
   -0.4983   -6.0331    0.0000 C   0  0
   -1.0472   -6.6454    0.0000 C   0  0  2  0  0  0
   -0.8789   -7.4514    0.0000 C   0  0  1  0  0  0
   -0.1245   -7.7890    0.0000 O   0  0
   -1.5906   -7.8639    0.0000 C   0  0
   -2.2029   -7.3108    0.0000 C   0  0  1  0  0  0
   -1.8695   -6.5606    0.0000 O   0  0
   -3.0089   -7.4832    0.0000 N   0  0
   -3.3465   -8.2377    0.0000 C   0  0
   -4.1688   -8.1528    0.0000 N   0  0
   -4.3412   -7.3426    0.0000 C   0  0
   -5.0529   -6.9301    0.0000 C   0  0
   -5.7688   -7.3426    0.0000 O   0  0
   -5.0529   -6.1051    0.0000 N   0  0
   -4.3412   -5.6926    0.0000 C   0  0
   -4.3412   -4.8676    0.0000 N   0  0
   -3.6254   -6.1051    0.0000 N   0  0
   -3.6254   -6.9301    0.0000 C   0  0
    0.9915   -4.9939    0.0000 O   0  0
    1.0080   -5.8188    0.0000 P   0  0
    1.8292   -5.8167    0.0000 N   0  0
    1.4125   -6.5292    0.0000 O   0  0
   -1.5958   -8.5792    0.0000 N   0  0
    0.0167   -3.6959    0.0000 C   0  0  2  0  0  0
   -0.8575   -1.0106    0.0000 C   0  0
    6.2322  -19.7970    0.0000 N   0  0
    6.2545  -20.6214    0.0000 C   0  0
    6.9782  -21.0099    0.0000 C   0  0
    7.6810  -20.5771    0.0000 N   0  0
    7.6554  -19.7516    0.0000 C   0  0
    6.9270  -19.3587    0.0000 C   0  0
   13.9649  -16.9671    0.0000 O   0  0
   14.7823  -16.8456    0.0000 C   0  0
   15.0450  -16.0664    0.0000 C   0  0  2  0  0  0
   14.5723  -15.3922    0.0000 C   0  0  1  0  0  0
   13.7459  -15.3798    0.0000 O   0  0
   15.0634  -14.7323    0.0000 C   0  0
   15.8442  -14.9988    0.0000 C   0  0  1  0  0  0
   15.8340  -15.8197    0.0000 O   0  0
   16.5168  -14.5222    0.0000 N   0  0
   16.5291  -13.6958    0.0000 C   0  0
   17.3182  -13.4491    0.0000 N   0  0
   17.7964  -14.1255    0.0000 C   0  0
   18.6131  -14.2236    0.0000 C   0  0
   19.1080  -13.5620    0.0000 O   0  0
   18.9387  -14.9816    0.0000 N   0  0
   18.4477  -15.6415    0.0000 C   0  0
   18.7733  -16.3995    0.0000 N   0  0
   17.6271  -15.5451    0.0000 N   0  0
   17.3015  -14.7871    0.0000 C   0  0
   10.9553  -17.2655    0.0000 O   0  0
   11.1037  -18.0786    0.0000 C   0  0
   11.8912  -18.3154    0.0000 C   0  0  2  0  0  0
   12.5494  -17.8207    0.0000 C   0  0  1  0  0  0
   12.5345  -16.9943    0.0000 O   0  0
   13.2251  -18.2898    0.0000 C   0  0
   12.9845  -19.0790    0.0000 C   0  0  1  0  0  0
   12.1637  -19.0959    0.0000 O   0  0
   13.4830  -19.7355    0.0000 N   0  0
   14.3094  -19.7206    0.0000 C   0  0
   14.5819  -20.5011    0.0000 N   0  0
   13.9217  -21.0013    0.0000 C   0  0
   13.8505  -21.8208    0.0000 C   0  0
   14.5281  -22.2937    0.0000 O   0  0
   13.1037  -22.1713    0.0000 N   0  0
   12.4279  -21.7022    0.0000 C   0  0
   11.6811  -22.0526    0.0000 N   0  0
   12.4973  -20.8789    0.0000 N   0  0
   13.2441  -20.5284    0.0000 C   0  0
    7.9162  -16.8792    0.0000 O   0  0
    7.9213  -17.7040    0.0000 C   0  0
    8.6341  -18.1178    0.0000 C   0  0  2  0  0  0
    9.3866  -17.7797    0.0000 C   0  0  1  0  0  0
    9.5581  -16.9685    0.0000 O   0  0
    9.9410  -18.3862    0.0000 C   0  0
    9.5289  -19.1028    0.0000 C   0  0  1  0  0  0
    8.7233  -18.9334    0.0000 O   0  0
    9.8671  -19.8553    0.0000 N   0  0
   10.6908  -19.9420    0.0000 C   0  0
   11.1730  -19.2685    0.0000 O   0  0
   11.0290  -20.6945    0.0000 N   0  0
   10.5451  -21.3642    0.0000 C   0  0
   10.8832  -22.1167    0.0000 O   0  0
    9.7268  -21.2796    0.0000 C   0  0
    9.2429  -21.9493    0.0000 C   0  0
    9.3887  -20.5271    0.0000 C   0  0
    6.5166  -16.6064    0.0000 O   0  0
    7.2965  -16.3373    0.0000 P   0  0
    6.8792  -15.6167    0.0000 O   0  0
    7.7042  -15.6167    0.0000 N   0  0
   10.3425  -16.7127    0.0000 P   0  0
    9.9250  -15.9959    0.0000 N   0  0
   10.7500  -15.9959    0.0000 O   0  0
   13.2415  -16.5691    0.0000 P   0  0
   12.8208  -15.8500    0.0000 N   0  0
   13.6458  -15.8500    0.0000 O   0  0
   18.1487   -4.8364    0.0000 C   0  0
  1  2  1  0
 70 71  1  0
 72 71  1  6
 72 73  1  0
 73 74  1  1
 75 76  1  0
 76 77  1  0
 72 77  1  0
 76 78  1  6
 78 79  1  0
 79 80  2  0
 79 81  1  0
 81 82  1  0
 82 83  2  0
159160  1  0
161160  1  6
161162  1  0
163164  1  0
164165  1  0
161165  1  0
164166  1  6
166167  1  0
167168  2  0
167169  1  0
169170  1  0
170171  2  0
170172  1  0
172173  2  0
166173  1  0
 82 84  1  0
 84 85  2  0
 78 85  1  0
  3  2  1  6
 15 16  1  0
 17 16  1  6
 17 18  1  0
 34 35  1  0
 36 35  1  6
 36 37  1  0
 37 38  1  0
 38 39  1  1
 38 40  1  0
 40 41  1  0
 36 41  1  0
 40 42  1  6
 42 43  1  0
 43 44  2  0
175174  1  6
175176  1  0
176177  1  1
176178  1  0
178179  1  0
179180  1  0
175180  1  0
179181  1  6
181182  1  0
182183  2  0
183184  1  0
184185  1  0
185186  2  0
185187  1  0
187188  1  0
188189  1  0
188190  2  0
190191  1  0
184191  2  0
181191  1  0
 44 45  1  0
177192  1  0
192159  1  0
 45 46  1  0
192193  2  0
 46 47  2  0
192194  1  0
 87 86  1  6
174195  1  0
 87 88  1  0
 88 89  1  1
 88 90  1  0
 90 91  1  0
 91 92  1  0
 87 92  1  0
 91 93  1  6
 93 94  1  0
 94 95  2  0
 95 96  1  0
 96 97  1  0
 97 98  2  0
 97 99  1  0
 99100  1  0
100101  1  0
100102  2  0
102103  1  0
 96103  2  0
 93103  1  0
196197  1  0
198197  1  6
198199  1  0
199200  1  1
199201  1  0
201202  1  0
202203  1  0
198203  1  0
202204  1  6
204205  1  0
205206  2  0
206207  1  0
207208  1  0
208209  2  0
208210  1  0
210211  1  0
211212  1  0
211213  2  0
213214  1  0
207214  2  0
204214  1  0
 46 48  1  0
 86104  1  0
 48 49  1  0
 49 50  1  0
 49 51  2  0
 51 52  1  0
 45 52  2  0
 42 52  1  0
 18 19  1  1
 18 20  1  0
 20 21  1  0
 21 22  1  0
 17 22  1  0
 21 23  1  6
 23 24  1  0
 24 25  2  0
 25 26  1  0
215216  1  0
217216  1  6
217218  1  0
218219  1  1
218220  1  0
220221  1  0
221222  1  0
217222  1  0
221223  1  6
223224  1  0
224225  2  0
224226  1  0
226227  1  0
227228  2  0
227229  1  0
229230  1  0
229231  2  0
223231  1  0
 26 27  1  0
 27 28  2  0
232233  2  0
232215  1  0
 27 29  1  0
219234  1  0
234196  1  0
106105  1  6
234235  1  0
106107  1  0
234236  2  0
107108  1  1
200237  1  0
237195  1  0
107109  1  0
237238  2  0
109110  1  0
237239  1  0
110111  1  0
106111  1  0
110112  1  6
112113  1  0
113114  2  0
114115  1  0
115116  1  0
116117  2  0
116118  1  0
118119  1  0
119120  1  0
119121  2  0
121122  1  0
115122  2  0
112122  1  0
 29 30  1  0
108123  1  0
123104  1  0
 30 31  1  0
240241  1  0
242241  1  6
242243  1  0
243244  1  1
243245  1  0
245246  1  0
246247  1  0
242247  1  0
246248  1  6
248249  1  0
249250  2  0
250251  1  0
251252  1  0
252253  2  0
252254  1  0
254255  1  0
255256  1  0
255257  2  0
257258  1  0
251258  2  0
248258  1  0
105124  1  0
 30 32  2  0
259260  1  0
260240  1  0
123125  2  0
260261  1  0
 32 33  1  0
260262  2  0
232244  1  0
123126  1  0
232263  1  0
264259  1  1
 26 33  2  0
  4264  1  0
 89127  1  0
 14265  1  0
127 70  1  0
163266  1  0
266267  1  0
 53 54  1  0
127128  1  0
 55 54  1  6
127129  2  0
 55 56  1  0
266271  1  0
267268  1  0
268269  1  0
269270  1  0
270271  1  0
 74130  1  0
130 53  1  0
 56 57  1  1
130131  2  0
 56 58  1  0
130132  1  0
 58 59  1  0
 57133  1  0
133 34  1  0
 59 60  1  0
133134  1  0
 55 60  1  0
133135  2  0
 59 61  1  6
 39136  1  0
136 15  1  0
 61 62  1  0
136137  1  0
 62 63  2  0
272273  1  0
274273  1  6
274275  1  0
275276  1  1
275277  1  0
277278  1  0
278279  1  0
274279  1  0
278280  1  6
280281  1  0
281282  2  0
282283  1  0
283284  1  0
284285  2  0
284286  1  0
286287  1  0
287288  1  0
287289  2  0
289290  1  0
283290  2  0
280290  1  0
136138  2  0
 62 64  1  0
124139  1  0
 64 65  1  0
139140  1  0
 65 66  2  0
139141  2  0
 65 67  1  0
140142  1  0
 67 68  1  0
142143  1  0
 67 69  2  0
143144  1  0
 61 69  1  0
145144  1  1
145146  1  0
 23 33  1  0
  3264  1  0
146147  1  0
291292  1  0
293292  1  6
293294  1  0
294295  1  1
294296  1  0
296297  1  0
297298  1  0
293298  1  0
297299  1  6
299300  1  0
300301  2  0
301302  1  0
302303  1  0
303304  2  0
303305  1  0
305306  1  0
306307  1  0
306308  2  0
308309  1  0
302309  2  0
299309  1  0
147149  1  0
148145  1  0
148149  1  0
  4  5  1  0
  5  6  1  0
  3  6  1  0
  5  7  1  6
  7  8  1  0
149150  1  0
150151  1  0
151152  1  0
152148  1  0
  8  9  2  0
148153  1  6
  8 10  1  0
149154  1  6
 10 11  1  0
310311  1  0
312311  1  6
312313  1  0
313314  1  1
313315  1  0
315316  1  0
316317  1  0
312317  1  0
316318  1  6
318319  1  0
319320  2  0
319321  1  0
321322  1  0
322323  2  0
322324  1  0
324325  1  0
324326  2  0
318326  1  0
151155  2  0
 11 12  2  0
327328  1  0
328310  1  0
 19156  1  0
328329  2  0
 11 13  1  0
328330  1  0
156157  1  0
314331  1  0
331291  1  0
 13 14  2  0
331332  1  0
156158  2  0
331333  2  0
  1156  1  0
295334  1  0
334272  1  0
 73 75  1  0
334335  1  0
  7 14  1  0
334336  2  0
162327  1  0
 84337  1  0
M  END