
          11280715162D 1   1.00000     0.00000     0

 48 52  0     0  0            999 V2000
    8.0417   -6.9500    0.0000 C   0  0  0  0  0  0           0  0  0
    1.7917   -5.1000    0.0000 N   0  0  3  0  0  0           0  0  0
    8.5625   -6.6417    0.0000 N   0  0  0  0  0  0           0  0  0
    1.2875   -4.7917    0.0000 C   0  0  0  0  0  0           0  0  0
    2.8250   -5.7292    0.0000 N   0  0  3  0  0  0           0  0  0
    9.0875   -6.9292    0.0000 C   0  0  0  0  0  0           0  0  0
    7.5167   -6.6542    0.0000 C   0  0  0  0  0  0           0  0  0
    5.9417   -5.7917    0.0000 O   0  0  0  0  0  0           0  0  0
   11.6667   -5.9792    0.0000 C   0  0  0  0  0  0           0  0  0
    8.0542   -7.5500    0.0000 O   0  0  0  0  0  0           0  0  0
    2.3167   -4.8125    0.0000 C   0  0  0  0  0  0           0  0  0
    1.7792   -5.7042    0.0000 C   0  0  0  0  0  0           0  0  0
    5.4167   -6.0792    0.0000 C   0  0  3  0  0  0           0  0  0
    1.3000   -4.1917    0.0000 C   0  0  0  0  0  0           0  0  0
    9.6042   -6.6167    0.0000 C   0  0  0  0  0  0           0  0  0
   11.6792   -6.5792    0.0000 O   0  0  0  0  0  0           0  0  0
    7.0042   -6.9667    0.0000 C   0  0  0  0  0  0           0  0  0
    7.5042   -6.0542    0.0000 C   0  0  0  0  0  0           0  0  0
    5.4042   -6.6792    0.0000 C   0  0  0  0  0  0           0  0  0
    2.3000   -6.0167    0.0000 C   0  0  0  0  0  0           0  0  0
    2.8375   -5.1250    0.0000 C   0  0  0  0  0  0           0  0  0
    6.4667   -6.0792    0.0000 C   0  0  0  0  0  0           0  0  0
   12.1792   -5.6667    0.0000 O   0  0  0  0  0  0           0  0  0
    6.4792   -6.6792    0.0000 C   0  0  0  0  0  0           0  0  0
    6.9792   -5.7667    0.0000 C   0  0  0  0  0  0           0  0  0
    1.8292   -3.9042    0.0000 O   0  0  0  0  0  0           0  0  0
    9.5875   -6.0167    0.0000 O   0  0  0  0  0  0           0  0  0
    3.3375   -6.0417    0.0000 C   0  0  0  0  0  0           0  0  0
    0.7625   -5.0792    0.0000 C   0  0  0  0  0  0           0  0  0
    9.0917   -7.5292    0.0000 C   0  0  0  0  0  0           0  0  0
   11.1417   -5.6917    0.0000 C   0  0  0  0  0  0           0  0  0
    4.9042   -5.7750    0.0000 C   0  0  0  0  0  0           0  0  0
    0.7917   -3.8792    0.0000 C   0  0  0  0  0  0           0  0  0
   10.1292   -6.9125    0.0000 C   0  0  0  0  0  0           0  0  0
    4.8750   -6.9667    0.0000 C   0  0  0  0  0  0           0  0  0
    5.9167   -6.9875    0.0000 C   0  0  0  0  0  0           0  0  0
   10.1042   -5.7125    0.0000 C   0  0  0  0  0  0           0  0  0
    1.8417   -3.3042    0.0000 C   0  0  0  0  0  0           0  0  0
    3.8625   -5.7500    0.0000 C   0  0  0  0  0  0           0  0  0
   10.6292   -6.0000    0.0000 C   0  0  0  0  0  0           0  0  0
    4.3750   -6.0625    0.0000 C   0  0  0  0  0  0           0  0  0
    0.2500   -4.7667    0.0000 C   0  0  0  0  0  0           0  0  0
    9.6167   -7.8250    0.0000 C   0  0  0  0  0  0           0  0  0
    0.2625   -4.1667    0.0000 C   0  0  0  0  0  0           0  0  0
    4.8625   -7.5667    0.0000 C   0  0  0  0  0  0           0  0  0
    5.9042   -7.5875    0.0000 C   0  0  0  0  0  0           0  0  0
   10.1417   -7.5167    0.0000 C   0  0  0  0  0  0           0  0  0
    5.3750   -7.8792    0.0000 C   0  0  0  0  0  0           0  0  0
  2 11  1  0     0  0
  3  1  1  0     0  0
  4  2  1  0     0  0
  5 28  1  0     0  0
  6  3  1  0     0  0
  7  1  1  0     0  0
  8 22  1  0     0  0
  9 31  1  0     0  0
 10  1  2  0     0  0
 11 21  1  0     0  0
 12 20  1  0     0  0
 13  8  1  0     0  0
 14  4  2  0     0  0
 15  6  2  0     0  0
 16  9  2  0     0  0
 17  7  1  0     0  0
 18  7  2  0     0  0
 19 13  1  0     0  0
 20  5  1  0     0  0
 21  5  1  0     0  0
 22 25  2  0     0  0
 23  9  1  0     0  0
 24 17  2  0     0  0
 25 18  1  0     0  0
 26 14  1  0     0  0
 27 15  1  0     0  0
 28 39  1  0     0  0
 29  4  1  0     0  0
 30  6  1  0     0  0
 31 40  1  0     0  0
 32 13  1  0     0  0
 33 14  1  0     0  0
 34 15  1  0     0  0
 35 19  2  0     0  0
 36 19  1  0     0  0
 37 27  1  0     0  0
 38 26  1  0     0  0
 39 41  1  0     0  0
 40 37  1  0     0  0
 41 32  1  0     0  0
 42 29  2  0     0  0
 43 30  2  0     0  0
 44 42  1  0     0  0
 45 35  1  0     0  0
 46 36  2  0     0  0
 47 43  1  0     0  0
 48 46  1  0     0  0
 24 22  1  0     0  0
 34 47  2  0     0  0
 48 45  2  0     0  0
  2 12  1  0     0  0
 33 44  2  0     0  0
M  END