
  CDK    5/12/10,14:52

 18 20  0  0  0  0  0  0  0  0999 V2000
    5.6087  -23.4439    0.0000 C   0  0  0  0  0  0  0  0  0  0  0  0
    5.6075  -24.2710    0.0000 N   0  0  0  0  0  0  0  0  0  0  0  0
    6.3220  -24.6837    0.0000 C   0  0  0  0  0  0  0  0  0  0  0  0
    6.3202  -23.0314    0.0000 C   0  0  0  0  0  0  0  0  0  0  0  0
    7.8262  -23.1818    0.0000 S   0  0  0  0  0  0  0  0  0  0  0  0
    7.0352  -23.4403    0.0000 C   0  0  0  0  0  0  0  0  0  0  0  0
    7.0378  -24.2731    0.0000 C   0  0  0  0  0  0  0  0  0  0  0  0
    7.8313  -24.5266    0.0000 N   0  0  0  0  0  0  0  0  0  0  0  0
    8.3164  -23.8497    0.0000 C   0  0  0  0  0  0  0  0  0  0  0  0
    9.1410  -23.8450    0.0000 N   0  0  0  0  0  0  0  0  0  0  0  0
    9.5547  -24.5633    0.0000 C   0  0  0  0  0  0  0  0  0  0  0  0
   10.3757  -24.5606    0.0000 C   0  0  0  0  0  0  0  0  0  0  0  0
   10.3727  -23.1324    0.0000 C   0  0  0  0  0  0  0  0  0  0  0  0
    9.5454  -23.1334    0.0000 C   0  0  0  0  0  0  0  0  0  0  0  0
   12.0234  -23.1295    0.0000 C   0  0  0  0  0  0  0  0  0  0  0  0
   12.8480  -23.1279    0.0000 C   0  0  0  0  0  0  0  0  0  0  0  0
   10.7878  -23.8459    0.0000 N   0  0  0  0  0  0  0  0  0  0  0  0
   11.6125  -23.8443    0.0000 C   0  0  0  0  0  0  0  0  0  0  0  0
  9  5  1  0  0  0  0 
  4  1  1  0  0  0  0 
  9 10  1  0  0  0  0 
 10 11  1  0  0  0  0 
  6  7  1  0  0  0  0 
  2  3  1  0  0  0  0 
  3  7  2  0  0  0  0 
  1  2  2  0  0  0  0 
 10 14  1  0  0  0  0 
 11 12  1  0  0  0  0 
 12 17  1  0  0  0  0 
 17 13  1  0  0  0  0 
 13 14  1  0  0  0  0 
  6  4  2  0  0  0  0 
 17 18  1  0  0  0  0 
  5  6  1  0  0  0  0 
 18 15  1  0  0  0  0 
  7  8  1  0  0  0  0 
 15 16  1  0  0  0  0 
  8  9  2  0  0  0  0 
M  END