
  SciTegic01161211242D

 53 59  0  0  0  0            999 V2000
    2.0865  -28.2732    0.0000 C   0  0
    2.8012  -27.8612    0.0000 C   0  0
    2.7993  -27.0404    0.0000 C   0  0
    1.3699  -27.8645    0.0000 C   0  0
    1.3752  -27.0396    0.0000 C   0  0
    2.0891  -26.6298    0.0000 C   0  0
    2.0902  -25.8085    0.0000 N   0  0
    0.6659  -26.6308    0.0000 C   0  0
    0.6634  -25.8108    0.0000 C   0  0
    1.3794  -25.3989    0.0000 C   0  0
    1.3797  -24.5748    0.0000 C   0  0
    0.6647  -24.1617    0.0000 C   0  0
   -0.0520  -24.5786    0.0000 C   0  0
   -0.0487  -25.4013    0.0000 C   0  0
   -0.0478  -27.0446    0.0000 N   0  0
   -6.8952  -24.5255    0.0000 C   0  0
   -6.0628  -24.5245    0.0000 C   0  0
   -5.8057  -25.3091    0.0000 C   0  0
   -6.4833  -25.7958    0.0000 N   0  0
   -7.1433  -25.3091    0.0000 N   0  0
   -5.6474  -23.8152    0.0000 C   0  0
   -4.8213  -23.8225    0.0000 C   0  0
   -4.4038  -23.1118    0.0000 C   0  0
   -4.8113  -22.3934    0.0000 C   0  0
   -5.6405  -22.3902    0.0000 C   0  0
   -6.0624  -23.1014    0.0000 C   0  0
   -7.2873  -23.8044    0.0000 C   0  0
   -6.8472  -23.1020    0.0000 C   0  0
   -7.2396  -22.3763    0.0000 C   0  0
   -8.0641  -22.3519    0.0000 C   0  0
   -8.4977  -23.0591    0.0000 C   0  0
   -8.1077  -23.7818    0.0000 C   0  0
   -8.4549  -21.6262    0.0000 Cl  0  0
   -6.4820  -26.6208    0.0000 C   0  0
   -7.1919  -27.0322    0.0000 N   0  0
   -7.1990  -27.8572    0.0000 S   0  0
   -7.9089  -28.2687    0.0000 C   0  0
   -8.6226  -27.8526    0.0000 C   0  0
   -9.3413  -28.2633    0.0000 C   0  0
   -9.3396  -29.0892    0.0000 C   0  0
   -8.6168  -29.5026    0.0000 C   0  0
   -7.9118  -29.0895    0.0000 C   0  0
   -6.7875  -28.5667    0.0000 O   0  0
   -6.4833  -27.4375    0.0000 O   0  0
  -10.0500  -29.5016    0.0000 Cl  0  0
   -5.7624  -27.0344    0.0000 N   0  0
   -5.0473  -26.6230    0.0000 C   0  0
   -4.3335  -27.0366    0.0000 C   0  0
   -3.6184  -26.6252    0.0000 C   0  0
   -2.9046  -27.0388    0.0000 C   0  0
   -2.1895  -26.6274    0.0000 C   0  0
   -1.4756  -27.0409    0.0000 C   0  0
   -0.7605  -26.6295    0.0000 C   0  0
 25 26  2  0
 26 21  1  0
 17 21  1  0
  5  6  2  0
 12 13  1  0
 27 28  2  0
  1  4  1  0
 28 29  1  0
 13 14  2  0
 29 30  2  0
 14  9  1  0
 30 31  1  0
  6  7  1  0
 31 32  2  0
 32 27  1  0
 16 27  1  0
  8 15  1  0
 30 33  1  0
 16 17  1  0
 19 34  1  0
  7 10  2  0
 34 35  2  0
  2  3  1  0
 35 36  1  0
  9  8  2  0
 36 37  1  0
  8  5  1  0
 37 38  2  0
  3  6  1  0
 38 39  1  0
 17 18  1  0
 39 40  2  0
 18 19  1  0
 40 41  1  0
 19 20  1  0
 41 42  2  0
 42 37  1  0
 20 16  2  0
 36 43  2  0
  5  4  1  0
 36 44  2  0
  9 10  1  0
 40 45  1  0
 21 22  2  0
 34 46  1  0
 46 47  1  0
 22 23  1  0
 47 48  1  0
 10 11  1  0
 48 49  1  0
 23 24  2  0
 49 50  1  0
  1  2  1  0
 50 51  1  0
 24 25  1  0
 51 52  1  0
 11 12  2  0
 52 53  1  0
 53 15  1  0
M  END