
  CDK    9/16/09,9:50

 29 32  0  0  0  0  0  0  0  0999 V2000
    4.6537    1.3241    0.0000 C   0  0  0  0  0  0  0  0  0  0  0  0
    4.6525    0.4974    0.0000 C   0  0  0  0  0  0  0  0  0  0  0  0
    5.3669    0.0847    0.0000 C   0  0  0  0  0  0  0  0  0  0  0  0
    5.3651    1.7366    0.0000 C   0  0  0  0  0  0  0  0  0  0  0  0
    6.0799    1.3278    0.0000 C   0  0  0  0  0  0  0  0  0  0  0  0
    6.0787    0.4953    0.0000 C   0  0  0  0  0  0  0  0  0  0  0  0
    6.7951    0.0802    0.0000 C   0  0  0  0  0  0  0  0  0  0  0  0
    7.5173    0.4932    0.0000 N   0  0  0  0  0  0  0  0  0  0  0  0
    7.5185    1.3257    0.0000 C   0  0  0  0  0  0  0  0  0  0  0  0
    6.7975    1.7453    0.0000 C   0  0  0  0  0  0  0  0  0  0  0  0
    6.7928   -0.7442    0.0000 O   0  0  0  0  0  0  0  0  0  0  0  0
    6.7980    2.5726    0.0000 C   0  0  0  0  0  0  0  0  0  0  0  0
    7.5120    2.9848    0.0000 O   0  0  0  0  0  0  0  0  0  0  0  0
    6.0841    2.9848    0.0000 O   0  0  0  0  0  0  0  0  0  0  0  0
    8.2335    1.7362    0.0000 C   0  0  0  0  0  0  0  0  0  0  0  0
    8.9450    1.3179    0.0000 C   0  0  0  0  0  0  0  0  0  0  0  0
    9.6595    1.7276    0.0000 C   0  0  0  0  0  0  0  0  0  0  0  0
    9.6620    2.5529    0.0000 C   0  0  0  0  0  0  0  0  0  0  0  0
    8.9440    2.9667    0.0000 C   0  0  0  0  0  0  0  0  0  0  0  0
    8.2324    2.5546    0.0000 C   0  0  0  0  0  0  0  0  0  0  0  0
   10.3764    2.9643    0.0000 Cl  0  0  0  0  0  0  0  0  0  0  0  0
    8.2301    0.0789    0.0000 C   0  0  0  0  0  0  0  0  0  0  0  0
    8.2278   -0.7455    0.0000 C   0  0  0  0  0  0  0  0  0  0  0  0
    7.5104   -1.1536    0.0000 C   0  0  0  0  0  0  0  0  0  0  0  0
    7.5077   -1.9772    0.0000 C   0  0  0  0  0  0  0  0  0  0  0  0
    8.2211   -2.3923    0.0000 C   0  0  0  0  0  0  0  0  0  0  0  0
    8.9386   -1.9776    0.0000 C   0  0  0  0  0  0  0  0  0  0  0  0
    8.9377   -1.1554    0.0000 C   0  0  0  0  0  0  0  0  0  0  0  0
    8.2198   -3.2168    0.0000 Cl  0  0  0  0  0  0  0  0  0  0  0  0
 10 12  1  1  0  0  0 
  1  2  2  0  0  0  0 
  9 15  1  6  0  0  0 
  5  4  2  0  0  0  0 
 15 16  2  0  0  0  0 
  4  1  1  0  0  0  0 
 16 17  1  0  0  0  0 
  5 10  1  0  0  0  0 
 17 18  2  0  0  0  0 
  6  7  1  0  0  0  0 
 18 19  1  0  0  0  0 
  7  8  1  0  0  0  0 
 19 20  2  0  0  0  0 
 20 15  1  0  0  0  0 
  8  9  1  0  0  0  0 
 18 21  1  0  0  0  0 
  9 10  1  0  0  0  0 
  8 22  1  0  0  0  0 
  5  6  1  0  0  0  0 
 22 23  1  0  0  0  0 
  7 11  2  0  0  0  0 
 23 24  2  0  0  0  0 
 24 25  1  0  0  0  0 
  2  3  1  0  0  0  0 
 25 26  2  0  0  0  0 
  3  6  2  0  0  0  0 
 26 27  1  0  0  0  0 
 12 13  1  0  0  0  0 
 27 28  2  0  0  0  0 
 28 23  1  0  0  0  0 
 12 14  2  0  0  0  0 
 26 29  1  0  0  0  0 
M  END