
  SciTegic01161211252D

 26 27  0  0  0  0            999 V2000
   11.6775    2.1236    0.0000 C   0  0
   11.6745    1.2941    0.0000 C   0  0
   12.3853    0.8830    0.0000 N   0  0
   12.3867    2.5344    0.0000 O   0  0
   13.8277    3.3537    0.0000 C   0  0
   13.1109    3.7729    0.0000 C   0  0
   12.3873    3.3624    0.0000 C   0  0
   13.8207    2.5241    0.0000 C   0  0
   13.7926    0.0436    0.0000 C   0  0
   11.6748    3.7778    0.0000 O   0  0
   13.0891    1.2885    0.0000 C   0  0
   13.8047    0.8668    0.0000 C   0  0  1  0  0  0
   14.5291    1.2801    0.0000 C   0  0
   14.5329    2.1076    0.0000 C   0  0
   13.0932    2.1132    0.0000 O   0  0
   14.5008   -0.3793    0.0000 C   0  0
   14.4887   -1.2039    0.0000 N   0  0
   15.2209    0.0226    0.0000 O   0  0
   15.1967   -1.6267    0.0000 C   0  0
   15.1846   -2.4513    0.0000 C   0  0
   14.4630   -2.8484    0.0000 C   0  0
   14.4506   -3.6722    0.0000 C   0  0
   15.1593   -4.0959    0.0000 C   0  0
   15.8818   -3.6896    0.0000 C   0  0
   15.8907   -2.8671    0.0000 C   0  0
   15.1482   -4.9205    0.0000 Cl  0  0
  8  5  1  0
 13 14  1  0
 14  8  2  0
  5  6  1  0
 11 15  2  0
  6  7  1  0
  9 16  1  0
  3 11  1  0
 16 17  1  0
 16 18  2  0
 12  9  1  1
 17 19  1  0
  1  2  1  0
 19 20  1  0
  7 10  2  0
 20 21  2  0
  1  4  1  0
 21 22  1  0
  2  3  1  0
 22 23  2  0
 11 12  1  0
 23 24  1  0
  4  7  1  0
 24 25  2  0
 25 20  1  0
 12 13  1  0
 23 26  1  0
M  END