
  Mrv0541 04051115152D          

 18 20  0  0  0  0            999 V2000
    1.9860   -1.3521    0.0000 N   0  0  0  0  0  0  0  0  0  0  0  0
    1.9860   -0.5271    0.0000 C   0  0  0  0  0  0  0  0  0  0  0  0
    1.2716   -0.1146    0.0000 N   0  0  0  0  0  0  0  0  0  0  0  0
    0.5571   -0.5271    0.0000 C   0  0  0  0  0  0  0  0  0  0  0  0
   -0.2275   -0.2721    0.0000 N   0  0  0  0  0  0  0  0  0  0  0  0
   -0.7124   -0.9396    0.0000 C   0  0  0  0  0  0  0  0  0  0  0  0
   -0.2275   -1.6070    0.0000 N   0  0  0  0  0  0  0  0  0  0  0  0
    0.5571   -1.3521    0.0000 C   0  0  0  0  0  0  0  0  0  0  0  0
    1.2716   -1.7646    0.0000 C   0  0  0  0  0  0  0  0  0  0  0  0
    1.2716   -2.5896    0.0000 N   0  0  0  0  0  0  0  0  0  0  0  0
   -0.4825    0.5125    0.0000 C   0  0  1  0  0  0  0  0  0  0  0  0
   -1.2671    0.7674    0.0000 C   0  0  1  0  0  0  0  0  0  0  0  0
   -1.2671    1.5924    0.0000 C   0  0  1  0  0  0  0  0  0  0  0  0
   -0.4825    1.8474    0.0000 C   0  0  1  0  0  0  0  0  0  0  0  0
   -0.2275    2.6320    0.0000 C   0  0  0  0  0  0  0  0  0  0  0  0
    0.0025    1.1799    0.0000 O   0  0  0  0  0  0  0  0  0  0  0  0
   -1.9345    0.2825    0.0000 O   0  0  0  0  0  0  0  0  0  0  0  0
   -1.9345    2.0773    0.0000 O   0  0  0  0  0  0  0  0  0  0  0  0
  2  1  2  0  0  0  0
  9  1  1  0  0  0  0
  2  3  1  0  0  0  0
  4  3  2  0  0  0  0
  4  5  1  0  0  0  0
  4  8  1  0  0  0  0
  6  5  1  0  0  0  0
 11  5  1  1  0  0  0
  6  7  2  0  0  0  0
  8  7  1  0  0  0  0
  8  9  2  0  0  0  0
  9 10  1  0  0  0  0
 11 12  1  0  0  0  0
 11 16  1  0  0  0  0
 12 13  1  0  0  0  0
 12 17  1  6  0  0  0
 13 14  1  0  0  0  0
 13 18  1  6  0  0  0
 14 15  1  1  0  0  0
 14 16  1  0  0  0  0
M  END