
  SciTegic01161211242D

 50 52  0  0  0  0            999 V2000
   14.1666   -6.4106    0.0000 C   0  0  1  0  0  0
   14.1666   -7.2398    0.0000 C   0  0  2  0  0  0
   14.8787   -7.6501    0.0000 C   0  0  2  0  0  0
   15.5950   -7.2398    0.0000 C   0  0
   15.5950   -6.4106    0.0000 C   0  0  2  0  0  0
   14.8787   -5.9918    0.0000 O   0  0
   16.3072   -6.8273    0.0000 O   0  0
   16.0005   -5.6956    0.0000 C   0  0
   16.8297   -5.6842    0.0000 O   0  0
   15.5824   -4.9813    0.0000 O   0  5
   13.4489   -6.0013    0.0000 C   0  0  2  0  0  0
   12.7307   -6.4169    0.0000 C   0  0  2  0  0  0
   11.3052   -7.2500    0.0000 C   0  0
   10.5870   -7.6656    0.0000 C   0  0
   11.3016   -6.4208    0.0000 O   0  0
    9.8744   -7.2507    0.0000 C   0  0
    9.1570   -7.6653    0.0000 C   0  0
    9.1599   -8.4958    0.0000 C   0  0
    9.8852   -8.9049    0.0000 C   0  0
   10.5941   -8.4866    0.0000 C   0  0
   13.4475   -7.6538    0.0000 N   0  0
   12.7307   -7.2429    0.0000 C   0  0
   14.1453   -5.5859    0.0000 H   0  0
   16.3025   -7.6522    0.0000 C   0  0
   17.0146   -8.0688    0.0000 C   0  0
   17.0053   -8.8926    0.0000 C   0  0
   17.7165   -9.3091    0.0000 C   0  0
   17.7246   -7.6586    0.0000 C   0  0
    8.4483   -8.9132    0.0000 Cl  0  0
   18.4365   -8.0714    0.0000 C   0  0
   18.4311   -8.8980    0.0000 C   0  0
   17.7253   -6.8336    0.0000 F   0  0
   19.1527   -7.6619    0.0000 F   0  0
   13.4465   -8.4788    0.0000 S   0  0
   12.7315   -8.8905    0.0000 C   0  0
   12.0217   -8.4740    0.0000 C   0  0
   11.3073   -8.8850    0.0000 C   0  0
   11.3059   -9.7108    0.0000 C   0  0
   12.0249  -10.1240    0.0000 C   0  0
   12.7364   -9.7107    0.0000 C   0  0
   13.4568  -10.1221    0.0000 N   0  3
   14.1695   -9.7065    0.0000 O   0  0
   13.4603  -10.9471    0.0000 O   0  5
   14.2711   -8.4749    0.0000 O   0  0
   13.4420   -9.2999    0.0000 O   0  0
   18.1375  -10.6875    0.0000 Na  0  3
   13.4452   -5.1721    0.0000 O   0  0
   12.0127   -6.0035    0.0000 O   0  0
   12.0200   -7.6619    0.0000 N   0  0
   14.8787   -8.4751    0.0000 O   0  0
  2 21  1  1
  1 23  1  1
  7 24  1  0
 24 25  1  0
  1  2  1  0
 25 26  2  0
  1  6  1  0
 26 27  1  0
 27 31  2  0
  2  3  1  0
 30 28  2  0
 28 25  1  0
  3  4  1  0
 18 29  1  0
  4  5  1  0
  5  6  1  0
 30 31  1  0
  5  7  1  0
 28 32  1  0
  5  8  1  1
 30 33  1  0
  8  9  2  0
 21 34  1  0
  8 10  1  0
 34 35  1  0
  1 11  1  0
 35 36  2  0
 36 37  1  0
 11 12  1  0
 37 38  2  0
 38 39  1  0
 12 22  1  0
 39 40  2  0
 40 35  1  0
 13 14  1  0
 41 42  2  0
 41 43  1  0
 40 41  1  0
 13 15  2  0
 34 44  2  0
 14 16  2  0
 34 45  2  0
 16 17  1  0
 17 18  2  0
 18 19  1  0
 19 20  2  0
 20 14  1  0
 12 48  1  1
 22 49  1  0
 49 13  1  0
 11 47  1  6
  3 50  1  6
M  CHG  4  10  -1  41   1  43  -1  46   1
M  END