
          05080814042D 1   1.00000     0.00000     0

 28 30  0     0  0            999 V2000
   13.4819    2.5042    0.0000 C   0  0  0  0  0  0           0  0  0
   13.4807    1.6768    0.0000 C   0  0  0  0  0  0           0  0  0
   14.1956    1.2640    0.0000 C   0  0  0  0  0  0           0  0  0
   14.9120    1.6773    0.0000 C   0  0  0  0  0  0           0  0  0
   14.9091    2.5078    0.0000 C   0  0  0  0  0  0           0  0  0
   14.1938    2.9170    0.0000 C   0  0  0  0  0  0           0  0  0
   15.6271    1.2659    0.0000 N   0  0  0  0  0  0           0  0  0
   15.6284    0.4409    0.0000 C   0  0  0  0  0  0           0  0  0
   16.3435    0.0296    0.0000 O   0  0  0  0  0  0           0  0  0
   14.9146    0.0273    0.0000 C   0  0  0  0  0  0           0  0  0
   14.2026    0.4425    0.0000 C   0  0  0  0  0  0           0  0  0
   13.4892    0.0296    0.0000 C   0  0  0  0  0  0           0  0  0
   13.4901   -0.7963    0.0000 C   0  0  0  0  0  0           0  0  0
   14.2102   -1.2075    0.0000 C   0  0  0  0  0  0           0  0  0
   14.9206   -0.7922    0.0000 C   0  0  0  0  0  0           0  0  0
   14.2144   -2.0325    0.0000 S   0  0  3  0  0  0           0  0  0
   14.2083   -2.8542    0.0000 N   0  0  3  0  0  0           0  0  0
   15.0394   -2.0334    0.0000 O   0  0  0  0  0  0           0  0  0
   13.3894   -2.0349    0.0000 O   0  0  0  0  0  0           0  0  0
   13.4919   -3.2585    0.0000 C   0  0  0  0  0  0           0  0  0
   13.4839   -4.0766    0.0000 C   0  0  0  0  0  0           0  0  0
   14.1906   -4.4965    0.0000 O   0  0  0  0  0  0           0  0  0
   14.9070   -4.0922    0.0000 C   0  0  0  0  0  0           0  0  0
   14.9168   -3.2679    0.0000 C   0  0  0  0  0  0           0  0  0
   15.6221    2.9230    0.0000 C   0  0  0  0  0  0           0  0  0
   16.3396    2.5135    0.0000 O   0  0  0  0  0  0           0  0  0
   15.6205    3.7483    0.0000 O   0  0  0  0  0  0           0  0  0
   12.7673    2.9165    0.0000 F   0  0  0  0  0  0           0  0  0
 13 14  1  0     0  0
  4  7  1  0     0  0
 14 15  2  0     0  0
 15 10  1  0     0  0
  3  4  2  0     0  0
 14 16  1  0     0  0
  7  8  1  0     0  0
 16 17  1  0     0  0
 16 18  2  0     0  0
  8  9  2  0     0  0
 16 19  2  0     0  0
 17 20  1  0     0  0
  4  5  1  0     0  0
  8 10  1  0     0  0
  2  3  1  0     0  0
 10 11  2  0     0  0
  5  6  2  0     0  0
 17 24  1  0     0  0
 20 21  1  0     0  0
 21 22  1  0     0  0
 22 23  1  0     0  0
 23 24  1  0     0  0
 11 12  1  0     0  0
  5 25  1  0     0  0
  6  1  1  0     0  0
 12 13  2  0     0  0
 25 26  1  0     0  0
 25 27  2  0     0  0
  1  2  2  0     0  0
  1 28  1  0     0  0
M  END