
          11280715442D 1   1.00000     0.00000     0

 44 46  0     1  0            999 V2000
    0.0625    2.0208    0.0000 N   0  0  3  0  0  0           0  0  0
   -0.0375    2.7708    0.0000 C   0  0  0  0  0  0           0  0  0
   -0.3083    0.8625    0.0000 C   0  0  0  0  0  0           0  0  0
   -0.7208    3.7708    0.0000 N   0  0  0  0  0  0           0  0  0
   -0.7375    3.0333    0.0000 C   0  0  1  0  0  0           0  0  0
    0.2792    1.3208    0.0000 C   0  0  3  0  0  0           0  0  0
    0.1167   -1.0542    0.0000 C   0  0  0  0  0  0           0  0  0
   -1.3958    4.0917    0.0000 C   0  0  0  0  0  0           0  0  0
   -0.1833    0.1208    0.0000 N   0  0  0  0  0  0           0  0  0
   -0.0458   -1.7875    0.0000 N   0  0  0  0  0  0           0  0  0
   -0.4458   -0.5625    0.0000 C   0  0  1  0  0  0           0  0  0
    0.5167   -2.2500    0.0000 C   0  0  2  0  0  0           0  0  0
    0.2792   -2.9625    0.0000 C   0  0  0  0  0  0           0  0  0
    0.5792    3.1958    0.0000 O   0  0  0  0  0  0           0  0  0
   -1.0208    1.0958    0.0000 O   0  0  0  0  0  0           0  0  0
    0.8417   -0.8625    0.0000 O   0  0  0  0  0  0           0  0  0
   -2.0083    3.6708    0.0000 O   0  0  0  0  0  0           0  0  0
    1.2542   -2.0500    0.0000 C   0  0  0  0  0  0           0  0  0
   -1.1833   -0.7625    0.0000 C   0  0  0  0  0  0           0  0  0
   -0.4583   -3.1542    0.0000 O   0  0  0  0  0  0           0  0  0
   -1.4083    4.8417    0.0000 C   0  0  1  0  0  0           0  0  0
   -1.3583    2.6000    0.0000 C   0  0  3  0  0  0           0  0  0
    0.7917    2.3833    0.0000 C   0  0  0  0  0  0           0  0  0
    1.7792   -2.5792    0.0000 C   0  0  0  0  0  0           0  0  0
    0.4917   -3.7500    0.0000 O   0  0  0  0  0  0           0  0  0
    2.8417   -3.6417    0.0000 C   0  0  0  0  0  0           0  0  0
   -2.1000    5.0875    0.0000 N   0  0  0  0  0  0           0  0  0
   -1.3708   -1.4792    0.0000 C   0  0  0  0  0  0           0  0  0
    1.5917   -3.3042    0.0000 C   0  0  0  0  0  0           0  0  0
    2.5042   -2.3875    0.0000 C   0  0  0  0  0  0           0  0  0
    2.1167   -3.8375    0.0000 C   0  0  0  0  0  0           0  0  0
    3.0375   -2.9167    0.0000 C   0  0  0  0  0  0           0  0  0
    3.3667   -4.1792    0.0000 O   0  0  0  0  0  0           0  0  0
    1.0042    1.0833    0.0000 C   0  0  0  0  0  0           0  0  0
   -0.7833    5.2792    0.0000 C   0  0  0  0  0  0           0  0  0
   -2.0375    2.9125    0.0000 C   0  0  0  0  0  0           0  0  0
   -1.2833    1.8500    0.0000 C   0  0  0  0  0  0           0  0  0
   -0.8458   -2.0167    0.0000 C   0  0  0  0  0  0           0  0  0
   -2.1000   -1.6792    0.0000 C   0  0  0  0  0  0           0  0  0
    1.5917    2.1750    0.0000 C   0  0  0  0  0  0           0  0  0
    1.7292    1.2833    0.0000 C   0  0  0  0  0  0           0  0  0
   -2.2958   -2.4000    0.0000 C   0  0  0  0  0  0           0  0  0
   -1.0375   -2.7375    0.0000 C   0  0  0  0  0  0           0  0  0
   -1.7625   -2.9375    0.0000 C   0  0  0  0  0  0           0  0  0
  2  1  1  0     0  0
  3  6  1  0     0  0
  4  5  1  0     0  0
  5  2  1  0     0  0
  6  1  1  0     0  0
  7 11  1  0     0  0
  8  4  1  0     0  0
  9  3  1  0     0  0
 10  7  1  0     0  0
 11  9  1  0     0  0
 12 10  1  0     0  0
 13 12  1  0     0  0
 14  2  2  0     0  0
 15  3  2  0     0  0
 16  7  2  0     0  0
 17  8  2  0     0  0
 12 18  1  1     0  0
 11 19  1  6     0  0
 20 13  2  0     0  0
 21  8  1  0     0  0
  5 22  1  6     0  0
 23  1  1  0     0  0
 24 18  1  0     0  0
 25 13  1  0     0  0
 26 32  2  0     0  0
 27 21  1  0     0  0
 28 19  1  0     0  0
 29 24  1  0     0  0
 30 24  2  0     0  0
 31 29  2  0     0  0
 32 30  1  0     0  0
 33 26  1  0     0  0
 34  6  1  0     0  0
 21 35  1  1     0  0
 36 22  1  0     0  0
 37 22  1  0     0  0
 38 28  1  0     0  0
 39 28  2  0     0  0
 40 23  1  0     0  0
 41 40  1  0     0  0
 42 39  1  0     0  0
 43 38  2  0     0  0
 44 42  2  0     0  0
 34 41  1  0     0  0
 43 44  1  0     0  0
 31 26  1  0     0  0
M  END