
  Mrv0541 05211314572D          

 28 29  0  0  0  0            999 V2000
   -0.7712    0.5203    0.0000 O   0  0  0  0  0  0  0  0  0  0  0  0
   -0.7712   -0.3047    0.0000 C   0  0  0  0  0  0  0  0  0  0  0  0
   -1.4857   -0.7172    0.0000 C   0  0  0  0  0  0  0  0  0  0  0  0
   -2.2001   -0.3047    0.0000 C   0  0  0  0  0  0  0  0  0  0  0  0
   -2.9538   -0.6403    0.0000 N   0  0  0  0  0  0  0  0  0  0  0  0
   -3.5058   -0.0272    0.0000 C   0  0  0  0  0  0  0  0  0  0  0  0
   -3.0933    0.6873    0.0000 C   0  0  0  0  0  0  0  0  0  0  0  0
   -2.2864    0.5157    0.0000 N   0  0  0  0  0  0  0  0  0  0  0  0
   -0.0567   -0.7172    0.0000 N   0  0  0  0  0  0  0  0  0  0  0  0
    0.6577   -0.3047    0.0000 C   0  0  0  0  0  0  0  0  0  0  0  0
    1.3722   -0.7172    0.0000 C   0  0  0  0  0  0  0  0  0  0  0  0
    2.0867   -0.3047    0.0000 C   0  0  0  0  0  0  0  0  0  0  0  0
    2.8012   -0.7172    0.0000 C   0  0  0  0  0  0  0  0  0  0  0  0
    2.8012   -1.5422    0.0000 C   0  0  0  0  0  0  0  0  0  0  0  0
    2.0867   -1.9547    0.0000 C   0  0  0  0  0  0  0  0  0  0  0  0
    1.3722   -1.5422    0.0000 C   0  0  0  0  0  0  0  0  0  0  0  0
    0.6577    0.5203    0.0000 C   0  0  0  0  0  0  0  0  0  0  0  0
   -0.0567    0.9328    0.0000 C   0  0  0  0  0  0  0  0  0  0  0  0
   -0.0567    1.7578    0.0000 C   0  0  0  0  0  0  0  0  0  0  0  0
    0.6577    2.1703    0.0000 C   0  0  0  0  0  0  0  0  0  0  0  0
    1.3722    1.7578    0.0000 C   0  0  0  0  0  0  0  0  0  0  0  0
    1.3722    0.9328    0.0000 C   0  0  0  0  0  0  0  0  0  0  0  0
    5.7476    1.0717    0.0000 O   0  0  0  0  0  0  0  0  0  0  0  0
    6.1601    0.3572    0.0000 C   0  0  0  0  0  0  0  0  0  0  0  0
    6.9851    0.3572    0.0000 O   0  0  0  0  0  0  0  0  0  0  0  0
    5.7476   -0.3572    0.0000 C   0  0  0  0  0  0  0  0  0  0  0  0
    6.1601   -1.0717    0.0000 O   0  0  0  0  0  0  0  0  0  0  0  0
    4.9226   -0.3572    0.0000 O   0  0  0  0  0  0  0  0  0  0  0  0
  1  2  2  0  0  0  0
  2  3  1  0  0  0  0
  3  4  1  0  0  0  0
  4  5  2  0  0  0  0
  5  6  1  0  0  0  0
  6  7  2  0  0  0  0
  7  8  1  0  0  0  0
  8  4  1  0  0  0  0
  2  9  1  0  0  0  0
  9 10  1  0  0  0  0
 10 11  1  0  0  0  0
 11 12  1  0  0  0  0
 12 13  1  0  0  0  0
 13 14  1  0  0  0  0
 14 15  1  0  0  0  0
 15 16  1  0  0  0  0
 16 11  1  0  0  0  0
 10 17  1  0  0  0  0
 17 18  2  0  0  0  0
 18 19  1  0  0  0  0
 19 20  2  0  0  0  0
 20 21  1  0  0  0  0
 21 22  2  0  0  0  0
 22 17  1  0  0  0  0
 23 24  1  0  0  0  0
 24 25  2  0  0  0  0
 24 26  1  0  0  0  0
 26 27  2  0  0  0  0
 26 28  1  0  0  0  0
M  END