
          11280715132D 1   1.00000     0.00000     0

 33 35  0     0  0            999 V2000
    5.6500   -4.6500    0.0000 C   0  0  0  0  0  0           0  0  0
    4.9292   -4.2375    0.0000 C   0  0  0  0  0  0           0  0  0
    6.3625   -4.2375    0.0000 N   0  0  3  0  0  0           0  0  0
    0.1500   -5.0667    0.0000 N   0  0  3  0  0  0           0  0  0
   -0.5708   -4.6542    0.0000 C   0  0  0  0  0  0           0  0  0
    1.7042   -5.6125    0.0000 N   0  0  3  0  0  0           0  0  0
    4.2167   -4.6542    0.0000 C   0  0  0  0  0  0           0  0  0
    5.6500   -5.4750    0.0000 O   0  0  0  0  0  0           0  0  0
    0.3042   -5.8750    0.0000 C   0  0  0  0  0  0           0  0  0
    0.7750   -4.5292    0.0000 C   0  0  0  0  0  0           0  0  0
    4.2167   -3.0000    0.0000 N   0  0  0  0  0  0           0  0  0
   -0.5708   -3.8250    0.0000 C   0  0  0  0  0  0           0  0  0
    7.0792   -4.6500    0.0000 C   0  0  3  0  0  0           0  0  0
    6.3625   -3.4125    0.0000 C   0  0  3  0  0  0           0  0  0
    4.9292   -3.4042    0.0000 C   0  0  0  0  0  0           0  0  0
    1.5500   -4.8000    0.0000 C   0  0  0  0  0  0           0  0  0
    1.0792   -6.1542    0.0000 C   0  0  0  0  0  0           0  0  0
    4.2250   -5.3875    0.0000 N   0  0  0  0  0  0           0  0  0
    3.5042   -4.2375    0.0000 C   0  0  0  0  0  0           0  0  0
    0.1417   -3.4042    0.0000 O   0  0  0  0  0  0           0  0  0
    2.3667   -5.9167    0.0000 C   0  0  0  0  0  0           0  0  0
    2.9625   -5.5000    0.0000 C   0  0  0  0  0  0           0  0  0
    3.5042   -3.4125    0.0000 C   0  0  0  0  0  0           0  0  0
   -1.2833   -5.0667    0.0000 C   0  0  0  0  0  0           0  0  0
    3.6250   -5.8042    0.0000 C   0  0  0  0  0  0           0  0  0
   -1.2833   -3.4125    0.0000 C   0  0  0  0  0  0           0  0  0
    7.0750   -3.0000    0.0000 C   0  0  0  0  0  0           0  0  0
    5.6417   -3.0000    0.0000 C   0  0  0  0  0  0           0  0  0
    7.0792   -5.4750    0.0000 C   0  0  0  0  0  0           0  0  0
    7.7917   -4.2292    0.0000 C   0  0  0  0  0  0           0  0  0
    0.8625   -3.8167    0.0000 C   0  0  0  0  0  0           0  0  0
   -1.9958   -4.6542    0.0000 C   0  0  0  0  0  0           0  0  0
   -1.9958   -3.8250    0.0000 C   0  0  0  0  0  0           0  0  0
  2  1  1  0     0  0
  3  1  1  0     0  0
  4  9  1  0     0  0
  5  4  1  0     0  0
  6 21  1  0     0  0
  7  2  2  0     0  0
  8  1  2  0     0  0
  9 17  1  0     0  0
 10 16  1  0     0  0
 11 15  2  0     0  0
 12  5  1  0     0  0
 13  3  1  0     0  0
 14  3  1  0     0  0
 15  2  1  0     0  0
 16  6  1  0     0  0
 17  6  1  0     0  0
 18  7  1  0     0  0
 19  7  1  0     0  0
 20 12  1  0     0  0
 21 22  1  0     0  0
 22 25  1  0     0  0
 23 11  1  0     0  0
 24  5  2  0     0  0
 25 18  1  0     0  0
 26 12  2  0     0  0
 27 14  1  0     0  0
 28 14  1  0     0  0
 29 13  1  0     0  0
 30 13  1  0     0  0
 31 20  1  0     0  0
 32 24  1  0     0  0
 33 32  2  0     0  0
 19 23  2  0     0  0
  4 10  1  0     0  0
 33 26  1  0     0  0
M  END