
          11280715382D 1   1.00000     0.00000     0

 20 22  0     0  0            999 V2000
    2.6792   -1.9125    0.0000 C   0  0  0  0  0  0           0  0  0
    3.1917   -2.2125    0.0000 C   0  0  0  0  0  0           0  0  0
    2.1667   -2.2125    0.0000 C   0  0  0  0  0  0           0  0  0
    2.6792   -1.3125    0.0000 C   0  0  0  0  0  0           0  0  0
    3.7167   -1.9042    0.0000 C   0  0  0  0  0  0           0  0  0
    3.7167   -1.3125    0.0000 C   0  0  0  0  0  0           0  0  0
    3.1917   -1.0125    0.0000 O   0  0  0  0  0  0           0  0  0
    1.6417   -1.9042    0.0000 C   0  0  0  0  0  0           0  0  0
    2.1667   -1.0125    0.0000 C   0  0  0  0  0  0           0  0  0
    1.6417   -1.3125    0.0000 C   0  0  0  0  0  0           0  0  0
    3.1917   -2.8125    0.0000 O   0  0  0  0  0  0           0  0  0
    4.2417   -1.0125    0.0000 C   0  0  0  0  0  0           0  0  0
    2.1667   -2.8125    0.0000 O   0  0  0  0  0  0           0  0  0
    1.1042   -1.0250    0.0000 O   0  0  0  0  0  0           0  0  0
    1.1167   -2.2000    0.0000 C   0  0  0  0  0  0           0  0  0
    4.7667   -1.3125    0.0000 C   0  0  0  0  0  0           0  0  0
    4.2417   -0.4042    0.0000 C   0  0  0  0  0  0           0  0  0
    4.7667   -0.1042    0.0000 C   0  0  0  0  0  0           0  0  0
    5.2917   -1.0042    0.0000 C   0  0  0  0  0  0           0  0  0
    5.2917   -0.4125    0.0000 C   0  0  0  0  0  0           0  0  0
  2  1  1  0     0  0
  3  1  1  0     0  0
  4  1  2  0     0  0
  5  2  1  0     0  0
  6  7  1  0     0  0
  7  4  1  0     0  0
  8  3  2  0     0  0
  9  4  1  0     0  0
 10  9  2  0     0  0
 11  2  2  0     0  0
 12  6  1  0     0  0
 13  3  1  0     0  0
 14 10  1  0     0  0
 15  8  1  0     0  0
 16 12  2  0     0  0
 17 12  1  0     0  0
 18 17  2  0     0  0
 19 16  1  0     0  0
 20 18  1  0     0  0
 10  8  1  0     0  0
  6  5  2  0     0  0
 20 19  2  0     0  0
M  END