
  SciTegic12231509382D

 22 24  0  0  1  0            999 V2000
    3.0445   -1.4758    0.0000 O   0  0
    3.7534   -0.2208    0.0000 O   0  0
    5.2175   -0.1394    0.0000 O   0  0
    0.8483   -1.0574    0.0000 N   0  0
    2.3124   -1.0574    0.0000 C   0  0  1  0  0  0
    1.1272   -0.1046    0.0000 C   0  0  1  0  0  0
    1.1272   -1.9987    0.0000 C   0  0  2  0  0  0
    1.9522   -0.3021    0.0000 C   0  0
    1.9522   -1.8128    0.0000 C   0  0
    0.4765   -0.6275    0.0000 C   0  0
    0.4765   -1.4758    0.0000 C   0  0
    3.7534   -1.0574    0.0000 C   0  0
    4.4738   -1.4758    0.0000 C   0  0
    0.0000   -1.0226    0.0000 C   0  0
    4.4738   -2.3008    0.0000 C   0  0
    5.2175   -1.0574    0.0000 C   0  0
    3.7534   -2.7308    0.0000 C   0  0
    5.2175   -2.7308    0.0000 C   0  0
    3.7534   -3.5558    0.0000 C   0  0
    5.2175   -3.5558    0.0000 C   0  0
    4.4738   -3.9858    0.0000 C   0  0
    2.8470   -0.4648    0.0000 H   0  0
  5  1  1  6
  1 12  1  0
  2 12  2  0
  3 16  1  0
  6  4  1  1
  7  4  1  1
  4 14  1  0
  5  8  1  0
  5  9  1  0
  5 22  1  0
  6  8  1  0
  6 10  1  0
  7  9  1  0
  7 11  1  0
 10 11  1  0
 12 13  1  0
 13 15  1  0
 13 16  1  0
 15 17  2  0
 15 18  1  0
 17 19  1  0
 18 20  2  0
 19 21  2  0
 20 21  1  0
M  END