
  SciTegic02271515152D

 28 30  0  0  0  0            999 V2000
   29.3102   -3.0252    0.0000 C   0  0
   29.3090   -3.8448    0.0000 C   0  0
   30.0171   -4.2537    0.0000 C   0  0
   30.7267   -3.8443    0.0000 C   0  0
   30.7239   -3.0216    0.0000 C   0  0
   30.0153   -2.6164    0.0000 C   0  0
   28.6024   -2.6168    0.0000 C   0  0
   27.8947   -3.0256    0.0000 N   0  0
   31.4311   -4.2498    0.0000 C   0  0
   31.5178   -5.0624    0.0000 C   0  0
   32.3174   -5.2311    0.0000 N   0  0
   32.7249   -4.5227    0.0000 C   0  0
   32.1771   -3.9163    0.0000 S   0  0
   27.1869   -2.6171    0.0000 C   0  0
   26.4793   -3.0259    0.0000 O   0  0
   27.1867   -1.7999    0.0000 C   0  0  2  0  0  0
   27.8531   -1.3205    0.0000 C   0  0
   27.6004   -0.5434    0.0000 C   0  0  2  0  0  0
   26.7832   -0.5436    0.0000 C   0  0
   26.5310   -1.3208    0.0000 N   0  0
   25.7535   -1.5725    0.0000 C   0  0
   25.1468   -1.0250    0.0000 C   0  0
   25.5827   -2.3716    0.0000 O   0  0
   24.3693   -1.2766    0.0000 C   0  0
   28.0806    0.1215    0.0000 O   0  0
   23.7627   -0.7292    0.0000 C   0  0
   24.1985   -2.0758    0.0000 C   0  0
   23.5747   -1.4858    0.0000 C   0  0
  1  2  2  0
  2  3  1  0
  3  4  2  0
  4  5  1  0
  5  6  2  0
  6  1  1  0
  1  7  1  0
  7  8  1  0
  9 10  2  0
 10 11  1  0
 11 12  2  0
 12 13  1  0
 13  9  1  0
  4  9  1  0
  8 14  1  0
 14 15  2  0
 16 14  1  1
 16 17  1  0
 17 18  1  0
 18 19  1  0
 19 20  1  0
 20 16  1  0
 20 21  1  0
 21 22  1  0
 21 23  2  0
 22 24  1  0
 18 25  1  6
 24 26  1  0
 24 27  1  0
 24 28  1  0
M  END