
          11280714452D 1   1.00000     0.00000     0

 35 38  0     0  0            999 V2000
   -1.0000   -4.0875    0.0000 C   0  0  0  0  0  0           0  0  0
   -0.1958   -3.9167    0.0000 N   0  0  0  0  0  0           0  0  0
   -0.1083   -3.0917    0.0000 C   0  0  0  0  0  0           0  0  0
   -0.8583   -2.7625    0.0000 N   0  0  0  0  0  0           0  0  0
   -1.4083   -3.3750    0.0000 C   0  0  0  0  0  0           0  0  0
   -1.3333   -4.8417    0.0000 C   0  0  0  0  0  0           0  0  0
    0.6125   -2.6792    0.0000 C   0  0  0  0  0  0           0  0  0
   -0.9250   -5.5542    0.0000 S   0  0  0  0  0  0           0  0  0
    2.0417   -2.6792    0.0000 C   0  0  0  0  0  0           0  0  0
    1.3250   -3.0917    0.0000 C   0  0  0  0  0  0           0  0  0
    8.4667   -3.0625    0.0000 C   0  0  0  0  0  0           0  0  0
    2.0417   -1.8542    0.0000 C   0  0  0  0  0  0           0  0  0
   -2.1458   -5.0167    0.0000 C   0  0  0  0  0  0           0  0  0
    9.1875   -2.6417    0.0000 C   0  0  0  0  0  0           0  0  0
    2.7542   -1.4375    0.0000 O   0  0  0  0  0  0           0  0  0
   -1.4833   -6.1667    0.0000 C   0  0  0  0  0  0           0  0  0
    7.7542   -2.6542    0.0000 C   0  0  0  0  0  0           0  0  0
    0.6125   -1.8542    0.0000 C   0  0  0  0  0  0           0  0  0
   -2.2333   -5.8375    0.0000 C   0  0  0  0  0  0           0  0  0
    1.3250   -1.4417    0.0000 C   0  0  0  0  0  0           0  0  0
    9.1792   -1.8167    0.0000 C   0  0  0  0  0  0           0  0  0
    2.7542   -3.0917    0.0000 Cl  0  0  0  0  0  0           0  0  0
    3.4667   -1.8417    0.0000 C   0  0  0  0  0  0           0  0  0
    7.7542   -1.8292    0.0000 C   0  0  0  0  0  0           0  0  0
    4.1792   -1.4292    0.0000 C   0  0  3  0  0  0           0  0  0
    8.4625   -1.4125    0.0000 C   0  0  0  0  0  0           0  0  0
    8.4750   -3.8875    0.0000 O   0  0  0  0  0  0           0  0  0
    5.6125   -1.4250    0.0000 N   0  0  0  0  0  0           0  0  0
    9.9042   -3.0542    0.0000 O   0  0  0  0  0  0           0  0  0
    4.1792   -0.6042    0.0000 O   0  0  0  0  0  0           0  0  0
    4.9000   -1.8417    0.0000 C   0  0  0  0  0  0           0  0  0
    6.3292   -1.8375    0.0000 C   0  0  0  0  0  0           0  0  0
    7.0417   -1.4167    0.0000 C   0  0  0  0  0  0           0  0  0
    7.7625   -4.3042    0.0000 C   0  0  0  0  0  0           0  0  0
    9.9042   -3.8792    0.0000 C   0  0  0  0  0  0           0  0  0
  2  1  1  0     0  0
  3  2  2  0     0  0
  4  5  1  0     0  0
  5  1  2  0     0  0
  6  1  1  0     0  0
  7  3  1  0     0  0
  8  6  1  0     0  0
  9 10  1  0     0  0
 10  7  2  0     0  0
 11 17  1  0     0  0
 12 20  1  0     0  0
 13  6  2  0     0  0
 14 21  1  0     0  0
 15 12  1  0     0  0
 16  8  1  0     0  0
 17 24  2  0     0  0
 18  7  1  0     0  0
 19 13  1  0     0  0
 20 18  2  0     0  0
 21 26  2  0     0  0
 22  9  1  0     0  0
 23 15  1  0     0  0
 24 33  1  0     0  0
 25 23  1  0     0  0
 26 24  1  0     0  0
 27 11  1  0     0  0
 28 31  1  0     0  0
 29 14  1  0     0  0
 30 25  1  0     0  0
 31 25  1  0     0  0
 32 28  1  0     0  0
 33 32  1  0     0  0
 34 27  1  0     0  0
 35 29  1  0     0  0
  3  4  1  0     0  0
 19 16  2  0     0  0
  9 12  2  0     0  0
 11 14  2  0     0  0
M  END