
          11280715452D 1   1.00000     0.00000     0

 30 31  0     1  0            999 V2000
   -0.1708   -0.1167    0.0000 N   0  0  3  0  0  0           0  0  0
   -0.8833    0.3000    0.0000 C   0  0  0  0  0  0           0  0  0
   -1.6000   -0.1167    0.0000 C   0  0  1  0  0  0           0  0  0
   -2.3125    0.3000    0.0000 N   0  0  0  0  0  0           0  0  0
   -3.0333   -0.1167    0.0000 C   0  0  0  0  0  0           0  0  0
    0.5792    0.2125    0.0000 C   0  0  2  0  0  0           0  0  0
    0.7542    1.0208    0.0000 C   0  0  0  0  0  0           0  0  0
   -1.6000   -0.9375    0.0000 C   0  0  3  0  0  0           0  0  0
   -0.8833    1.1208    0.0000 O   0  0  0  0  0  0           0  0  0
   -3.0333   -0.9375    0.0000 O   0  0  0  0  0  0           0  0  0
    0.1417    1.5708    0.0000 O   0  0  0  0  0  0           0  0  0
   -3.7458    0.3000    0.0000 C   0  0  1  0  0  0           0  0  0
    1.5375    1.2833    0.0000 N   0  0  0  0  0  0           0  0  0
   -0.0958   -0.9375    0.0000 C   0  0  0  0  0  0           0  0  0
   -4.4583   -0.1125    0.0000 N   0  0  0  0  0  0           0  0  0
    2.1500    0.7208    0.0000 C   0  0  0  0  0  0           0  0  0
    1.1292   -0.4000    0.0000 C   0  0  0  0  0  0           0  0  0
    3.5417    0.4250    0.0000 C   0  0  0  0  0  0           0  0  0
    0.7167   -1.1167    0.0000 C   0  0  0  0  0  0           0  0  0
   -1.6083   -1.7667    0.0000 C   0  0  0  0  0  0           0  0  0
   -2.3208   -1.3542    0.0000 C   0  0  0  0  0  0           0  0  0
   -0.8875   -1.3542    0.0000 C   0  0  0  0  0  0           0  0  0
    2.9292    0.9833    0.0000 C   0  0  0  0  0  0           0  0  0
   -5.1708    0.3000    0.0000 C   0  0  0  0  0  0           0  0  0
   -3.7375    1.1250    0.0000 C   0  0  0  0  0  0           0  0  0
    4.2542    0.8458    0.0000 C   0  0  0  0  0  0           0  0  0
    3.5417   -0.4000    0.0000 C   0  0  0  0  0  0           0  0  0
    4.2542   -0.8125    0.0000 C   0  0  0  0  0  0           0  0  0
    4.9750    0.4333    0.0000 C   0  0  0  0  0  0           0  0  0
    4.9750   -0.4000    0.0000 C   0  0  0  0  0  0           0  0  0
  2  1  1  0     0  0
  3  2  1  0     0  0
  4  3  1  0     0  0
  5  4  1  0     0  0
  6  1  1  0     0  0
  6  7  1  6     0  0
  3  8  1  6     0  0
  9  2  2  0     0  0
 10  5  2  0     0  0
 11  7  2  0     0  0
 12  5  1  0     0  0
 13  7  1  0     0  0
 14  1  1  0     0  0
 15 12  1  0     0  0
 16 13  1  0     0  0
 17  6  1  0     0  0
 18 23  1  0     0  0
 19 14  1  0     0  0
 20  8  1  0     0  0
 21  8  1  0     0  0
 22  8  1  0     0  0
 23 16  1  0     0  0
 24 15  1  0     0  0
 12 25  1  1     0  0
 26 18  1  0     0  0
 27 18  2  0     0  0
 28 27  1  0     0  0
 29 26  2  0     0  0
 30 28  2  0     0  0
 17 19  1  0     0  0
 29 30  1  0     0  0
M  END