
          11280715322D 1   1.00000     0.00000     0

 37 41  0     0  0            999 V2000
   10.7917   -0.4417    0.0000 S   0  0  3  0  0  0           0  0  0
    3.3875   -3.1167    0.0000 N   0  0  3  0  0  0           0  0  0
   10.0792   -0.8542    0.0000 N   0  0  3  0  0  0           0  0  0
    8.6625   -1.6875    0.0000 N   0  0  3  0  0  0           0  0  0
    4.8042   -3.1250    0.0000 C   0  0  3  0  0  0           0  0  0
    3.3792   -2.2917    0.0000 C   0  0  0  0  0  0           0  0  0
    7.9500   -2.1042    0.0000 C   0  0  3  0  0  0           0  0  0
    6.9417   -2.6917    0.0000 N   0  0  3  0  0  0           0  0  0
    4.1000   -3.5292    0.0000 C   0  0  0  0  0  0           0  0  0
   11.2125   -1.1542    0.0000 N   0  0  3  0  0  0           0  0  0
    4.8042   -3.9500    0.0000 C   0  0  0  0  0  0           0  0  0
   10.3792    0.2708    0.0000 O   0  0  0  0  0  0           0  0  0
   11.5042   -0.0250    0.0000 O   0  0  0  0  0  0           0  0  0
   10.0792   -1.6792    0.0000 C   0  0  0  0  0  0           0  0  0
    9.3625   -0.4500    0.0000 C   0  0  0  0  0  0           0  0  0
    2.6750   -3.5292    0.0000 C   0  0  0  0  0  0           0  0  0
    7.1542   -1.9000    0.0000 C   0  0  0  0  0  0           0  0  0
    7.7417   -2.9042    0.0000 C   0  0  0  0  0  0           0  0  0
    5.5042   -5.1875    0.0000 C   0  0  0  0  0  0           0  0  0
    5.5042   -4.3625    0.0000 C   0  0  0  0  0  0           0  0  0
    1.9542   -3.1167    0.0000 C   0  0  3  0  0  0           0  0  0
    1.5417   -2.4125    0.0000 C   0  0  0  0  0  0           0  0  0
    1.1292   -3.1292    0.0000 C   0  0  0  0  0  0           0  0  0
    9.3750   -2.0917    0.0000 C   0  0  0  0  0  0           0  0  0
    8.6500   -0.8667    0.0000 C   0  0  0  0  0  0           0  0  0
    4.7792   -5.5917    0.0000 C   0  0  0  0  0  0           0  0  0
    4.8125   -2.2917    0.0000 C   0  0  0  0  0  0           0  0  0
    4.1000   -1.8792    0.0000 C   0  0  0  0  0  0           0  0  0
    2.6667   -1.8750    0.0000 O   0  0  0  0  0  0           0  0  0
    5.5167   -2.7042    0.0000 C   0  0  0  0  0  0           0  0  0
    4.0792   -4.3500    0.0000 C   0  0  0  0  0  0           0  0  0
    4.0750   -5.1750    0.0000 C   0  0  0  0  0  0           0  0  0
    6.2375   -3.1125    0.0000 C   0  0  0  0  0  0           0  0  0
    6.2167   -5.6042    0.0000 Cl  0  0  0  0  0  0           0  0  0
    4.7792   -6.4167    0.0000 Cl  0  0  0  0  0  0           0  0  0
   10.8000   -1.8667    0.0000 C   0  0  0  0  0  0           0  0  0
   12.0375   -1.1500    0.0000 C   0  0  0  0  0  0           0  0  0
  2  9  1  0     0  0
  3  1  1  0     0  0
  4 25  1  0     0  0
  5 30  1  0     0  0
  6 28  1  0     0  0
  7  4  1  0     0  0
  8 18  1  0     0  0
  9  5  1  0     0  0
 10  1  1  0     0  0
 11  5  1  0     0  0
 12  1  2  0     0  0
 13  1  2  0     0  0
 14  3  1  0     0  0
 15  3  1  0     0  0
 16  2  1  0     0  0
 17  7  1  0     0  0
 18  7  1  0     0  0
 19 20  2  0     0  0
 20 11  1  0     0  0
 21 16  1  0     0  0
 22 21  1  0     0  0
 23 21  1  0     0  0
 24 14  1  0     0  0
 25 15  1  0     0  0
 26 32  2  0     0  0
 27  5  1  0     0  0
 28 27  1  0     0  0
 29  6  2  0     0  0
 30 33  1  0     0  0
 31 11  2  0     0  0
 32 31  1  0     0  0
 33  8  1  0     0  0
 34 19  1  0     0  0
 35 26  1  0     0  0
 36 10  1  0     0  0
 37 10  1  0     0  0
  4 24  1  0     0  0
 17  8  1  0     0  0
  2  6  1  0     0  0
 19 26  1  0     0  0
 23 22  1  0     0  0
M  END