
          11280714542D 1   1.00000     0.00000     0

 35 38  0     1  0            999 V2000
    3.9792   -6.4542    0.0000 O   0  0  0  0  0  0           0  0  0
    3.9792   -8.1125    0.0000 O   0  0  0  0  0  0           0  0  0
    4.6917   -6.8667    0.0000 C   0  0  1  0  0  0           0  0  0
    4.6917   -7.7000    0.0000 C   0  0  1  0  0  0           0  0  0
    3.2667   -6.8667    0.0000 C   0  0  0  0  0  0           0  0  0
    8.9792   -7.7125    0.0000 C   0  0  0  0  0  0           0  0  0
    3.2625   -7.6917    0.0000 C   0  0  0  0  0  0           0  0  0
    5.4125   -6.4625    0.0000 C   0  0  0  0  0  0           0  0  0
    7.5542   -4.4042    0.0000 C   0  0  0  0  0  0           0  0  0
    9.6917   -8.1292    0.0000 C   0  0  0  0  0  0           0  0  0
    8.9792   -6.8917    0.0000 C   0  0  0  0  0  0           0  0  0
    7.5542   -5.2292    0.0000 O   0  0  0  0  0  0           0  0  0
    6.8417   -3.9917    0.0000 O   0  0  0  0  0  0           0  0  0
    5.4125   -5.6417    0.0000 C   0  0  0  0  0  0           0  0  0
    6.1250   -6.8792    0.0000 C   0  0  0  0  0  0           0  0  0
    6.8417   -5.6417    0.0000 C   0  0  0  0  0  0           0  0  0
    8.2667   -8.1167    0.0000 O   0  0  0  0  0  0           0  0  0
    5.4042   -8.1125    0.0000 C   0  0  0  0  0  0           0  0  0
    6.1250   -7.7042    0.0000 N   0  0  0  0  0  0           0  0  0
    6.8375   -6.4667    0.0000 C   0  0  0  0  0  0           0  0  0
    6.1250   -5.2292    0.0000 C   0  0  0  0  0  0           0  0  0
    9.6875   -8.9542    0.0000 O   0  0  0  0  0  0           0  0  0
    8.2667   -6.4792    0.0000 O   0  0  0  0  0  0           0  0  0
   10.4125   -6.8917    0.0000 C   0  0  0  0  0  0           0  0  0
    2.5500   -6.4542    0.0000 C   0  0  0  0  0  0           0  0  0
    2.5500   -8.1125    0.0000 C   0  0  0  0  0  0           0  0  0
   10.4042   -7.7167    0.0000 C   0  0  0  0  0  0           0  0  0
    9.6917   -6.4792    0.0000 C   0  0  0  0  0  0           0  0  0
    8.2750   -3.9917    0.0000 C   0  0  0  0  0  0           0  0  0
    6.8375   -8.1167    0.0000 C   0  0  0  0  0  0           0  0  0
    7.5542   -7.7042    0.0000 C   0  0  0  0  0  0           0  0  0
    8.2667   -5.6417    0.0000 C   0  0  0  0  0  0           0  0  0
   10.3917   -9.3667    0.0000 C   0  0  0  0  0  0           0  0  0
    1.8375   -7.7000    0.0000 C   0  0  0  0  0  0           0  0  0
    1.8375   -6.8750    0.0000 C   0  0  0  0  0  0           0  0  0
  2  7  1  0     0  0
  3  1  1  0     0  0
  4  3  1  0     0  0
  5  1  1  0     0  0
  6 17  1  0     0  0
  7  5  1  0     0  0
  3  8  1  6     0  0
  9 12  1  0     0  0
 10  6  2  0     0  0
 11  6  1  0     0  0
 12 16  1  0     0  0
 13  9  2  0     0  0
 14  8  1  0     0  0
 15  8  2  0     0  0
 16 20  2  0     0  0
 17 31  1  0     0  0
  4 18  1  1     0  0
 19 18  1  0     0  0
 20 15  1  0     0  0
 21 14  2  0     0  0
 22 10  1  0     0  0
 23 11  1  0     0  0
 24 28  1  0     0  0
 25  5  2  0     0  0
 26  7  2  0     0  0
 27 10  1  0     0  0
 28 11  2  0     0  0
 29  9  1  0     0  0
 30 19  1  0     0  0
 31 30  1  0     0  0
 32 23  1  0     0  0
 33 22  1  0     0  0
 34 35  2  0     0  0
 35 25  1  0     0  0
  2  4  1  0     0  0
 34 26  1  0     0  0
 21 16  1  0     0  0
 27 24  2  0     0  0
M  END