
  SciTegic01181116592D

 36 39  0  0  0  0            999 V2000
   14.1361  -14.7375    0.0000 C   0  0
   14.1349  -15.5648    0.0000 C   0  0
   14.8497  -15.9777    0.0000 C   0  0
   15.5662  -15.5644    0.0000 C   0  0
   15.5633  -14.7338    0.0000 C   0  0
   14.8479  -14.3247    0.0000 C   0  0
   14.8495  -16.8027    0.0000 C   0  0
   14.8455  -13.4997    0.0000 N   0  0
   15.5082  -13.0155    0.0000 C   0  0
   15.2510  -12.2317    0.0000 C   0  0
   14.4260  -12.2340    0.0000 C   0  0
   14.1734  -13.0195    0.0000 N   0  0
   16.2932  -13.2686    0.0000 N   0  0
   17.0034  -12.8488    0.0000 C   0  0
   17.7221  -13.2538    0.0000 N   0  0
   16.9948  -12.0238    0.0000 O   0  0
   18.4380  -12.8432    0.0000 C   0  0
   19.8664  -12.0254    0.0000 C   0  0
   19.1478  -11.6115    0.0000 C   0  0
   18.4358  -12.0240    0.0000 C   0  0
   19.8641  -12.8513    0.0000 C   0  0
   19.1498  -13.2581    0.0000 C   0  0
   19.1460  -14.0782    0.0000 C   0  0
   19.8557  -14.4924    0.0000 C   0  0
   20.5707  -14.0806    0.0000 C   0  0
   20.5710  -13.2619    0.0000 C   0  0
   13.9391  -11.5680    0.0000 C   0  0
   13.1125  -11.5667    0.0000 C   0  0
   14.3458  -10.8500    0.0000 C   0  0
   13.3500  -10.9792    0.0000 C   0  0
   13.4201  -15.9768    0.0000 C   0  0
   12.7060  -15.5637    0.0000 N   0  0
   13.4195  -16.8018    0.0000 O   0  0
   11.9912  -15.9756    0.0000 C   0  0
   11.2770  -15.5626    0.0000 C   0  0
   10.5648  -15.1507    0.0000 N   0  0
 17 22  2  0
  8  9  1  0
 21 18  2  0
 18 19  1  0
  4  5  1  0
 19 20  2  0
 20 17  1  0
  2  3  1  0
  5  6  2  0
 21 22  1  0
  9 10  2  0
 22 23  1  0
 10 11  1  0
 23 24  2  0
 11 12  2  0
 24 25  1  0
 12  8  1  0
 25 26  2  0
 26 21  1  0
  6  1  1  0
 11 27  1  0
  9 13  1  0
 27 28  1  0
  1  2  2  0
 27 29  1  0
 13 14  1  0
 27 30  1  0
  3  7  1  0
  2 31  1  0
 14 15  1  0
 31 32  1  0
  3  4  2  0
 31 33  2  0
 14 16  2  0
 32 34  1  0
  6  8  1  0
 34 35  1  0
 15 17  1  0
 35 36  3  0
M  END