
  SciTegic01091215432D

 27 29  0  0  0  0            999 V2000
   -3.9513  -14.8742    0.0000 C   0  0
   -4.6202  -14.3944    0.0000 C   0  0
   -5.2863  -14.8812    0.0000 C   0  0
   -5.0291  -15.6652    0.0000 C   0  0
   -4.2042  -15.6627    0.0000 C   0  0
   -4.6239  -13.5694    0.0000 O   0  0
   -3.1668  -14.6188    0.0000 C   0  0
    0.4045  -12.5397    0.0000 S   0  0
   -0.0053  -13.2557    0.0000 O   0  0
    0.8197  -13.2526    0.0000 O   0  0
   -3.8806  -12.5541    0.0000 C   0  0
   -3.8818  -13.3815    0.0000 C   0  0
   -3.1669  -13.7944    0.0000 C   0  0
   -2.4505  -13.3810    0.0000 C   0  0
   -2.4534  -12.5505    0.0000 C   0  0
   -3.1687  -12.1414    0.0000 C   0  0
   -1.7404  -12.1353    0.0000 C   0  0
   -1.0244  -12.5451    0.0000 C   0  0
   -0.3115  -12.1299    0.0000 N   0  0
    1.1174  -12.1245    0.0000 C   0  0
    1.8294  -12.5361    0.0000 C   0  0
    2.5418  -12.1216    0.0000 C   0  0
    2.5392  -11.2957    0.0000 C   0  0
    1.8181  -10.8861    0.0000 C   0  0
    1.1087  -11.3030    0.0000 C   0  0
    3.2515  -10.8796    0.0000 Cl  0  0
   -5.5121  -16.3340    0.0000 O   0  0
  7  1  1  0
 14 15  1  0
  9  8  2  0
 15 16  2  0
 16 11  1  0
  8 10  2  0
 15 17  1  0
  2  3  2  0
 17 18  1  0
  3  4  1  0
 18 19  1  0
 19  8  1  0
  4  5  1  0
  8 20  1  0
  5  1  1  0
 20 21  2  0
 21 22  1  0
 11 12  2  0
 22 23  2  0
  2  6  1  0
 23 24  1  0
 12 13  1  0
 24 25  2  0
 25 20  1  0
  1  2  1  0
 23 26  1  0
 13  7  1  0
 13 14  2  0
  4 27  2  0
M  END