
          11280714452D 1   1.00000     0.00000     0

 32 34  0     0  0            999 V2000
   -1.4958   -4.1625    0.0000 N   0  0  0  0  0  0           0  0  0
   -0.8208   -3.6792    0.0000 C   0  0  0  0  0  0           0  0  0
   -0.1583   -4.1667    0.0000 N   0  0  0  0  0  0           0  0  0
    9.1042   -0.7542    0.0000 C   0  0  0  0  0  0           0  0  0
   -1.2375   -4.9417    0.0000 C   0  0  0  0  0  0           0  0  0
    8.9375   -1.5667    0.0000 C   0  0  0  0  0  0           0  0  0
   -0.4125   -4.9500    0.0000 C   0  0  0  0  0  0           0  0  0
    8.4792   -0.2125    0.0000 C   0  0  0  0  0  0           0  0  0
    8.1542   -1.8292    0.0000 C   0  0  0  0  0  0           0  0  0
    2.7000   -0.0625    0.0000 O   0  0  0  0  0  0           0  0  0
    1.9792   -0.4750    0.0000 C   0  0  0  0  0  0           0  0  0
    7.7000   -0.4792    0.0000 C   0  0  0  0  0  0           0  0  0
    4.1292   -0.0625    0.0000 C   0  0  3  0  0  0           0  0  0
   -0.1083   -2.4417    0.0000 O   0  0  0  0  0  0           0  0  0
    3.4125   -0.4750    0.0000 C   0  0  0  0  0  0           0  0  0
    7.5417   -1.2792    0.0000 C   0  0  0  0  0  0           0  0  0
    9.8792   -0.4917    0.0000 O   0  0  0  0  0  0           0  0  0
    5.5542   -0.0625    0.0000 N   0  0  0  0  0  0           0  0  0
    0.5542   -1.3000    0.0000 C   0  0  0  0  0  0           0  0  0
    1.9792   -1.3042    0.0000 C   0  0  0  0  0  0           0  0  0
    1.2667   -0.0625    0.0000 C   0  0  0  0  0  0           0  0  0
    9.5542   -2.1125    0.0000 O   0  0  0  0  0  0           0  0  0
   -0.8208   -2.8542    0.0000 C   0  0  0  0  0  0           0  0  0
    1.2667   -1.7125    0.0000 C   0  0  0  0  0  0           0  0  0
    0.5542   -0.4667    0.0000 C   0  0  0  0  0  0           0  0  0
    4.1292    0.7625    0.0000 O   0  0  0  0  0  0           0  0  0
    4.8417   -0.4750    0.0000 C   0  0  0  0  0  0           0  0  0
   -0.1000   -1.6167    0.0000 C   0  0  0  0  0  0           0  0  0
    6.2667   -0.4750    0.0000 C   0  0  0  0  0  0           0  0  0
    6.9875   -0.0667    0.0000 C   0  0  0  0  0  0           0  0  0
   10.5042   -1.0375    0.0000 C   0  0  0  0  0  0           0  0  0
    9.3917   -2.9250    0.0000 C   0  0  0  0  0  0           0  0  0
  2  1  2  0     0  0
  3  2  1  0     0  0
  4  8  1  0     0  0
  5  1  1  0     0  0
  6  9  1  0     0  0
  7  5  2  0     0  0
  8 12  2  0     0  0
  9 16  2  0     0  0
 10 11  1  0     0  0
 11 21  2  0     0  0
 12 30  1  0     0  0
 13 15  1  0     0  0
 14 23  1  0     0  0
 15 10  1  0     0  0
 16 12  1  0     0  0
 17  4  1  0     0  0
 18 27  1  0     0  0
 19 28  1  0     0  0
 20 24  2  0     0  0
 21 25  1  0     0  0
 22  6  1  0     0  0
 23  2  1  0     0  0
 24 19  1  0     0  0
 25 19  2  0     0  0
 26 13  1  0     0  0
 27 13  1  0     0  0
 28 14  1  0     0  0
 29 18  1  0     0  0
 30 29  1  0     0  0
 31 17  1  0     0  0
 32 22  1  0     0  0
  7  3  1  0     0  0
 20 11  1  0     0  0
  6  4  2  0     0  0
M  END