
  SciTegic12231509382D

 35 41  0  0  0  0            999 V2000
    8.8249   -4.5375    0.0000 C   0  0  1  0  0  0
    9.2374   -3.8250    0.0000 C   0  0  2  0  0  0
    7.9999   -4.5375    0.0000 C   0  0
    9.2249   -5.2374    0.0000 C   0  0  1  0  0  0
    7.6000   -5.2374    0.0000 C   0  0
    8.3749   -5.7333    0.0000 O   0  0
    8.7999   -3.1124    0.0000 C   0  0  2  0  0  0
    8.8249   -2.2874    0.0000 N   0  0
    7.6000   -3.8250    0.0000 C   0  0
    7.9999   -3.1124    0.0000 C   0  0
    8.3999   -3.8250    0.0000 C   0  0
   10.0624   -3.8250    0.0000 C   0  0
   10.0499   -5.2499    0.0000 C   0  0
    9.2374   -1.5583    0.0000 C   0  0
    6.7750   -5.2374    0.0000 C   0  0
    8.3999   -2.8125    0.0000 C   0  0
    6.7750   -3.8250    0.0000 C   0  0
   10.4749   -4.5375    0.0000 C   0  0
    9.6499   -3.1000    0.0000 O   0  0
   10.4624   -5.9749    0.0000 O   0  0
    6.3583   -4.5375    0.0000 C   0  0
    6.3499   -5.9708    0.0000 O   0  0
    9.5207   -2.6999    0.0000 H   0  0
    9.2249   -6.1625    0.0000 H   0  0
   10.4748   -3.0948    0.0000 C   0  0
   10.8829   -2.3777    0.0000 C   0  0
   10.8919   -3.8066    0.0000 O   0  0
    8.8187   -0.8475    0.0000 C   0  0
    8.8141   -0.0248    0.0000 C   0  0
    8.1033   -0.4436    0.0000 C   0  0
   11.7062   -2.3750    0.0000 N   0  0
   12.1141   -1.6587    0.0000 C   0  0
   11.6970   -0.9458    0.0000 C   0  0
   10.8679   -0.9537    0.0000 C   0  0
   10.4636   -1.6705    0.0000 C   0  0
  2  1  1  0
  3  1  1  0
  4  1  1  0
  5  3  2  0
  6  4  1  0
  7  2  1  0
  8 16  1  0
  9  3  1  0
 10  9  1  0
  1 11  1  1
 12  2  1  0
 13  4  1  0
 14  8  1  0
 15  5  1  0
 16 11  1  0
 17  9  2  0
 18 13  1  0
  2 19  1  1
 20 13  2  0
 21 17  1  0
 22 15  1  0
  7 23  1  6
  4 24  1  1
  5  6  1  0
  8  7  1  0
 18 12  1  0
 10  7  1  0
 21 15  2  0
 19 25  1  0
 25 26  1  0
 25 27  2  0
 14 28  1  0
 29 28  1  0
 30 29  1  0
 28 30  1  0
 26 31  2  0
 31 32  1  0
 32 33  2  0
 33 34  1  0
 34 35  2  0
 35 26  1  0
M  END