
  SciTegic09081514162D

 20 22  0  0  0  0            999 V2000
   -1.0028   -1.5132    0.0000 C   0  0
   -1.0028    1.5132    0.0000 C   0  0
   -2.3155    0.7475    0.0000 C   0  0
   -2.3155   -0.7475    0.0000 C   0  0
   -0.9982    3.0140    0.0000 C   0  0
   -2.2894    3.7767    0.0000 C   0  0
   -2.2745    5.2767    0.0000 N   0  0
   -0.9680    6.0137    0.0000 C   0  0
    0.3235    5.2508    0.0000 C   0  0
    0.3086    3.7509    0.0000 C   0  0
    0.2917    0.7475    0.0000 C   0  0
    0.2917   -0.7475    0.0000 C   0  0
    1.7138   -1.2033    0.0000 N   0  0
    2.5889    0.0182    0.0000 C   0  0
    1.7138    1.2033    0.0000 C   0  0
    1.6322    5.9855    0.0000 N   0  0
    2.9233    5.2204    0.0000 C   0  0
    4.2320    5.9551    0.0000 C   0  0
    2.9093    4.0204    0.0000 O   0  0
    5.2643    5.3433    0.0000 C   0  0
  1 12  2  0
 11  2  2  0
  2  3  1  0
  3  4  2  0
  4  1  1  0
  5  6  2  0
  6  7  1  0
  7  8  2  0
  8  9  1  0
  9 10  2  0
 10  5  1  0
  2  5  1  0
 11 12  1  0
 12 13  1  0
 13 14  1  0
 14 15  2  0
 15 11  1  0
  9 16  1  0
 16 17  1  0
 17 18  1  0
 17 19  2  0
 18 20  1  0
M  END