
          11280715352D 1   1.00000     0.00000     0

 33 36  0     1  0            999 V2000
    4.4667   -4.1292    0.0000 C   0  0  0  0  0  0           0  0  0
    4.4125   -5.3125    0.0000 C   0  0  0  0  0  0           0  0  0
    4.9625   -4.4625    0.0000 C   0  0  2  0  0  0           0  0  0
    3.9500   -4.4042    0.0000 C   0  0  0  0  0  0           0  0  0
    5.4917   -4.1917    0.0000 N   0  0  3  0  0  0           0  0  0
    3.9167   -4.9917    0.0000 C   0  0  0  0  0  0           0  0  0
    4.9292   -5.0417    0.0000 C   0  0  0  0  0  0           0  0  0
    4.5000   -3.5500    0.0000 C   0  0  0  0  0  0           0  0  0
    4.3792   -5.9000    0.0000 C   0  0  0  0  0  0           0  0  0
    3.3667   -5.8375    0.0000 N   0  0  0  0  0  0           0  0  0
    6.6167   -2.4917    0.0000 C   0  0  3  0  0  0           0  0  0
    6.0875   -2.7542    0.0000 C   0  0  0  0  0  0           0  0  0
    7.2000   -2.5375    0.0000 C   0  0  0  0  0  0           0  0  0
    6.9375   -2.0042    0.0000 C   0  0  0  0  0  0           0  0  0
    3.4042   -5.2542    0.0000 C   0  0  0  0  0  0           0  0  0
    5.0292   -3.2875    0.0000 C   0  0  2  0  0  0           0  0  0
    5.5250   -3.6125    0.0000 C   0  0  0  0  0  0           0  0  0
    7.2042   -5.0375    0.0000 C   0  0  0  0  0  0           0  0  0
    8.4167   -5.0417    0.0000 C   0  0  0  0  0  0           0  0  0
    7.5125   -4.5250    0.0000 C   0  0  0  0  0  0           0  0  0
    8.1125   -4.5250    0.0000 C   0  0  0  0  0  0           0  0  0
    5.5917   -2.4292    0.0000 O   0  0  0  0  0  0           0  0  0
    6.0500   -3.3500    0.0000 O   0  0  0  0  0  0           0  0  0
    7.5125   -5.5625    0.0000 O   0  0  0  0  0  0           0  0  0
    9.0167   -5.0417    0.0000 O   0  0  0  0  0  0           0  0  0
    5.0625   -2.6917    0.0000 C   0  0  0  0  0  0           0  0  0
    3.4542   -4.0875    0.0000 C   0  0  0  0  0  0           0  0  0
    5.9792   -4.5250    0.0000 C   0  0  0  0  0  0           0  0  0
    8.1125   -5.5625    0.0000 O   0  0  0  0  0  0           0  0  0
    6.6042   -5.0375    0.0000 O   0  0  0  0  0  0           0  0  0
    2.9375   -4.3542    0.0000 C   0  0  0  0  0  0           0  0  0
    2.9042   -4.9417    0.0000 C   0  0  0  0  0  0           0  0  0
    5.4542   -4.7750    0.0000 H   0  0  0  0  0  0           0  0  0
  2  6  1  0     0  0
  3  1  1  0     0  0
  4  1  1  0     0  0
  5  3  1  0     0  0
  6  4  2  0     0  0
  7  3  1  0     0  0
  8  1  2  0     0  0
  9  2  2  0     0  0
 10 15  1  0     0  0
 11 12  1  0     0  0
 12 22  1  0     0  0
 13 11  1  0     0  0
 14 11  1  0     0  0
 15  6  1  0     0  0
 16  8  1  0     0  0
 17 16  1  0     0  0
 19 21  1  0     0  0
 20 18  1  0     0  0
 21 20  2  0     0  0
 22 26  1  0     0  0
 23 12  2  0     0  0
 24 18  2  0     0  0
 25 19  2  0     0  0
 16 26  1  1     0  0
 27  4  1  0     0  0
 28  5  1  0     0  0
 29 19  1  0     0  0
 30 18  1  0     0  0
 31 27  2  0     0  0
 32 15  2  0     0  0
  3 33  1  1     0  0
  2  7  1  0     0  0
 17  5  1  0     0  0
  9 10  1  0     0  0
 31 32  1  0     0  0
 14 13  1  0     0  0
M  END