
          11280715332D 1   1.00000     0.00000     0

 47 51  0     1  0            999 V2000
    5.7250   -4.5167    0.0000 S   0  0  3  0  0  0           0  0  0
    4.9667   -4.9167    0.0000 N   0  0  3  0  0  0           0  0  0
    6.4750   -4.8667    0.0000 N   0  0  3  0  0  0           0  0  0
    4.8292   -5.7042    0.0000 C   0  0  1  0  0  0           0  0  0
    6.6625   -5.6667    0.0000 C   0  0  1  0  0  0           0  0  0
    6.1292   -6.3417    0.0000 C   0  0  1  0  0  0           0  0  0
    5.3375   -6.3417    0.0000 C   0  0  1  0  0  0           0  0  0
    5.1292   -3.9292    0.0000 O   0  0  0  0  0  0           0  0  0
    6.3042   -3.9292    0.0000 O   0  0  0  0  0  0           0  0  0
    7.4792   -5.6667    0.0000 C   0  0  0  0  0  0           0  0  0
    4.0042   -5.7042    0.0000 C   0  0  0  0  0  0           0  0  0
    7.1875   -4.4417    0.0000 C   0  0  0  0  0  0           0  0  0
    4.2500   -4.5042    0.0000 C   0  0  0  0  0  0           0  0  0
    4.2417   -1.2042    0.0000 C   0  0  0  0  0  0           0  0  0
    4.2500   -2.0292    0.0000 C   0  0  0  0  0  0           0  0  0
    4.9542   -0.7875    0.0000 O   0  0  0  0  0  0           0  0  0
    3.5792   -6.4917    0.0000 O   0  0  0  0  0  0           0  0  0
    7.8917   -6.3792    0.0000 O   0  0  0  0  0  0           0  0  0
    4.9792   -7.0792    0.0000 O   0  0  0  0  0  0           0  0  0
    6.4917   -7.0792    0.0000 O   0  0  0  0  0  0           0  0  0
    4.9625   -2.4417    0.0000 C   0  0  0  0  0  0           0  0  0
    3.5292   -2.4500    0.0000 C   0  0  0  0  0  0           0  0  0
    4.2500   -3.6792    0.0000 C   0  0  0  0  0  0           0  0  0
    7.1792   -3.6250    0.0000 C   0  0  0  0  0  0           0  0  0
    3.5250   -0.8000    0.0000 O   0  0  0  0  0  0           0  0  0
    3.5375   -3.2667    0.0000 C   0  0  0  0  0  0           0  0  0
    4.9667   -3.2667    0.0000 C   0  0  0  0  0  0           0  0  0
    7.1667   -1.9792    0.0000 C   0  0  0  0  0  0           0  0  0
    8.7167   -6.3792    0.0000 C   0  0  0  0  0  0           0  0  0
    2.7542   -6.4750    0.0000 C   0  0  0  0  0  0           0  0  0
    6.4625   -3.2250    0.0000 C   0  0  0  0  0  0           0  0  0
    7.8917   -3.2042    0.0000 C   0  0  0  0  0  0           0  0  0
    7.8792   -2.3792    0.0000 C   0  0  0  0  0  0           0  0  0
    6.4542   -2.4042    0.0000 C   0  0  0  0  0  0           0  0  0
    6.4375   -0.7500    0.0000 O   0  0  0  0  0  0           0  0  0
    7.1542   -1.1542    0.0000 C   0  0  0  0  0  0           0  0  0
    2.8167   -1.2167    0.0000 C   0  0  0  0  0  0           0  0  0
    2.3167   -7.1792    0.0000 C   0  0  0  0  0  0           0  0  0
    9.1292   -5.6667    0.0000 C   0  0  0  0  0  0           0  0  0
    2.3542   -5.7417    0.0000 C   0  0  0  0  0  0           0  0  0
    9.1292   -7.1000    0.0000 C   0  0  0  0  0  0           0  0  0
    9.9542   -5.6667    0.0000 C   0  0  0  0  0  0           0  0  0
    1.4917   -7.1542    0.0000 C   0  0  0  0  0  0           0  0  0
    1.5292   -5.7292    0.0000 C   0  0  0  0  0  0           0  0  0
    9.9542   -7.1042    0.0000 C   0  0  0  0  0  0           0  0  0
   10.3667   -6.3875    0.0000 C   0  0  0  0  0  0           0  0  0
    1.1042   -6.4292    0.0000 C   0  0  0  0  0  0           0  0  0
  2  1  1  0     0  0
  3  1  1  0     0  0
  4  2  1  0     0  0
  5  3  1  0     0  0
  6  5  1  0     0  0
  7  4  1  0     0  0
  8  1  2  0     0  0
  9  1  2  0     0  0
  5 10  1  6     0  0
  4 11  1  1     0  0
 12  3  1  0     0  0
 13  2  1  0     0  0
 14 15  1  0     0  0
 15 21  2  0     0  0
 16 14  2  0     0  0
 17 11  1  0     0  0
 18 10  1  0     0  0
  7 19  1  1     0  0
  6 20  1  6     0  0
 21 27  1  0     0  0
 22 26  2  0     0  0
 23 13  1  0     0  0
 24 12  1  0     0  0
 25 14  1  0     0  0
 26 23  1  0     0  0
 27 23  2  0     0  0
 28 33  2  0     0  0
 29 18  1  0     0  0
 30 17  1  0     0  0
 31 24  1  0     0  0
 32 24  2  0     0  0
 33 32  1  0     0  0
 34 31  2  0     0  0
 35 36  1  0     0  0
 36 28  1  0     0  0
 37 25  1  0     0  0
 38 30  2  0     0  0
 39 29  1  0     0  0
 40 30  1  0     0  0
 41 29  2  0     0  0
 42 39  2  0     0  0
 43 38  1  0     0  0
 44 40  2  0     0  0
 45 41  1  0     0  0
 46 45  2  0     0  0
 47 44  1  0     0  0
  7  6  1  0     0  0
 28 34  1  0     0  0
 15 22  1  0     0  0
 42 46  1  0     0  0
 43 47  2  0     0  0
M  END