
  SciTegic01161211262D

 44 47  0  0  0  0            999 V2000
   -1.1292   -5.8667    0.0000 N   0  0
   -0.3750   -6.2042    0.0000 C   0  0
    8.1917   -4.5250    0.0000 N   0  3
   -1.2708   -7.1958    0.0000 N   0  0
    3.2000   -4.9542    0.0000 C   0  0
   -0.4625   -7.0250    0.0000 O   0  0
    5.3417   -4.5292    0.0000 C   0  0
   -1.6792   -6.4792    0.0000 C   0  0
    3.9125   -4.5375    0.0000 N   0  0
    4.6292   -4.9458    0.0000 C   0  0  1  0  0  0
    6.0583   -4.9375    0.0000 N   0  0
    2.4833   -4.5458    0.0000 N   0  0
    0.3417   -5.7917    0.0000 C   0  0
    3.2042   -5.7792    0.0000 O   0  0
    5.3375   -3.7042    0.0000 O   0  0
    7.4833   -4.9375    0.0000 C   0  0
    4.6333   -5.7708    0.0000 C   0  0
    8.9083   -4.1167    0.0000 C   0  0
    6.7708   -4.5250    0.0000 C   0  0  2  0  0  0
    0.3458   -4.9667    0.0000 C   0  0
    1.0583   -6.2042    0.0000 C   0  0
    1.7708   -4.9625    0.0000 C   0  0
    5.3500   -6.1792    0.0000 C   0  0
    9.6208   -4.5292    0.0000 C   0  0
    8.1917   -3.7000    0.0000 C   0  0
   11.0458   -5.3625    0.0000 C   0  0
    6.7833   -7.0000    0.0000 C   0  0
    8.1875   -5.3458    0.0000 C   0  0
    1.7750   -5.7917    0.0000 C   0  0
    1.0542   -4.5500    0.0000 C   0  0
    5.3542   -7.0042    0.0000 C   0  0
    6.0583   -5.7625    0.0000 C   0  0
   10.3333   -4.1208    0.0000 C   0  0
    9.6167   -5.3542    0.0000 C   0  0
    6.0667   -7.4125    0.0000 C   0  0
   11.0458   -4.5333    0.0000 C   0  0
    6.7750   -6.1708    0.0000 C   0  0
   10.3292   -5.7708    0.0000 C   0  0
   11.7583   -5.7792    0.0000 O   0  0
    7.5000   -7.4042    0.0000 O   0  0
   -2.5000   -6.3917    0.0000 C   0  0
    7.4792   -3.2875    0.0000 C   0  0
    6.7625   -3.7000    0.0000 C   0  0
    9.5125   -7.1500    0.0000 I   0  5
  2  1  2  0
  3 16  1  0
  4  8  2  0
  5 12  1  0
  6  2  1  0
  7 10  1  0
  8  1  1  0
  9  5  1  0
 10  9  1  0
 11  7  1  0
 12 22  1  0
 13  2  1  0
 14  5  2  0
 15  7  2  0
 16 19  1  0
 10 17  1  6
 18  3  1  0
 19 11  1  1
 20 13  2  0
 21 13  1  0
 22 30  2  0
 23 17  1  0
 24 18  1  0
 25 42  1  0
 26 36  1  0
 27 35  2  0
 28  3  1  0
 29 21  2  0
 30 20  1  0
 31 23  2  0
 32 23  1  0
 33 24  1  0
 34 24  2  0
 35 31  1  0
 36 33  2  0
 37 32  2  0
 38 34  1  0
 39 26  1  0
 40 27  1  0
 41  8  1  0
 42 43  1  0
 43 19  1  0
  6  4  1  0
 22 29  1  0
 37 27  1  0
 25  3  1  0
 26 38  2  0
M  CHG  2   3   1  44  -1
M  END