
  CDK    9/16/09,10:2

 23 25  0  0  0  0  0  0  0  0999 V2000
    1.9436    2.3054    0.0000 C   0  0  0  0  0  0  0  0  0  0  0  0
    1.5265    1.5944    0.0000 C   0  0  0  0  0  0  0  0  0  0  0  0
    1.9336    0.8799    0.0000 C   0  0  0  0  0  0  0  0  0  0  0  0
    2.7577    0.8750    0.0000 C   0  0  0  0  0  0  0  0  0  0  0  0
    3.1730    1.5907    0.0000 C   0  0  0  0  0  0  0  0  0  0  0  0
    2.7635    2.3024    0.0000 C   0  0  0  0  0  0  0  0  0  0  0  0
    3.1629    0.1585    0.0000 C   0  0  0  0  0  0  0  0  0  0  0  0
    2.9149   -0.6290    0.0000 N   0  0  0  0  0  0  0  0  0  0  0  0
    3.5873   -1.1084    0.0000 N   0  0  0  0  0  0  0  0  0  0  0  0
    4.2509   -0.6169    0.0000 S   0  0  0  0  0  0  0  0  0  0  0  0
    3.9886    0.1659    0.0000 C   0  0  0  0  0  0  0  0  0  0  0  0
    4.4637    0.8359    0.0000 C   0  0  0  0  0  0  0  0  0  0  0  0
    5.2903    0.8170    0.0000 C   0  0  0  0  0  0  0  0  0  0  0  0
    5.7183    1.5223    0.0000 C   0  0  0  0  0  0  0  0  0  0  0  0
    5.3207    2.2471    0.0000 C   0  0  0  0  0  0  0  0  0  0  0  0
    4.4908    2.2621    0.0000 C   0  0  0  0  0  0  0  0  0  0  0  0
    4.0666    1.5561    0.0000 C   0  0  0  0  0  0  0  0  0  0  0  0
    5.7477    2.9537    0.0000 O   0  0  0  0  0  0  0  0  0  0  0  0
    6.5733    2.9372    0.0000 C   0  0  0  0  0  0  0  0  0  0  0  0
    1.5166    0.1671    0.0000 O   0  0  0  0  0  0  0  0  0  0  0  0
    1.5346    3.0227    0.0000 O   0  0  0  0  0  0  0  0  0  0  0  0
    3.1782    3.0164    0.0000 Cl  0  0  0  0  0  0  0  0  0  0  0  0
    6.9718    2.2140    0.0000 C   0  0  0  0  0  0  0  0  0  0  0  0
  4  7  1  0  0  0  0 
  5  6  2  0  0  0  0 
  6  1  1  0  0  0  0 
 12 13  2  0  0  0  0 
  7  8  1  0  0  0  0 
 13 14  1  0  0  0  0 
  1  2  2  0  0  0  0 
 14 15  2  0  0  0  0 
  3  4  2  0  0  0  0 
 15 16  1  0  0  0  0 
 16 17  2  0  0  0  0 
 17 12  1  0  0  0  0 
 11 12  1  0  0  0  0 
  4  5  1  0  0  0  0 
 15 18  1  0  0  0  0 
  2  3  1  0  0  0  0 
 18 19  1  0  0  0  0 
  8  9  2  0  0  0  0 
  3 20  1  0  0  0  0 
  9 10  1  0  0  0  0 
  1 21  1  0  0  0  0 
 10 11  1  0  0  0  0 
  6 22  1  0  0  0  0 
 11  7  2  0  0  0  0 
 19 23  1  0  0  0  0 
M  END