
  SciTegic05171617272D

 42 47  0  0  1  0            999 V2000
    3.6387   -0.8963    0.0000 O   0  0
    2.6003   -1.4977    0.0000 C   0  0
    1.2990   -0.7500    0.0000 C   0  0
    1.2990    0.7500    0.0000 O   0  0
    0.0000    1.5000    0.0000 C   0  0  1  0  0  0
    0.0031    3.0008    0.0000 S   0  0
    1.3039    3.7494    0.0000 C   0  0  2  0  0  0
    2.6004    2.9949    0.0000 C   0  0
    3.9020    3.7405    0.0000 C   0  0
    3.9072    5.2405    0.0000 C   0  0
    2.6108    5.9949    0.0000 C   0  0
    1.3092    5.2494    0.0000 C   0  0
    0.2720    5.8530    0.0000 O   0  0
    2.6159    7.4957    0.0000 N   0  0
    3.8311    8.3533    0.0000 C   0  0
    3.3702    9.7807    0.0000 C   0  0
    1.8702    9.7835    0.0000 N   0  0
    1.4040    8.3578    0.0000 N   0  0
    4.2546   10.9932    0.0000 C   0  0
    3.5406   12.3143    0.0000 C   0  0
    4.3308   13.5893    0.0000 C   0  0
    5.8301   13.5424    0.0000 C   0  0
    6.5391   12.2205    0.0000 C   0  0
    5.7489   10.9456    0.0000 C   0  0
    6.3158    9.8879    0.0000 F   0  0
   -1.2990    0.7500    0.0000 C   0  0
   -2.3383    1.3500    0.0000 O   0  0
   -1.2990   -0.7500    0.0000 C   0  0  2  0  0  0
    0.0000   -1.5000    0.0000 C   0  0  1  0  0  0
    0.0000   -2.7000    0.0000 O   0  0
   -2.5987   -1.5004    0.0000 N   0  0
   -2.7390   -2.9810    0.0000 C   0  0
   -4.2067   -3.2906    0.0000 C   0  0
   -4.9546   -1.9904    0.0000 N   0  0
   -3.9491   -0.8772    0.0000 N   0  0
   -4.8192   -4.6606    0.0000 C   0  0
   -6.3205   -4.6976    0.0000 C   0  0
   -7.0341   -6.0170    0.0000 C   0  0
   -6.2482   -7.2947    0.0000 C   0  0
   -4.7488   -7.2530    0.0000 C   0  0
   -4.0352   -5.9336    0.0000 C   0  0
   -2.8357   -5.8998    0.0000 F   0  0
  1  2  1  0
  2  3  1  0
  3  4  1  0
  4  5  1  0
  5  6  1  6
  7  6  1  1
  7  8  1  0
  8  9  1  0
  9 10  1  0
 10 11  1  0
 11 12  1  0
  7 12  1  0
 12 13  1  0
 11 14  1  0
 14 15  1  0
 15 16  2  0
 16 17  1  0
 17 18  2  0
 14 18  1  0
 16 19  1  0
 19 20  2  0
 20 21  1  0
 21 22  2  0
 22 23  1  0
 23 24  2  0
 19 24  1  0
 24 25  1  0
  5 26  1  0
 26 27  1  0
 26 28  1  0
 28 29  1  0
  3 29  1  0
 29 30  1  6
 28 31  1  6
 31 32  1  0
 32 33  2  0
 33 34  1  0
 34 35  2  0
 31 35  1  0
 33 36  1  0
 36 37  2  0
 37 38  1  0
 38 39  2  0
 39 40  1  0
 40 41  2  0
 36 41  1  0
 41 42  1  0
M  END