
  SciTegic07101214422D

160168  0  0  0  0            999 V2000
   27.9292   -8.3917    0.0000 C   0  0
   28.7292   -8.6083    0.0000 S   0  0
   28.5168   -7.8072    0.0000 O   0  0
   26.0792  -10.8667    0.0000 C   0  0
   26.9042  -10.8708    0.0000 C   0  0
   26.4953  -10.1543    0.0000 C   0  0
   23.7625  -11.3583    0.0000 C   0  0
   23.9792  -12.1583    0.0000 C   0  0
   24.5637  -11.5707    0.0000 C   0  0
   18.2090   -8.6991    0.0000 N   0  0
   18.9244   -8.2883    0.0000 C   0  0  1  0  0  0
   19.6379   -8.7026    0.0000 C   0  0
   20.3534   -8.2918    0.0000 N   0  0
   19.6359   -9.5276    0.0000 O   0  0
   18.9264   -7.4633    0.0000 C   0  0
   18.2129   -7.0491    0.0000 C   0  0
   18.2149   -6.2241    0.0000 C   0  0
   17.5014   -5.8099    0.0000 N   0  0
   17.5034   -4.9849    0.0000 C   0  0
   16.7900   -4.5707    0.0000 N   0  0
   18.2189   -4.5741    0.0000 N   0  0
   21.0668   -8.7060    0.0000 C   0  0  1  0  0  0
   21.7823   -8.2952    0.0000 C   0  0
   21.0649   -9.5310    0.0000 C   0  0
   20.3494   -9.9418    0.0000 C   0  0
   20.3474  -10.7668    0.0000 C   0  0
   22.4958   -8.7094    0.0000 N   0  0
   21.7843   -7.4702    0.0000 O   0  0
   13.9222   -8.6888    0.0000 N   0  0
   14.6376   -8.2780    0.0000 C   0  0  1  0  0  0
   15.3511   -8.6922    0.0000 C   0  0
   16.0666   -8.2815    0.0000 N   0  0
   15.3491   -9.5172    0.0000 O   0  0
   14.6396   -7.4530    0.0000 C   0  0
   13.9261   -7.0388    0.0000 C   0  0
   13.9281   -6.2138    0.0000 C   0  0
   13.2146   -5.7996    0.0000 N   0  0
   13.2166   -4.9746    0.0000 C   0  0
   12.5031   -4.5604    0.0000 N   0  0
   13.9321   -4.5638    0.0000 N   0  0
   16.7800   -8.6957    0.0000 C   0  0  1  0  0  0
   17.4955   -8.2849    0.0000 C   0  0
   16.7780   -9.5207    0.0000 C   0  0
   16.0626   -9.9315    0.0000 C   0  0
   16.0606  -10.7564    0.0000 C   0  0
   15.3451  -11.1672    0.0000 N   0  0
   15.3431  -11.9922    0.0000 C   0  0
   14.6277  -12.4030    0.0000 N   0  0
   16.0566  -12.4064    0.0000 N   0  0
   17.4975   -7.4599    0.0000 O   0  0
    9.6353   -8.6785    0.0000 N   0  0
   10.3508   -8.2677    0.0000 C   0  0  1  0  0  0
   11.0643   -8.6819    0.0000 C   0  0
   11.7797   -8.2711    0.0000 N   0  0
   11.0623   -9.5069    0.0000 O   0  0
   10.3528   -7.4427    0.0000 C   0  0
    9.6393   -7.0285    0.0000 C   0  0
    9.6413   -6.2035    0.0000 C   0  0
    8.9278   -5.7893    0.0000 N   0  0
    8.9298   -4.9643    0.0000 C   0  0
    8.2163   -4.5500    0.0000 N   0  0
    9.6453   -4.5535    0.0000 N   0  0
   12.4932   -8.6854    0.0000 C   0  0  1  0  0  0
   13.2087   -8.2746    0.0000 C   0  0
   12.4912   -9.5104    0.0000 C   0  0
   11.7758   -9.9211    0.0000 C   0  0
   11.7738  -10.7461    0.0000 C   0  0
   11.0583  -11.1569    0.0000 N   0  0
   11.0563  -11.9819    0.0000 C   0  0
   10.3409  -12.3927    0.0000 N   0  0
   11.7698  -12.3961    0.0000 N   0  0
   13.2107   -7.4496    0.0000 O   0  0
    7.4929   -8.2608    0.0000 N   0  0
    8.2064   -8.6750    0.0000 C   0  0  1  0  0  0
    8.9219   -8.2643    0.0000 C   0  0
    8.2044   -9.5000    0.0000 C   0  0
    7.4890   -9.9108    0.0000 C   0  0
    7.4870  -10.7358    0.0000 C   0  0
    6.7715  -11.1466    0.0000 N   0  0
    6.7695  -11.9716    0.0000 C   0  0
    6.0541  -12.3824    0.0000 N   0  0
    7.4830  -12.3858    0.0000 N   0  0
    8.9238   -7.4393    0.0000 O   0  0
   -9.5365   -8.0514    0.0000 O   0  0
   -8.9490   -8.6348    0.0000 S   0  0
   -9.7418   -8.8519    0.0000 O   0  0
  -11.0893  -10.6931    0.0000 N   0  0
  -11.0881   -9.8658    0.0000 C   0  0
  -10.3779   -9.4529    0.0000 C   0  0
  -10.3761  -11.1059    0.0000 C   0  0
   -9.6665  -10.6968    0.0000 C   0  0
   -9.6589   -9.8699    0.0000 C   0  0
   -8.9492   -9.4590    0.0000 C   0  0
   -8.2309   -9.8737    0.0000 C   0  0
   -8.2345  -10.7037    0.0000 C   0  0
   -8.9519  -11.1109    0.0000 C   0  0
   -8.2329   -8.2230    0.0000 N   0  0
   -7.5131   -8.6372    0.0000 C   0  0
   -6.8035   -8.2264    0.0000 C   0  0
   -6.0837   -8.6406    0.0000 N   0  0
   -5.3675   -8.2298    0.0000 C   0  0
   -4.6540   -8.6441    0.0000 C   0  0
   -3.9386   -8.2333    0.0000 C   0  0
   -3.2251   -8.6475    0.0000 C   0  0
   -2.5096   -8.2367    0.0000 C   0  0
   -1.7962   -8.6509    0.0000 C   0  0
   -1.0807   -8.2402    0.0000 C   0  0
   -0.3672   -8.6544    0.0000 C   0  0
    0.3482   -8.2436    0.0000 N   0  0
   -0.3692   -9.4794    0.0000 O   0  0
    1.0617   -8.6578    0.0000 C   0  0  1  0  0  0
    1.7772   -8.2470    0.0000 C   0  0
    2.4906   -8.6613    0.0000 N   0  0
    1.7792   -7.4220    0.0000 O   0  0
    1.0597   -9.4828    0.0000 C   0  0
    0.3443   -9.8936    0.0000 C   0  0
    0.3423  -10.7186    0.0000 C   0  0
   -0.3732  -11.1294    0.0000 N   0  0
   -0.3752  -11.9544    0.0000 C   0  0
   -1.0906  -12.3652    0.0000 N   0  0
    0.3383  -12.3686    0.0000 N   0  0
    3.2061   -8.2505    0.0000 C   0  0
    3.9196   -8.6647    0.0000 C   0  0
    4.6350   -8.2539    0.0000 C   0  0
    5.3485   -8.6681    0.0000 C   0  0
    6.0640   -8.2574    0.0000 C   0  0
    6.7775   -8.6716    0.0000 C   0  0
    6.7755   -9.4966    0.0000 O   0  0
   19.6319  -11.1775    0.0000 C   0  0
   19.6300  -12.0025    0.0000 N   0  0
   20.3434  -12.4168    0.0000 C   0  0
   20.3414  -13.2418    0.0000 O   0  0
   21.0589  -12.0060    0.0000 C   0  0
   21.7724  -12.4202    0.0000 C   0  0
   21.7661  -13.2427    0.0000 C   0  0
   22.4787  -13.6569    0.0000 C   0  0
   22.4813  -12.0064    0.0000 C   0  0
   23.1945  -12.4168    0.0000 C   0  0
   23.1953  -13.2422    0.0000 C   0  0
   24.4651  -12.8282    0.0000 C   0  0
   23.9797  -13.4950    0.0000 N   0  0
   24.3127  -14.2446    0.0000 C   0  0
   25.1320  -14.3338    0.0000 C   0  0
   25.2835  -12.9110    0.0000 C   0  0
   25.6165  -13.6670    0.0000 C   0  0
   26.4333  -13.7561    0.0000 O   0  0
   25.7671  -12.2440    0.0000 C   0  0
   26.5899  -12.3354    0.0000 C   0  0
   26.9191  -13.0884    0.0000 C   0  0
   27.7313  -13.1793    0.0000 C   0  0
   28.2203  -12.5195    0.0000 C   0  0
   27.0729  -11.6733    0.0000 C   0  0
   27.8876  -11.7618    0.0000 N   0  3
   27.6163  -10.4637    0.0000 C   0  0
   28.2202  -11.0127    0.0000 C   0  0
   28.9955  -10.7638    0.0000 C   0  0
   29.1681   -9.9664    0.0000 C   0  0
   28.5593   -9.4183    0.0000 C   0  0
   27.7863   -9.6700    0.0000 C   0  0
   29.5150   -8.3560    0.0000 O   0  0
 75 51  1  0
  5  4  1  0
 75 83  2  0
 85 84  2  0
 86 85  2  0
 43 44  1  0
 22 24  1  1
 44 45  1  0
 12 14  2  0
 45 46  1  0
 87 88  2  0
 24 25  1  0
 88 89  1  0
 89 92  2  0
 46 47  1  0
 91 90  2  0
 90 87  1  0
  6  5  1  0
 47 48  1  0
 91 92  1  0
 25 26  1  0
 92 93  1  0
 47 49  2  0
 93 94  2  0
 42 10  1  0
 94 95  1  0
 11 15  1  6
 95 96  2  0
 96 91  1  0
 93 85  1  0
 42 50  2  0
 85 97  1  0
 23 27  1  0
 97 98  1  0
 98 99  1  0
 51 52  1  0
 99100  1  0
 23 28  2  0
100101  1  0
 52 53  1  0
101102  1  0
 15 16  1  0
102103  1  0
 53 54  1  0
103104  1  0
  2  1  2  0
104105  1  0
 53 55  2  0
105106  1  0
 29 30  1  0
106107  1  0
 52 56  1  6
107108  1  0
 16 17  1  0
108109  1  0
 56 57  1  0
108110  2  0
 30 31  1  0
109111  1  0
 57 58  1  0
111112  1  0
  3  2  2  0
112113  1  0
 58 59  1  0
112114  2  0
 31 32  1  0
111115  1  1
 59 60  1  0
115116  1  0
 17 18  1  0
116117  1  0
 60 61  1  0
117118  1  0
 31 33  2  0
118119  1  0
 60 62  2  0
119120  1  0
 10 11  1  0
119121  2  0
 54 63  1  0
113122  1  0
 30 34  1  6
122123  1  0
 63 64  1  0
123124  1  0
 18 19  1  0
124125  1  0
 63 65  1  1
125126  1  0
 34 35  1  0
126127  1  0
127 73  1  0
 65 66  1  0
127128  2  0
  8  7  1  0
 26129  1  0
 66 67  1  0
129130  1  0
 35 36  1  0
130131  1  0
 67 68  1  0
131132  2  0
 19 20  1  0
131133  1  0
 68 69  1  0
133134  1  0
 36 37  1  0
134135  2  0
 69 70  1  0
135136  1  0
136139  2  0
 11 12  1  0
138137  2  0
137134  1  0
138139  1  0
 69 71  2  0
 64 29  1  0
139141  1  0
140  8  1  0
  8138  1  0
140141  1  0
 37 38  1  0
 64 72  2  0
 19 21  2  0
 38 39  1  0
140144  2  0
141142  1  0
142143  1  0
143145  1  0
144145  1  0
 73 74  1  0
  9  8  1  0
 74 75  1  0
 38 40  2  0
144147  1  0
145146  1  0
146149  1  0
148147  2  0
148149  1  0
 74 76  1  1
 13 22  1  0
 76 77  1  0
 32 41  1  0
148152  1  0
149150  1  0
150151  1  0
151153  1  0
152153  2  0
 77 78  1  0
 12 13  1  0
153155  1  0
154  5  1  0
  5152  1  0
 78 79  1  0
 41 42  1  0
154155  2  0
 79 80  1  0
155156  1  0
 22 23  1  0
156157  2  0
 80 81  1  0
157158  1  0
 41 43  1  1
158159  2  0
159154  1  0
158  2  1  0
 80 82  2  0
  2160  1  0
M  CHG  1 153   1
M  END