
  SciTegic01161211242D

 39 43  0  0  0  0            999 V2000
   10.5539   -8.5027    0.0000 C   0  0
   11.2703   -8.0894    0.0000 C   0  0
   11.2675   -7.2588    0.0000 C   0  0
   10.5521   -6.8497    0.0000 C   0  0
    9.8391   -8.0898    0.0000 C   0  0
    9.8357   -7.2609    0.0000 C   0  0
   11.9804   -6.8436    0.0000 C   0  0
   12.6964   -7.2534    0.0000 N   0  0
   11.9773   -6.0186    0.0000 O   0  0
   13.4093   -6.8383    0.0000 C   0  0
   14.1253   -7.2481    0.0000 C   0  0
   14.1253   -8.0719    0.0000 C   0  0
   14.8405   -8.4816    0.0000 C   0  0
   15.5544   -8.0664    0.0000 C   0  0
   15.5486   -7.2371    0.0000 C   0  0
   14.8329   -6.8312    0.0000 C   0  0
   16.2561   -6.8208    0.0000 C   0  0
   16.9738   -7.2298    0.0000 C   0  0
   17.6848   -6.8128    0.0000 C   0  0
   17.6792   -5.9869    0.0000 C   0  0
   16.9567   -5.5799    0.0000 C   0  0
   16.2487   -5.9992    0.0000 C   0  0
   18.4020   -7.2204    0.0000 C   0  0
   18.4127   -8.0414    0.0000 N   0  0
   17.7033   -8.4669    0.0000 C   0  0
   17.7183   -9.2881    0.0000 C   0  0  2  0  0  0
   18.4393   -9.6897    0.0000 N   0  0
   19.1470   -9.2638    0.0000 C   0  0
   19.1336   -8.4363    0.0000 C   0  0
    9.1209   -6.8490    0.0000 C   0  0
    9.1202   -6.0240    0.0000 N   0  0
   17.0108   -9.7126    0.0000 C   0  0
   16.2710   -8.4753    0.0000 F   0  0
    9.8329   -5.6133    0.0000 C   0  0
    9.8342   -4.7919    0.0000 C   0  0
    9.1212   -4.3762    0.0000 N   0  0
    8.4053   -4.7880    0.0000 C   0  0
    8.4023   -5.6156    0.0000 C   0  0
    9.1237   -3.5512    0.0000 C   0  0
  4  6  1  0
 19 20  2  0
  8 10  1  0
 20 21  1  0
  5  6  2  0
 21 22  2  0
 22 17  1  0
 15 17  1  0
 10 11  1  0
 19 23  1  0
  1  2  2  0
 23 24  1  0
 24 25  1  0
 11 12  2  0
  5  1  1  0
 12 13  1  0
  2  3  1  0
 13 14  2  0
 24 29  1  0
 25 26  1  0
 26 27  1  0
 27 28  1  0
 28 29  1  0
  3  7  1  0
  6 30  1  0
 14 15  1  0
 30 31  1  0
 26 32  1  1
 15 16  2  0
 14 33  1  0
 31 34  1  0
 16 11  1  0
  7  8  1  0
  3  4  2  0
 17 18  2  0
  7  9  2  0
 31 38  1  0
 34 35  1  0
 35 36  1  0
 36 37  1  0
 37 38  1  0
 18 19  1  0
 36 39  1  0
M  END