
          11280715382D 1   1.00000     0.00000     0

 41 45  0     1  0            999 V2000
    4.4167   -1.5667    0.0000 C   0  0  0  0  0  0           0  0  0
    7.2917   -1.5792    0.0000 N   0  0  3  0  0  0           0  0  0
    3.5042   -2.5667    0.0000 N   0  0  0  0  0  0           0  0  0
    6.5292   -6.1375    0.0000 N   0  0  3  0  0  0           0  0  0
    4.3167   -2.3917    0.0000 C   0  0  0  0  0  0           0  0  0
    7.2917   -2.4042    0.0000 C   0  0  0  0  0  0           0  0  0
    3.6542   -1.2292    0.0000 C   0  0  0  0  0  0           0  0  0
    5.8417   -3.2417    0.0000 C   0  0  0  0  0  0           0  0  0
    8.7417   -1.5792    0.0000 C   0  0  0  0  0  0           0  0  0
    8.0250   -1.1667    0.0000 C   0  0  0  0  0  0           0  0  0
    6.5500   -4.4875    0.0000 N   0  0  3  0  0  0           0  0  0
    5.8542   -2.4042    0.0000 N   0  0  0  0  0  0           0  0  0
    3.0917   -1.8417    0.0000 C   0  0  0  0  0  0           0  0  0
    5.1292   -1.1625    0.0000 C   0  0  0  0  0  0           0  0  0
    5.8542   -1.5792    0.0000 C   0  0  2  0  0  0           0  0  0
    6.5792   -1.1625    0.0000 C   0  0  0  0  0  0           0  0  0
    5.8250   -5.7042    0.0000 C   0  0  0  0  0  0           0  0  0
    7.2542   -5.7167    0.0000 C   0  0  0  0  0  0           0  0  0
    6.5625   -3.6542    0.0000 C   0  0  0  0  0  0           0  0  0
    6.5167   -6.9667    0.0000 C   0  0  0  0  0  0           0  0  0
    9.4542   -1.1667    0.0000 C   0  0  0  0  0  0           0  0  0
    6.7042   -2.9875    0.0000 O   0  0  0  0  0  0           0  0  0
    5.1167   -3.6417    0.0000 O   0  0  0  0  0  0           0  0  0
    7.2625   -4.9000    0.0000 C   0  0  0  0  0  0           0  0  0
    5.8375   -4.8917    0.0000 C   0  0  0  0  0  0           0  0  0
    9.4542   -0.3292    0.0000 O   0  0  0  0  0  0           0  0  0
    8.7417   -2.4292    0.0000 C   0  0  0  0  0  0           0  0  0
    7.8792   -2.9875    0.0000 C   0  0  0  0  0  0           0  0  0
    3.4000   -0.4417    0.0000 C   0  0  0  0  0  0           0  0  0
    2.2917   -1.6667    0.0000 C   0  0  0  0  0  0           0  0  0
    5.7917   -7.3667    0.0000 C   0  0  0  0  0  0           0  0  0
    7.2375   -7.3792    0.0000 C   0  0  0  0  0  0           0  0  0
   10.1667   -1.5750    0.0000 C   0  0  0  0  0  0           0  0  0
   10.1667    0.0958    0.0000 C   0  0  0  0  0  0           0  0  0
    9.4542   -2.8417    0.0000 C   0  0  0  0  0  0           0  0  0
    2.6000   -0.2667    0.0000 C   0  0  0  0  0  0           0  0  0
    2.0417   -0.8875    0.0000 C   0  0  0  0  0  0           0  0  0
    7.2250   -8.2125    0.0000 C   0  0  0  0  0  0           0  0  0
    5.7917   -8.1917    0.0000 C   0  0  0  0  0  0           0  0  0
   10.1667   -2.4292    0.0000 C   0  0  0  0  0  0           0  0  0
    6.5000   -8.6167    0.0000 C   0  0  0  0  0  0           0  0  0
  2 16  1  0     0  0
  3  5  1  0     0  0
  4 17  1  0     0  0
  5  1  2  0     0  0
  6  2  1  0     0  0
  7  1  1  0     0  0
  8 12  1  0     0  0
  9 10  1  0     0  0
 10  2  1  0     0  0
 11 19  1  0     0  0
 15 12  1  6     0  0
 13  7  2  0     0  0
 14  1  1  0     0  0
 15 14  1  0     0  0
 16 15  1  0     0  0
 17 25  1  0     0  0
 18 24  1  0     0  0
 19  8  1  0     0  0
 20  4  1  0     0  0
 21  9  1  0     0  0
 22  6  2  0     0  0
 23  8  2  0     0  0
 24 11  1  0     0  0
 25 11  1  0     0  0
 26 21  1  0     0  0
 27  9  2  0     0  0
 28  6  1  0     0  0
 29  7  1  0     0  0
 30 13  1  0     0  0
 31 20  2  0     0  0
 32 20  1  0     0  0
 33 21  2  0     0  0
 34 26  1  0     0  0
 35 27  1  0     0  0
 36 29  2  0     0  0
 37 36  1  0     0  0
 38 32  2  0     0  0
 39 31  1  0     0  0
 40 35  2  0     0  0
 41 38  1  0     0  0
 13  3  1  0     0  0
 37 30  2  0     0  0
 18  4  1  0     0  0
 33 40  1  0     0  0
 39 41  2  0     0  0
M  END