
          03140815512D 1   1.00000     0.00000     0

 21 22  0     0  0            999 V2000
   15.1707   -2.0552    0.0000 C   0  0  0  0  0  0           0  0  0
   14.4504   -1.6550    0.0000 C   0  0  0  0  0  0           0  0  0
   13.7444   -2.0804    0.0000 C   0  0  0  0  0  0           0  0  0
   13.7597   -2.9061    0.0000 C   0  0  0  0  0  0           0  0  0
   14.4870   -3.3046    0.0000 C   0  0  0  0  0  0           0  0  0
   15.1900   -2.8769    0.0000 C   0  0  0  0  0  0           0  0  0
   13.0539   -3.3331    0.0000 C   0  0  3  0  0  0           0  0  0
   12.3311   -2.9353    0.0000 C   0  0  0  0  0  0           0  0  0
   13.0707   -4.1580    0.0000 C   0  0  0  0  0  0           0  0  0
   13.7917    1.2250    0.0000 O   0  0  0  0  0  0           0  0  0
   13.7917    0.4000    0.0000 C   0  0  0  0  0  0           0  0  0
   14.5037   -0.0083    0.0000 C   0  0  0  0  0  0           0  0  0
   15.2157    0.4000    0.0000 N   0  0  3  0  0  0           0  0  0
   15.2157    1.2250    0.0000 C   0  0  0  0  0  0           0  0  0
   14.5037    1.6417    0.0000 C   0  0  0  0  0  0           0  0  0
   15.9296   -0.0135    0.0000 C   0  0  0  0  0  0           0  0  0
   15.9284   -0.8385    0.0000 C   0  0  3  0  0  0           0  0  0
   16.6446    0.3979    0.0000 O   0  0  0  0  0  0           0  0  0
   15.9008   -1.6656    0.0000 S   0  0  0  0  0  0           0  0  0
   16.7533   -0.8529    0.0000 F   0  0  0  0  0  0           0  0  0
   15.1036   -0.8216    0.0000 F   0  0  0  0  0  0           0  0  0
  2  3  1  0     0  0
  5  6  2  0     0  0
  6  1  1  0     0  0
  1  2  2  0     0  0
  4  7  1  0     0  0
 10 15  1  0     0  0
 11 12  1  0     0  0
 12 13  1  0     0  0
 13 14  1  0     0  0
 14 15  1  0     0  0
  3  4  2  0     0  0
 13 16  1  0     0  0
  7  8  1  0     0  0
 16 17  1  0     0  0
 16 18  2  0     0  0
  7  9  1  0     0  0
 17 19  1  0     0  0
 10 11  1  0     0  0
 17 20  1  0     0  0
  4  5  1  0     0  0
 17 21  1  0     0  0
 19  1  1  0     0  0
M  END