
  SciTegic10041313212D

 25 27  0  0  0  0            999 V2000
   11.1817  -15.5199    0.0000 C   0  0
   11.8942  -15.9367    0.0000 C   0  0
   12.6077  -15.5242    0.0000 C   0  0
   12.6075  -14.6983    0.0000 C   0  0
   11.8876  -14.2867    0.0000 C   0  0
   11.1770  -14.7015    0.0000 C   0  0
   10.4603  -14.2928    0.0000 O   0  0
    9.7481  -14.7091    0.0000 C   0  0
    9.0324  -14.2984    0.0000 C   0  0
    8.3206  -14.7140    0.0000 C   0  0
    8.3246  -15.5399    0.0000 C   0  0
    9.0462  -15.9484    0.0000 C   0  0
    9.7550  -15.5305    0.0000 C   0  0
    7.6129  -15.9571    0.0000 O   0  0
   13.3224  -15.9364    0.0000 C   0  0
   14.0367  -15.5236    0.0000 C   0  0
   14.7899  -15.8537    0.0000 C   0  0
   15.3417  -15.2404    0.0000 N   0  0
   14.9288  -14.5260    0.0000 C   0  0
   14.1220  -14.6981    0.0000 N   0  0
   15.2640  -13.7722    0.0000 O   0  0
   14.9640  -16.6601    0.0000 O   0  0
   11.8839  -13.4617    0.0000 I   0  0
   10.4672  -15.9324    0.0000 I   0  0
    7.6042  -14.3050    0.0000 Br  0  0
  6  1  1  0
 12 13  2  0
 13  8  1  0
  1  2  2  0
 11 14  1  0
  6  7  1  0
  3 15  1  0
  3  4  2  0
 16 15  1  0
 16 17  1  0
  7  8  1  0
  8  9  2  0
  4  5  1  0
 17 18  1  0
 18 19  1  0
 19 20  1  0
 20 16  1  0
  9 10  1  0
 19 21  2  0
  2  3  1  0
 17 22  2  0
 10 11  2  0
  5 23  1  0
  5  6  2  0
  1 24  1  0
 11 12  1  0
 10 25  1  0
M  END