
          11280715332D 1   1.00000     0.00000     0

 41 44  0     0  0            999 V2000
    0.5917   -3.3042    0.0000 C   0  0  0  0  0  0           0  0  0
    0.8500   -2.5292    0.0000 N   0  0  0  0  0  0           0  0  0
    0.1875   -2.0375    0.0000 C   0  0  0  0  0  0           0  0  0
   -0.4833   -2.5167    0.0000 O   0  0  0  0  0  0           0  0  0
   -0.2333   -3.3000    0.0000 C   0  0  0  0  0  0           0  0  0
    1.1750   -3.8875    0.0000 C   0  0  0  0  0  0           0  0  0
    0.2042    1.2625    0.0000 C   0  0  0  0  0  0           0  0  0
    0.1917   -1.2125    0.0000 C   0  0  0  0  0  0           0  0  0
    0.2042    0.4375    0.0000 C   0  0  0  0  0  0           0  0  0
    4.4792    1.2750    0.0000 C   0  0  0  0  0  0           0  0  0
    1.1667   -4.7125    0.0000 O   0  0  0  0  0  0           0  0  0
   -0.5083    1.6708    0.0000 C   0  0  0  0  0  0           0  0  0
    0.9167    1.6750    0.0000 C   0  0  0  0  0  0           0  0  0
   -1.2208    2.9125    0.0000 N   0  0  0  0  0  0           0  0  0
    5.1917    1.6833    0.0000 O   0  0  0  0  0  0           0  0  0
    0.9125   -0.8000    0.0000 C   0  0  0  0  0  0           0  0  0
   -0.5208   -0.7917    0.0000 C   0  0  0  0  0  0           0  0  0
    0.9125    0.0250    0.0000 C   0  0  0  0  0  0           0  0  0
   -0.5208    0.0333    0.0000 C   0  0  0  0  0  0           0  0  0
    1.8875   -3.4667    0.0000 N   0  0  0  0  0  0           0  0  0
    4.4792    0.4500    0.0000 O   0  0  0  0  0  0           0  0  0
   -0.5083    2.5000    0.0000 C   0  0  0  0  0  0           0  0  0
    6.6125   -5.1667    0.0000 C   0  0  0  0  0  0           0  0  0
    6.0292   -4.5792    0.0000 O   0  0  0  0  0  0           0  0  0
    3.7667    1.6875    0.0000 C   0  0  0  0  0  0           0  0  0
   -1.9333    2.5000    0.0000 C   0  0  0  0  0  0           0  0  0
    1.6292    1.2625    0.0000 C   0  0  0  0  0  0           0  0  0
   -1.2208    1.2583    0.0000 C   0  0  0  0  0  0           0  0  0
    2.4750   -4.0542    0.0000 C   0  0  0  0  0  0           0  0  0
    5.2292   -4.7917    0.0000 C   0  0  0  0  0  0           0  0  0
    6.4000   -5.9625    0.0000 C   0  0  0  0  0  0           0  0  0
    7.4042   -4.9500    0.0000 C   0  0  0  0  0  0           0  0  0
    3.0542    1.2708    0.0000 C   0  0  0  0  0  0           0  0  0
    2.3417    1.6833    0.0000 C   0  0  0  0  0  0           0  0  0
    3.2667   -3.8417    0.0000 C   0  0  0  0  0  0           0  0  0
    4.6500   -4.2125    0.0000 C   0  0  0  0  0  0           0  0  0
    3.8542   -4.4250    0.0000 C   0  0  0  0  0  0           0  0  0
   -1.9333    1.6708    0.0000 C   0  0  0  0  0  0           0  0  0
    7.9917   -5.5292    0.0000 C   0  0  0  0  0  0           0  0  0
    6.9792   -6.5417    0.0000 C   0  0  0  0  0  0           0  0  0
    7.7792   -6.3292    0.0000 C   0  0  0  0  0  0           0  0  0
  2  1  1  0     0  0
  3  2  2  0     0  0
  4  5  1  0     0  0
  5  1  2  0     0  0
  6  1  1  0     0  0
  7  9  1  0     0  0
  8  3  1  0     0  0
  9 19  2  0     0  0
 10 25  1  0     0  0
 11  6  2  0     0  0
 12  7  1  0     0  0
 13  7  2  0     0  0
 14 22  2  0     0  0
 15 10  2  0     0  0
 16  8  1  0     0  0
 17  8  2  0     0  0
 18 16  2  0     0  0
 19 17  1  0     0  0
 20  6  1  0     0  0
 21 10  1  0     0  0
 22 12  1  0     0  0
 23 24  1  0     0  0
 24 30  1  0     0  0
 25 33  1  0     0  0
 26 38  2  0     0  0
 27 13  1  0     0  0
 28 12  2  0     0  0
 29 20  1  0     0  0
 30 36  1  0     0  0
 31 23  2  0     0  0
 32 23  1  0     0  0
 33 34  1  0     0  0
 34 27  1  0     0  0
 35 29  1  0     0  0
 36 37  1  0     0  0
 37 35  1  0     0  0
 38 28  1  0     0  0
 39 32  2  0     0  0
 40 31  1  0     0  0
 41 39  1  0     0  0
  4  3  1  0     0  0
  9 18  1  0     0  0
 26 14  1  0     0  0
 41 40  2  0     0  0
M  END