
  Mrv0541 04051115152D          

 24 25  0  0  0  0            999 V2000
   -0.7130   -2.8113    0.0000 N   0  0  0  0  0  0  0  0  0  0  0  0
    0.0015   -2.3988    0.0000 C   0  0  0  0  0  0  0  0  0  0  0  0
    0.0015   -1.5738    0.0000 N   0  0  0  0  0  0  0  0  0  0  0  0
   -0.7130   -1.1613    0.0000 C   0  0  0  0  0  0  0  0  0  0  0  0
   -1.4275   -1.5738    0.0000 C   0  0  0  0  0  0  0  0  0  0  0  0
   -1.4275   -2.3988    0.0000 C   0  0  0  0  0  0  0  0  0  0  0  0
   -0.7130   -0.3363    0.0000 N   0  0  0  0  0  0  0  0  0  0  0  0
    0.7159    1.3137    0.0000 C   0  0  0  0  0  0  0  0  0  0  0  0
    0.7159    2.1387    0.0000 C   0  0  0  0  0  0  0  0  0  0  0  0
    1.4304    2.5512    0.0000 C   0  0  0  0  0  0  0  0  0  0  0  0
    2.1449    2.1387    0.0000 C   0  0  0  0  0  0  0  0  0  0  0  0
    2.1449    1.3137    0.0000 C   0  0  0  0  0  0  0  0  0  0  0  0
    1.4304    0.9012    0.0000 C   0  0  0  0  0  0  0  0  0  0  0  0
    2.8594    2.5512    0.0000 S   0  0  0  0  0  0  0  0  0  0  0  0
    3.5738    2.9637    0.0000 O   0  0  0  0  0  0  0  0  0  0  0  0
    2.4469    3.2657    0.0000 O   0  0  0  0  0  0  0  0  0  0  0  0
    3.2719    1.8367    0.0000 N   0  0  0  0  0  0  0  0  0  0  0  0
   -2.1419   -1.1613    0.0000 N   0  3  0  0  0  0  0  0  0  0  0  0
   -2.8564   -1.5738    0.0000 O   0  5  0  0  0  0  0  0  0  0  0  0
   -2.1419   -0.3363    0.0000 O   0  0  0  0  0  0  0  0  0  0  0  0
   -2.1419   -2.8113    0.0000 O   0  0  0  0  0  0  0  0  0  0  0  0
   -2.1419   -3.6363    0.0000 C   0  0  0  0  0  0  0  0  0  0  0  0
    0.0015    0.0762    0.0000 C   0  0  0  0  0  0  0  0  0  0  0  0
    0.0015    0.9012    0.0000 C   0  0  0  0  0  0  0  0  0  0  0  0
  2  1  2  0  0  0  0
  6  1  1  0  0  0  0
  2  3  1  0  0  0  0
  4  3  2  0  0  0  0
  4  5  1  0  0  0  0
  4  7  1  0  0  0  0
  5  6  2  0  0  0  0
  5 18  1  0  0  0  0
  6 21  1  0  0  0  0
 23  7  1  0  0  0  0
  8  9  2  0  0  0  0
 13  8  1  0  0  0  0
 24  8  1  0  0  0  0
 10  9  1  0  0  0  0
 10 11  2  0  0  0  0
 11 12  1  0  0  0  0
 11 14  1  0  0  0  0
 12 13  2  0  0  0  0
 15 14  2  0  0  0  0
 16 14  2  0  0  0  0
 17 14  1  0  0  0  0
 18 19  1  0  0  0  0
 18 20  2  0  0  0  0
 22 21  1  0  0  0  0
 23 24  1  0  0  0  0
M  CHG  2  18   1  19  -1
M  END