
  SciTegic12151613592D

 31 35  0  0  0  0            999 V2000
   -2.6437   -0.3882    0.0000 C   0  0
   -2.6437    1.1277    0.0000 C   0  0
   -1.3126    1.8857    0.0000 C   0  0
   -1.3126   -1.1462    0.0000 C   0  0
    0.9429    2.0521    0.0000 C   0  0
    0.0000    1.1277    0.0000 C   0  0
    0.0000   -0.3882    0.0000 C   0  0
    2.4219    1.7563    0.0000 N   0  0
    3.0874    0.3143    0.0000 C   0  0
    0.5151    3.4906    0.0000 C   0  0
   -0.2671    6.4131    0.0000 C   0  0
   -1.3364    5.3332    0.0000 C   0  0
   -0.9489    3.8893    0.0000 C   0  0
    0.8689   -1.3311    0.0000 N   0  0
    2.3849   -1.0353    0.0000 C   0  0
    3.1059   -2.4034    0.0000 N   0  0
    2.0706   -3.4942    0.0000 N   0  0
    0.6840   -2.8471    0.0000 C   0  0
   -0.3653   -3.4291    0.0000 C   0  0
    4.5886    0.2613    0.0000 C   0  0
    5.3855    1.5331    0.0000 C   0  0
    6.8854    1.4798    0.0000 O   0  0
    4.8232    2.5932    0.0000 O   0  0
    7.5226    2.4966    0.0000 C   0  0
   -3.9415    1.8809    0.0000 O   0  0
   -3.9397    3.0809    0.0000 C   0  0
    1.1816    6.0090    0.0000 C   0  0
    1.5691    4.5651    0.0000 C   0  0
    3.0608    4.4935    0.0000 C   0  0
    3.5894    5.9002    0.0000 C   0  0
    2.4370    6.8179    0.0000 N   0  0
  1  2  2  0
  2  3  1  0
  3  6  2  0
  7  4  2  0
  4  1  1  0
  5  6  1  0
  6  7  1  0
  7 14  1  0
  5  8  2  0
  8  9  1  0
 15  9  1  0
  5 10  1  0
 10 28  2  0
 27 11  2  0
 11 12  1  0
 12 13  2  0
 13 10  1  0
 14 15  1  0
 15 16  2  0
 16 17  1  0
 17 18  2  0
 18 14  1  0
 18 19  1  0
  9 20  1  0
 20 21  1  0
 21 22  1  0
 21 23  2  0
 22 24  1  0
  2 25  1  0
 25 26  1  0
 27 28  1  0
 28 29  1  0
 29 30  2  0
 30 31  1  0
 31 27  1  0
M  END