
  SciTegic07101214422D

 20 22  0  0  0  0            999 V2000
    5.3736    0.9209    0.0000 C   0  0
    5.3724    0.0935    0.0000 C   0  0
    6.0872   -0.3194    0.0000 N   0  0
    6.8037    0.0940    0.0000 C   0  0
    6.8008    0.9245    0.0000 N   0  0
    6.0854    1.3336    0.0000 N   0  0
    7.5188   -0.3174    0.0000 N   0  0
    4.6590    1.3332    0.0000 C   0  0
    4.6576   -0.3184    0.0000 C   0  0
    4.6622    2.1591    0.0000 C   0  0
    3.9485    2.5714    0.0000 C   0  0
    3.2332    2.1587    0.0000 C   0  0
    3.2360    1.3294    0.0000 C   0  0
    3.9503    0.9209    0.0000 C   0  0
    3.9451    0.0961    0.0000 C   0  0
    3.2308   -0.3152    0.0000 C   0  0
    3.2297   -1.1410    0.0000 C   0  0
    3.9489   -1.5540    0.0000 C   0  0
    4.6602   -1.1403    0.0000 C   0  0
    3.9487    3.3964    0.0000 Cl  0  0
  8 10  2  0
  2  3  1  0
 10 11  1  0
  5  6  2  0
 11 12  2  0
  6  1  1  0
 12 13  1  0
  1  2  2  0
 13 14  2  0
 14  8  1  0
  4  7  1  0
  9 15  2  0
  3  4  2  0
 15 16  1  0
  1  8  1  0
 16 17  2  0
 17 18  1  0
  2  9  1  0
 18 19  2  0
 19  9  1  0
  4  5  1  0
 11 20  1  0
M  END