
          08180812492D 1   1.00000     0.00000     0

 33 36  0     0  0            999 V2000
   12.2569  -15.8583    0.0000 C   0  0  0  0  0  0           0  0  0
   12.2557  -16.6857    0.0000 C   0  0  0  0  0  0           0  0  0
   12.9706  -17.0985    0.0000 C   0  0  0  0  0  0           0  0  0
   13.6870  -16.6852    0.0000 C   0  0  0  0  0  0           0  0  0
   13.6841  -15.8547    0.0000 C   0  0  0  0  0  0           0  0  0
   12.9688  -15.4455    0.0000 C   0  0  0  0  0  0           0  0  0
   11.5411  -17.0973    0.0000 C   0  0  0  0  0  0           0  0  0
   10.7986  -16.7377    0.0000 N   0  0  3  0  0  0           0  0  0
   11.5403  -17.9226    0.0000 O   0  0  0  0  0  0           0  0  0
   14.3971  -15.4395    0.0000 O   0  0  0  0  0  0           0  0  0
   14.3939  -14.6145    0.0000 C   0  0  0  0  0  0           0  0  0
   15.1086  -14.2041    0.0000 C   0  0  0  0  0  0           0  0  0
   15.1059  -13.3799    0.0000 C   0  0  0  0  0  0           0  0  0
   14.3893  -12.9693    0.0000 C   0  0  0  0  0  0           0  0  0
   13.6740  -13.3889    0.0000 C   0  0  0  0  0  0           0  0  0
   13.6803  -14.2117    0.0000 C   0  0  0  0  0  0           0  0  0
   14.4021  -17.0966    0.0000 C   0  0  0  0  0  0           0  0  0
   15.1159  -16.6829    0.0000 N   0  0  0  0  0  0           0  0  0
   15.8311  -17.0943    0.0000 C   0  0  0  0  0  0           0  0  0
   10.1547  -17.2504    0.0000 C   0  0  0  0  0  0           0  0  0
    9.3485  -17.0663    0.0000 C   0  0  0  0  0  0           0  0  0
   10.7994  -15.9136    0.0000 C   0  0  0  0  0  0           0  0  0
    8.9884  -16.3255    0.0000 C   0  0  0  0  0  0           0  0  0
   10.1532  -15.3985    0.0000 C   0  0  0  0  0  0           0  0  0
    9.3484  -15.5845    0.0000 N   0  0  3  0  0  0           0  0  0
    8.8343  -14.9393    0.0000 C   0  0  3  0  0  0           0  0  0
    8.7091  -14.1203    0.0000 C   0  0  0  0  0  0           0  0  0
    8.0639  -14.6344    0.0000 C   0  0  0  0  0  0           0  0  0
   15.8233  -14.6163    0.0000 O   0  0  0  0  0  0           0  0  0
   16.5376  -14.2034    0.0000 C   0  0  3  0  0  0           0  0  0
   16.1208  -13.4833    0.0000 F   0  0  0  0  0  0           0  0  0
   16.9458  -14.9125    0.0000 F   0  0  0  0  0  0           0  0  0
   17.2586  -13.8025    0.0000 F   0  0  0  0  0  0           0  0  0
 16 11  1  0     0  0
  7  8  1  0     0  0
  4 17  1  0     0  0
 17 18  1  0     0  0
  7  9  2  0     0  0
 18 19  1  0     0  0
  4  5  1  0     0  0
  8 20  1  0     0  0
  5 10  1  0     0  0
 20 21  1  0     0  0
  2  3  1  0     0  0
  8 22  1  0     0  0
 10 11  1  0     0  0
 21 23  1  0     0  0
  5  6  2  0     0  0
 22 24  1  0     0  0
 11 12  2  0     0  0
 23 25  1  0     0  0
 24 25  1  0     0  0
  6  1  1  0     0  0
 25 26  1  0     0  0
 27 26  1  0     0  0
 28 27  1  0     0  0
 26 28  1  0     0  0
 12 13  1  0     0  0
  1  2  2  0     0  0
 13 14  2  0     0  0
 12 29  1  0     0  0
  2  7  1  0     0  0
 29 30  1  0     0  0
 14 15  1  0     0  0
 30 31  1  0     0  0
  3  4  2  0     0  0
 30 32  1  0     0  0
 15 16  2  0     0  0
 30 33  1  0     0  0
M  END