
  SciTegic03291108582D

 25 28  0  0  0  0            999 V2000
   -0.6940   -1.9870    0.0000 S   0  0
    0.8051    0.3304    0.0000 S   0  0
   -3.1149   -0.1376    0.0000 O   0  5
   -2.0530   -1.0937    0.0000 O   0  0
    0.8051   -2.1446    0.0000 N   0  0
    1.5196   -0.9071    0.0000 N   0  0
    1.6058    1.5634    0.0000 N   0  0
   -2.3079   -0.3091    0.0000 N   0  3
    2.2733    0.4073    0.0000 N   0  0
    2.4128    1.7349    0.0000 N   0  0
    2.8253    1.0204    0.0000 N   0  0
    0.0907   -0.9071    0.0000 C   0  0
   -0.6940   -0.6522    0.0000 C   0  0
    0.0907   -1.7321    0.0000 C   0  0
    0.8051   -0.4946    0.0000 C   0  0
   -0.9489    0.1325    0.0000 C   0  0
   -1.1789   -1.3196    0.0000 C   0  0
   -1.7559    0.3040    0.0000 C   0  0
    1.5196    0.7429    0.0000 C   0  0
   -0.3969    0.7455    0.0000 C   0  0
    1.5196   -1.7321    0.0000 C   0  0
   -2.0108    1.0886    0.0000 C   0  0
   -0.6518    1.5302    0.0000 C   0  0
   -1.4588    1.7017    0.0000 C   0  0
    0.9928    2.1154    0.0000 C   0  0
  1 14  1  0
  1 17  1  0
  2 15  1  0
  2 19  1  0
  3  8  1  0
  4  8  2  0
  5 14  2  0
  5 21  1  0
  6 15  1  0
  6 21  2  0
  7 10  1  0
  7 19  1  0
  7 25  1  0
  8 18  1  0
  9 11  1  0
  9 19  2  0
 10 11  2  0
 12 13  1  0
 12 14  1  0
 12 15  2  0
 13 16  1  0
 13 17  2  0
 16 18  2  0
 16 20  1  0
 18 22  1  0
 20 23  2  0
 22 24  2  0
 23 24  1  0
M  CHG  2   3  -1   8   1
M  END