
  SciTegic06051313552D

 25 27  0  0  0  0            999 V2000
   30.9950   -2.6306    0.0000 C   0  0  1  0  0  0
   32.0731   -3.4426    0.0000 C   0  0  2  0  0  0
   31.5556   -3.0086    0.0000 C   0  0
   30.5688   -3.0086    0.0000 C   0  0  2  0  0  0
   30.4272   -2.1846    0.0000 N   0  0
   31.9369   -2.6119    0.0000 C   0  0
   30.0424   -3.7293    0.0000 C   0  0
   30.6683   -3.3457    0.0000 C   0  0  2  0  0  0
   29.9527   -2.9346    0.0000 O   0  0
   29.2382   -3.3447    0.0000 C   0  0
   29.2403   -4.1697    0.0000 O   0  0
   28.5218   -2.9339    0.0000 C   0  0
   29.9999   -1.4761    0.0000 C   0  0
   31.8561   -4.2329    0.0000 O   0  0
   32.4376   -4.8181    0.0000 C   0  0
   32.2191   -5.6136    0.0000 O   0  0
   33.2375   -4.6117    0.0000 C   0  0
   33.8149   -5.1968    0.0000 C   0  0
   33.5932   -5.9891    0.0000 C   0  0
   34.1733   -6.5778    0.0000 C   0  0
   34.9708   -6.3677    0.0000 C   0  0
   35.1868   -5.5680    0.0000 C   0  0
   34.6081   -4.9852    0.0000 C   0  0
   30.9897   -1.8026    0.0000 H   0  0
   29.9781   -2.4187    0.0000 H   0  0
  2  3  1  0
  3  4  1  0
  4  5  1  0
  5  1  1  0
  1  6  1  0
  6  2  1  0
  4  7  1  0
  1  8  1  0
  7  8  1  0
  8  9  1  1
  9 10  1  0
 10 11  2  0
 10 12  1  0
  5 13  1  0
  2 14  1  6
 14 15  1  0
 15 16  2  0
 15 17  1  0
 17 18  1  0
 18 19  2  0
 19 20  1  0
 20 21  2  0
 21 22  1  0
 22 23  2  0
 23 18  1  0
  1 24  1  6
  4 25  1  6
M  END