
          11280715472D 1   1.00000     0.00000     0

 20 21  0     0  0            999 V2000
    1.3875    1.9625    0.0000 N   0  0  3  0  0  0           0  0  0
    0.6750    2.3750    0.0000 C   0  0  0  0  0  0           0  0  0
    1.3875    1.1458    0.0000 C   0  0  0  0  0  0           0  0  0
   -0.0458    1.9625    0.0000 C   0  0  0  0  0  0           0  0  0
    0.6750    0.7208    0.0000 C   0  0  0  0  0  0           0  0  0
   -0.7583    0.7208    0.0000 O   0  0  0  0  0  0           0  0  0
    2.1000    2.3750    0.0000 C   0  0  3  0  0  0           0  0  0
   -0.0375    1.1458    0.0000 C   0  0  3  0  0  0           0  0  0
   -1.4625   -2.9917    0.0000 N   0  0  3  0  0  0           0  0  0
   -0.7500   -0.0917    0.0000 C   0  0  0  0  0  0           0  0  0
   -0.7500   -2.5792    0.0000 C   0  0  0  0  0  0           0  0  0
   -0.7500   -1.7542    0.0000 C   0  0  0  0  0  0           0  0  0
   -0.0375   -0.5042    0.0000 C   0  0  0  0  0  0           0  0  0
   -1.4625   -0.5167    0.0000 C   0  0  0  0  0  0           0  0  0
   -1.4625   -1.3375    0.0000 C   0  0  0  0  0  0           0  0  0
   -0.0375   -1.3375    0.0000 C   0  0  0  0  0  0           0  0  0
   -2.1833   -2.5792    0.0000 C   0  0  0  0  0  0           0  0  0
   -1.4625   -3.8167    0.0000 C   0  0  0  0  0  0           0  0  0
    2.8167    1.9583    0.0000 C   0  0  0  0  0  0           0  0  0
    2.1000    3.2083    0.0000 C   0  0  0  0  0  0           0  0  0
  2  1  1  0     0  0
  3  1  1  0     0  0
  4  2  1  0     0  0
  5  3  1  0     0  0
  6  8  1  0     0  0
  7  1  1  0     0  0
  8  5  1  0     0  0
  9 11  1  0     0  0
 10  6  1  0     0  0
 11 12  1  0     0  0
 12 15  1  0     0  0
 13 10  2  0     0  0
 14 10  1  0     0  0
 15 14  2  0     0  0
 16 13  1  0     0  0
 17  9  1  0     0  0
 18  9  1  0     0  0
 19  7  1  0     0  0
 20  7  1  0     0  0
  8  4  1  0     0  0
 12 16  2  0     0  0
M  END