
  SciTegic12231509382D

 34 37  0  0  0  0            999 V2000
   -1.7129    3.2013    0.0000 O   0  0
   -1.7129    2.3763    0.0000 C   0  0
   -0.9984    1.9638    0.0000 C   0  0
    0.4305    1.9638    0.0000 C   0  0
   -0.2840    2.3763    0.0000 C   0  0
   -0.2840    3.2013    0.0000 C   0  0
   -0.9984    1.1388    0.0000 C   0  0
   -1.7129    0.7263    0.0000 C   0  0
   -1.7129   -0.0987    0.0000 C   0  0
   -1.0455   -0.5836    0.0000 C   0  0
   -0.2608   -0.3286    0.0000 C   0  0
    0.3523   -0.8807    0.0000 C   0  0
    1.1369   -0.6257    0.0000 C   0  0
    1.3084    0.1812    0.0000 C   0  0
    2.0930    0.4362    0.0000 C   0  0
    2.7061   -0.1159    0.0000 N   0  0
    0.6953    0.7333    0.0000 C   0  0
   -0.0893    0.4783    0.0000 C   0  0
   -1.3004   -1.3682    0.0000 C   0  0
   -1.1510   -2.7893    0.0000 O   0  0
   -0.8155   -2.0356    0.0000 C   0  0
    0.0050   -1.9494    0.0000 N   0  0
   -2.1254   -1.3682    0.0000 N   0  0
   -2.3803   -0.5836    0.0000 O   0  0
   -2.4274    1.1388    0.0000 C   0  0
   -3.1418    0.7263    0.0000 O   0  0
   -2.4274    1.9638    0.0000 C   0  0
    0.4899   -2.6168    0.0000 C   0  0
    0.1544   -3.3705    0.0000 C   0  0
    3.4907    0.1391    0.0000 C   0  0
    4.1038   -0.4129    0.0000 C   0  0
    3.9323   -1.2199    0.0000 O   0  0
    3.1477   -1.4749    0.0000 C   0  0
    2.5346   -0.9228    0.0000 C   0  0
  1  2  1  0
  2 27  2  0
  3  2  1  0
  3  7  2  0
  4  5  1  0
  5  6  1  0
  5  3  1  0
  7  8  1  0
  8 25  2  0
  9 10  2  0
  9  8  1  0
 10 19  1  0
 11 10  1  0
 12 11  2  0
 12 13  1  0
 13 14  2  0
 14 15  1  0
 14 17  1  0
 15 16  1  0
 16 30  1  0
 17 18  2  0
 18 11  1  0
 19 23  2  0
 20 21  2  0
 21 22  1  0
 21 19  1  0
 23 24  1  0
 24  9  1  0
 25 26  1  0
 27 25  1  0
 28 29  1  0
 28 22  1  0
 30 31  1  0
 31 32  1  0
 32 33  1  0
 33 34  1  0
 34 16  1  0
M  END