
  SciTegic01161211242D

 47 50  0  0  0  0            999 V2000
    5.3333   -7.4375    0.0000 C   0  0
    6.0458   -7.0250    0.0000 C   0  0
    6.0500   -6.2000    0.0000 O   0  0
    5.7417   -8.1542    0.0000 F   0  0
    4.9208   -6.7250    0.0000 F   0  0
    4.6125   -7.8500    0.0000 F   0  0
    6.7625   -7.4375    0.0000 O   0  5
   -2.1292   -5.0625    0.0000 N   0  3
    6.4375   -4.2125    0.0000 C   0  0
    2.8708   -3.8208    0.0000 C   0  0
   10.0042   -3.7792    0.0000 N   0  0
    7.1458   -3.7958    0.0000 C   0  0
   -0.7042   -4.2375    0.0000 N   0  0
    3.5875   -4.2292    0.0000 N   0  0
    2.1583   -4.2375    0.0000 C   0  0
    6.4458   -5.0417    0.0000 C   0  0
   11.4250   -2.9500    0.0000 N   0  0
    7.8625   -4.2083    0.0000 C   0  0
    5.7208   -3.8083    0.0000 C   0  0
    1.4417   -3.8250    0.0000 C   0  0
    2.8667   -2.9958    0.0000 O   0  0
    9.2917   -4.1958    0.0000 C   0  0
    8.5750   -3.7917    0.0000 C   0  0
    0.7250   -4.2375    0.0000 C   0  0
    0.0125   -3.8250    0.0000 C   0  0
   10.7167   -4.1875    0.0000 C   0  0
   -2.1292   -4.2375    0.0000 C   0  0
   -1.4167   -5.4792    0.0000 C   0  0
    5.7292   -5.4583    0.0000 C   0  0
   -1.4167   -3.8292    0.0000 C   0  0
   -0.7000   -5.0667    0.0000 C   0  0
    5.0167   -4.2250    0.0000 C   0  0
    4.3000   -3.8167    0.0000 C   0  0
   11.4250   -3.7750    0.0000 C   0  0  2  0  0  0
    7.1625   -5.4542    0.0000 F   0  0
   10.7083   -2.5417    0.0000 C   0  0
    5.0167   -5.0500    0.0000 C   0  0
   -2.8500   -4.6500    0.0000 C   0  0
   -2.5500   -5.7750    0.0000 C   0  0
    9.9917   -2.9542    0.0000 C   0  0
    7.1375   -2.9750    0.0000 C   0  0
    2.1583   -5.0667    0.0000 C   0  0
    7.8458   -2.5583    0.0000 C   0  0
    1.4417   -5.4792    0.0000 C   0  0
    0.7292   -5.0667    0.0000 C   0  0
    8.5708   -2.9625    0.0000 C   0  0
   12.1417   -4.1875    0.0000 C   0  0
  2  1  1  0
  3  2  2  0
  4  1  1  0
  5  1  1  0
  6  1  1  0
  7  2  1  0
  9 19  2  0
 10 15  1  0
 11 22  1  0
 12  9  1  0
 13 31  1  0
 14 10  1  0
 15 20  2  0
 16  9  1  0
 17 36  1  0
 18 12  2  0
 19 32  1  0
 20 24  1  0
 21 10  2  0
 22 23  1  0
 23 18  1  0
 24 25  1  0
 25 13  1  0
 26 11  1  0
 27  8  1  0
 28  8  1  0
 29 37  1  0
 30 27  1  0
 31 28  1  0
 32 33  1  0
 33 14  1  0
 34 26  1  0
 35 16  1  0
 36 40  1  0
 37 32  2  0
 38  8  1  0
 39  8  1  0
 40 11  1  0
 41 12  1  0
 42 15  1  0
 43 41  2  0
 44 45  1  0
 45 24  2  0
 46 43  1  0
 34 47  1  1
 30 13  1  0
 42 44  2  0
 16 29  2  0
 46 23  2  0
 17 34  1  0
M  CHG  2   7  -1   8   1
M  END