
  SciTegic05071317032D

 30 28  0  0  0  0            999 V2000
   21.5090  -14.2954    0.0000 N   0  0
   22.2249  -14.7083    0.0000 C   0  0
   22.9358  -14.2966    0.0000 C   0  0
   22.9369  -13.4713    0.0000 N   0  0
   22.2210  -13.0593    0.0000 C   0  0
   21.5040  -13.4726    0.0000 C   0  0
   23.6513  -13.0588    0.0000 C   0  0
   24.3658  -13.4713    0.0000 C   0  0
   13.6568  -14.7332    0.0000 C   0  0
   13.6557  -15.5607    0.0000 C   0  0
   14.3705  -15.9735    0.0000 C   0  0
   15.0870  -15.5602    0.0000 C   0  0
   15.0841  -14.7296    0.0000 C   0  0
   14.3687  -14.3205    0.0000 C   0  0
   15.7970  -14.3145    0.0000 O   0  0
   16.5131  -14.7242    0.0000 C   0  0
   17.2259  -14.3091    0.0000 C   0  0
   17.9420  -14.7189    0.0000 C   0  0
   18.6548  -14.3037    0.0000 C   0  0
   19.3709  -14.7134    0.0000 C   0  0
   20.0839  -14.2983    0.0000 C   0  0
   20.7998  -14.7081    0.0000 C   0  0
   24.3658  -14.2963    0.0000 C   0  0
   25.0802  -14.7088    0.0000 C   0  0
   25.7947  -14.2963    0.0000 C   0  0
   25.7948  -13.4713    0.0000 C   0  0
   26.5093  -13.0589    0.0000 N   0  0
   22.4428  -16.6529    0.0000 Cl  0  0
   24.9268  -16.3232    0.0000 Cl  0  0
   23.6893  -17.7670    0.0000 Cl  0  0
  1  2  1  0
  1  6  1  0
  2  3  1  0
  3  4  1  0
  4  5  1  0
  5  6  1  0
  4  7  1  0
  7  8  1  0
  9 10  2  0
 10 11  1  0
 11 12  2  0
 12 13  1  0
 13 14  2  0
 14  9  1  0
 13 15  1  0
 15 16  1  0
 16 17  1  0
 17 18  1  0
 18 19  1  0
 19 20  1  0
 20 21  1  0
 21 22  1  0
 22  1  1  0
  8 23  1  0
 23 24  1  0
 24 25  1  0
 25 26  1  0
 26 27  1  0
M  END