
  SciTegic11201309402D

 72 73  0  0  1  0            999 V2000
    4.5583    1.4833    0.0000 N   0  0
    4.5583   -1.4792    0.0000 C   0  0
   -3.8792   -2.8167    0.0000 N   0  0
   -4.5625   -1.4792    0.0000 C   0  0  1  0  0  0
    0.0000   -4.7917    0.0000 N   0  0
    3.8750   -2.8167    0.0000 N   0  0
    3.8750    2.8208    0.0000 C   0  0
   -2.8208   -3.8750    0.0000 C   0  0
   -5.9958   -1.9500    0.0000 C   0  0
    1.4792   -4.5583    0.0000 C   0  0
    4.7917    0.0000    0.0000 C   0  0  2  0  0  0
   -1.4833   -4.5583    0.0000 C   0  0  2  0  0  0
    1.4792    4.5583    0.0000 N   0  0
    2.8167    3.8792    0.0000 C   0  0  1  0  0  0
   -6.3042   -3.4167    0.0000 N   0  0
   -1.9542   -5.9917    0.0000 C   0  0
    2.8167   -3.8750    0.0000 C   0  0  2  0  0  0
    0.0000    4.7917    0.0000 C   0  0
   -8.0417   -5.3542    0.0000 C   0  0
   -8.6625   -8.2917    0.0000 C   0  0
  -14.6750  -11.6250    0.0000 C   0  0
   -9.4667   -5.8208    0.0000 N   0  0
   -3.4208   -6.3042    0.0000 C   0  0
   -8.9750   -9.7625    0.0000 N   0  0
   -4.5625    1.4833    0.0000 S   0  0
   -7.7292   -3.8833    0.0000 C   0  0
   -3.8792    2.8208    0.0000 S   0  0
   -9.7750   -7.2875    0.0000 C   0  0  1  0  0  0
   -8.1708  -12.2333    0.0000 C   0  0
    3.9708   -7.6875    0.0000 C   0  0
  -14.9250  -12.8000    0.0000 N   0  0
    5.7000   -1.8500    0.0000 O   0  0
    4.8458    3.5250    0.0000 O   0  0
   -3.5250   -4.8458    0.0000 O   0  0
    1.8500   -5.7000    0.0000 O   0  0
   -6.8875   -1.1458    0.0000 O   0  0
   -4.7958    0.0000    0.0000 C   0  0
    3.7000    5.1000    0.0000 C   0  0
   -1.4833    4.5583    0.0000 C   0  0
   -7.5208   -7.9208    0.0000 O   0  0
   -7.1458   -6.1542    0.0000 O   0  0
    0.0000    5.9917    0.0000 O   0  0
   -3.7958   -7.4458    0.0000 O   0  0
    3.4792   -8.7833    0.0000 O   0  0
   -7.2792  -13.0375    0.0000 O   0  0
    3.7000   -5.1000    0.0000 C   0  0
  -13.2500  -11.1583    0.0000 N   0  0
   -7.8583  -10.7667    0.0000 C   0  0
  -15.5708  -10.8250    0.0000 N   0  0
    6.3042    0.0000    0.0000 C   0  0  2  0  0  0
   -4.2250   -5.4125    0.0000 N   0  0
    3.0875   -6.4708    0.0000 C   0  0
    3.0875    6.4708    0.0000 C   0  0
    5.1625   -7.5625    0.0000 N   0  0
   -9.3125  -12.6042    0.0000 N   0  0
    1.8583    9.2083    0.0000 C   0  0
   -2.8208    3.8792    0.0000 C   0  0
    3.9667    7.6875    0.0000 C   0  0
    1.5958    6.6208    0.0000 C   0  0
    3.3542    9.0542    0.0000 C   0  0
    0.9833    7.9917    0.0000 C   0  0
   -5.4167   -4.2208    0.0000 C   0  0
    1.2417   10.5750    0.0000 O   0  0
  -11.2042   -7.7542    0.0000 C   0  0
  -12.9417   -9.6875    0.0000 C   0  0
    7.0542    1.3000    0.0000 C   0  0
    6.9000   -1.0417    0.0000 C   0  0
   -0.2500   10.7250    0.0000 C   0  0
  -11.5125   -9.2208    0.0000 C   0  0
    8.2542    1.2958    0.0000 C   0  0
   -0.7458   11.8167    0.0000 C   0  0
    5.4415    0.7601    0.0000 H   0  0
  2 11  1  0
  3  8  1  0
  4 37  1  0
  5 10  1  0
  6  2  1  0
  7  1  1  0
  8 12  1  0
  4  9  1  1
 10 17  1  0
 11  1  1  0
 12  5  1  0
 13 14  1  0
 14  7  1  0
 15  9  1  0
 12 16  1  1
 17  6  1  0
 18 13  1  0
 19 26  1  0
 20 28  1  0
 21 47  2  0
 22 19  1  0
 23 16  1  0
 24 20  1  0
 25 27  1  0
 26 15  1  0
 27 57  1  0
 28 22  1  6
 29 48  1  0
 30 52  1  0
 31 21  1  0
 32  2  2  0
 33  7  2  0
 34  8  2  0
 35 10  2  0
 36  9  2  0
 37 25  1  0
 14 38  1  1
 39 18  1  0
 40 20  2  0
 41 19  2  0
 42 18  2  0
 43 23  2  0
 44 30  2  0
 45 29  2  0
 17 46  1  1
 47 65  1  0
 48 24  1  0
 49 21  1  0
 50 11  1  0
 51 23  1  0
 52 46  1  0
 53 38  1  0
 54 30  1  0
 55 29  1  0
 56 61  1  0
 57 39  1  0
 58 53  2  0
 59 53  1  0
 60 58  1  0
 61 59  2  0
 62 15  1  0
 63 56  1  0
 64 28  1  0
 65 69  1  0
 66 50  1  0
 50 67  1  6
 68 63  1  0
 69 64  1  0
 70 66  1  0
 71 68  1  0
 60 56  2  0
  3  4  1  0
 11 72  1  6
M  END