
          11280714462D 1   1.00000     0.00000     0

 24 27  0     0  0            999 V2000
    4.0417   -1.3667    0.0000 N   0  0  3  0  0  0           0  0  0
    3.2292   -1.2292    0.0000 C   0  0  0  0  0  0           0  0  0
    3.8542   -0.0500    0.0000 N   0  0  0  0  0  0           0  0  0
    3.1125   -0.4125    0.0000 C   0  0  0  0  0  0           0  0  0
    4.4292   -0.6500    0.0000 C   0  0  0  0  0  0           0  0  0
    2.4000    0.0000    0.0000 C   0  0  0  0  0  0           0  0  0
    4.4167   -2.1125    0.0000 C   0  0  3  0  0  0           0  0  0
    2.6667   -1.8292    0.0000 C   0  0  0  0  0  0           0  0  0
    6.3542   -3.7292    0.0000 N   0  0  0  0  0  0           0  0  0
    1.5417   -3.0250    0.0000 N   0  0  0  0  0  0           0  0  0
    2.4000    0.8333    0.0000 C   0  0  0  0  0  0           0  0  0
    1.6792   -0.4125    0.0000 C   0  0  0  0  0  0           0  0  0
    0.9667    0.8250    0.0000 C   0  0  0  0  0  0           0  0  0
    5.4250   -2.0500    0.0000 C   0  0  0  0  0  0           0  0  0
    5.0667   -2.6167    0.0000 C   0  0  0  0  0  0           0  0  0
    1.6792    1.2458    0.0000 C   0  0  0  0  0  0           0  0  0
    0.9667    0.0000    0.0000 C   0  0  0  0  0  0           0  0  0
    0.2500    1.2583    0.0000 F   0  0  0  0  0  0           0  0  0
    5.6792   -3.1792    0.0000 C   0  0  0  0  0  0           0  0  0
    5.3625   -3.7792    0.0000 C   0  0  0  0  0  0           0  0  0
    1.3042   -2.2417    0.0000 C   0  0  0  0  0  0           0  0  0
    2.3292   -3.2125    0.0000 C   0  0  0  0  0  0           0  0  0
    1.8667   -1.6417    0.0000 C   0  0  0  0  0  0           0  0  0
    2.9000   -2.6125    0.0000 C   0  0  0  0  0  0           0  0  0
  2  1  1  0     0  0
  3  5  2  0     0  0
  4  2  2  0     0  0
  5  1  1  0     0  0
  6  4  1  0     0  0
  7  1  1  0     0  0
  8  2  1  0     0  0
  9 20  1  0     0  0
 10 22  1  0     0  0
 11  6  1  0     0  0
 12  6  2  0     0  0
 13 17  2  0     0  0
 14  7  1  0     0  0
 15  7  1  0     0  0
 16 11  2  0     0  0
 17 12  1  0     0  0
 18 13  1  0     0  0
 19 14  1  0     0  0
 20 15  1  0     0  0
 21 23  1  0     0  0
 22 24  2  0     0  0
 23  8  2  0     0  0
 24  8  1  0     0  0
  3  4  1  0     0  0
  9 19  1  0     0  0
 21 10  2  0     0  0
 16 13  1  0     0  0
M  END