
  SciTegic02011314062D

 29 33  0  0  0  0            999 V2000
    8.6950   -3.5628    0.0000 N   0  0
    8.7008   -4.3876    0.0000 C   0  0
    7.2687   -3.5742    0.0000 N   0  0
    7.9790   -4.8115    0.0000 C   0  0
    7.2687   -4.4048    0.0000 C   0  0
    9.4912   -4.6454    0.0000 N   0  0
    9.4740   -3.3051    0.0000 N   0  0
    7.9790   -3.1504    0.0000 C   0  0
    9.9724   -3.9695    0.0000 C   0  0
    6.6559   -4.9547    0.0000 N   0  0
    6.9938   -5.7050    0.0000 N   0  0
    7.8072   -5.6191    0.0000 C   0  0
   10.7972   -3.9580    0.0000 C   0  0
   11.2897   -4.6282    0.0000 O   0  0
    7.9733   -2.3256    0.0000 N   0  0
   11.2783   -3.2879    0.0000 C   0  0
   12.0688   -4.3647    0.0000 C   0  0
   12.0630   -3.5399    0.0000 C   0  0
    5.8483   -4.7829    0.0000 C   0  0
    4.0210   -1.4836    0.0000 C   0  0
    4.5251   -3.0473    0.0000 C   0  0
    4.8286   -1.6554    0.0000 C   0  0
    3.4711   -2.1022    0.0000 C   0  0
    5.0864   -2.4287    0.0000 C   0  0
    3.7289   -2.8755    0.0000 C   0  0
    3.7690   -0.6931    0.0000 O   0  0
    5.5905   -3.9924    0.0000 C   0  0
    4.7829   -3.8320    0.0000 C   0  0
    2.9614   -0.5327    0.0000 C   0  0
  2  1  1  0
  3  8  2  0
  4  2  1  0
  5  3  1  0
  6  2  2  0
  7  1  1  0
  8  1  1  0
  9  7  2  0
 10  5  1  0
 11 12  2  0
 12  4  1  0
 13  9  1  0
 14 13  1  0
 15  8  1  0
 16 13  2  0
 17 14  1  0
 18 16  1  0
 19 10  1  0
 20 23  1  0
 21 28  1  0
 22 24  1  0
 23 25  2  0
 24 21  2  0
 25 21  1  0
 26 20  1  0
 27 19  1  0
 28 27  1  0
 29 26  1  0
  6  9  1  0
  4  5  2  0
 10 11  1  0
 17 18  2  0
 22 20  2  0
M  ISO  1  29  11
M  END