
          11280715422D 1   1.00000     0.00000     0

 21 22  0     0  0            999 V2000
    5.8792   -3.0167    0.0000 C   0  0  3  0  0  0           0  0  0
    6.5917   -2.6042    0.0000 C   0  0  3  0  0  0           0  0  0
    5.1667   -3.4292    0.0000 N   0  0  0  0  0  0           0  0  0
    5.1667   -2.6042    0.0000 C   0  0  3  0  0  0           0  0  0
    7.3042   -3.0167    0.0000 C   0  0  3  0  0  0           0  0  0
    6.8667   -2.0542    0.0000 O   0  0  0  0  0  0           0  0  0
    5.9917   -2.6042    0.0000 C   0  0  3  0  0  0           0  0  0
    4.4542   -3.0042    0.0000 C   0  0  0  0  0  0           0  0  0
    4.4542   -2.1792    0.0000 O   0  0  0  0  0  0           0  0  0
    3.7417   -3.4167    0.0000 C   0  0  0  0  0  0           0  0  0
    7.9292   -3.5667    0.0000 S   0  0  0  0  0  0           0  0  0
    6.5917   -3.4292    0.0000 O   0  0  0  0  0  0           0  0  0
    4.9292   -1.7792    0.0000 O   0  0  0  0  0  0           0  0  0
    5.7792   -1.8042    0.0000 C   0  0  0  0  0  0           0  0  0
    6.3542   -1.2167    0.0000 O   0  0  0  0  0  0           0  0  0
    3.7292   -4.2292    0.0000 C   0  0  0  0  0  0           0  0  0
    3.0292   -2.9917    0.0000 C   0  0  0  0  0  0           0  0  0
    7.7542   -4.3667    0.0000 C   0  0  0  0  0  0           0  0  0
    2.3042   -3.4042    0.0000 C   0  0  0  0  0  0           0  0  0
    3.0167   -4.6417    0.0000 C   0  0  0  0  0  0           0  0  0
    2.3042   -4.2292    0.0000 C   0  0  0  0  0  0           0  0  0
  2  1  1  0     0  0
  3  1  1  0     0  0
  4  1  1  0     0  0
  5  2  1  0     0  0
  6  7  1  0     0  0
  7  4  1  0     0  0
  8  3  1  0     0  0
  9  8  2  0     0  0
 10  8  1  0     0  0
 11  5  1  0     0  0
 12  2  1  0     0  0
 13  4  1  0     0  0
 14  7  1  0     0  0
 15 14  1  0     0  0
 16 10  1  0     0  0
 17 10  2  0     0  0
 18 11  1  0     0  0
 19 17  1  0     0  0
 20 16  2  0     0  0
 21 19  2  0     0  0
  5  6  1  0     0  0
 20 21  1  0     0  0
M  END