
  SciTegic02211115552D

 31 35  0  0  0  0            999 V2000
    0.0902    1.6875    0.0000 C   0  0
    0.0891    0.8602    0.0000 C   0  0
    0.8039    0.4473    0.0000 C   0  0
    0.8021    2.1003    0.0000 C   0  0
   -0.6238    0.4480    0.0000 N   0  0
   -1.3382    0.8627    0.0000 C   0  0
   -2.0525    0.4515    0.0000 C   0  0
   -2.0536   -0.3744    0.0000 C   0  0
   -1.3345   -0.7873    0.0000 C   0  0
   -0.6231   -0.3737    0.0000 C   0  0
    1.5175    1.6912    0.0000 C   0  0
    1.5177    0.8647    0.0000 C   0  0
    2.3038    0.6096    0.0000 C   0  0
    2.7895    1.2784    0.0000 N   0  0
    2.3034    1.9467    0.0000 N   0  0
   -1.3367    1.6877    0.0000 O   0  0
    2.5581    2.7315    0.0000 C   0  0
    3.3650    2.9033    0.0000 C   0  0
    3.9172    2.2903    0.0000 N   0  0
    3.7430    1.4846    0.0000 C   0  0
    4.4577    1.0724    0.0000 C   0  0
    5.0706    1.6246    0.0000 C   0  0
    4.7347    2.3781    0.0000 C   0  0
   -2.7679   -0.7873    0.0000 O   0  0
   -3.4826   -0.3752    0.0000 C   0  0
   -4.1968   -0.7880    0.0000 C   0  0
   -4.9111   -0.3741    0.0000 C   0  0
   -5.6249   -0.7863    0.0000 C   0  0
   -5.6249   -1.6122    0.0000 C   0  0
   -4.9052   -2.0241    0.0000 C   0  0
   -4.1943   -1.6096    0.0000 C   0  0
 14 15  1  0
 15 11  1  0
  1  2  2  0
  6 16  2  0
  7  8  2  0
 15 17  1  0
 11  4  2  0
 17 18  1  0
  8  9  1  0
 18 19  1  0
 19 20  1  0
  4  1  1  0
  9 10  2  0
 10  5  1  0
  2  5  1  0
 20 21  1  0
 21 22  1  0
 22 23  1  0
 23 19  1  0
 11 12  1  0
  8 24  1  0
 24 25  1  0
  2  3  1  0
 25 26  1  0
  5  6  1  0
 26 27  2  0
  3 12  2  0
 27 28  1  0
  6  7  1  0
 28 29  2  0
 12 13  1  0
 29 30  1  0
 13 14  2  0
 30 31  2  0
 31 26  1  0
M  END