
  SciTegic05171617282D

 40 45  0  0  0  0            999 V2000
   -9.8765    5.3456    0.0000 C   0  0
   -8.8426    5.9547    0.0000 O   0  0
   -8.8548    7.4554    0.0000 C   0  0
  -10.1614    8.1921    0.0000 C   0  0
  -10.1768    9.6921    0.0000 C   0  0
   -8.8855   10.4553    0.0000 C   0  0
   -7.5788    9.7186    0.0000 C   0  0
   -6.5458   10.3292    0.0000 F   0  0
   -7.5634    8.2187    0.0000 C   0  0
   -6.2576    7.4789    0.0000 C   0  0
   -6.2443    5.9781    0.0000 N   0  0
   -4.9402    5.2369    0.0000 C   0  0
   -4.9300    3.7369    0.0000 C   0  0
   -6.2240    2.9782    0.0000 C   0  0
   -7.5281    3.7194    0.0000 C   0  0
   -7.5383    5.2194    0.0000 C   0  0
   -8.8243    2.9629    0.0000 C   0  0
   -8.8183    1.7629    0.0000 O   0  0
   -9.8667    3.5573    0.0000 O   0  0
   -3.6267    2.9927    0.0000 N   0  0
   -3.6187    1.4919    0.0000 C   0  0
   -4.6549    0.8867    0.0000 O   0  0
   -2.3155    0.7475    0.0000 C   0  0
   -2.3155   -0.7475    0.0000 C   0  0
   -1.0028   -1.5132    0.0000 C   0  0
    0.2917   -0.7475    0.0000 C   0  0
    1.7138   -1.2033    0.0000 N   0  0
    2.5889    0.0182    0.0000 N   0  0
    1.7138    1.2033    0.0000 C   0  0
    2.1749    2.6315    0.0000 C   0  0
    1.2473    3.7995    0.0000 C   0  0
    1.8007    5.2149    0.0000 C   0  0
    3.2908    5.4185    0.0000 C   0  0
    4.1224    6.6589    0.0000 N   0  0
    5.5669    6.2449    0.0000 C   0  0
    5.6169    4.7726    0.0000 C   0  0
    4.2192    4.2467    0.0000 N   0  0
    3.6801    2.8427    0.0000 C   0  0
    0.2917    0.7475    0.0000 C   0  0
   -1.0028    1.5132    0.0000 C   0  0
  1  2  1  0
  2  3  1  0
  3  4  2  0
  4  5  1  0
  5  6  2  0
  6  7  1  0
  7  8  1  0
  7  9  2  0
  3  9  1  0
  9 10  1  0
 10 11  1  0
 11 12  1  0
 12 13  1  0
 13 14  1  0
 14 15  1  0
 15 16  1  0
 11 16  1  0
 15 17  1  0
 17 18  1  0
 17 19  2  0
 13 20  1  0
 20 21  1  0
 21 22  2  0
 21 23  1  0
 23 24  2  0
 24 25  1  0
 25 26  2  0
 26 27  1  0
 27 28  1  0
 28 29  2  0
 29 30  1  0
 30 31  1  0
 31 32  2  0
 32 33  1  0
 33 34  2  0
 34 35  1  0
 35 36  2  0
 36 37  1  0
 33 37  1  0
 37 38  1  0
 30 38  2  0
 29 39  1  0
 26 39  1  0
 39 40  2  0
 23 40  1  0
M  END