
  CDK    9/16/09,9:48

 35 39  0  0  0  0  0  0  0  0999 V2000
   -0.0457    1.1853    0.0000 N   0  0  0  0  0  0  0  0  0  0  0  0
   -0.8355    0.9274    0.0000 C   0  0  0  0  0  0  0  0  0  0  0  0
   -0.8317    0.0983    0.0000 C   0  0  0  0  0  0  0  0  0  0  0  0
   -0.0421   -0.1547    0.0000 N   0  0  0  0  0  0  0  0  0  0  0  0
    0.4431    0.5176    0.0000 C   0  0  0  0  0  0  0  0  0  0  0  0
   -1.5027    1.4081    0.0000 C   0  0  0  0  0  0  0  0  0  0  0  0
   -1.4175    2.2298    0.0000 C   0  0  0  0  0  0  0  0  0  0  0  0
   -2.0856    2.7125    0.0000 C   0  0  0  0  0  0  0  0  0  0  0  0
   -2.8393    2.3746    0.0000 N   0  0  0  0  0  0  0  0  0  0  0  0
   -2.9208    1.5494    0.0000 C   0  0  0  0  0  0  0  0  0  0  0  0
   -2.2517    1.0703    0.0000 C   0  0  0  0  0  0  0  0  0  0  0  0
   -1.4961   -0.3898    0.0000 C   0  0  0  0  0  0  0  0  0  0  0  0
   -2.2517   -0.0559    0.0000 C   0  0  0  0  0  0  0  0  0  0  0  0
   -2.9166   -0.5429    0.0000 C   0  0  0  0  0  0  0  0  0  0  0  0
   -1.4053   -1.2064    0.0000 C   0  0  0  0  0  0  0  0  0  0  0  0
   -2.0671   -1.6955    0.0000 C   0  0  0  0  0  0  0  0  0  0  0  0
   -2.8319   -1.3638    0.0000 C   0  0  0  0  0  0  0  0  0  0  0  0
   -3.3838   -1.9887    0.0000 C   0  0  0  0  0  0  0  0  0  0  0  0
   -2.9601   -2.7067    0.0000 C   0  0  0  0  0  0  0  0  0  0  0  0
   -2.1463   -2.5254    0.0000 C   0  0  0  0  0  0  0  0  0  0  0  0
   -4.2051   -1.9103    0.0000 N   0  0  0  0  0  0  0  0  0  0  0  0
   -4.6836   -2.5823    0.0000 O   0  0  0  0  0  0  0  0  0  0  0  0
    1.2681    0.5203    0.0000 C   0  0  0  0  0  0  0  0  0  0  0  0
    1.6830   -0.1927    0.0000 N   0  0  0  0  0  0  0  0  0  0  0  0
    1.6782    1.2362    0.0000 O   0  0  0  0  0  0  0  0  0  0  0  0
    2.5080   -0.1899    0.0000 C   0  0  0  0  0  0  0  0  0  0  0  0
    2.9201   -0.9031    0.0000 C   0  0  0  0  0  0  0  0  0  0  0  0
    3.7443   -0.9006    0.0000 C   0  0  0  0  0  0  0  0  0  0  0  0
    4.1553   -0.1842    0.0000 C   0  0  0  0  0  0  0  0  0  0  0  0
    3.7359    0.5312    0.0000 C   0  0  0  0  0  0  0  0  0  0  0  0
    2.9130    0.5252    0.0000 C   0  0  0  0  0  0  0  0  0  0  0  0
    4.1434    1.2485    0.0000 C   0  0  0  0  0  0  0  0  0  0  0  0
    4.9684    1.2542    0.0000 N   0  0  0  0  0  0  0  0  0  0  0  0
    5.3760    1.9715    0.0000 C   0  0  0  0  0  0  0  0  0  0  0  0
    5.3859    0.5426    0.0000 C   0  0  0  0  0  0  0  0  0  0  0  0
  7  8  1  0  0  0  0 
  3  4  1  0  0  0  0 
  8  9  2  0  0  0  0 
  4  5  2  0  0  0  0 
  9 10  1  0  0  0  0 
 17 18  1  0  0  0  0 
 18 19  1  0  0  0  0 
 19 20  1  0  0  0  0 
 20 16  1  0  0  0  0 
  5  1  1  0  0  0  0 
 18 21  2  0  0  0  0 
 10 11  2  0  0  0  0 
 21 22  1  0  0  0  0 
 11  6  1  0  0  0  0 
  5 23  1  0  0  0  0 
  2  6  1  0  0  0  0 
 23 24  1  0  0  0  0 
  2  3  2  0  0  0  0 
 23 25  2  0  0  0  0 
 24 26  1  0  0  0  0 
 12 13  2  0  0  0  0 
 26 27  2  0  0  0  0 
  6  7  2  0  0  0  0 
 27 28  1  0  0  0  0 
 13 14  1  0  0  0  0 
 28 29  2  0  0  0  0 
 14 17  2  0  0  0  0 
 29 30  1  0  0  0  0 
  1  2  1  0  0  0  0 
 30 31  2  0  0  0  0 
 31 26  1  0  0  0  0 
 16 15  2  0  0  0  0 
 30 32  1  0  0  0  0 
 15 12  1  0  0  0  0 
 32 33  1  0  0  0  0 
  3 12  1  0  0  0  0 
 33 34  1  0  0  0  0 
 16 17  1  0  0  0  0 
 33 35  1  0  0  0  0 
M  END