
  SciTegic09171211542D

121117  0  0  0  0            999 V2000
   -2.9877    1.0751    0.0000 O   0  0
   -3.3960    0.3583    0.0000 S   0  0
   -2.5712    0.3630    0.0000 O   0  0
    5.1614   -2.2062    0.0000 O   0  0
    5.8407   -0.9483    0.0000 C   0  0
    5.8635   -1.7730    0.0000 C   0  0  1  0  0  0
    6.5867   -2.1615    0.0000 C   0  0
    6.5410   -0.5120    0.0000 C   0  0
    7.2643   -0.9089    0.0000 C   0  0  1  0  0  0
    7.2836   -1.7336    0.0000 C   0  0  1  0  0  0
    8.0036   -2.1272    0.0000 C   0  0
    8.7089   -1.7003    0.0000 C   0  0
    7.9650   -0.4775    0.0000 C   0  0  2  0  0  0
    8.6858   -0.8781    0.0000 C   0  0  2  0  0  0
    8.6571    0.7681    0.0000 C   0  0
    7.9476    0.3447    0.0000 C   0  0
    9.3780    0.3675    0.0000 C   0  0  1  0  0  0
    9.3918   -0.4540    0.0000 C   0  0  1  0  0  0
   10.1773   -0.6947    0.0000 C   0  0
   10.6492   -0.0220    0.0000 C   0  0
   10.1550    0.6344    0.0000 C   0  0  2  0  0  0
    7.2341   -0.0843    0.0000 C   0  0
    7.9807   -1.3017    0.0000 H   0  0
    8.6547   -0.0533    0.0000 H   0  0
    9.4098   -1.2788    0.0000 H   0  0
    9.3497    1.1957    0.0000 C   0  0
   10.3967    1.4233    0.0000 C   0  0  1  0  0  0
   11.2008    1.6084    0.0000 C   0  0
    9.8344    2.0270    0.0000 C   0  0
   11.7630    1.0047    0.0000 C   0  0
   12.5671    1.1897    0.0000 C   0  0
   13.1294    0.5859    0.0000 C   0  0
   13.9335    0.7711    0.0000 C   0  0
   12.8877   -0.2029    0.0000 C   0  0
   10.9777    0.6612    0.0000 H   0  0
    7.2983   -2.5545    0.0000 H   0  0
    4.4333   -1.8180    0.0000 C   0  0  1  0  0  0
    5.1447   -3.0357    0.0000 O   0  0
    4.4299   -3.4486    0.0000 S   0  0
    5.1449   -3.8612    0.0000 O   0  0
    3.2133   -3.4087    0.0000 S   0  0
    1.6747   -3.5964    0.0000 O   0  0
    2.2654   -3.0161    0.0000 S   0  0
    1.4676   -2.7947    0.0000 O   0  0
   -0.6773   -3.1711    0.0000 O   0  0
    0.1215   -3.3921    0.0000 S   0  0
   -0.0866   -2.5898    0.0000 O   0  0
   -3.5275   -3.1350    0.0000 O   0  0
   -2.7285   -3.3560    0.0000 S   0  0
   -2.9366   -2.5537    0.0000 O   0  0
   -4.7157   -1.1034    0.0000 O   0  0
   -4.1322   -1.6941    0.0000 S   0  0
   -3.9129   -0.8928    0.0000 O   0  0
   -2.0727    1.5867    0.0000 O   0  0
   -1.2478    1.5781    0.0000 S   0  0
   -1.6528    2.2970    0.0000 O   0  0
   -0.2400    1.4477    0.0000 O   0  0
    0.1728    0.7288    0.0000 S   0  0
    0.5890    1.4458    0.0000 O   0  0
    5.5876   -0.4754    0.0000 O   0  0
    5.1831    0.2393    0.0000 S   0  0
    4.7664   -0.4683    0.0000 O   0  0
   -3.4025   -0.4688    0.0000 O   0  0
   -2.6918   -0.8879    0.0000 C   0  0  1  0  0  0
   -2.7017   -1.7115    0.0000 C   0  0  1  0  0  0
   -1.9950   -2.1304    0.0000 C   0  0  2  0  0  0
   -1.2744   -1.7278    0.0000 C   0  0  2  0  0  0
   -1.2650   -0.9019    0.0000 O   0  0
   -1.9761   -0.4784    0.0000 C   0  0  2  0  0  0
   -1.9689    0.3466    0.0000 C   0  0
   -3.4210   -2.1156    0.0000 O   0  0
   -2.0056   -2.9553    0.0000 O   0  0
   -0.5652   -2.1495    0.0000 O   0  0
    0.1545   -1.7461    0.0000 C   0  0  1  0  0  0
    0.8580   -2.1706    0.0000 C   0  0  1  0  0  0
    1.5755   -1.7707    0.0000 C   0  0  2  0  0  0
    1.5904   -0.9455    0.0000 C   0  0  2  0  0  0
    0.8814   -0.5216    0.0000 O   0  0
    0.1576   -0.9231    0.0000 C   0  0  2  0  0  0
   -0.5525   -0.5030    0.0000 C   0  0
   -1.2509    0.7530    0.0000 O   0  0
   -0.5439    0.3220    0.0000 O   0  0
    0.8438   -2.9955    0.0000 O   0  0
    2.2831   -2.1951    0.0000 O   0  0
    2.3117   -0.5448    0.0000 O   0  0
    3.0192   -0.9692    0.0000 C   0  0  1  0  0  0
    3.0061   -1.7908    0.0000 C   0  0  1  0  0  0
    3.7097   -2.2151    0.0000 C   0  0  1  0  0  0
    4.4490   -0.9922    0.0000 O   0  0
    3.7411   -0.5633    0.0000 C   0  0  2  0  0  0
    3.0061   -2.6157    0.0000 O   0  0
    4.4284   -2.6276    0.0000 O   0  0
    3.7544    0.2616    0.0000 C   0  0
    4.4755    0.6625    0.0000 O   0  0
   -1.2740   -2.5528    0.0000 H   0  0
    2.3087   -1.3574    0.0000 H   0  0
   -0.5503   -1.3251    0.0000 H   0  0
    3.0333   -0.1447    0.0000 H   0  0
    5.9043    0.6394    0.0000 O   0  5
    4.0090   -3.6273    0.0000 O   0  5
    0.8851    0.3070    0.0000 O   0  5
   -0.5255    1.9842    0.0000 O   0  5
   -4.8499   -2.0987    0.0000 O   0  5
   -2.7360   -4.1836    0.0000 O   0  5
    0.1080   -4.2206    0.0000 O   0  5
    2.4736   -3.8132    0.0000 O   0  5
    2.4989   -2.9924    0.0000 O   0  0
    2.9924   -4.2035    0.0000 O   0  0
    4.2090   -4.2433    0.0000 O   0  5
    5.1271   -1.3791    0.0000 H   0  0
   -4.1058    0.7752    0.0000 O   0  5
    2.0625    2.7812    0.0000 Na  0  3
    3.0625    2.7812    0.0000 Na  0  3
    4.0938    2.7812    0.0000 Na  0  3
    4.9687    2.7812    0.0000 Na  0  3
    2.6563    2.1563    0.0000 Na  0  3
    3.5938    2.1875    0.0000 Na  0  3
    4.5000    2.2500    0.0000 Na  0  3
    3.2187    1.6875    0.0000 Na  0  3
    4.1875    1.6875    0.0000 Na  0  3
    3.8125    1.2812    0.0000 Na  0  3
  6  7  1  0
 27 28  1  0
 61 60  2  0
 62 61  2  0
  7 10  1  0
 27 29  1  6
  9  8  1  0
 28 30  1  0
 13 16  1  0
 64 63  1  6
 64 65  1  0
 30 31  1  0
 14 18  1  0
 31 32  1  0
 17 15  1  0
 32 33  1  0
 64 69  1  0
 65 66  1  0
 66 67  1  0
 67 68  1  0
 68 69  1  0
 15 16  1  0
 69 70  1  1
 32 34  1  0
 65 71  1  1
 17 18  1  0
 66 72  1  6
 21 35  1  6
 67 73  1  0
  9 10  1  0
 73 74  1  0
 74 75  1  0
 10 36  1  6
  2  1  2  0
 37  4  1  0
 39 38  2  0
 40 39  2  0
 74 79  1  0
 75 76  1  0
 76 77  1  0
 77 78  1  0
 78 79  1  0
  3  2  2  0
 79 80  1  1
 70 81  1  0
  5  6  1  0
 80 82  1  0
 18 19  1  0
 75 83  1  1
 43 42  2  0
 76 84  1  6
 44 43  2  0
 77 85  1  0
 19 20  1  0
 85 86  1  0
 86 87  1  0
 20 21  1  0
 21 17  1  0
 46 45  2  0
 47 46  2  0
 86 90  1  0
 87 88  1  0
 88 37  1  0
 37 89  1  0
 89 90  1  0
  6  4  1  1
 87 91  1  1
  9 13  1  0
 88 92  1  6
  9 22  1  1
 90 93  1  1
 49 48  2  0
 93 94  1  0
 50 49  2  0
 67 95  1  1
 10 11  1  0
 77 96  1  1
 13 23  1  6
 74 97  1  1
 11 12  1  0
 86 98  1  1
 94 61  1  0
 52 51  2  0
 61 99  1  0
 84 43  1  0
 91 41  1  0
 53 52  2  0
 41100  1  0
 82 58  1  0
 14 24  1  1
 58101  1  0
 81 55  1  0
 12 14  1  0
 55102  1  0
 71 52  1  0
 18 25  1  6
 52103  1  0
 72 49  1  0
 55 54  2  0
 49104  1  0
 83 46  1  0
 56 55  2  0
 46105  1  0
 13 14  1  0
 43106  1  0
 17 26  1  1
 41107  2  0
  5  8  1  0
 41108  2  0
 92 39  1  0
 58 57  2  0
 39109  1  0
 59 58  2  0
 37110  1  6
 63  2  1  0
 21 27  1  0
  2111  1  0
M  CHG  8  99  -1 100  -1 101  -1 102  -1 103  -1 104  -1 105  -1 106  -1
M  CHG  8 109  -1 111  -1 112   1 113   1 114   1 115   1 116   1 117   1
M  CHG  4 118   1 119   1 120   1 121   1
M  END