
          11280715092D 1   1.00000     0.00000     0

 27 30  0     1  0            999 V2000
    5.7167   -3.4542    0.0000 N   0  0  3  0  0  0           0  0  0
    6.0542   -4.2042    0.0000 C   0  0  0  0  0  0           0  0  0
    5.4125   -4.7167    0.0000 C   0  0  0  0  0  0           0  0  0
    6.1292   -2.7417    0.0000 C   0  0  2  0  0  0           0  0  0
    4.9125   -3.2792    0.0000 C   0  0  0  0  0  0           0  0  0
    4.6417   -4.4167    0.0000 C   0  0  0  0  0  0           0  0  0
    5.5792   -2.1292    0.0000 C   0  0  0  0  0  0           0  0  0
    6.7917   -4.7667    0.0000 O   0  0  0  0  0  0           0  0  0
    4.0042   -4.9292    0.0000 C   0  0  0  0  0  0           0  0  0
    4.8167   -2.4917    0.0000 C   0  0  1  0  0  0           0  0  0
    5.5375   -5.5292    0.0000 C   0  0  0  0  0  0           0  0  0
    4.1250   -5.7417    0.0000 C   0  0  0  0  0  0           0  0  0
    4.8917   -6.0542    0.0000 C   0  0  0  0  0  0           0  0  0
    4.1042   -2.0792    0.0000 O   0  0  0  0  0  0           0  0  0
    4.1042   -1.2292    0.0000 C   0  0  0  0  0  0           0  0  0
    7.4667   -3.4167    0.0000 N   0  0  0  0  0  0           0  0  0
    6.9500   -2.6542    0.0000 C   0  0  0  0  0  0           0  0  0
    3.3875   -0.8167    0.0000 C   0  0  0  0  0  0           0  0  0
    3.2417   -4.6292    0.0000 C   0  0  0  0  0  0           0  0  0
    3.4792   -6.2542    0.0000 C   0  0  0  0  0  0           0  0  0
    3.3875    0.0083    0.0000 C   0  0  0  0  0  0           0  0  0
    2.6667   -1.2292    0.0000 C   0  0  0  0  0  0           0  0  0
    2.5917   -5.1417    0.0000 C   0  0  0  0  0  0           0  0  0
    2.7167   -5.9542    0.0000 C   0  0  0  0  0  0           0  0  0
    2.6667    0.4208    0.0000 C   0  0  0  0  0  0           0  0  0
    1.9542   -0.8167    0.0000 C   0  0  0  0  0  0           0  0  0
    1.9542    0.0083    0.0000 C   0  0  0  0  0  0           0  0  0
  2  1  1  0     0  0
  3  2  1  0     0  0
  4  1  1  0     0  0
  5  1  1  0     0  0
  6  3  2  0     0  0
  7  4  1  0     0  0
  8  2  2  0     0  0
  9  6  1  0     0  0
 10  5  1  0     0  0
 11  3  1  0     0  0
 12 13  1  0     0  0
 13 11  2  0     0  0
 10 14  1  6     0  0
 15 14  1  0     0  0
 16 17  1  0     0  0
  4 17  1  6     0  0
 18 15  1  0     0  0
 19  9  2  0     0  0
 20 12  2  0     0  0
 21 18  1  0     0  0
 22 18  2  0     0  0
 23 19  1  0     0  0
 24 20  1  0     0  0
 25 21  2  0     0  0
 26 22  1  0     0  0
 27 26  2  0     0  0
 10  7  1  0     0  0
  9 12  1  0     0  0
 24 23  2  0     0  0
 27 25  1  0     0  0
M  END