
  SciTegic06051313552D

 55 60  0  0  0  0            999 V2000
   14.8825   -3.5404    0.0000 C   0  0
   16.3400   -4.3402    0.0000 O   0  0
   14.1613   -3.1399    0.0000 C   0  0
   15.6319   -4.7643    0.0000 C   0  0
   16.3211   -3.5171    0.0000 C   0  0
   14.9014   -4.3634    0.0000 C   0  0
   15.5963   -3.1145    0.0000 C   0  0
   14.1539   -2.3135    0.0000 C   0  0
   15.6504   -5.5967    0.0000 C   0  0
   17.0276   -3.0873    0.0000 C   0  0
   14.1930   -4.7969    0.0000 C   0  0
   15.5851   -2.2862    0.0000 C   0  0
   17.0128   -2.2569    0.0000 C   0  0
   14.9424   -6.0209    0.0000 C   0  0
   16.2895   -1.8601    0.0000 C   0  0
   14.2118   -5.6200    0.0000 C   0  0
   17.7281   -1.8368    0.0000 N   0  0
   14.9649   -6.8460    0.0000 N   0  3
   13.4570   -3.5660    0.0000 C   0  0
   13.4306   -1.9166    0.0000 C   0  0
   12.7410   -3.1731    0.0000 C   0  0
   12.7262   -2.3427    0.0000 C   0  0
   14.2619   -7.2778    0.0000 C   0  0
   15.6903   -7.2388    0.0000 C   0  0
   18.4456   -2.2440    0.0000 C   0  0
   17.7220   -1.0119    0.0000 C   0  0
   13.4743   -4.3908    0.0000 C   0  0
   12.7688   -4.8182    0.0000 O   0  5
   13.8790   -5.0999    0.0000 O   0  0
   12.0039   -1.9440    0.0000 C   0  0
   11.9881   -1.1192    0.0000 O   0  0
   11.2976   -2.3701    0.0000 N   0  0
   10.5752   -1.9714    0.0000 C   0  0
    9.8689   -2.3976    0.0000 C   0  0
    9.1466   -1.9988    0.0000 C   0  0
    8.4402   -2.4249    0.0000 C   0  0
    7.7179   -2.0262    0.0000 C   0  0
    7.0116   -2.4523    0.0000 N   0  0
    6.2893   -2.0536    0.0000 C   0  0
    5.5829   -2.4797    0.0000 C   0  0
    6.2735   -1.2287    0.0000 O   0  0
    4.8606   -2.0810    0.0000 C   0  0
    4.1543   -2.5071    0.0000 N   0  0
    3.4785   -2.0356    0.0000 C   0  0
    2.8219   -2.5366    0.0000 C   0  0
    3.9225   -3.2934    0.0000 C   0  0
    3.1000   -3.3121    0.0000 C   0  0
    2.7067   -4.0326    0.0000 C   0  0
    3.1348   -4.7349    0.0000 C   0  0
    3.9603   -4.7122    0.0000 C   0  0
    4.3499   -3.9912    0.0000 C   0  0
    2.7408   -5.4598    0.0000 O   0  0
    2.0307   -2.3028    0.0000 C   0  0
    1.8376   -1.5008    0.0000 C   0  0
    1.0464   -1.2670    0.0000 N   0  0
  2  5  1  0
  3  1  1  0
  4  6  1  0
  5  7  2  0
  6  1  2  0
  7  1  1  0
  8  3  2  0
  9  4  2  0
 10  5  1  0
 11  6  1  0
 12  7  1  0
 13 15  1  0
 14 16  1  0
 15 12  2  0
 16 11  2  0
 17 13  1  0
 18 14  2  0
 19  3  1  0
 20  8  1  0
 21 19  2  0
 22 21  1  0
  4  2  1  0
 10 13  2  0
  9 14  1  0
 20 22  2  0
 18 23  1  0
 18 24  1  0
 17 25  1  0
 17 26  1  0
 19 27  1  0
 27 28  1  0
 27 29  2  0
 22 30  1  0
 30 31  2  0
 30 32  1  0
 32 33  1  0
 33 34  1  0
 34 35  1  0
 35 36  1  0
 36 37  1  0
 37 38  1  0
 38 39  1  0
 39 40  1  0
 39 41  2  0
 40 42  1  0
 42 43  1  0
 44 45  2  0
 43 44  1  0
 45 47  1  0
 46 43  1  0
 46 47  2  0
 47 48  1  0
 48 49  2  0
 49 50  1  0
 50 51  2  0
 51 46  1  0
 49 52  1  0
 45 53  1  0
 53 54  1  0
 54 55  1  0
M  CHG  2  18   1  28  -1
M  END