
  CDK    6/4/10,11:42

 35 36  0  0  0  0  0  0  0  0999 V2000
   -1.1848    3.0334    0.0000 C   0  0  0  0  0  0  0  0  0  0  0  0
   -1.1859    2.2060    0.0000 C   0  0  0  0  0  0  0  0  0  0  0  0
   -0.4711    1.7931    0.0000 C   0  0  0  0  0  0  0  0  0  0  0  0
    0.2453    2.2065    0.0000 C   0  0  0  0  0  0  0  0  0  0  0  0
    0.2425    3.0370    0.0000 C   0  0  0  0  0  0  0  0  0  0  0  0
   -0.4729    3.4461    0.0000 C   0  0  0  0  0  0  0  0  0  0  0  0
   -0.4713    0.9681    0.0000 C   0  0  0  0  0  0  0  0  0  0  0  0
   -1.1859    0.5558    0.0000 N   0  0  0  0  0  0  0  0  0  0  0  0
   -1.1861   -0.2692    0.0000 C   0  0  0  0  0  0  0  0  0  0  0  0
   -1.9015   -0.6772    0.0000 C   0  0  0  0  0  0  0  0  0  0  0  0
   -1.9021   -1.5014    0.0000 C   0  0  0  0  0  0  0  0  0  0  0  0
   -1.1871   -1.9149    0.0000 C   0  0  0  0  0  0  0  0  0  0  0  0
   -0.4702   -1.4981    0.0000 C   0  0  0  0  0  0  0  0  0  0  0  0
   -0.4732   -0.6753    0.0000 C   0  0  0  0  0  0  0  0  0  0  0  0
   -1.9003    0.9685    0.0000 C   0  0  0  0  0  0  0  0  0  0  0  0
   -2.6148    0.5562    0.0000 C   0  0  0  0  0  0  0  0  0  0  0  0
   -3.3292    0.9688    0.0000 C   0  0  0  0  0  0  0  0  0  0  0  0
   -4.0438    0.5565    0.0000 O   0  0  0  0  0  0  0  0  0  0  0  0
   -3.3290    1.7938    0.0000 O   0  0  0  0  0  0  0  0  0  0  0  0
    0.9554    3.4522    0.0000 O   0  0  0  0  0  0  0  0  0  0  0  0
    1.6714    3.0424    0.0000 C   0  0  0  0  0  0  0  0  0  0  0  0
    2.3843    3.4576    0.0000 C   0  0  0  0  0  0  0  0  0  0  0  0
    3.1003    3.0478    0.0000 C   0  0  0  0  0  0  0  0  0  0  0  0
    3.8133    3.4630    0.0000 C   0  0  0  0  0  0  0  0  0  0  0  0
    3.1034    2.2228    0.0000 C   0  0  0  0  0  0  0  0  0  0  0  0
   -1.8993    3.4457    0.0000 O   0  0  0  0  0  0  0  0  0  0  0  0
   -2.6137    3.0330    0.0000 C   0  0  0  0  0  0  0  0  0  0  0  0
   -3.3283    3.4454    0.0000 C   0  0  0  0  0  0  0  0  0  0  0  0
   -4.0426    3.0327    0.0000 C   0  0  0  0  0  0  0  0  0  0  0  0
   -4.7572    3.4450    0.0000 N   0  0  0  0  0  0  0  0  0  0  0  0
    0.2456   -1.9083    0.0000 C   0  0  0  0  0  0  0  0  0  0  0  0
    0.9587   -1.4934    0.0000 C   0  0  0  0  0  0  0  0  0  0  0  0
    1.6746   -1.9036    0.0000 C   0  0  0  0  0  0  0  0  0  0  0  0
    2.3877   -1.4888    0.0000 N   0  0  0  0  0  0  0  0  0  0  0  0
    1.6773   -2.7286    0.0000 O   0  0  0  0  0  0  0  0  0  0  0  0
 16 17  1  0  0  0  0 
 17 18  1  0  0  0  0 
  8  9  1  0  0  0  0 
 17 19  2  0  0  0  0 
  4  5  1  0  0  0  0 
  5 20  1  0  0  0  0 
  9 10  2  0  0  0  0 
 20 21  1  0  0  0  0 
  2  3  1  0  0  0  0 
 21 22  1  0  0  0  0 
 10 11  1  0  0  0  0 
 22 23  1  0  0  0  0 
  5  6  2  0  0  0  0 
 23 24  1  0  0  0  0 
 11 12  2  0  0  0  0 
 23 25  1  0  0  0  0 
  6  1  1  0  0  0  0 
  1 26  1  0  0  0  0 
 12 13  1  0  0  0  0 
 26 27  1  0  0  0  0 
  1  2  2  0  0  0  0 
 27 28  1  0  0  0  0 
 13 14  2  0  0  0  0 
 28 29  1  0  0  0  0 
 14  9  1  0  0  0  0 
 29 30  1  0  0  0  0 
  3  7  1  0  0  0  0 
 13 31  1  0  0  0  0 
  8 15  1  0  0  0  0 
 31 32  1  0  0  0  0 
  3  4  2  0  0  0  0 
 32 33  1  0  0  0  0 
 15 16  1  0  0  0  0 
 33 34  1  0  0  0  0 
  7  8  1  0  0  0  0 
 33 35  2  0  0  0  0 
M  END