
  SciTegic04091415222D

 31 34  0  0  0  0            999 V2000
   15.6706   -8.4653    0.0000 C   0  0
   16.3871   -8.0519    0.0000 C   0  0
   16.3843   -7.2214    0.0000 C   0  0
   15.6688   -6.8122    0.0000 N   0  0
   14.9559   -8.0524    0.0000 N   0  0
   14.9525   -7.2281    0.0000 C   0  0
   14.1675   -6.9765    0.0000 C   0  0
   13.6856   -7.6453    0.0000 C   0  0
   14.1729   -8.3102    0.0000 N   0  0
   15.6704   -9.2903    0.0000 N   0  0
   14.9559   -9.7026    0.0000 C   0  0
   13.9085   -6.1943    0.0000 C   0  0
   13.6505   -5.4107    0.0000 N   0  0
   17.0971   -6.8062    0.0000 N   0  0
   17.8132   -7.2159    0.0000 C   0  0
   17.8129   -8.0386    0.0000 C   0  0
   18.5281   -8.4484    0.0000 C   0  0
   19.2420   -8.0331    0.0000 C   0  0
   19.2362   -7.2038    0.0000 C   0  0
   18.5205   -6.7979    0.0000 C   0  0
   19.9477   -6.7862    0.0000 N   0  0
   19.9586   -8.4420    0.0000 N   0  0
   19.9628   -9.2670    0.0000 C   0  0
   20.6710   -8.0258    0.0000 C   0  0
   20.6794   -9.6758    0.0000 C   0  0
   20.6836  -10.5009    0.0000 N   0  0
   19.9417   -5.9612    0.0000 C   0  0
   20.6531   -5.5435    0.0000 C   0  0
   19.2242   -5.5539    0.0000 O   0  0
   14.1327   -9.7051    0.0000 C   0  0
   14.5450  -10.4198    0.0000 C   0  0
  5  1  1  0
  1  2  2  0
  2  3  1  0
  3  4  2  0
  4  6  1  0
  5  6  1  0
  6  7  2  0
  7  8  1  0
  8  9  2  0
  9  5  1  0
  1 10  1  0
 10 11  1  0
 12 13  3  0
  7 12  1  0
  3 14  1  0
 14 15  1  0
 15 16  2  0
 16 17  1  0
 17 18  2  0
 18 19  1  0
 19 20  2  0
 20 15  1  0
 19 21  1  0
 18 22  1  0
 22 23  1  0
 22 24  1  0
 23 25  1  0
 25 26  1  0
 21 27  1  0
 27 28  1  0
 27 29  2  0
 30 11  1  0
 31 30  1  0
 11 31  1  0
M  END