
          11280715332D 1   1.00000     0.00000     0

 44 45  0     1  0            999 V2000
    3.2667   -1.5500    0.0000 C   0  0  0  0  0  0           0  0  0
    6.8375   -1.9625    0.0000 C   0  0  0  0  0  0           0  0  0
    6.1250   -1.5500    0.0000 C   0  0  1  0  0  0           0  0  0
    3.9792   -1.9625    0.0000 C   0  0  1  0  0  0           0  0  0
    2.5542   -1.9625    0.0000 N   0  0  3  0  0  0           0  0  0
    7.5542   -1.5500    0.0000 N   0  0  3  0  0  0           0  0  0
    1.8375   -1.5500    0.0000 C   0  0  3  0  0  0           0  0  0
    8.2667   -1.9625    0.0000 C   0  0  3  0  0  0           0  0  0
    5.4042   -1.9625    0.0000 C   0  0  1  0  0  0           0  0  0
    4.6917   -1.5500    0.0000 C   0  0  1  0  0  0           0  0  0
    1.8375   -0.7250    0.0000 C   0  0  0  0  0  0           0  0  0
    8.2667   -2.7875    0.0000 C   0  0  0  0  0  0           0  0  0
    6.1250   -0.7250    0.0000 O   0  0  0  0  0  0           0  0  0
    3.9792   -2.7875    0.0000 O   0  0  0  0  0  0           0  0  0
    3.2667   -0.7250    0.0000 O   0  0  0  0  0  0           0  0  0
    6.8375   -2.7875    0.0000 O   0  0  0  0  0  0           0  0  0
    2.5542   -0.3125    0.0000 O   0  0  0  0  0  0           0  0  0
    7.5542   -3.2000    0.0000 O   0  0  0  0  0  0           0  0  0
    1.1250   -1.9625    0.0000 C   0  0  3  0  0  0           0  0  0
    8.9792   -1.5500    0.0000 C   0  0  3  0  0  0           0  0  0
    5.4042   -2.7875    0.0000 O   0  0  0  0  0  0           0  0  0
    4.6917   -0.7250    0.0000 O   0  0  0  0  0  0           0  0  0
    6.9042   -0.2917    0.0000 C   0  0  0  0  0  0           0  0  0
    3.2667   -3.2042    0.0000 C   0  0  0  0  0  0           0  0  0
    1.1250   -0.3125    0.0000 O   0  0  0  0  0  0           0  0  0
    8.9792   -3.2000    0.0000 O   0  0  0  0  0  0           0  0  0
    2.5542   -2.7875    0.0000 C   0  0  0  0  0  0           0  0  0
    7.5542   -0.7250    0.0000 C   0  0  0  0  0  0           0  0  0
    3.2667   -4.0292    0.0000 C   0  0  0  0  0  0           0  0  0
    6.8792    0.5333    0.0000 C   0  0  0  0  0  0           0  0  0
    8.9792   -0.7250    0.0000 O   0  0  0  0  0  0           0  0  0
    1.1250   -2.7875    0.0000 O   0  0  0  0  0  0           0  0  0
    0.4042   -1.5500    0.0000 C   0  0  0  0  0  0           0  0  0
    9.6917   -1.9625    0.0000 C   0  0  0  0  0  0           0  0  0
    7.5792    0.9750    0.0000 C   0  0  0  0  0  0           0  0  0
    2.5500   -4.4417    0.0000 C   0  0  0  0  0  0           0  0  0
    3.9792   -4.4375    0.0000 C   0  0  0  0  0  0           0  0  0
    6.1417    0.9250    0.0000 C   0  0  0  0  0  0           0  0  0
    2.5500   -5.2667    0.0000 C   0  0  0  0  0  0           0  0  0
    3.9792   -5.2625    0.0000 C   0  0  0  0  0  0           0  0  0
    7.5500    1.8000    0.0000 C   0  0  0  0  0  0           0  0  0
    6.1167    1.7500    0.0000 C   0  0  0  0  0  0           0  0  0
    3.2667   -5.6792    0.0000 C   0  0  0  0  0  0           0  0  0
    6.8167    2.1833    0.0000 C   0  0  0  0  0  0           0  0  0
  2  3  1  0     0  0
  3  9  1  0     0  0
  4  1  1  0     0  0
  5  1  1  0     0  0
  6  2  1  0     0  0
  7  5  1  0     0  0
  8  6  1  0     0  0
  9 10  1  0     0  0
 10  4  1  0     0  0
 11  7  1  0     0  0
 12  8  1  0     0  0
  3 13  1  1     0  0
  4 14  1  1     0  0
 15  1  2  0     0  0
 16  2  2  0     0  0
 17 11  2  0     0  0
 18 12  2  0     0  0
 19  7  1  0     0  0
 20  8  1  0     0  0
  9 21  1  6     0  0
 10 22  1  6     0  0
 23 13  1  0     0  0
 24 14  1  0     0  0
 25 11  1  0     0  0
 26 12  1  0     0  0
 27  5  1  0     0  0
 28  6  1  0     0  0
 29 24  1  0     0  0
 30 23  1  0     0  0
 31 20  1  0     0  0
 32 19  1  0     0  0
 33 19  1  0     0  0
 34 20  1  0     0  0
 35 30  2  0     0  0
 36 29  2  0     0  0
 37 29  1  0     0  0
 38 30  1  0     0  0
 39 36  1  0     0  0
 40 37  2  0     0  0
 41 35  1  0     0  0
 42 38  2  0     0  0
 43 40  1  0     0  0
 44 42  1  0     0  0
 43 39  2  0     0  0
 41 44  2  0     0  0
M  END