
          11280715442D 1   1.00000     0.00000     0

 35 38  0     0  0            999 V2000
   -1.7083   -1.6667    0.0000 N   0  0  3  0  0  0           0  0  0
   -1.6208   -0.8417    0.0000 C   0  0  0  0  0  0           0  0  0
   -0.9458   -2.0000    0.0000 C   0  0  0  0  0  0           0  0  0
   -0.8208   -0.6667    0.0000 C   0  0  0  0  0  0           0  0  0
   -0.4083   -1.3792    0.0000 C   0  0  0  0  0  0           0  0  0
   -2.4208   -2.0875    0.0000 C   0  0  0  0  0  0           0  0  0
    0.8167    0.7583    0.0000 C   0  0  0  0  0  0           0  0  0
   -3.1333   -1.6792    0.0000 C   0  0  0  0  0  0           0  0  0
   -2.4208   -2.9167    0.0000 C   0  0  0  0  0  0           0  0  0
   -0.4083    0.0375    0.0000 C   0  0  0  0  0  0           0  0  0
    3.2917    2.1958    0.0000 C   0  0  0  0  0  0           0  0  0
    2.0417    2.9000    0.0000 C   0  0  0  0  0  0           0  0  0
    0.4167    0.0458    0.0000 C   0  0  0  0  0  0           0  0  0
    1.6417    0.7625    0.0000 N   0  0  0  0  0  0           0  0  0
    4.1167    2.1958    0.0000 C   0  0  0  0  0  0           0  0  0
    1.6292    3.6125    0.0000 C   0  0  0  0  0  0           0  0  0
    2.0542    1.4750    0.0000 C   0  0  0  0  0  0           0  0  0
    2.8792    2.9083    0.0000 C   0  0  0  0  0  0           0  0  0
    0.4167   -1.3792    0.0000 C   0  0  0  0  0  0           0  0  0
   -2.2333   -0.3000    0.0000 O   0  0  0  0  0  0           0  0  0
   -0.7708   -2.8042    0.0000 O   0  0  0  0  0  0           0  0  0
    1.6417    2.1833    0.0000 C   0  0  0  0  0  0           0  0  0
    2.8792    1.4833    0.0000 C   0  0  0  0  0  0           0  0  0
   -3.8458   -2.0875    0.0000 C   0  0  0  0  0  0           0  0  0
   -3.1333   -3.3292    0.0000 C   0  0  0  0  0  0           0  0  0
    0.4042    1.4708    0.0000 O   0  0  0  0  0  0           0  0  0
    0.8292   -0.6792    0.0000 C   0  0  0  0  0  0           0  0  0
    4.5292    2.9125    0.0000 O   0  0  0  0  0  0           0  0  0
    2.0292    4.3292    0.0000 O   0  0  0  0  0  0           0  0  0
   -3.8458   -2.9167    0.0000 C   0  0  0  0  0  0           0  0  0
    0.8042    3.6083    0.0000 O   0  0  0  0  0  0           0  0  0
    4.5292    1.4833    0.0000 O   0  0  0  0  0  0           0  0  0
   -1.6958   -3.3292    0.0000 C   0  0  0  0  0  0           0  0  0
   -3.1333   -0.8542    0.0000 C   0  0  0  0  0  0           0  0  0
   -4.5625   -3.3292    0.0000 C   0  0  0  0  0  0           0  0  0
  2  1  1  0     0  0
  3  1  1  0     0  0
  4  2  1  0     0  0
  5  3  1  0     0  0
  6  1  1  0     0  0
  7 13  1  0     0  0
  8  6  2  0     0  0
  9  6  1  0     0  0
 10  4  1  0     0  0
 11 23  1  0     0  0
 12 22  2  0     0  0
 13 10  2  0     0  0
 14  7  1  0     0  0
 15 11  1  0     0  0
 16 12  1  0     0  0
 17 14  1  0     0  0
 18 11  2  0     0  0
 19  5  1  0     0  0
 20  2  2  0     0  0
 21  3  2  0     0  0
 22 17  1  0     0  0
 23 17  2  0     0  0
 24  8  1  0     0  0
 25  9  2  0     0  0
 26  7  2  0     0  0
 27 19  2  0     0  0
 28 15  2  0     0  0
 29 16  2  0     0  0
 30 25  1  0     0  0
 31 16  1  0     0  0
 32 15  1  0     0  0
 33  9  1  0     0  0
 34  8  1  0     0  0
 35 30  1  0     0  0
  4  5  2  0     0  0
 24 30  2  0     0  0
 13 27  1  0     0  0
 12 18  1  0     0  0
M  END