
  SciTegic10301317112D

 67 70  0  0  1  0            999 V2000
   14.9464   -7.3072    0.0000 N   0  0
   14.2420   -6.8949    0.0000 C   0  0
    2.0788   -7.3873    0.0000 C   0  0
    5.6521   -6.9464    0.0000 C   0  0
    7.8054   -7.3415    0.0000 C   0  0
    9.9471   -6.9120    0.0000 C   0  0
   12.0946   -7.3072    0.0000 C   0  0
   15.7195   -7.5992    0.0000 C   0  0  2  0  0  0
    1.2255   -8.4067    0.0000 N   0  0
    4.9364   -7.3701    0.0000 C   0  0  1  0  0  0
    6.3737   -7.3529    0.0000 N   0  0
   10.6686   -7.3186    0.0000 N   0  0
    8.5098   -6.9235    0.0000 N   0  0
   12.8047   -6.8777    0.0000 N   0  0
    2.0158   -8.2119    0.0000 C   0  0
    7.0781   -6.9292    0.0000 C   0  0  1  0  0  0
   11.3788   -6.8949    0.0000 C   0  0  1  0  0  0
    9.2313   -7.3244    0.0000 C   0  0  2  0  0  0
    3.5047   -7.3759    0.0000 C   0  0
    4.2262   -6.9578    0.0000 N   0  0
   15.9314   -8.4067    0.0000 C   0  0
   13.5263   -7.3072    0.0000 C   0  0  1  0  0  0
   14.9121  -10.6229    0.0000 C   0  0
    1.3114   -7.0838    0.0000 C   0  0
    2.7889   -6.9636    0.0000 C   0  0
    0.7789   -7.7137    0.0000 C   0  0
   14.1963  -11.0180    0.0000 N   0  0
   14.2478   -6.0702    0.0000 O   0  0
    5.6407   -6.1218    0.0000 O   0  0
    9.9357   -6.0874    0.0000 O   0  0
   12.1003   -8.1318    0.0000 O   0  0
    7.8054   -8.1662    0.0000 O   0  0
    7.0781   -6.1046    0.0000 C   0  0
   15.3415   -8.9850    0.0000 O   0  0
    3.5104   -8.2005    0.0000 O   0  0
   11.3616   -6.0702    0.0000 C   0  0
    9.2427   -8.1490    0.0000 C   0  0
   14.9178   -9.7983    0.0000 N   0  0
   16.7217   -8.6128    0.0000 N   0  0
   15.6222  -11.0352    0.0000 N   0  0
   14.9865   -6.4826    0.0000 C   0  0
    7.7882   -5.6751    0.0000 C   0  0
    9.2141   -4.8505    0.0000 C   0  0
    4.9478   -8.1834    0.0000 C   0  0
    7.7824   -4.8619    0.0000 C   0  0
    8.5098   -6.0874    0.0000 C   0  0
    8.4926   -4.4382    0.0000 C   0  0
    9.2255   -5.6751    0.0000 C   0  0
   16.2407   -6.9636    0.0000 C   0  0
    9.9185   -4.4324    0.0000 O   0  0
    5.6579   -8.5957    0.0000 O   0  0
   15.7940   -6.2764    0.0000 C   0  0
   13.5091   -8.1318    0.0000 C   0  0
    1.0366   -6.3108    0.0000 C   0  0
    9.9529   -8.5613    0.0000 C   0  0
   12.0774   -5.6579    0.0000 C   0  0
   -0.0172   -7.5649    0.0000 C   0  0
   16.9279   -9.4203    0.0000 C   0  0
   14.2135   -9.3802    0.0000 C   0  0
   14.2249   -8.5555    0.0000 C   0  0
   12.7989   -6.0531    0.0000 C   0  0
   10.6401   -8.0975    0.0000 C   0  0
   10.0502   -9.3802    0.0000 C   0  0
   12.0660   -4.8333    0.0000 C   0  0
   17.7295   -9.6265    0.0000 C   0  0
    0.2291   -6.1675    0.0000 C   0  0
   -0.3035   -6.8032    0.0000 C   0  0
  2  1  1  0
  3 25  1  0
  4 11  1  0
  5 13  1  0
  6 12  1  0
  7 14  1  0
  8  1  1  0
  9 15  1  0
 10  4  1  0
 11 16  1  0
 12 17  1  0
 13 18  1  0
 14 22  1  0
 15  3  2  0
 16  5  1  0
 17  7  1  0
 18  6  1  0
 19 20  1  0
 20 10  1  0
  8 21  1  1
 22  2  1  0
 23 38  2  0
 24  3  1  0
 25 19  1  0
 26 24  2  0
 27 23  1  0
 28  2  2  0
 29  4  2  0
 30  6  2  0
 31  7  2  0
 32  5  2  0
 16 33  1  1
 34 21  2  0
 35 19  2  0
 17 36  1  1
 18 37  1  1
 38 59  1  0
 39 21  1  0
 40 23  1  0
 41  1  1  0
 42 33  1  0
 43 48  2  0
 10 44  1  6
 45 42  1  0
 46 42  2  0
 47 45  2  0
 48 46  1  0
 49  8  1  0
 50 43  1  0
 51 44  1  0
 52 41  1  0
 22 53  1  6
 54 24  1  0
 55 37  1  0
 56 36  1  0
 57 26  1  0
 58 39  1  0
 59 60  1  0
 60 53  1  0
 61 56  1  0
 62 55  1  0
 63 55  1  0
 64 56  1  0
 65 58  1  0
 66 54  2  0
 67 66  1  0
 52 49  1  0
 47 43  1  0
 26  9  1  0
 67 57  2  0
M  END