
  Mrv0541 05211314572D          

 22 23  0  0  0  0            999 V2000
   -1.7642   -4.5433    0.0000 C   0  0  0  0  0  0  0  0  0  0  0  0
   -2.4786   -4.9558    0.0000 C   0  0  0  0  0  0  0  0  0  0  0  0
   -2.4786   -5.7808    0.0000 C   0  0  0  0  0  0  0  0  0  0  0  0
   -1.7642   -6.1933    0.0000 C   0  0  0  0  0  0  0  0  0  0  0  0
   -1.0497   -5.7808    0.0000 C   0  0  0  0  0  0  0  0  0  0  0  0
   -1.0497   -4.9558    0.0000 C   0  0  0  0  0  0  0  0  0  0  0  0
   -0.3352   -6.1933    0.0000 C   0  0  0  0  0  0  0  0  0  0  0  0
    0.3793   -5.7808    0.0000 C   0  0  0  0  0  0  0  0  0  0  0  0
   -0.3352   -7.0183    0.0000 O   0  0  0  0  0  0  0  0  0  0  0  0
    1.0937   -6.1933    0.0000 C   0  0  0  0  0  0  0  0  0  0  0  0
    1.0937   -7.0183    0.0000 C   0  0  0  0  0  0  0  0  0  0  0  0
    1.8082   -5.7808    0.0000 S   0  0  0  0  0  0  0  0  0  0  0  0
    2.5227   -6.1933    0.0000 C   0  0  0  0  0  0  0  0  0  0  0  0
    3.2371   -5.7808    0.0000 C   0  0  0  0  0  0  0  0  0  0  0  0
    3.9516   -6.1933    0.0000 O   0  0  0  0  0  0  0  0  0  0  0  0
    3.2371   -4.9558    0.0000 O   0  0  0  0  0  0  0  0  0  0  0  0
    1.8082   -7.4308    0.0000 C   0  0  0  0  0  0  0  0  0  0  0  0
    1.8082   -8.2558    0.0000 C   0  0  0  0  0  0  0  0  0  0  0  0
    1.0937   -8.6683    0.0000 C   0  0  0  0  0  0  0  0  0  0  0  0
    0.3793   -8.2558    0.0000 C   0  0  0  0  0  0  0  0  0  0  0  0
    0.3793   -7.4308    0.0000 C   0  0  0  0  0  0  0  0  0  0  0  0
   -3.1931   -4.5433    0.0000 Cl  0  0  0  0  0  0  0  0  0  0  0  0
 10 11  1  0  0  0  0
  5  6  2  0  0  0  0
 10 12  1  0  0  0  0
  6  1  1  0  0  0  0
 12 13  1  0  0  0  0
  1  2  2  0  0  0  0
 13 14  1  0  0  0  0
  5  7  1  0  0  0  0
 14 15  1  0  0  0  0
  3  4  2  0  0  0  0
 14 16  2  0  0  0  0
  7  8  1  0  0  0  0
 11 17  2  0  0  0  0
 17 18  1  0  0  0  0
  7  9  2  0  0  0  0
 18 19  2  0  0  0  0
  4  5  1  0  0  0  0
 19 20  1  0  0  0  0
  8 10  1  0  0  0  0
 20 21  2  0  0  0  0
 21 11  1  0  0  0  0
  2  3  1  0  0  0  0
  2 22  1  0  0  0  0
M  END