
          02060813472D 1   1.00000     0.00000     0

 69 70  0     1  0            999 V2000
   16.3290  -15.0587    0.0000 C   0  0  0  0  0  0           0  0  0
   15.6115  -14.6395    0.0000 S   0  0  0  0  0  0           0  0  0
   14.8919  -15.0479    0.0000 S   0  0  0  0  0  0           0  0  0
   14.1867  -14.6310    0.0000 C   0  0  0  0  0  0           0  0  0
   14.1924  -13.8027    0.0000 C   0  0  0  0  0  0           0  0  0
   13.4782  -13.3877    0.0000 C   0  0  0  0  0  0           0  0  0
   13.4933  -12.5633    0.0000 N   0  0  0  0  0  0           0  0  0
   12.7648  -13.7918    0.0000 O   0  0  0  0  0  0           0  0  0
   12.7760  -12.1400    0.0000 C   0  0  2  0  0  0           0  0  0
   12.7816  -11.3156    0.0000 C   0  0  0  0  0  0           0  0  0
   12.0562  -12.5450    0.0000 C   0  0  0  0  0  0           0  0  0
   11.3524  -12.1221    0.0000 C   0  0  0  0  0  0           0  0  0
   11.3585  -11.3027    0.0000 C   0  0  0  0  0  0           0  0  0
   10.6478  -10.8810    0.0000 C   0  0  0  0  0  0           0  0  0
    9.9251  -11.2899    0.0000 C   0  0  0  0  0  0           0  0  0
    9.9195  -12.1242    0.0000 C   0  0  0  0  0  0           0  0  0
   10.6318  -12.5307    0.0000 C   0  0  0  0  0  0           0  0  0
   13.5046  -10.9115    0.0000 N   0  0  0  0  0  0           0  0  0
   12.0737  -10.9028    0.0000 O   0  0  0  0  0  0           0  0  0
   14.2188  -10.9515    0.0000 C   0  0  2  0  0  0           0  0  0
   14.9304  -10.9220    0.0000 C   0  0  0  0  0  0           0  0  0
   15.6446  -11.3444    0.0000 N   0  0  0  0  0  0           0  0  0
   14.9361  -10.0968    0.0000 O   0  0  0  0  0  0           0  0  0
   16.3613  -10.9361    0.0000 C   0  0  2  0  0  0           0  0  0
   17.0755  -11.3553    0.0000 C   0  0  0  0  0  0           0  0  0
   16.3671  -10.1077    0.0000 C   0  0  0  0  0  0           0  0  0
   17.0868   -9.7035    0.0000 C   0  0  0  0  0  0           0  0  0
   17.0987   -8.8791    0.0000 C   0  0  0  0  0  0           0  0  0
   17.8185   -8.4700    0.0000 N   0  0  0  0  0  0           0  0  0
   16.3845   -8.4599    0.0000 O   0  0  0  0  0  0           0  0  0
   17.7911  -10.9510    0.0000 O   0  0  0  0  0  0           0  0  0
   17.0699  -12.1797    0.0000 N   0  0  0  0  0  0           0  0  0
   17.7799  -12.5965    0.0000 C   0  0  2  0  0  0           0  0  0
   17.7742  -13.4210    0.0000 C   0  0  0  0  0  0           0  0  0
   18.4915  -12.1935    0.0000 C   0  0  0  0  0  0           0  0  0
   19.2067  -12.6167    0.0000 C   0  0  0  0  0  0           0  0  0
   19.9287  -12.2022    0.0000 N   0  0  0  0  0  0           0  0  0
   19.2011  -13.4412    0.0000 O   0  0  0  0  0  0           0  0  0
   17.0544  -13.8252    0.0000 N   0  0  0  0  0  0           0  0  0
   18.4803  -13.8399    0.0000 O   0  0  0  0  0  0           0  0  0
   17.0434  -14.6598    0.0000 C   0  0  2  0  0  0           0  0  0
   17.7534  -15.0727    0.0000 C   0  0  0  0  0  0           0  0  0
   18.4682  -14.6683    0.0000 O   0  0  0  0  0  0           0  0  0
   14.2133  -11.7155    0.0000 C   0  0  2  0  0  0           0  0  0
   14.2184  -10.0682    0.0000 H   0  0  0  0  0  0           0  0  0
   14.8890  -12.1128    0.0000 C   0  0  0  0  0  0           0  0  0
   14.8756  -13.1081    0.0000 C   0  0  0  0  0  0           0  0  0
   13.5013  -12.1713    0.0000 C   0  0  0  0  0  0           0  0  0
   17.7515  -15.8974    0.0000 N   0  0  0  0  0  0           0  0  0
   18.0490  -17.0264    0.0000 C   0  0  0  0  0  0           0  0  0
   18.4595  -16.3080    0.0000 C   0  0  3  0  0  0           0  0  0
   19.1739  -16.7225    0.0000 C   0  0  0  0  0  0           0  0  0
   19.1739  -17.5475    0.0000 N   0  0  0  0  0  0           0  0  0
   19.8924  -16.3080    0.0000 O   0  0  0  0  0  0           0  0  0
   19.8924  -17.9580    0.0000 C   0  0  2  0  0  0           0  0  0
   19.8924  -18.7830    0.0000 C   0  0  0  0  0  0           0  0  0
   20.6068  -17.5475    0.0000 C   0  0  0  0  0  0           0  0  0
   21.3190  -17.9580    0.0000 C   0  0  3  0  0  0           0  0  0
   22.0334  -17.5475    0.0000 C   0  0  0  0  0  0           0  0  0
   21.3190  -18.7830    0.0000 C   0  0  0  0  0  0           0  0  0
   19.1739  -19.1934    0.0000 O   0  0  0  0  0  0           0  0  0
   20.6068  -19.1934    0.0000 N   0  0  0  0  0  0           0  0  0
   20.6068  -20.0184    0.0000 C   0  0  0  0  0  0           0  0  0
   21.3190  -20.4289    0.0000 C   0  0  0  0  0  0           0  0  0
   22.0334  -20.0184    0.0000 N   0  0  0  0  0  0           0  0  0
   21.3190  -21.2539    0.0000 O   0  0  0  0  0  0           0  0  0
   18.8740  -15.5936    0.0000 C   0  0  0  0  0  0           0  0  0
    9.2187  -10.8694    0.0000 C   0  0  0  0  0  0           0  0  0
    9.2262  -10.0444    0.0000 C   0  0  0  0  0  0           0  0  0
 41  1  1  0     0  0
  1  2  1  0     0  0
  2  3  1  0     0  0
  3  4  1  0     0  0
  4  5  1  0     0  0
  5  6  1  0     0  0
  6  7  1  0     0  0
  6  8  2  0     0  0
  7  9  1  0     0  0
  9 10  1  0     0  0
  9 11  1  1     0  0
 11 12  1  0     0  0
 12 13  2  0     0  0
 13 14  1  0     0  0
 14 15  2  0     0  0
 15 16  1  0     0  0
 16 17  2  0     0  0
 17 12  1  0     0  0
 10 18  1  0     0  0
 10 19  2  0     0  0
 18 20  1  0     0  0
 20 21  1  0     0  0
 21 22  1  0     0  0
 21 23  2  0     0  0
 22 24  1  0     0  0
 24 25  1  0     0  0
 24 26  1  1     0  0
 26 27  1  0     0  0
 27 28  1  0     0  0
 28 29  1  0     0  0
 28 30  2  0     0  0
 25 31  2  0     0  0
 25 32  1  0     0  0
 32 33  1  0     0  0
 33 34  1  0     0  0
 33 35  1  1     0  0
 35 36  1  0     0  0
 36 37  1  0     0  0
 36 38  2  0     0  0
 34 39  1  0     0  0
 34 40  2  0     0  0
 39 41  1  0     0  0
 41 42  1  6     0  0
 42 43  2  0     0  0
 20 44  1  0     0  0
 20 45  1  1     0  0
 44 46  1  0     0  0
 46 47  1  0     0  0
 44 48  1  6     0  0
 42 49  1  0     0  0
 49 51  1  0     0  0
 50 51  1  0     0  0
 51 52  1  0     0  0
 52 53  1  0     0  0
 52 54  2  0     0  0
 53 55  1  0     0  0
 55 56  1  0     0  0
 55 57  1  1     0  0
 57 58  1  0     0  0
 58 59  1  0     0  0
 58 60  1  0     0  0
 56 61  2  0     0  0
 56 62  1  0     0  0
 62 63  1  0     0  0
 63 64  1  0     0  0
 64 65  1  0     0  0
 64 66  2  0     0  0
 51 67  1  0     0  0
 15 68  1  0     0  0
 68 69  1  0     0  0
M  END