
          03140815512D 1   1.00000     0.00000     0

 28 29  0     1  0            999 V2000
   -3.3785   -5.9582    0.0000 C   0  0  0  0  0  0           0  0  0
   -3.3785   -6.7861    0.0000 C   0  0  0  0  0  0           0  0  0
   -2.6633   -7.1980    0.0000 N   0  0  0  0  0  0           0  0  0
   -1.9482   -6.7861    0.0000 C   0  0  0  0  0  0           0  0  0
   -1.9482   -5.9582    0.0000 C   0  0  0  0  0  0           0  0  0
   -2.6633   -5.5421    0.0000 N   0  0  0  0  0  0           0  0  0
   -4.0974   -5.5484    0.0000 C   0  0  0  0  0  0           0  0  0
   -1.2311   -7.2032    0.0000 O   0  0  0  0  0  0           0  0  0
   -1.2293   -5.5484    0.0000 C   0  0  0  0  0  0           0  0  0
   -0.5130   -5.9624    0.0000 C   0  0  0  0  0  0           0  0  0
    0.2017   -5.5525    0.0000 C   0  0  0  0  0  0           0  0  0
    0.9181   -5.9665    0.0000 C   0  0  0  0  0  0           0  0  0
    1.6370   -5.5567    0.0000 N   0  0  0  0  0  0           0  0  0
    2.3482   -5.9725    0.0000 C   0  0  0  0  0  0           0  0  0
    3.0642   -4.7390    0.0000 N   0  0  0  0  0  0           0  0  0
    3.0601   -5.5629    0.0000 C   0  0  1  0  0  0           0  0  0
    3.7729   -5.9783    0.0000 C   0  0  0  0  0  0           0  0  0
    4.4857   -5.5699    0.0000 C   0  0  0  0  0  0           0  0  0
    4.4897   -4.7460    0.0000 C   0  0  0  0  0  0           0  0  0
    5.2066   -4.3376    0.0000 C   0  0  0  0  0  0           0  0  0
    5.9194   -4.7530    0.0000 C   0  0  0  0  0  0           0  0  0
    6.6362   -4.3447    0.0000 O   0  0  0  0  0  0           0  0  0
    5.9154   -5.5769    0.0000 C   0  0  0  0  0  0           0  0  0
    5.1985   -5.9853    0.0000 C   0  0  0  0  0  0           0  0  0
    2.3434   -6.7951    0.0000 O   0  0  0  0  0  0           0  0  0
    5.1944   -6.8091    0.0000 C   0  0  0  0  0  0           0  0  0
    3.7810   -4.3306    0.0000 C   0  0  0  0  0  0           0  0  0
   -4.0918   -7.1984    0.0000 C   0  0  0  0  0  0           0  0  0
 13 14  1  0     0  0
  1  7  1  0     0  0
  1  2  2  0     0  0
  4  8  2  0     0  0
  1  6  1  0     0  0
  5  9  1  0     0  0
  2  3  1  0     0  0
  9 10  1  0     0  0
  3  4  1  0     0  0
 10 11  1  0     0  0
  4  5  1  0     0  0
 11 12  1  0     0  0
  5  6  2  0     0  0
 12 13  1  0     0  0
 16 15  1  1     0  0
 14 16  1  0     0  0
 16 17  1  0     0  0
 17 18  1  0     0  0
 18 19  2  0     0  0
 19 20  1  0     0  0
 20 21  2  0     0  0
 21 22  1  0     0  0
 21 23  1  0     0  0
 23 24  2  0     0  0
 18 24  1  0     0  0
 14 25  2  0     0  0
 24 26  1  0     0  0
 19 27  1  0     0  0
  2 28  1  0     0  0
M  END