
  SciTegic12231509382D

 16 16  0  0  0  0            999 V2000
   15.5413  -11.8876    0.0000 N   0  0
   16.2534  -11.4793    0.0000 C   0  0
   16.2534  -10.6542    0.0000 C   0  0
   15.5413  -10.2376    0.0000 O   0  0
   16.9691  -10.2439    0.0000 C   0  0
   17.6789  -10.6622    0.0000 C   0  0
   18.3941  -10.2525    0.0000 C   0  0
   18.3970   -9.4266    0.0000 C   0  0
   17.6787   -9.0122    0.0000 C   0  0
   16.9664   -9.4243    0.0000 C   0  0
   19.1151   -9.0113    0.0000 N   0  3
   19.1164   -8.1863    0.0000 O   0  0
   19.8289   -9.4250    0.0000 O   0  5
   15.5413  -12.7126    0.0000 C   0  0
   14.8269  -13.1252    0.0000 C   0  0
   16.2558  -13.1252    0.0000 C   0  0
  1  2  1  0
  2  3  1  0
  3  4  1  0
  3  5  1  0
  5  6  2  0
  6  7  1  0
  7  8  2  0
  8  9  1  0
  9 10  2  0
 10  5  1  0
 11 12  2  0
 11 13  1  0
  8 11  1  0
  1 14  1  0
 14 15  1  0
 14 16  1  0
M  CHG  2  11   1  13  -1
M  END