
  SciTegic12201615522D

 28 30  0  0  0  0            999 V2000
    2.5951   -3.0039    0.0000 C   0  0
    2.5973   -1.5031    0.0000 N   0  0
    1.2990   -0.7500    0.0000 C   0  0
    1.2990    0.7500    0.0000 C   0  0
    0.0000    1.5000    0.0000 C   0  0
   -1.2990    0.7500    0.0000 C   0  0
   -1.2990   -0.7500    0.0000 C   0  0
    0.0000   -1.5000    0.0000 C   0  0
    3.8933   -3.7570    0.0000 C   0  0
    1.5548   -3.6021    0.0000 O   0  0
    3.8912   -5.2578    0.0000 C   0  0
    5.1876   -6.0124    0.0000 C   0  0
    5.1824   -7.5124    0.0000 C   0  0
    3.8808   -8.2579    0.0000 C   0  0
    2.5844   -7.5034    0.0000 C   0  0
    2.5895   -6.0034    0.0000 C   0  0
   -2.5972   -1.5031    0.0000 C   0  0
   -2.5951   -3.0039    0.0000 N   0  0
   -3.6375   -0.9049    0.0000 O   0  0
   -3.8933   -3.7570    0.0000 C   0  0
   -3.8934   -5.2570    0.0000 C   0  0
   -5.1924   -6.0071    0.0000 C   0  0
   -6.4914   -5.2571    0.0000 C   0  0
   -6.4915   -3.7571    0.0000 C   0  0
   -5.1925   -3.0071    0.0000 C   0  0
   -2.5952   -6.0101    0.0000 C   0  0
   -2.5969   -7.2101    0.0000 O   0  0
   -1.5549   -5.4120    0.0000 O   0  0
  1  2  1  0
  2  3  1  0
  3  4  2  0
  4  5  1  0
  5  6  2  0
  6  7  1  0
  7  8  2  0
  8  3  1  0
  1  9  1  0
  1 10  2  0
  9 11  1  0
 11 12  2  0
 12 13  1  0
 13 14  2  0
 14 15  1  0
 15 16  2  0
 16 11  1  0
  7 17  1  0
 17 18  1  0
 17 19  2  0
 18 20  1  0
 20 21  2  0
 21 22  1  0
 22 23  2  0
 23 24  1  0
 24 25  2  0
 25 20  1  0
 21 26  1  0
 26 27  2  0
 26 28  1  0
M  END