
  SciTegic01061111512D

 23 25  0  0  0  0            999 V2000
   11.9617  -10.1355    0.0000 S   0  0
   11.2473  -10.5480    0.0000 C   0  0  1  0  0  0
   11.2473  -11.3730    0.0000 C   0  0  2  0  0  0
   11.9617  -11.7855    0.0000 O   0  0
   10.5328  -11.7855    0.0000 C   0  0  2  0  0  0
    9.8183  -11.3730    0.0000 C   0  0  1  0  0  0
    9.1038  -11.7855    0.0000 O   0  0
    9.8183  -10.5480    0.0000 C   0  0  2  0  0  0
   10.5328  -10.1355    0.0000 O   0  0
    9.1038  -10.1355    0.0000 C   0  0
    9.1038   -9.3105    0.0000 O   0  0
   10.5328  -12.6105    0.0000 N   0  0
   11.2002  -13.0955    0.0000 N   0  0
   10.9453  -13.8801    0.0000 N   0  0
   10.1203  -13.8801    0.0000 C   0  0
    9.8653  -13.0955    0.0000 C   0  0
    8.8149  -14.4613    0.0000 C   0  0
    9.6353  -14.5475    0.0000 C   0  0
    9.9709  -15.3012    0.0000 C   0  0
    9.4860  -15.9687    0.0000 C   0  0
    8.6655  -15.8824    0.0000 C   0  0
    8.3299  -15.1287    0.0000 N   0  0
   11.9617   -9.3105    0.0000 C   0  0
  2  1  1  1
  2  3  1  0
  3  4  1  6
  3  5  1  0
  5  6  1  0
  6  7  1  1
  6  8  1  0
  8  9  1  0
  8 10  1  1
 10 11  1  0
  2  9  1  0
 12 13  1  0
 13 14  2  0
 14 15  1  0
 15 16  2  0
 12 16  1  0
 17 18  1  0
 18 19  2  0
 19 20  1  0
 20 21  2  0
 21 22  1  0
 17 22  2  0
 15 18  1  0
  5 12  1  1
  1 23  1  0
M  END