
  SciTegic01161211252D

 26 29  0  0  0  0            999 V2000
   17.9423  -12.4290    0.0000 N   0  0
   18.7433  -12.2499    0.0000 C   0  0
   19.3892  -12.7662    0.0000 C   0  0
   17.5815  -13.1733    0.0000 C   0  0
   19.3909  -13.5898    0.0000 N   0  0
   17.9393  -13.9182    0.0000 C   0  0
   18.7449  -14.1006    0.0000 C   0  0
   20.1048  -14.0033    0.0000 C   0  0
   20.1028  -14.8283    0.0000 O   0  0
   20.8201  -13.5932    0.0000 C   0  0  2  0  0  0
   21.4905  -14.0683    0.0000 N   0  0
   22.1508  -13.5736    0.0000 C   0  0
   21.8843  -12.7927    0.0000 C   0  0  2  0  0  0
   21.0594  -12.8050    0.0000 C   0  0
   22.3595  -12.1181    0.0000 O   0  0
   21.9541  -11.3996    0.0000 C   0  0
   22.3754  -10.6924    0.0000 C   0  0
   21.9708   -9.9743    0.0000 C   0  0
   21.1450   -9.9656    0.0000 C   0  0
   20.7254  -10.6809    0.0000 C   0  0
   21.1325  -11.3961    0.0000 C   0  0
   17.3615  -11.8431    0.0000 C   0  0
   17.3657  -11.0170    0.0000 C   0  0
   16.5407  -11.0133    0.0000 C   0  0
   16.5371  -11.8383    0.0000 C   0  0
   20.7387   -9.2476    0.0000 Cl  0  0
 11 12  1  0
 12 13  1  0
 13 14  1  0
 14 10  1  0
  6  7  1  0
 13 15  1  6
  1  4  1  0
 15 16  1  0
  5  8  1  0
 16 17  2  0
 17 18  1  0
  8  9  2  0
 18 19  2  0
  3  5  1  0
 19 20  1  0
 10  8  1  1
 20 21  2  0
 21 16  1  0
 10 11  1  0
  1 22  1  0
 22 23  1  0
  2  3  1  0
  4  6  1  0
  1  2  1  0
 23 24  1  0
 24 25  1  0
 25 22  1  0
  5  7  1  0
 19 26  1  0
M  END