
  CDK    5/12/10,14:52

 34 37  0  0  0  0  0  0  0  0999 V2000
   16.3773    3.5691    0.0000 C   0  0  0  0  0  0  0  0  0  0  0  0
   16.3760    2.7418    0.0000 C   0  0  0  0  0  0  0  0  0  0  0  0
   17.0887    2.3290    0.0000 C   0  0  0  0  0  0  0  0  0  0  0  0
   17.8077    2.7423    0.0000 C   0  0  0  0  0  0  0  0  0  0  0  0
   17.8046    3.5730    0.0000 C   0  0  0  0  0  0  0  0  0  0  0  0
   17.0867    3.9816    0.0000 C   0  0  0  0  0  0  0  0  0  0  0  0
   17.0885    1.5084    0.0000 C   0  0  0  0  0  0  0  0  0  0  0  0
   16.3718    1.0985    0.0000 C   0  0  0  0  0  0  0  0  0  0  0  0
   16.3685    0.2773    0.0000 N   0  0  0  0  0  0  0  0  0  0  0  0
   17.0801   -0.1400    0.0000 N   0  0  0  0  0  0  0  0  0  0  0  0
   17.7968    0.2699    0.0000 C   0  0  0  0  0  0  0  0  0  0  0  0
   17.8018    1.0971    0.0000 C   0  0  0  0  0  0  0  0  0  0  0  0
   15.6604    1.5110    0.0000 C   0  0  0  0  0  0  0  0  0  0  0  0
   15.6651    2.3368    0.0000 C   0  0  0  0  0  0  0  0  0  0  0  0
   14.9535    2.7520    0.0000 C   0  0  0  0  0  0  0  0  0  0  0  0
   14.2365    2.3425    0.0000 C   0  0  0  0  0  0  0  0  0  0  0  0
   14.2359    1.5135    0.0000 C   0  0  0  0  0  0  0  0  0  0  0  0
   14.9482    1.1021    0.0000 C   0  0  0  0  0  0  0  0  0  0  0  0
   13.5235    2.7567    0.0000 Cl  0  0  0  0  0  0  0  0  0  0  0  0
   17.0756   -0.9646    0.0000 C   0  0  0  0  0  0  0  0  0  0  0  0
   16.3592   -1.3731    0.0000 N   0  0  0  0  0  0  0  0  0  0  0  0
   17.7876   -1.3809    0.0000 N   0  0  0  0  0  0  0  0  0  0  0  0
   18.5039   -0.9725    0.0000 C   0  0  0  0  0  0  0  0  0  0  0  0
   16.3547   -2.1978    0.0000 S   0  0  0  0  0  0  0  0  0  0  0  0
   15.6383   -2.6062    0.0000 N   0  0  0  0  0  0  0  0  0  0  0  0
   17.0615   -1.7777    0.0000 O   0  0  0  0  0  0  0  0  0  0  0  0
   16.7592   -2.9047    0.0000 O   0  0  0  0  0  0  0  0  0  0  0  0
   14.9308   -2.1883    0.0000 C   0  0  0  0  0  0  0  0  0  0  0  0
   14.2165   -2.5933    0.0000 C   0  0  0  0  0  0  0  0  0  0  0  0
   14.2077   -3.4183    0.0000 C   0  0  0  0  0  0  0  0  0  0  0  0
   14.9195   -3.8367    0.0000 C   0  0  0  0  0  0  0  0  0  0  0  0
   15.6400   -3.4302    0.0000 C   0  0  0  0  0  0  0  0  0  0  0  0
   13.4925   -3.0054    0.0000 F   0  0  0  0  0  0  0  0  0  0  0  0
   13.7903   -4.1280    0.0000 F   0  0  0  0  0  0  0  0  0  0  0  0
 16 17  1  0  0  0  0 
  4  5  1  0  0  0  0 
 17 18  2  0  0  0  0 
 18 13  1  0  0  0  0 
  8 13  1  0  0  0  0 
  2  3  1  0  0  0  0 
 16 19  1  0  0  0  0 
  5  6  2  0  0  0  0 
 10 20  1  0  0  0  0 
  7 12  1  0  0  0  0 
 20 21  2  0  0  0  0 
  8  9  2  0  0  0  0 
 20 22  1  0  0  0  0 
  9 10  1  0  0  0  0 
 22 23  1  0  0  0  0 
 10 11  1  0  0  0  0 
 21 24  1  0  0  0  0 
 11 12  1  0  0  0  0 
 24 25  1  0  0  0  0 
  3  7  1  0  0  0  0 
 24 26  2  0  0  0  0 
  6  1  1  0  0  0  0 
 24 27  2  0  0  0  0 
 25 28  1  0  0  0  0 
  7  8  1  0  0  0  0 
 13 14  2  0  0  0  0 
  1  2  2  0  0  0  0 
 14 15  1  0  0  0  0 
  3  4  2  0  0  0  0 
 25 32  1  0  0  0  0 
 28 29  1  0  0  0  0 
 29 30  1  0  0  0  0 
 30 31  1  0  0  0  0 
 31 32  1  0  0  0  0 
 15 16  2  0  0  0  0 
 30 33  1  0  0  0  0 
 30 34  1  0  0  0  0 
M  END