
  SciTegic12231509382D

 15 15  0  0  0  0            999 V2000
    5.3536  -10.7761    0.0000 O   0  0
    6.7650   -9.1301    0.0000 C   0  0
    3.9369   -9.1417    0.0000 C   0  0
    3.2321  -10.3692    0.0000 C   0  0
    2.5228   -9.1421    0.0000 O   0  0
    3.9387  -10.7780    0.0000 C   0  0
    6.0604   -9.5412    0.0000 C   0  0
    3.2332   -9.5502    0.0000 C   0  0
    2.5215  -10.7771    0.0000 C   0  0
    5.3514   -9.1336    0.0000 C   0  0
    4.6439   -9.5466    0.0000 C   0  0
    6.0635  -10.3579    0.0000 N   0  0
    4.6468  -10.3688    0.0000 C   0  0
    2.5211   -8.3249    0.0000 C   0  0
    5.3544  -11.5933    0.0000 C   0  0
  3  8  1  0
  4  6  1  0
  8  4  2  0
  4  9  1  0
 13 11  1  0
 11 10  1  0
  8  5  1  0
  7  2  1  0
  6 13  2  0
 11  3  2  0
 13  1  1  0
  7 12  1  0
 10  7  1  0
  5 14  1  0
  1 15  1  0
M  END