
  SciTegic09171211542D

156149  0  0  0  0            999 V2000
   15.0180  -24.9605    0.0000 O   0  0
   15.2346  -24.1646    0.0000 S   0  0
   14.4371  -24.3750    0.0000 O   0  0
   13.6185  -23.8322    0.0000 C   0  0
   14.1686  -23.2171    0.0000 C   0  0  1  0  0  0
   13.9099  -22.4381    0.0000 C   0  0
   12.8099  -23.6682    0.0000 C   0  0
   12.5569  -22.8828    0.0000 C   0  0  1  0  0  0
   13.1095  -22.2702    0.0000 C   0  0  1  0  0  0
   12.8565  -21.4896    0.0000 C   0  0
   12.0508  -21.3153    0.0000 C   0  0
   11.7514  -22.7150    0.0000 C   0  0  2  0  0  0
   11.5027  -21.9287    0.0000 C   0  0  2  0  0  0
   10.3927  -23.1447    0.0000 C   0  0  1  0  0  0
   11.1993  -23.3245    0.0000 C   0  0
   10.1441  -22.3585    0.0000 C   0  0  1  0  0  0
   10.6983  -21.7519    0.0000 C   0  0  1  0  0  0
   10.2929  -21.0373    0.0000 C   0  0
    9.4878  -21.2022    0.0000 C   0  0
    9.3960  -22.0186    0.0000 C   0  0  2  0  0  0
   14.9764  -23.3848    0.0000 O   0  0
   12.0125  -23.5028    0.0000 C   0  0
   12.3062  -22.1053    0.0000 H   0  0
   10.9588  -22.5494    0.0000 H   0  0
   11.2519  -21.1402    0.0000 H   0  0
    9.5957  -22.9797    0.0000 C   0  0
    8.6784  -22.4259    0.0000 C   0  0  2  0  0  0
    8.6723  -23.2509    0.0000 C   0  0
    8.7797  -21.4730    0.0000 H   0  0
   13.6627  -21.6636    0.0000 H   0  0
    7.9669  -22.0080    0.0000 C   0  0
    6.5539  -21.1522    0.0000 N   0  0
    6.5412  -21.9530    0.0000 O   0  0
    5.8194  -22.3538    0.0000 S   0  0
    6.5273  -22.7784    0.0000 O   0  0
    4.6037  -22.2932    0.0000 S   0  0
    3.0621  -22.4546    0.0000 O   0  0
    3.6625  -21.8845    0.0000 S   0  0
    2.8686  -21.6495    0.0000 O   0  0
    0.7176  -21.9894    0.0000 O   0  0
    1.5125  -22.2241    0.0000 S   0  0
    1.3181  -21.4183    0.0000 O   0  0
   -2.1316  -21.9049    0.0000 O   0  0
   -1.3365  -22.1395    0.0000 S   0  0
   -1.5309  -21.3337    0.0000 O   0  0
   -3.2860  -19.8534    0.0000 O   0  0
   -2.7117  -20.4539    0.0000 S   0  0
   -2.4788  -19.6563    0.0000 O   0  0
   -2.5918  -19.0061    0.0000 O   0  0
   -3.3924  -19.2049    0.0000 S   0  0
   -3.6622  -17.8526    0.0000 O   0  0
   -4.0475  -17.1350    0.0000 S   0  0
   -4.4781  -17.8345    0.0000 O   0  0
   -3.0185  -16.2243    0.0000 O   0  0
   -2.5877  -15.5203    0.0000 S   0  0
   -3.4170  -15.4950    0.0000 O   0  0
   -0.5968  -17.2084    0.0000 O   0  0
    0.2280  -17.2311    0.0000 S   0  0
   -0.1648  -16.5055    0.0000 O   0  0
    1.0857  -15.5956    0.0000 O   0  0
    0.2608  -15.5771    0.0000 S   0  0
    0.6573  -16.3006    0.0000 O   0  0
    1.2333  -17.3786    0.0000 O   0  0
    1.6339  -18.1045    0.0000 S   0  0
    2.0623  -17.3946    0.0000 O   0  0
    7.0276  -19.4006    0.0000 O   0  0
    6.6353  -18.6790    0.0000 S   0  0
    6.2065  -19.3796    0.0000 O   0  0
   -1.1994  -17.1998    0.0000 C   0  0  2  0  0  0
   -1.9042  -16.7709    0.0000 C   0  0  2  0  0  0
   -2.6232  -17.1668    0.0000 C   0  0  1  0  0  0
   -2.6446  -17.9874    0.0000 C   0  0  2  0  0  0
   -1.9398  -18.4164    0.0000 C   0  0  2  0  0  0
   -1.2136  -18.0247    0.0000 O   0  0
   -1.9613  -19.2412    0.0000 O   0  0
   -3.3691  -18.3823    0.0000 O   0  0
   -3.3268  -16.7386    0.0000 O   0  0
   -1.8864  -15.9460    0.0000 O   0  0
   -0.4766  -16.8018    0.0000 C   0  0
   -1.2578  -19.6721    0.0000 C   0  0  1  0  0  0
   -1.2817  -20.4956    0.0000 C   0  0  1  0  0  0
   -0.5823  -20.9263    0.0000 C   0  0  2  0  0  0
    0.1451  -20.5362    0.0000 C   0  0  2  0  0  0
    0.1686  -19.7104    0.0000 O   0  0
   -0.5352  -19.2750    0.0000 C   0  0  2  0  0  0
   -0.4600  -15.9769    0.0000 O   0  0
   -0.5140  -18.4502    0.0000 C   0  0
   -2.0078  -20.8873    0.0000 O   0  0
   -0.6069  -21.7511    0.0000 O   0  0
    0.8470  -20.9699    0.0000 O   0  0
    1.5735  -20.5788    0.0000 C   0  0  1  0  0  0
    2.2697  -21.0152    0.0000 C   0  0  1  0  0  0
    2.9940  -20.6275    0.0000 C   0  0  2  0  0  0
    3.0229  -19.8026    0.0000 C   0  0  2  0  0  0
    2.3212  -19.3668    0.0000 O   0  0
    1.5906  -19.7558    0.0000 C   0  0  2  0  0  0
    0.8877  -19.3238    0.0000 C   0  0
    0.2108  -18.0562    0.0000 O   0  0
    0.9104  -18.4990    0.0000 O   0  0
    2.2414  -21.8397    0.0000 O   0  0
    3.6942  -21.0639    0.0000 O   0  0
    3.7508  -19.4143    0.0000 O   0  0
    4.4511  -19.8507    0.0000 C   0  0  1  0  0  0
    4.4241  -20.6720    0.0000 C   0  0  1  0  0  0
    5.1203  -21.1081    0.0000 C   0  0  2  0  0  0
    5.8505  -20.7234    0.0000 C   0  0  1  0  0  0
    5.8803  -19.8979    0.0000 O   0  0
    5.1798  -19.4571    0.0000 C   0  0  2  0  0  0
    4.4100  -21.4967    0.0000 O   0  0
    5.8319  -21.5328    0.0000 O   0  0
    5.2071  -18.6324    0.0000 C   0  0
    5.9349  -18.2439    0.0000 O   0  0
   -1.2312  -18.8391    0.0000 H   0  0
    0.1315  -21.3611    0.0000 H   0  0
   -1.9786  -20.0671    0.0000 H   0  0
    3.7340  -20.2268    0.0000 H   0  0
    0.8760  -20.1459    0.0000 H   0  0
    4.4792  -19.0266    0.0000 H   0  0
    7.3631  -18.2913    0.0000 O   0  5
    5.3955  -22.5252    0.0000 O   0  5
    2.3389  -18.5383    0.0000 O   0  5
    0.9570  -16.8373    0.0000 O   0  5
    0.2793  -14.7540    0.0000 O   0  5
   -2.5703  -14.6951    0.0000 O   0  5
   -4.7502  -16.7084    0.0000 O   0  5
   -4.1138  -19.6019    0.0000 O   0  5
   -3.4363  -20.8462    0.0000 O   0  5
   -1.3580  -22.9668    0.0000 O   0  5
    1.4849  -23.0521    0.0000 O   0  5
    3.8572  -22.6850    0.0000 O   0  5
   -4.0998  -18.7765    0.0000 O   0  0
    3.8964  -21.8647    0.0000 O   0  0
    4.3693  -23.0840    0.0000 O   0  0
    5.5850  -23.1446    0.0000 O   0  5
    7.2780  -20.7567    0.0000 C   0  0
    7.9826  -21.1863    0.0000 C   0  0
    7.2977  -19.9320    0.0000 O   0  0
    9.8353  -23.7530    0.0000 O   0  0
   10.0833  -24.5399    0.0000 C   0  0
    9.5257  -25.1481    0.0000 O   0  0
   10.8888  -24.7186    0.0000 C   0  0
   16.0430  -24.3357    0.0000 O   0  5
    4.1875  -16.0937    0.0000 Na  0  3
    5.1250  -16.0937    0.0000 Na  0  3
    6.0938  -16.0937    0.0000 Na  0  3
    7.2188  -16.0625    0.0000 Na  0  3
    5.5937  -16.7188    0.0000 Na  0  3
    6.5938  -16.7500    0.0000 Na  0  3
    7.5313  -16.7188    0.0000 Na  0  3
    8.4375  -16.5938    0.0000 Na  0  3
    7.1563  -17.4375    0.0000 Na  0  3
    8.1875  -17.5000    0.0000 Na  0  3
    9.1563  -17.5000    0.0000 Na  0  3
   10.0000  -17.4688    0.0000 Na  0  3
    8.5625  -18.3750    0.0000 Na  0  3
    9.5312  -18.4375    0.0000 Na  0  3
 71 77  1  1
 41 40  2  0
 70 78  1  6
 42 41  2  0
 69 79  1  1
 17 18  1  0
 75 80  1  0
 80 81  1  0
 18 19  1  0
 19 20  1  0
 44 43  2  0
 45 44  2  0
 20 16  1  0
 80 85  1  0
 81 82  1  0
 82 83  1  0
 83 84  1  0
 84 85  1  0
  8 12  1  0
 79 86  1  0
  5 21  1  1
 85 87  1  1
 47 46  2  0
 81 88  1  1
 48 47  2  0
 82 89  1  6
  9 10  1  0
 83 90  1  0
  8 22  1  1
 90 91  1  0
 91 92  1  0
 10 11  1  0
 50 49  2  0
 12 23  1  6
 11 13  1  0
 52 51  2  0
 91 96  1  0
 92 93  1  0
 93 94  1  0
 94 95  1  0
 95 96  1  0
 53 52  2  0
 96 97  1  1
 13 24  1  1
 87 98  1  0
 12 13  1  0
 97 99  1  0
 17 25  1  6
 92100  1  1
 55 54  2  0
 93101  1  6
 56 55  2  0
 94102  1  0
  4  7  1  0
102103  1  0
103104  1  0
 16 26  1  1
  5  6  1  0
 58 57  2  0
 59 58  2  0
 20 27  1  0
103108  1  0
104105  1  0
105106  1  0
106107  1  0
107108  1  0
  6  9  1  0
104109  1  1
 27 28  1  6
105110  1  6
 61 60  2  0
108111  1  1
 62 61  2  0
111112  1  0
  8  7  1  0
 73113  1  1
 20 29  1  6
 83114  1  1
 12 15  1  0
 80115  1  1
 64 63  2  0
 94116  1  1
 65 64  2  0
 91117  1  1
  9 30  1  6
103118  1  1
112 67  1  0
 13 17  1  0
 67119  1  0
101 38  1  0
109 36  1  0
 27 31  1  0
 36120  1  0
 99 64  1  0
 67 66  2  0
 64121  1  0
 98 58  1  0
 68 67  2  0
 58122  1  0
 86 61  1  0
 16 14  1  0
 61123  1  0
 78 55  1  0
 34 33  2  0
 55124  1  0
 77 52  1  0
 35 34  2  0
 52125  1  0
 76 50  1  0
 69 70  1  0
 50126  1  0
 88 47  1  0
 14 15  1  0
 47127  1  0
 89 44  1  0
 16 17  1  0
 44128  1  0
100 41  1  0
  8  9  1  0
 41129  1  0
 38130  1  0
 38 37  2  0
 50131  2  0
 39 38  2  0
 36132  2  0
 69 74  1  0
 36133  2  0
110 34  1  0
 70 71  1  0
 34134  1  0
106 32  1  1
 71 72  1  0
 32135  1  0
 72 73  1  0
135136  1  0
 73 74  1  0
135137  2  0
136 31  1  0
  2  1  2  0
 14138  1  6
 73 75  1  0
138139  1  0
  3  2  2  0
139140  2  0
 72 76  1  6
139141  1  0
 21  2  1  0
  4  5  1  0
  2142  1  0
M  CHG  8 119  -1 120  -1 121  -1 122  -1 123  -1 124  -1 125  -1 126  -1
M  CHG  8 127  -1 128  -1 129  -1 130  -1 134  -1 142  -1 143   1 144   1
M  CHG  8 145   1 146   1 147   1 148   1 149   1 150   1 151   1 152   1
M  CHG  4 153   1 154   1 155   1 156   1
M  END