
  SciTegic12011114592D

 40 45  0  0  0  0            999 V2000
   18.9396   -6.8430    0.0000 C   0  0
   18.5715   -6.1048    0.0000 N   0  0
   19.0552   -5.4401    0.0000 C   0  0
   18.5733   -4.7705    0.0000 C   0  0
   17.7875   -5.0219    0.0000 C   0  0
   17.7839   -5.8469    0.0000 C   0  0  2  0  0  0
   22.9704   -6.9580    0.0000 N   0  0
   23.6856   -6.5483    0.0000 C   0  0
   23.6885   -5.7224    0.0000 N   0  0
   22.9702   -5.3080    0.0000 C   0  0
   22.9697   -4.4830    0.0000 N   0  0
   23.6843   -4.0699    0.0000 C   0  0
   24.3987   -6.9632    0.0000 S   0  0
   25.1145   -6.5532    0.0000 C   0  0
   25.8234   -6.9712    0.0000 C   0  0
   26.5388   -6.5618    0.0000 C   0  0
   26.5420   -5.7360    0.0000 C   0  0
   25.8240   -5.3212    0.0000 C   0  0
   25.1115   -5.7329    0.0000 C   0  0
   27.2574   -5.3250    0.0000 N   0  0
   27.9710   -5.7389    0.0000 C   0  0
   28.6863   -5.3279    0.0000 C   0  0
   27.9693   -6.5639    0.0000 O   0  0
   29.5080   -5.3264    0.0000 C   0  0
   29.0970   -4.6111    0.0000 C   0  0
   24.4700   -4.3181    0.0000 C   0  0
   24.9491   -3.6464    0.0000 C   0  0
   24.4584   -2.9832    0.0000 N   0  0
   23.6760   -3.2450    0.0000 N   0  0
   25.7741   -3.6392    0.0000 C   0  0
   21.4836   -5.4688    0.0000 C   0  0
   21.0026   -6.1300    0.0000 C   0  0
   21.4828   -6.7917    0.0000 C   0  0
   22.2605   -6.5396    0.0000 N   0  0
   22.2611   -5.7219    0.0000 C   0  0
   20.1776   -6.1294    0.0000 N   0  0
   19.7646   -6.8436    0.0000 C   0  0
   20.1766   -7.5583    0.0000 O   0  0
   17.1149   -6.3296    0.0000 C   0  0
   16.3623   -5.9915    0.0000 O   0  0
 19 14  1  0
  3  4  1  0
 17 20  1  0
  9 10  2  0
 20 21  1  0
 10 35  1  0
 21 22  1  0
  4  5  1  0
 21 23  2  0
 24 22  1  0
 25 24  1  0
 22 25  1  0
 10 11  1  0
  5  6  1  0
 28 29  1  0
 11 12  1  0
 26 27  2  0
  6  2  1  0
  8 13  1  0
  1  2  1  0
 12 26  1  0
 27 28  1  0
 29 12  2  0
 13 14  1  0
 27 30  1  0
 34 35  1  0
 34  7  1  0
 14 15  2  0
 32 33  2  0
  2  3  1  0
 15 16  1  0
  7  8  2  0
 31 32  1  0
 33 34  1  0
 35 31  2  0
 16 17  2  0
 32 36  1  0
 36 37  1  0
 37  1  1  0
 17 18  1  0
 37 38  2  0
  8  9  1  0
  6 39  1  1
 18 19  2  0
 39 40  1  0
M  END