
          11280715142D 1   1.00000     0.00000     0

 33 35  0     1  0            999 V2000
    4.9750   -6.9625    0.0000 C   0  0  0  0  0  0           0  0  0
    4.9750   -6.1417    0.0000 C   0  0  0  0  0  0           0  0  0
    4.2625   -7.3792    0.0000 C   0  0  0  0  0  0           0  0  0
    5.6875   -5.7292    0.0000 C   0  0  0  0  0  0           0  0  0
    5.6917   -7.3750    0.0000 C   0  0  0  0  0  0           0  0  0
    6.4000   -6.1417    0.0000 C   0  0  1  0  0  0           0  0  0
    3.5417   -6.9667    0.0000 C   0  0  0  0  0  0           0  0  0
    7.1167   -5.7292    0.0000 N   0  0  3  0  0  0           0  0  0
    4.2542   -5.7292    0.0000 C   0  0  0  0  0  0           0  0  0
    6.4042   -6.9542    0.0000 C   0  0  0  0  0  0           0  0  0
    3.5417   -6.1417    0.0000 C   0  0  0  0  0  0           0  0  0
   14.9667   -6.1542    0.0000 C   0  0  0  0  0  0           0  0  0
   14.2625   -5.7292    0.0000 C   0  0  0  0  0  0           0  0  0
    4.2667   -8.2042    0.0000 O   0  0  0  0  0  0           0  0  0
   11.4000   -5.7042    0.0000 N   0  0  0  0  0  0           0  0  0
    2.8292   -7.3792    0.0000 O   0  0  0  0  0  0           0  0  0
   14.9542   -6.9750    0.0000 O   0  0  0  0  0  0           0  0  0
   13.5417   -6.1417    0.0000 O   0  0  0  0  0  0           0  0  0
    7.1167   -4.9000    0.0000 C   0  0  0  0  0  0           0  0  0
    7.8292   -6.1375    0.0000 C   0  0  0  0  0  0           0  0  0
   15.6792   -5.7542    0.0000 C   0  0  0  0  0  0           0  0  0
   14.2667   -4.9042    0.0000 C   0  0  0  0  0  0           0  0  0
   12.1125   -6.1250    0.0000 C   0  0  0  0  0  0           0  0  0
   10.6875   -6.1250    0.0000 C   0  0  0  0  0  0           0  0  0
   12.8292   -5.7167    0.0000 C   0  0  0  0  0  0           0  0  0
   15.6625   -7.4000    0.0000 C   0  0  0  0  0  0           0  0  0
    7.8292   -4.4875    0.0000 C   0  0  0  0  0  0           0  0  0
    8.5417   -5.7292    0.0000 C   0  0  0  0  0  0           0  0  0
    9.9667   -5.7125    0.0000 C   0  0  0  0  0  0           0  0  0
    9.2542   -6.1292    0.0000 C   0  0  0  0  0  0           0  0  0
    8.5417   -4.9042    0.0000 C   0  0  0  0  0  0           0  0  0
   15.6917   -4.9250    0.0000 C   0  0  0  0  0  0           0  0  0
   14.9792   -4.5042    0.0000 C   0  0  0  0  0  0           0  0  0
  2  1  1  0     0  0
  3  1  2  0     0  0
  4  2  1  0     0  0
  5  1  1  0     0  0
  6 10  1  0     0  0
  7  3  1  0     0  0
  6  8  1  1     0  0
  9  2  2  0     0  0
 10  5  1  0     0  0
 11  7  2  0     0  0
 12 13  1  0     0  0
 13 18  1  0     0  0
 14  3  1  0     0  0
 15 24  1  0     0  0
 16  7  1  0     0  0
 17 12  1  0     0  0
 18 25  1  0     0  0
 19  8  1  0     0  0
 20  8  1  0     0  0
 21 12  2  0     0  0
 22 13  2  0     0  0
 23 15  1  0     0  0
 24 29  1  0     0  0
 25 23  1  0     0  0
 26 17  1  0     0  0
 27 19  1  0     0  0
 28 20  1  0     0  0
 29 30  1  0     0  0
 30 28  1  0     0  0
 31 27  1  0     0  0
 32 33  2  0     0  0
 33 22  1  0     0  0
  4  6  1  0     0  0
  9 11  1  0     0  0
 32 21  1  0     0  0
M  END