
  SciTegic10081512262D

 37 41  0  0  0  0            999 V2000
   -5.5393    2.4455    0.0000 C   0  0
   -6.2538    2.0330    0.0000 C   0  0
   -6.2538    1.2080    0.0000 C   0  0
   -5.5393    0.7955    0.0000 C   0  0
   -4.8248    1.2080    0.0000 C   0  0
   -4.8248    2.0330    0.0000 C   0  0
   -6.9683    0.7955    0.0000 F   0  0
   -4.1103    2.4455    0.0000 N   0  0
   -3.3958    2.0330    0.0000 C   0  0
   -2.6814    2.4455    0.0000 C   0  0
   -3.3958    1.2080    0.0000 O   0  0
   -1.9669    2.0330    0.0000 C   0  0
   -1.2524    2.4455    0.0000 N   0  0
   -1.9669    1.2080    0.0000 O   0  0
   -0.5380    2.0330    0.0000 C   0  0
   -0.5380    1.2080    0.0000 C   0  0
    0.1765    0.7955    0.0000 C   0  0
    0.8910    1.2080    0.0000 C   0  0
    0.8910    2.0331    0.0000 C   0  0
    0.1765    2.4456    0.0000 C   0  0
    0.1765    3.2706    0.0000 F   0  0
    0.1765   -0.0295    0.0000 F   0  0
    1.6054    0.7955    0.0000 O   0  0
    2.3199    1.2080    0.0000 C   0  0
    3.0344    0.7955    0.0000 C   0  0
    3.7489    1.2080    0.0000 C   0  0
    3.7489    2.0330    0.0000 N   0  0
    3.0344    2.4456    0.0000 C   0  0
    2.3199    2.0331    0.0000 C   0  0
    4.4634    0.7955    0.0000 N   0  0
    5.1778    1.2080    0.0000 C   0  0
    5.8923    0.7955    0.0000 C   0  0
    5.1778    2.0330    0.0000 O   0  0
    6.3048    0.0811    0.0000 C   0  0
    6.7173    0.7955    0.0000 C   0  0
   -3.0939    3.1600    0.0000 C   0  0
   -2.2689    3.1600    0.0000 C   0  0
  1  2  1  0
  1  6  2  0
  2  3  2  0
  3  4  1  0
  4  5  2  0
  5  6  1  0
  3  7  1  0
  6  8  1  0
  8  9  1  0
  9 10  1  0
  9 11  2  0
 10 12  1  0
 12 13  1  0
 12 14  2  0
 13 15  1  0
 15 16  1  0
 15 20  2  0
 16 17  2  0
 17 18  1  0
 18 19  2  0
 19 20  1  0
 20 21  1  0
 17 22  1  0
 18 23  1  0
 23 24  1  0
 24 25  1  0
 24 29  2  0
 25 26  2  0
 26 27  1  0
 27 28  2  0
 28 29  1  0
 26 30  1  0
 30 31  1  0
 31 32  1  0
 31 33  2  0
 32 34  1  0
 35 32  1  0
 34 35  1  0
 36 10  1  0
 10 37  1  0
 37 36  1  0
M  END