
  SciTegic01161211252D

 24 26  0  0  0  0            999 V2000
   -3.0458   -4.2042    0.0000 C   0  0  2  0  0  0
   -3.0458   -5.0292    0.0000 C   0  0  1  0  0  0
   -2.3338   -5.4375    0.0000 C   0  0  2  0  0  0
   -1.6218   -5.0292    0.0000 C   0  0  2  0  0  0
   -1.6218   -4.2042    0.0000 C   0  0  1  0  0  0
   -2.3338   -3.7875    0.0000 O   0  0
   -0.9079   -5.4427    0.0000 O   0  0
   -2.3338   -6.2625    0.0000 O   0  0
   -3.7597   -5.4427    0.0000 O   0  0
   -3.7615   -3.7938    0.0000 C   0  0
   -3.7639   -2.9688    0.0000 O   0  0
   -0.9061   -3.7938    0.0000 O   0  0
   -0.1929   -4.2084    0.0000 C   0  0
   -0.1969   -5.0344    0.0000 C   0  0
    0.5155   -5.4489    0.0000 C   0  0
    0.5190   -3.7984    0.0000 C   0  0
    1.2320   -4.2092    0.0000 C   0  0
    1.2289   -5.0374    0.0000 C   0  0
    1.9406   -5.4519    0.0000 C   0  0
    2.6600   -5.0428    0.0000 C   0  0
    2.6631   -4.2146    0.0000 C   0  0
    1.9468   -3.7955    0.0000 O   0  0
    1.9364   -6.2769    0.0000 C   0  0
    3.3796   -3.8055    0.0000 O   0  0
  5 12  1  6
  5  6  1  0
 12 13  1  0
 13 14  2  0
  4  7  1  1
 14 15  1  0
 15 18  2  0
  1  2  1  0
 17 16  2  0
 16 13  1  0
 17 18  1  0
  3  8  1  1
  1  6  1  0
  2  9  1  6
  2  3  1  0
  1 10  1  1
  3  4  1  0
 17 22  1  0
 18 19  1  0
 19 20  2  0
 20 21  1  0
 21 22  1  0
 10 11  1  0
 19 23  1  0
  4  5  1  0
 21 24  2  0
M  END