
  SciTegic01111613442D

 21 23  0  0  0  0            999 V2000
    0.0000    1.5002    0.0000 N   0  0
   -1.2989    0.7501    0.0000 C   0  0
    0.0000   -1.5002    0.0000 S   0  0
    1.2806    0.7501    0.0000 C   0  0
   -1.2989   -0.7501    0.0000 C   0  0
    1.2806   -0.7501    0.0000 C   0  0
   -2.5978    1.5002    0.0000 C   0  0
   -2.5978   -1.5002    0.0000 C   0  0
    0.0120    3.0009    0.0000 C   0  0
   -3.8968    0.7501    0.0000 C   0  0
    1.3173    3.7417    0.0000 C   0  0
    2.6346    5.9832    0.0000 N   0  0
   -3.8968   -0.7501    0.0000 C   0  0
   -4.9360    1.3500    0.0000 Cl  0  0
    2.5978    1.5002    0.0000 C   0  0
    2.5978   -1.5002    0.0000 C   0  0
    1.3293    5.2425    0.0000 C   0  0
    2.6443    7.1832    0.0000 C   0  0
    3.6692    5.3752    0.0000 C   0  0
    3.8968    0.7501    0.0000 C   0  0
    3.8968   -0.7501    0.0000 C   0  0
  2  1  1  0
  3  6  1  0
  4  1  1  0
  5  2  2  0
  6  4  2  0
  7  2  1  0
  8  5  1  0
  9  1  1  0
 10  7  2  0
 11  9  1  0
 12 17  1  0
 13 10  1  0
 14 10  1  0
 15  4  1  0
 16  6  1  0
 17 11  1  0
 18 12  1  0
 19 12  1  0
 20 15  2  0
 21 20  1  0
  3  5  1  0
 16 21  2  0
  8 13  2  0
M  END