
          11280715302D 1   1.00000     0.00000     0

 17 17  0     0  0            999 V2000
    8.5917   -1.6417    0.0000 N   0  0  0  0  0  0           0  0  0
    5.7375   -1.6542    0.0000 O   0  0  0  0  0  0           0  0  0
    7.1667   -1.6500    0.0000 C   0  0  3  0  0  0           0  0  0
    5.0250   -2.0667    0.0000 C   0  0  0  0  0  0           0  0  0
    7.8792   -2.0542    0.0000 C   0  0  0  0  0  0           0  0  0
    6.4542   -2.0625    0.0000 C   0  0  0  0  0  0           0  0  0
    3.5917   -2.9000    0.0000 C   0  0  0  0  0  0           0  0  0
    4.3042   -1.6542    0.0000 C   0  0  0  0  0  0           0  0  0
    5.0250   -2.9000    0.0000 C   0  0  0  0  0  0           0  0  0
    3.5917   -2.0750    0.0000 C   0  0  0  0  0  0           0  0  0
    4.3042   -3.3125    0.0000 C   0  0  0  0  0  0           0  0  0
    7.1625   -0.8250    0.0000 O   0  0  0  0  0  0           0  0  0
    9.3125   -2.0542    0.0000 C   0  0  3  0  0  0           0  0  0
    2.8792   -3.3125    0.0000 C   0  0  0  0  0  0           0  0  0
    9.3125   -2.8792    0.0000 C   0  0  0  0  0  0           0  0  0
   10.0167   -1.6375    0.0000 C   0  0  0  0  0  0           0  0  0
    2.1667   -2.9000    0.0000 C   0  0  0  0  0  0           0  0  0
  2  6  1  0     0  0
  3  5  1  0     0  0
  4  2  1  0     0  0
  5  1  1  0     0  0
  6  3  1  0     0  0
  7 11  1  0     0  0
  8  4  2  0     0  0
  9  4  1  0     0  0
 10  8  1  0     0  0
 11  9  2  0     0  0
 12  3  1  0     0  0
 13  1  1  0     0  0
 14  7  1  0     0  0
 15 13  1  0     0  0
 16 13  1  0     0  0
 17 14  1  0     0  0
  7 10  2  0     0  0
M  END