
          11280715362D 1   1.00000     0.00000     0

 34 36  0     0  0            999 V2000
   11.3500    0.6458    0.0000 S   0  0  3  0  0  0           0  0  0
    7.7750   -1.4292    0.0000 C   0  0  0  0  0  0           0  0  0
    7.7750   -0.6042    0.0000 C   0  0  0  0  0  0           0  0  0
   12.1750    0.6500    0.0000 C   0  0  0  0  0  0           0  0  0
   11.3417   -0.1750    0.0000 O   0  0  0  0  0  0           0  0  0
   11.3417    1.4750    0.0000 O   0  0  0  0  0  0           0  0  0
   10.6292    1.0583    0.0000 N   0  0  0  0  0  0           0  0  0
   12.0625   -1.4292    0.0000 C   0  0  0  0  0  0           0  0  0
    8.4917   -0.1917    0.0000 C   0  0  0  0  0  0           0  0  0
    7.0625   -1.8417    0.0000 C   0  0  0  0  0  0           0  0  0
    8.4917   -1.8417    0.0000 C   0  0  0  0  0  0           0  0  0
    6.3542   -3.0792    0.0000 N   0  0  0  0  0  0           0  0  0
   12.0625   -0.6042    0.0000 O   0  0  0  0  0  0           0  0  0
   12.5792   -0.0667    0.0000 C   0  0  0  0  0  0           0  0  0
   12.5792    1.3583    0.0000 C   0  0  0  0  0  0           0  0  0
   13.8167    0.6500    0.0000 C   0  0  0  0  0  0           0  0  0
   12.7792   -1.8417    0.0000 O   0  0  0  0  0  0           0  0  0
    8.4917    0.6333    0.0000 C   0  0  0  0  0  0           0  0  0
   13.4042   -0.0667    0.0000 C   0  0  0  0  0  0           0  0  0
   13.4000    1.3708    0.0000 C   0  0  0  0  0  0           0  0  0
   14.6417    0.6583    0.0000 I   0  0  0  0  0  0           0  0  0
    9.9167    0.6458    0.0000 C   0  0  0  0  0  0           0  0  0
    7.0667   -2.6667    0.0000 C   0  0  0  0  0  0           0  0  0
    7.0625   -0.1917    0.0000 C   0  0  0  0  0  0           0  0  0
    7.0625    0.6333    0.0000 C   0  0  0  0  0  0           0  0  0
   11.3500   -1.8417    0.0000 C   0  0  0  0  0  0           0  0  0
    5.6375   -2.6667    0.0000 C   0  0  0  0  0  0           0  0  0
    9.2042   -1.4292    0.0000 C   0  0  0  0  0  0           0  0  0
    9.2042    1.0500    0.0000 C   0  0  0  0  0  0           0  0  0
    6.3500   -1.4292    0.0000 C   0  0  0  0  0  0           0  0  0
    7.7750    1.0458    0.0000 C   0  0  0  0  0  0           0  0  0
   10.6292   -1.4292    0.0000 C   0  0  0  0  0  0           0  0  0
    9.9167   -1.8417    0.0000 C   0  0  0  0  0  0           0  0  0
    5.6375   -1.8417    0.0000 C   0  0  0  0  0  0           0  0  0
  2  3  1  0     0  0
  3  9  2  0     0  0
  4  1  1  0     0  0
  5  1  2  0     0  0
  6  1  2  0     0  0
  7  1  1  0     0  0
  8 26  1  0     0  0
  9 18  1  0     0  0
 10  2  1  0     0  0
 11  2  2  0     0  0
 12 23  2  0     0  0
 13  8  2  0     0  0
 14  4  2  0     0  0
 15  4  1  0     0  0
 16 20  1  0     0  0
 17  8  1  0     0  0
 18 29  1  0     0  0
 19 14  1  0     0  0
 20 15  2  0     0  0
 21 16  1  0     0  0
 22  7  1  0     0  0
 23 10  1  0     0  0
 24 25  2  0     0  0
 25 31  1  0     0  0
 26 32  1  0     0  0
 27 34  2  0     0  0
 11 28  1  0     0  0
 29 22  1  0     0  0
 30 10  2  0     0  0
 31 18  2  0     0  0
 32 33  1  0     0  0
 33 28  1  0     0  0
 34 30  1  0     0  0
 16 19  2  0     0  0
 24  3  1  0     0  0
 12 27  1  0     0  0
M  END