
          11280715092D 1   1.00000     0.00000     0

 16 17  0     0  0            999 V2000
    4.6250   -2.9167    0.0000 S   0  0  3  0  0  0           0  0  0
    4.6167   -2.3167    0.0000 N   0  0  0  0  0  0           0  0  0
    3.9375   -2.9042    0.0000 O   0  0  0  0  0  0           0  0  0
    5.2500   -2.9042    0.0000 O   0  0  0  0  0  0           0  0  0
    4.6292   -3.5167    0.0000 C   0  0  0  0  0  0           0  0  0
    5.1292   -2.0125    0.0000 C   0  0  3  0  0  0           0  0  0
    4.1125   -3.8167    0.0000 C   0  0  0  0  0  0           0  0  0
    5.1500   -3.8167    0.0000 C   0  0  0  0  0  0           0  0  0
    5.6542   -2.3042    0.0000 C   0  0  0  0  0  0           0  0  0
    5.1250   -1.4167    0.0000 C   0  0  0  0  0  0           0  0  0
    5.1500   -4.4250    0.0000 C   0  0  0  0  0  0           0  0  0
    4.1125   -4.4250    0.0000 C   0  0  0  0  0  0           0  0  0
    5.6417   -1.1125    0.0000 C   0  0  0  0  0  0           0  0  0
    6.1667   -2.0042    0.0000 C   0  0  0  0  0  0           0  0  0
    4.6292   -4.7250    0.0000 C   0  0  0  0  0  0           0  0  0
    6.1667   -1.4042    0.0000 C   0  0  0  0  0  0           0  0  0
  2  1  1  0     0  0
  3  1  2  0     0  0
  4  1  2  0     0  0
  5  1  1  0     0  0
  6  2  1  0     0  0
  7  5  1  0     0  0
  8  5  2  0     0  0
  9  6  1  0     0  0
 10  6  1  0     0  0
 11  8  1  0     0  0
 12  7  2  0     0  0
 13 10  1  0     0  0
 14  9  1  0     0  0
 15 11  2  0     0  0
 16 13  1  0     0  0
 12 15  1  0     0  0
 14 16  1  0     0  0
M  END