
  SciTegic05071317052D

 30 29  0  0  0  0            999 V2000
   13.0560  -25.2289    0.0000 C   0  0
   13.7238  -24.7445    0.0000 N   0  0
   13.4696  -23.9597    0.0000 C   0  0
   12.6445  -23.9589    0.0000 C   0  0
   12.3891  -24.7433    0.0000 S   0  0
   12.2284  -23.2467    0.0000 C   0  0
   11.4035  -23.2507    0.0000 C   0  0
   10.9875  -22.5383    0.0000 N   0  0
   10.1625  -22.5423    0.0000 C   0  0
   11.3965  -21.8218    0.0000 C   0  0
   13.0581  -26.0512    0.0000 N   0  0
   12.3414  -26.4618    0.0000 C   0  0
   12.3387  -27.2832    0.0000 C   0  0
   13.0509  -27.7002    0.0000 N   0  0
   13.7676  -27.2895    0.0000 C   0  0
   13.7721  -26.4619    0.0000 C   0  0
   13.0471  -28.5251    0.0000 C   0  0
   12.3307  -28.9343    0.0000 C   0  0
   12.3269  -29.7593    0.0000 C   0  0
    9.7464  -21.8299    0.0000 C   0  0
    8.9215  -21.8340    0.0000 C   0  0
    8.5093  -21.1220    0.0000 C   0  0
    7.6851  -21.1256    0.0000 C   0  0
    7.2753  -21.8427    0.0000 C   0  0
    7.6957  -22.5575    0.0000 C   0  0
    8.5186  -22.5503    0.0000 C   0  0
    6.4503  -21.8478    0.0000 C   0  0
   11.1813  -25.5712    0.0000 Br  0  0
    9.6643  -24.9562    0.0000 Br  0  0
    9.6643  -26.2821    0.0000 Br  0  0
  1  2  2  0
  2  3  1  0
  3  4  2  0
  4  5  1  0
  5  1  1  0
  4  6  1  0
  6  7  1  0
  7  8  1  0
  8  9  1  0
  8 10  1  0
 11 12  1  0
 11 16  1  0
 12 13  1  0
 13 14  1  0
 14 15  1  0
 15 16  1  0
  1 11  1  0
 14 17  1  0
 17 18  1  0
 18 19  1  0
  9 20  1  0
 20 21  1  0
 21 22  2  0
 22 23  1  0
 23 24  2  0
 24 25  1  0
 25 26  2  0
 26 21  1  0
 24 27  1  0
M  END