
  SciTegic05201615352D

 76 80  0  0  1  0            999 V2000
    4.5504   -1.6095    0.0000 N   0  0
    5.2407   -2.0614    0.0000 C   0  0
    3.5627   -2.6985    0.0000 C   0  0
    7.4038   -1.7694    0.0000 C   0  0
   11.5894   -2.4462    0.0000 C   0  0
    8.8305   -1.8493    0.0000 N   0  0
   12.9216   -2.9631    0.0000 N   0  0
    5.9771   -1.6895    0.0000 C   0  0  1  0  0  0
    9.5208   -2.3012    0.0000 C   0  0
    3.7791   -1.9024    0.0000 C   0  0  1  0  0  0
   13.4384   -3.6061    0.0000 C   0  0
    6.6674   -2.1413    0.0000 N   0  0
   10.7741   -2.5723    0.0000 N   0  0
    2.7651   -2.9092    0.0000 N   0  0
   12.1063   -3.0892    0.0000 C   0  0  1  0  0  0
    8.0941   -2.2212    0.0000 C   0  0  1  0  0  0
   10.2572   -1.9293    0.0000 C   0  0  1  0  0  0
    7.7070    0.4466    0.0000 N   0  0
    2.5487   -3.7053    0.0000 C   0  0  2  0  0  0
   15.2075   -6.9473    0.0000 C   0  0
    3.1299   -4.2908    0.0000 C   0  0
    6.0233   -0.8658    0.0000 C   0  0
    6.7597   -0.4939    0.0000 C   0  0
   14.5522   -2.7108    0.0000 N   0  0
    7.4934   -0.8711    0.0000 N   0  0
    8.0789   -0.2898    0.0000 C   0  0
   15.3675   -2.5847    0.0000 C   0  0
   14.2538   -3.4800    0.0000 C   0  0  2  0  0  0
   14.9091   -7.7164    0.0000 N   0  0
    6.8917    0.3205    0.0000 C   0  0
    5.1945   -2.8851    0.0000 O   0  0
    4.1440   -3.2840    0.0000 O   0  0
    7.9253   -1.1301    0.0000 O   0  0
   11.8878   -1.6770    0.0000 O   0  0
    1.7510   -3.9159    0.0000 C   0  0
    9.4746   -3.1249    0.0000 O   0  0
   13.1400   -4.3752    0.0000 O   0  0
    0.5206   -5.7188    0.0000 C   0  0
   10.5557   -1.1601    0.0000 C   0  0
    1.5346   -4.7121    0.0000 C   0  0
    0.7370   -4.9227    0.0000 C   0  0
    2.9135   -5.0869    0.0000 O   0  0
   15.8844   -3.2277    0.0000 O   0  0
   14.6906   -6.3043    0.0000 N   0  0
    1.1018   -6.3043    0.0000 C   0  0
   16.0228   -6.8212    0.0000 N   0  0
    1.8995   -6.0936    0.0000 C   0  0
    4.5102   -0.7855    0.0000 C   0  0
   11.8078   -3.8583    0.0000 C   0  0
    8.0479   -3.0449    0.0000 C   0  0  2  0  0  0
   10.0388   -0.5171    0.0000 C   0  0
    3.9276   -4.0801    0.0000 O   0  0
    2.1159   -5.2975    0.0000 C   0  0
    9.0050    0.7689    0.0000 C   0  0
   16.4812   -1.6895    0.0000 N   0  0
   10.3372    0.2520    0.0000 C   0  0
    9.2235   -0.6433    0.0000 C   0  0
    9.8203    0.8950    0.0000 C   0  0
    8.7066   -0.0002    0.0000 C   0  0
    3.2623   -1.2594    0.0000 C   0  0
    8.4882    1.4119    0.0000 O   0  0
   15.6659   -1.8156    0.0000 C   0  0
    3.7141   -0.5691    0.0000 C   0  0
   14.7706   -4.1230    0.0000 C   0  0
   -0.2771   -5.9295    0.0000 C   0  0
   14.9891   -5.5351    0.0000 C   0  0
    0.8854   -7.1004    0.0000 C   0  0
   16.7797   -0.9203    0.0000 C   0  0
    7.3115   -3.4168    0.0000 C   0  0
   10.9925   -3.9844    0.0000 C   0  0
   12.3247   -4.5013    0.0000 C   0  0
    8.7382   -3.4968    0.0000 C   0  0
   14.4722   -4.8921    0.0000 C   0  0
    7.2654   -4.2405    0.0000 C   0  0
   -0.4935   -6.7256    0.0000 C   0  0
    0.0878   -7.3110    0.0000 C   0  0
  2  1  1  0
 10  3  1  1
  4 12  1  0
  5 13  1  0
 16  6  1  1
 15  7  1  1
  8  2  1  0
  9  6  1  0
 10  1  1  0
 11  7  1  0
  8 12  1  6
 17 13  1  6
 14  3  1  0
 15  5  1  0
 16  4  1  0
 17  9  1  0
 18 30  1  0
 19 14  1  6
 20 44  1  0
 21 19  1  0
  8 22  1  0
 23 22  1  0
 28 24  1  6
 25 23  1  0
 26 25  2  0
 27 24  1  0
 28 11  1  0
 29 20  2  0
 30 23  2  0
 31  2  2  0
 32  3  2  0
 33  4  2  0
 34  5  2  0
 19 35  1  0
 36  9  2  0
 37 11  2  0
 38 41  2  0
 17 39  1  0
 40 35  1  0
 41 40  1  0
 42 21  2  0
 43 27  2  0
 44 66  1  0
 45 47  2  0
 46 20  1  0
 47 53  1  0
 48  1  1  0
 15 49  1  0
 16 50  1  0
 51 39  1  0
 52 21  1  0
 53 40  2  0
 54 59  1  0
 55 62  1  0
 56 51  2  0
 57 51  1  0
 58 56  1  0
 59 57  2  0
 10 60  1  0
 61 54  1  0
 62 27  1  0
 63 48  1  0
 28 64  1  0
 65 38  1  0
 66 73  1  0
 67 45  1  0
 68 55  1  0
 69 50  1  0
 70 49  1  0
 71 49  1  0
 50 72  1  1
 73 64  1  0
 74 69  1  0
 75 65  2  0
 76 67  2  0
 60 63  1  0
 18 26  1  0
 45 38  1  0
 75 76  1  0
 58 54  2  0
M  END