
          08180812472D 1   1.00000     0.00000     0

 25 28  0     1  0            999 V2000
   11.5623  -22.1548    0.0000 C   0  0  0  0  0  0           0  0  0
   11.5623  -21.3298    0.0000 C   0  0  0  0  0  0           0  0  0
   12.2764  -20.9173    0.0000 C   0  0  0  0  0  0           0  0  0
   10.8482  -22.5673    0.0000 O   0  0  0  0  0  0           0  0  0
   12.2764  -22.5673    0.0000 C   0  0  0  0  0  0           0  0  0
   12.9906  -22.1548    0.0000 C   0  0  0  0  0  0           0  0  0
   13.7047  -22.5673    0.0000 C   0  0  0  0  0  0           0  0  0
   14.4234  -22.1548    0.0000 C   0  0  2  0  0  0           0  0  0
   14.4234  -21.3298    0.0000 C   0  0  1  0  0  0           0  0  0
   15.1375  -20.9173    0.0000 C   0  0  2  0  0  0           0  0  0
   15.9181  -21.1726    0.0000 C   0  0  0  0  0  0           0  0  0
   16.4055  -20.5048    0.0000 C   0  0  0  0  0  0           0  0  0
   15.9181  -19.8370    0.0000 C   0  0  2  0  0  0           0  0  0
   16.1780  -19.0517    0.0000 O   0  0  0  0  0  0           0  0  0
   15.1375  -20.0923    0.0000 C   0  0  2  0  0  0           0  0  0
   15.1375  -19.2673    0.0000 C   0  0  0  0  0  0           0  0  0
   14.4234  -19.6798    0.0000 C   0  0  0  0  0  0           0  0  0
   13.7047  -20.0923    0.0000 C   0  0  0  0  0  0           0  0  0
   13.7047  -20.9173    0.0000 C   0  0  2  0  0  0           0  0  0
   12.9906  -21.3298    0.0000 C   0  0  1  0  0  0           0  0  0
   15.1375  -22.5673    0.0000 C   0  0  0  0  0  0           0  0  0
   13.7047  -21.7423    0.0000 H   0  0  0  0  0  0           0  0  0
   14.4234  -20.5048    0.0000 H   0  0  0  0  0  0           0  0  0
   15.1375  -21.7423    0.0000 H   0  0  0  0  0  0           0  0  0
   12.9906  -20.5048    0.0000 C   0  0  0  0  0  0           0  0  0
  1  2  1  0     0  0
  2  3  2  0     0  0
  1  4  2  0     0  0
  1  5  1  0     0  0
  5  6  2  0     0  0
  6  7  1  0     0  0
  7  8  1  0     0  0
  8  9  1  0     0  0
  9 10  1  0     0  0
 10 11  1  0     0  0
 11 12  1  0     0  0
 12 13  1  0     0  0
 13 14  1  1     0  0
 13 15  1  0     0  0
 10 15  1  0     0  0
 15 16  1  1     0  0
 15 17  1  0     0  0
 17 18  1  0     0  0
 18 19  1  0     0  0
  9 19  1  0     0  0
 19 20  1  0     0  0
  3 20  1  0     0  0
  6 20  1  0     0  0
 20 25  1  1     0  0
  8 21  1  6     0  0
 19 22  1  6     0  0
  9 23  1  1     0  0
 10 24  1  6     0  0
M  END