
  CDK    8/10/10,12:22

 18 19  0  0  0  0  0  0  0  0999 V2000
   12.8762    0.2698    0.0000 C   0  0  0  0  0  0  0  0  0  0  0  0
   12.0940    1.3174    0.0000 N   0  0  0  0  0  0  0  0  0  0  0  0
   12.8762    1.0703    0.0000 C   0  0  0  0  0  0  0  0  0  0  0  0
   11.6138    0.6450    0.0000 C   0  0  0  0  0  0  0  0  0  0  0  0
   13.6126   -0.1693    0.0000 C   0  0  0  0  0  0  0  0  0  0  0  0
   12.0940   -0.0137    0.0000 C   0  0  0  0  0  0  0  0  0  0  0  0
   13.6126   -0.9926    0.0000 O   0  0  0  0  0  0  0  0  0  0  0  0
   16.4852   -1.0201    0.0000 N   0  0  0  0  0  0  0  0  0  0  0  0
   15.0535   -1.0155    0.0000 C   0  0  0  0  0  0  0  0  0  0  0  0
   14.3308   -1.4134    0.0000 C   0  0  0  0  0  0  0  0  0  0  0  0
   15.7670   -1.4317    0.0000 C   0  0  0  0  0  0  0  0  0  0  0  0
   15.0535   -0.1921    0.0000 O   0  0  0  0  0  0  0  0  0  0  0  0
   14.3445    1.0703    0.0000 C   0  0  0  0  0  0  0  0  0  0  0  0
   17.2079   -1.4180    0.0000 C   0  0  0  0  0  0  0  0  0  0  0  0
   13.6126    1.4774    0.0000 C   0  0  0  0  0  0  0  0  0  0  0  0
   14.3445    0.2698    0.0000 C   0  0  0  0  0  0  0  0  0  0  0  0
   17.9215   -1.0063    0.0000 C   0  0  0  0  0  0  0  0  0  0  0  0
   17.2079   -2.2414    0.0000 C   0  0  0  0  0  0  0  0  0  0  0  0
  2  3  1  0  0  0  0 
  3  1  2  0  0  0  0 
  4  6  2  0  0  0  0 
  5  1  1  0  0  0  0 
  6  1  1  0  0  0  0 
  7  5  1  0  0  0  0 
  8 11  1  0  0  0  0 
  9 10  1  0  0  0  0 
 10  7  1  0  0  0  0 
 11  9  1  0  0  0  0 
 12  9  1  0  0  0  0 
 13 16  1  0  0  0  0 
 14  8  1  0  0  0  0 
 15  3  1  0  0  0  0 
 16  5  2  0  0  0  0 
 17 14  1  0  0  0  0 
 18 14  1  0  0  0  0 
  2  4  1  0  0  0  0 
 15 13  2  0  0  0  0 
M  END