
  SciTegic11261311332D

160150  0  0  0  0            999 V2000
    3.7870   -4.1937    0.0000 O   0  0
    3.0726   -4.6062    0.0000 C   0  0  2  0  0  0
    2.3581   -4.1937    0.0000 C   0  0  1  0  0  0
    2.3581   -3.3687    0.0000 O   0  0
    1.6436   -4.6062    0.0000 C   0  0  1  0  0  0
    0.9292   -4.1937    0.0000 O   0  0
    1.6436   -5.4312    0.0000 C   0  0  2  0  0  0
    0.9292   -5.8437    0.0000 O   0  0
    2.3581   -5.8437    0.0000 C   0  0  2  0  0  0
    3.0726   -5.4312    0.0000 O   0  0
    2.3581   -6.6687    0.0000 C   0  0
    3.0726   -7.0812    0.0000 O   0  0
    3.0726   -7.9062    0.0000 S   0  0
    3.8976   -7.9062    0.0000 O   0  0
    2.2476   -7.9062    0.0000 O   0  0
    3.0726   -8.7312    0.0000 O   0  5
    0.9292   -6.6687    0.0000 S   0  0
    1.7542   -6.6687    0.0000 O   0  0
    0.1042   -6.6687    0.0000 O   0  0
    0.9292   -7.4937    0.0000 O   0  5
    0.2147   -4.6062    0.0000 S   0  0
   -0.1978   -3.8917    0.0000 O   0  0
   -0.4998   -5.0187    0.0000 O   0  0
    0.6272   -5.3207    0.0000 O   0  5
    1.6436   -2.9562    0.0000 C   0  0  2  0  0  0
    1.6436   -2.1312    0.0000 C   0  0  1  0  0  0
    2.3581   -1.7187    0.0000 O   0  0
    0.9292   -1.7187    0.0000 C   0  0  1  0  0  0
    0.9292   -0.8937    0.0000 O   0  0
    0.2147   -2.1312    0.0000 C   0  0  2  0  0  0
   -0.4998   -1.7187    0.0000 O   0  0
    0.2147   -2.9562    0.0000 C   0  0  2  0  0  0
    0.9292   -3.3687    0.0000 O   0  0
   -0.4998   -3.3687    0.0000 C   0  0
   -1.2143   -2.9562    0.0000 O   0  0
   -1.9287   -3.3687    0.0000 S   0  0
   -2.3412   -2.6542    0.0000 O   0  0
   -2.6432   -3.7812    0.0000 O   0  0
   -1.5162   -4.0832    0.0000 O   0  5
   -0.4092   -1.2318    0.0000 S   0  0
    0.3252   -0.8937    0.0000 O   0  0
   -0.4998   -0.0687    0.0000 O   0  0
   -1.3248   -0.8937    0.0000 O   0  5
    2.3581   -0.8937    0.0000 S   0  0
    2.3581   -0.0687    0.0000 O   0  0
    1.5331   -0.8937    0.0000 O   0  0
    3.1831   -0.8937    0.0000 O   0  5
    0.2147   -0.4812    0.0000 C   0  0  2  0  0  0
    0.2147    0.3438    0.0000 C   0  0  1  0  0  0
    0.9292    0.7563    0.0000 O   0  0
   -0.4998    0.7563    0.0000 C   0  0  1  0  0  0
   -0.4998    1.5813    0.0000 O   0  0
   -1.2143    0.3438    0.0000 C   0  0  2  0  0  0
   -1.9287    0.7563    0.0000 O   0  0
   -1.2143   -0.4812    0.0000 C   0  0  2  0  0  0
   -0.4998   -0.8937    0.0000 O   0  0
   -1.9287   -0.8937    0.0000 C   0  0
   -2.6432   -0.4812    0.0000 O   0  0
   -1.2143    1.9938    0.0000 C   0  0  2  0  0  0
   -1.2143    2.8188    0.0000 C   0  0  1  0  0  0
   -0.4998    3.2313    0.0000 O   0  0
   -1.9287    3.2313    0.0000 C   0  0  1  0  0  0
   -1.8381    3.7182    0.0000 O   0  0
   -2.5526    2.4807    0.0000 C   0  0  2  0  0  0
   -3.3577    3.2313    0.0000 O   0  0
   -2.4512    1.7183    0.0000 C   0  0  2  0  0  0
   -2.2668    1.4907    0.0000 O   0  0
   -3.4624    1.8961    0.0000 C   0  0
   -3.7874    1.1378    0.0000 O   0  0
   -4.6066    1.0401    0.0000 S   0  0
   -4.7043    1.8593    0.0000 O   0  0
   -5.4258    0.9424    0.0000 O   0  0
   -4.5089    0.2209    0.0000 O   0  5
   -4.0721    2.8188    0.0000 S   0  0
   -3.6596    2.1043    0.0000 O   0  0
   -4.4846    3.5333    0.0000 O   0  0
   -4.7866    2.4063    0.0000 O   0  5
   -0.4092    3.7182    0.0000 S   0  0
   -1.3248    4.0563    0.0000 O   0  0
    0.3252    4.0563    0.0000 O   0  0
   -0.4998    4.8813    0.0000 O   0  5
   -2.6432    4.4688    0.0000 C   0  0  2  0  0  0
   -3.0196    4.1469    0.0000 C   0  0  1  0  0  0
   -3.3577    4.8813    0.0000 O   0  0
   -2.5526    3.3057    0.0000 C   0  0  1  0  0  0
   -3.3577    4.0563    0.0000 O   0  0
   -2.2668    3.9657    0.0000 C   0  0  2  0  0  0
   -2.6432    3.6438    0.0000 O   0  0
   -1.9287    4.8813    0.0000 C   0  0  2  0  0  0
   -2.6432    5.2938    0.0000 O   0  0
   -1.9287    4.0563    0.0000 C   0  0
   -1.2143    3.6438    0.0000 O   0  0
   -0.4998    4.0563    0.0000 S   0  0
   -0.9123    4.7708    0.0000 O   0  0
   -0.0873    3.3418    0.0000 O   0  0
    0.2147    4.4688    0.0000 O   0  5
   -2.6432    2.8188    0.0000 S   0  0
   -3.3555    2.8490    0.0000 O   0  0
   -1.8182    2.8188    0.0000 O   0  0
   -2.6432    1.9938    0.0000 O   0  5
   -4.0721    3.6438    0.0000 S   0  0
   -4.4544    4.2456    0.0000 O   0  0
   -3.6596    2.9293    0.0000 O   0  0
   -4.7866    3.2313    0.0000 O   0  5
   -4.0721    5.2938    0.0000 S   0  0
   -4.7866    5.7063    0.0000 O   0  0
   -3.6596    6.0083    0.0000 O   0  0
   -4.4846    4.5793    0.0000 O   0  5
    3.7870   -3.3687    0.0000 C   0  0
    4.5015   -2.9562    0.0000 C   0  0
    4.5015   -2.1312    0.0000 C   0  0
    5.2160   -0.8937    0.0000 S   0  0
    6.0410   -0.8937    0.0000 O   0  0
    4.3910   -0.8937    0.0000 O   0  0
    5.2160   -1.7187    0.0000 N   0  0
    5.2160   -0.0687    0.0000 C   0  0
    4.5015    0.3438    0.0000 C   0  0
    4.5015    1.1688    0.0000 C   0  0
    5.2160    1.5813    0.0000 C   0  0
    5.9305    1.1688    0.0000 C   0  0
    6.6449    1.5813    0.0000 C   0  0
    7.3594    1.1688    0.0000 C   0  0
    7.3594    0.3438    0.0000 C   0  0
    6.6449   -0.0687    0.0000 C   0  0
    5.9305    0.3438    0.0000 C   0  0
    6.6449    2.4063    0.0000 N   0  0
    5.9305    2.8188    0.0000 C   0  0
    7.3594    2.8188    0.0000 C   0  0
   -3.3577   -0.8937    0.0000 S   0  0
   -2.9452   -1.6082    0.0000 O   0  5
   -3.7702   -0.1792    0.0000 O   0  0
   -4.0721   -1.3062    0.0000 O   0  0
    0.9292    1.5813    0.0000 S   0  0
    0.9292    2.4063    0.0000 O   0  5
    0.1042    1.5813    0.0000 O   0  0
    1.7542    1.5813    0.0000 O   0  0
   -1.9287    1.5813    0.0000 S   0  0
   -2.7537    1.5813    0.0000 O   0  5
   -1.1037    1.5813    0.0000 O   0  0
   -1.9287    2.4063    0.0000 O   0  0
    2.3581   -2.5437    0.0000 H   0  0
    0.9292   -0.0687    0.0000 H   0  0
   -0.4998    2.4063    0.0000 H   0  0
   -1.9377    4.0411    0.0000 H   0  0
    9.5987    0.0000    0.0000 Na  0  3
   10.6005    0.0000    0.0000 Na  0  3
   11.6023    0.0000    0.0000 Na  0  3
   12.6040    0.0000    0.0000 Na  0  3
    0.0000  -10.3812    0.0000 Na  0  3
    1.0018  -10.3812    0.0000 Na  0  3
    2.0036  -10.3812    0.0000 Na  0  3
    3.0054  -10.3812    0.0000 Na  0  3
    4.0071  -10.3812    0.0000 Na  0  3
    0.0000  -12.0312    0.0000 Na  0  3
    1.0018  -12.0312    0.0000 Na  0  3
    2.0036  -12.0312    0.0000 Na  0  3
    3.0054  -12.0312    0.0000 Na  0  3
    4.0071  -12.0312    0.0000 Na  0  3
    0.0000  -13.6812    0.0000 Na  0  3
    1.0018  -13.6812    0.0000 Na  0  3
  2  1  1  1
  2  3  1  0
  3  4  1  6
  3  5  1  0
  5  6  1  6
  5  7  1  0
  7  8  1  1
  7  9  1  0
  9 10  1  0
  9 11  1  6
 11 12  1  0
  2 10  1  0
 13 14  2  0
 13 15  2  0
 13 16  1  0
 12 13  1  0
 17 18  2  0
 17 19  2  0
 17 20  1  0
  8 17  1  0
 21 22  2  0
 21 23  2  0
 21 24  1  0
  6 21  1  0
 25 26  1  0
 26 27  1  6
 26 28  1  0
 28 29  1  6
 28 30  1  0
 30 31  1  1
 30 32  1  0
 32 33  1  0
 32 34  1  6
 34 35  1  0
 25 33  1  0
 36 37  2  0
 36 38  2  0
 36 39  1  0
 35 36  1  0
 40 41  2  0
 40 42  2  0
 40 43  1  0
 31 40  1  0
 44 45  2  0
 44 46  2  0
 44 47  1  0
 27 44  1  0
 48 49  1  0
 49 50  1  6
 49 51  1  0
 51 52  1  6
 51 53  1  0
 53 54  1  1
 53 55  1  0
 55 56  1  0
 55 57  1  6
 57 58  1  0
 48 56  1  0
 59 60  1  0
 60 61  1  6
 60 62  1  0
 62 63  1  6
 62 64  1  0
 64 65  1  1
 64 66  1  0
 66 67  1  0
 66 68  1  6
 68 69  1  0
 59 67  1  0
 70 71  2  0
 70 72  2  0
 70 73  1  0
 69 70  1  0
 74 75  2  0
 74 76  2  0
 74 77  1  0
 65 74  1  0
 78 79  2  0
 78 80  2  0
 78 81  1  0
 61 78  1  0
 82 83  1  0
 83 84  1  6
 83 85  1  0
 85 86  1  6
 85 87  1  0
 87 88  1  1
 87 89  1  0
 89 90  1  0
 89 91  1  6
 91 92  1  0
 82 90  1  0
 93 94  2  0
 93 95  2  0
 93 96  1  0
 92 93  1  0
 97 98  2  0
 97 99  2  0
 97100  1  0
 88 97  1  0
101102  2  0
101103  2  0
101104  1  0
 86101  1  0
105106  2  0
105107  2  0
105108  1  0
 84105  1  0
 82 63  1  0
 59 52  1  0
 48 29  1  0
 25  4  1  0
109110  1  0
110111  1  0
112113  2  0
112114  2  0
112115  1  0
116117  1  0
117118  2  0
118119  1  0
119120  2  0
120121  1  0
121122  2  0
122123  1  0
123124  2  0
124125  1  0
116125  2  0
120125  1  0
112116  1  0
126127  1  0
126128  1  0
121126  1  0
111115  1  0
  1109  1  0
 58129  1  0
129130  1  0
129131  2  0
129132  2  0
 50133  1  0
133134  1  0
133135  2  0
133136  2  0
 54137  1  0
137138  1  0
137139  2  0
137140  2  0
 25141  1  6
 48142  1  6
 59143  1  6
 82144  1  1
M  CHG  8  16  -1  20  -1  24  -1  39  -1  43  -1  47  -1  73  -1  77  -1
M  CHG  8  81  -1  96  -1 100  -1 104  -1 108  -1 130  -1 134  -1 138  -1
M  CHG  8 145   1 146   1 147   1 148   1 149   1 150   1 151   1 152   1
M  CHG  8 153   1 154   1 155   1 156   1 157   1 158   1 159   1 160   1
M  END