
  SciTegic01091216402D

 69 71  0  0  0  0            999 V2000
    4.1534  -15.8897    0.0000 Na  0  3
    0.2461  -15.0217    0.0000 C   0  0  1  0  0  0
   -0.4624  -15.4506    0.0000 C   0  0  1  0  0  0
   -0.4408  -16.2738    0.0000 C   0  0  2  0  0  0
    0.2787  -16.6745    0.0000 C   0  0
    0.9885  -16.2436    0.0000 C   0  0  1  0  0  0
    0.9762  -15.4160    0.0000 O   0  0
    1.6965  -15.8127    0.0000 C   0  0
    1.6788  -14.9832    0.0000 O   0  0
   -1.1493  -16.7028    0.0000 O   0  0
   -1.1849  -15.0546    0.0000 N   0  0
    0.2301  -14.1958    0.0000 C   0  0  1  0  0  0
    0.9374  -13.7648    0.0000 C   0  0  1  0  0  0
   -1.8928  -15.4846    0.0000 C   0  0
   -2.6211  -15.0872    0.0000 C   0  0
   -1.8780  -16.3105    0.0000 O   0  0
   -0.4988  -13.7994    0.0000 O   0  0
    0.9525  -14.5892    0.0000 H   0  0
    0.9156  -12.9374    0.0000 C   0  0
    1.6606  -14.1597    0.0000 O   0  0
    1.6229  -12.5064    0.0000 N   0  0
    1.6033  -11.6826    0.0000 C   0  0
    2.3070  -11.2537    0.0000 O   0  0
    0.8801  -11.2876    0.0000 C   0  0
    0.8607  -10.4628    0.0000 C   0  0
    0.1383  -10.0678    0.0000 C   0  0
   -0.5663  -10.4967    0.0000 C   0  0
   -0.5441  -11.3248    0.0000 C   0  0
    0.1789  -11.7159    0.0000 C   0  0
   -1.2901  -10.1028    0.0000 F   0  0
    1.0051  -17.0628    0.0000 O   0  0
   -3.3203  -19.4870    0.0000 C   0  0  2  0  0  0
   -2.6100  -19.9046    0.0000 C   0  0  2  0  0  0
   -1.8951  -19.5042    0.0000 C   0  0  1  0  0  0
   -1.8843  -18.6803    0.0000 O   0  0
   -2.5946  -18.2585    0.0000 C   0  0  1  0  0  0
   -3.3157  -18.6648    0.0000 C   0  0  2  0  0  0
   -4.0297  -18.2422    0.0000 O   0  0
   -2.5851  -17.4304    0.0000 C   0  0
   -3.2981  -17.0102    0.0000 O   0  0
   -1.1864  -19.9246    0.0000 O   0  0
   -4.0415  -19.8933    0.0000 O   0  0
   -2.6187  -20.7328    0.0000 O   0  0
   -0.4638  -19.5211    0.0000 C   0  0  2  0  0  0
    0.2454  -19.9447    0.0000 C   0  0  2  0  0  0
    0.9659  -19.5446    0.0000 C   0  0  2  0  0  0
    0.9800  -18.7162    0.0000 O   0  0
    0.2673  -18.2894    0.0000 C   0  0  1  0  0  0
   -0.4595  -18.6951    0.0000 C   0  0  2  0  0  0
   -0.4702  -20.3470    0.0000 H   0  0
   -1.1727  -18.2713    0.0000 O   0  0
    0.2799  -17.4613    0.0000 C   0  0
    1.6771  -19.9677    0.0000 O   0  0
    0.2324  -20.7728    0.0000 N   0  0
    0.9395  -21.1959    0.0000 C   0  0
    0.9265  -22.0198    0.0000 C   0  0
    1.6596  -20.7952    0.0000 O   0  0
    2.3961  -19.5651    0.0000 C   0  0  1  0  0  0
    3.1044  -19.9864    0.0000 C   0  0  2  0  0  0
    2.4069  -18.7411    0.0000 C   0  0
    3.0936  -20.8104    0.0000 N   0  0
    3.8233  -19.5837    0.0000 C   0  0
    4.5315  -20.0050    0.0000 O   0  0
    3.8340  -18.7598    0.0000 O   0  0
    5.2505  -19.6024    0.0000 C   0  0
    3.8018  -21.2317    0.0000 C   0  0
    3.7910  -22.0556    0.0000 C   0  0
    4.5207  -20.8290    0.0000 O   0  0
    2.4192  -16.2087    0.0000 O   0  5
  2 18  1  1
 32 37  1  0
 33 34  1  0
 34 35  1  0
 35 36  1  0
 36 37  1  0
  8  9  2  0
 37 38  1  1
 13 19  1  0
 36 39  1  1
  2  3  1  0
 39 40  1  0
 13 20  1  1
 34 41  1  1
  4 10  1  6
 32 42  1  1
 19 21  1  0
 33 43  1  6
  2  7  1  0
 44 41  1  0
 44 45  1  0
 21 22  1  0
  3 11  1  1
 22 23  2  0
  3  4  1  0
 22 24  1  0
 44 49  1  0
 45 46  1  0
 46 47  1  0
 47 48  1  0
 48 49  1  0
  2 12  1  0
 44 50  1  6
 24 25  2  0
 49 51  1  1
  4  5  1  0
 48 52  1  1
 52 31  1  0
 25 26  1  0
 46 53  1  6
 12 13  1  0
 45 54  1  6
 26 27  2  0
 54 55  1  0
  5  6  1  0
 55 56  1  0
 27 28  1  0
 55 57  2  0
 11 14  1  0
 53 58  1  0
 28 29  2  0
 58 59  1  0
 29 24  1  0
 58 60  1  6
  6  7  1  0
 59 61  1  1
 27 30  1  0
 59 62  1  0
 14 15  1  0
 62 63  1  0
  6 31  1  0
 62 64  2  0
 63 65  1  0
 32 33  1  0
 61 66  1  0
 14 16  2  0
 66 67  1  0
  6  8  1  1
 66 68  2  0
 12 17  1  6
  8 69  1  0
M  CHG  2   1   1  69  -1
M  END