
  SciTegic12201615522D

 23 24  0  0  0  0            999 V2000
    1.2990   -0.7500    0.0000 C   0  0
    1.2990    0.7500    0.0000 C   0  0
    0.0000    1.5000    0.0000 C   0  0
   -1.2990    0.7500    0.0000 C   0  0
   -1.2990   -0.7500    0.0000 C   0  0
    0.0000   -1.5000    0.0000 C   0  0
    2.6003   -1.4977    0.0000 O   0  0
    3.8990   -0.7455    0.0000 C   0  0
    5.2003   -1.4932    0.0000 C   0  0
    6.2387   -0.8917    0.0000 O   0  0
    5.2024   -2.6932    0.0000 O   0  0
   -2.6003    1.4977    0.0000 C   0  0
   -3.8990    0.7455    0.0000 C   0  0
   -4.0317   -0.7359    0.0000 N   0  0
   -5.4979   -1.0529    0.0000 C   0  0
   -6.2524    0.2436    0.0000 N   0  0
   -5.2526    1.3618    0.0000 C   0  0
   -5.4992    2.5362    0.0000 O   0  0
   -5.9821   -2.1508    0.0000 S   0  0
   -7.7426    0.3981    0.0000 C   0  0
   -8.3559    1.7679    0.0000 C   0  0
    0.0000   -2.7000    0.0000 Cl  0  0
   -9.5495    1.8917    0.0000 C   0  0
  1  2  2  0
  2  3  1  0
  3  4  2  0
  4  5  1  0
  5  6  2  0
  6  1  1  0
  1  7  1  0
  7  8  1  0
  8  9  1  0
  9 10  2  0
  9 11  1  0
  4 12  1  0
 12 13  2  0
 13 14  1  0
 14 15  1  0
 15 16  1  0
 16 17  1  0
 17 13  1  0
 17 18  2  0
 15 19  2  0
 16 20  1  0
 20 21  1  0
  6 22  1  0
 21 23  1  0
M  END