
  SciTegic02011314062D

 32 35  0  0  1  0            999 V2000
    2.5042   -8.0417    0.0000 C   0  0  1  0  0  0
    1.7917   -8.4542    0.0000 C   0  0
    1.7917   -6.7917    0.0000 O   0  0
    2.5042   -7.2125    0.0000 C   0  0  2  0  0  0
    1.0792   -8.0375    0.0000 C   0  0
    1.0792   -7.2125    0.0000 C   0  0
    6.8000   -8.0542    0.0000 C   0  0
    1.7917   -9.2792    0.0000 O   0  0
    3.2292   -6.8042    0.0000 C   0  0
    6.7917   -7.2292    0.0000 C   0  0
    7.5042   -8.4667    0.0000 C   0  0
    3.2250   -8.4542    0.0000 C   0  0
    6.0792   -8.4625    0.0000 O   0  0
    3.9417   -8.0417    0.0000 N   0  0
    0.3667   -8.4542    0.0000 C   0  0
    6.0792   -6.8167    0.0000 O   0  0
    7.5042   -9.2917    0.0000 O   0  0
    0.3667   -6.8000    0.0000 C   0  0
    8.2292   -7.2375    0.0000 C   0  0
    8.2250   -8.0625    0.0000 C   0  0
    7.5042   -6.8167    0.0000 C   0  0
    3.9417   -7.2167    0.0000 C   0  0
    3.2292   -5.9792    0.0000 C   0  0
    4.6542   -8.4542    0.0000 C   0  0
    5.3667   -8.0500    0.0000 C   0  0
    8.2167   -9.7125    0.0000 C   0  0
    6.0792   -5.9917    0.0000 C   0  0
   -0.3458   -8.0417    0.0000 C   0  0
   -0.3458   -7.2125    0.0000 C   0  0
    3.9417   -5.5667    0.0000 C   0  0
    4.6542   -6.8125    0.0000 C   0  0
    4.6542   -5.9792    0.0000 C   0  0
  2  1  1  0
  3  4  1  0
  4  1  1  0
  5  2  1  0
  6  3  1  0
  7 13  1  0
  8  2  2  0
  4  9  1  6
 10  7  1  0
 11  7  2  0
  1 12  1  1
 13 25  1  0
 14 12  1  0
 15  5  2  0
 16 10  1  0
 17 11  1  0
 18  6  2  0
 19 20  2  0
 20 11  1  0
 21 10  2  0
 22  9  2  0
 23  9  1  0
 24 14  1  0
 25 24  1  0
 26 17  1  0
 27 16  1  0
 28 15  1  0
 29 18  1  0
 30 23  2  0
 31 22  1  0
 32 30  1  0
  5  6  1  0
 32 31  2  0
 28 29  2  0
 19 21  1  0
M  END