
          11280715092D 1   1.00000     0.00000     0

 15 17  0     0  0            999 V2000
    1.8500   -1.9167    0.0000 C   0  0  0  0  0  0           0  0  0
    2.2042   -2.3917    0.0000 N   0  0  0  0  0  0           0  0  0
    2.1917   -1.4250    0.0000 N   0  0  0  0  0  0           0  0  0
    1.2500   -1.9167    0.0000 C   0  0  0  0  0  0           0  0  0
    2.7667   -2.2042    0.0000 C   0  0  0  0  0  0           0  0  0
    2.7667   -1.6042    0.0000 C   0  0  0  0  0  0           0  0  0
    0.3375   -2.4250    0.0000 N   0  0  0  0  0  0           0  0  0
    0.9417   -2.4292    0.0000 C   0  0  0  0  0  0           0  0  0
    0.9542   -1.3917    0.0000 C   0  0  0  0  0  0           0  0  0
    3.2917   -2.5000    0.0000 C   0  0  0  0  0  0           0  0  0
    3.2792   -1.3042    0.0000 C   0  0  0  0  0  0           0  0  0
    0.0417   -1.9000    0.0000 C   0  0  0  0  0  0           0  0  0
    0.3542   -1.3875    0.0000 C   0  0  0  0  0  0           0  0  0
    3.8000   -1.5917    0.0000 C   0  0  0  0  0  0           0  0  0
    3.8042   -2.2000    0.0000 C   0  0  0  0  0  0           0  0  0
  2  1  2  0     0  0
  3  1  1  0     0  0
  4  1  1  0     0  0
  5  2  1  0     0  0
  6  3  1  0     0  0
  7  8  2  0     0  0
  8  4  1  0     0  0
  9  4  2  0     0  0
 10  5  1  0     0  0
 11  6  1  0     0  0
 12 13  2  0     0  0
 13  9  1  0     0  0
 14 11  2  0     0  0
 15 10  2  0     0  0
  6  5  2  0     0  0
 12  7  1  0     0  0
 15 14  1  0     0  0
M  END