
  SciTegic12091613522D

 38 42  0  0  0  0            999 V2000
   -7.3875   12.2895    0.0000 C   0  0
   -8.8498   12.6007    0.0000 C   0  0
   -9.8720   11.4762    0.0000 C   0  0
   -6.9118   10.8462    0.0000 C   0  0
   -7.9303    9.7395    0.0000 C   0  0
   -9.3925   10.0507    0.0000 C   0  0
  -10.1344    8.7546    0.0000 N   0  0
   -9.1218    7.6444    0.0000 C   0  0
   -7.7964    8.2641    0.0000 C   0  0
   -6.4983    7.5109    0.0000 C   0  0
   -6.5006    6.0101    0.0000 N   0  0
   -5.2025    5.2568    0.0000 C   0  0
   -5.2049    3.7560    0.0000 C   0  0
   -3.9067    3.0027    0.0000 N   0  0
   -3.9091    1.5019    0.0000 C   0  0
   -2.6111    0.7486    0.0000 C   0  0
   -5.4579    8.1089    0.0000 O   0  0
   -4.9494    0.9039    0.0000 O   0  0
  -11.6238    8.5924    0.0000 S   0  0
  -12.5113    9.8027    0.0000 C   0  0
  -14.0024    9.6394    0.0000 C   0  0
  -14.8893   10.8490    0.0000 C   0  0
  -14.2853   12.2220    0.0000 C   0  0
  -12.7942   12.3853    0.0000 C   0  0
  -11.9072   11.1757    0.0000 C   0  0
  -12.1074    7.4942    0.0000 O   0  0
  -10.9147    7.6243    0.0000 O   0  0
   -2.6111   -0.7486    0.0000 C   0  0
   -1.2964   -1.4973    0.0000 C   0  0
   -1.2964    1.4973    0.0000 C   0  0
    0.0000    0.7486    0.0000 C   0  0
    0.0000   -0.7486    0.0000 C   0  0
    1.2964   -1.4973    0.0000 C   0  0
    2.5929   -0.7486    0.0000 C   0  0
    2.5929    0.7486    0.0000 C   0  0
    1.2964    1.4973    0.0000 C   0  0
   -7.5410    5.4120    0.0000 C   0  0
   -2.8664    3.6008    0.0000 C   0  0
  1  2  2  0
  2  3  1  0
  3  6  2  0
  5  4  2  0
  4  1  1  0
  5  6  1  0
  6  7  1  0
  7  8  1  0
  8  9  2  0
  9  5  1  0
  9 10  1  0
 10 11  1  0
 11 12  1  0
 12 13  1  0
 13 14  1  0
 14 15  1  0
 15 16  1  0
 10 17  2  0
 15 18  2  0
  7 19  1  0
 19 20  1  0
 20 21  2  0
 21 22  1  0
 22 23  2  0
 23 24  1  0
 24 25  2  0
 25 20  1  0
 19 26  2  0
 19 27  2  0
 16 28  2  0
 28 29  1  0
 29 32  2  0
 31 30  2  0
 30 16  1  0
 31 32  1  0
 32 33  1  0
 33 34  2  0
 34 35  1  0
 35 36  2  0
 36 31  1  0
 11 37  1  0
 14 38  1  0
M  END