
          11280715002D 1   1.00000     0.00000     0

 28 30  0     1  0            999 V2000
    4.4000   -3.1875    0.0000 C   0  0  0  0  0  0           0  0  0
    5.1167   -2.7792    0.0000 N   0  0  3  0  0  0           0  0  0
    3.6917   -2.7667    0.0000 C   0  0  0  0  0  0           0  0  0
    2.9792   -3.1792    0.0000 C   0  0  0  0  0  0           0  0  0
    1.5542   -3.1792    0.0000 N   0  0  3  0  0  0           0  0  0
    2.2667   -2.7667    0.0000 C   0  0  0  0  0  0           0  0  0
    6.5417   -2.7792    0.0000 C   0  0  0  0  0  0           0  0  0
    5.8292   -3.2000    0.0000 C   0  0  0  0  0  0           0  0  0
    8.6875   -3.1750    0.0000 C   0  0  0  0  0  0           0  0  0
    9.3917   -2.7542    0.0000 C   0  0  0  0  0  0           0  0  0
    3.7000   -1.9500    0.0000 C   0  0  0  0  0  0           0  0  0
    7.2542   -3.1875    0.0000 N   0  0  0  0  0  0           0  0  0
    5.1167   -1.9542    0.0000 C   0  0  0  0  0  0           0  0  0
    4.3917   -4.0042    0.0000 O   0  0  0  0  0  0           0  0  0
    0.1292   -4.0042    0.0000 N   0  0  0  0  0  0           0  0  0
    6.5292   -1.9542    0.0000 O   0  0  0  0  0  0           0  0  0
    2.2667   -1.9417    0.0000 C   0  0  0  0  0  0           0  0  0
    9.3917   -1.9292    0.0000 O   0  0  0  0  0  0           0  0  0
    4.4125   -1.5417    0.0000 C   0  0  0  0  0  0           0  0  0
    2.9792   -1.5292    0.0000 C   0  0  0  0  0  0           0  0  0
    7.9667   -2.7667    0.0000 C   0  0  2  0  0  0           0  0  0
   10.1167   -3.1667    0.0000 O   0  0  0  0  0  0           0  0  0
    1.5542   -4.0042    0.0000 C   0  0  0  0  0  0           0  0  0
    0.8417   -2.7625    0.0000 C   0  0  0  0  0  0           0  0  0
    7.2417   -1.5375    0.0000 O   0  0  0  0  0  0           0  0  0
    0.1292   -3.1792    0.0000 C   0  0  0  0  0  0           0  0  0
    0.8417   -4.4125    0.0000 C   0  0  0  0  0  0           0  0  0
    7.9625   -1.9417    0.0000 C   0  0  0  0  0  0           0  0  0
  2  1  1  0     0  0
  3  1  1  0     0  0
  4  3  1  0     0  0
  5  6  1  0     0  0
  6  4  2  0     0  0
  7  8  1  0     0  0
  8  2  1  0     0  0
  9 21  1  0     0  0
 10  9  1  0     0  0
 11  3  2  0     0  0
 12  7  1  0     0  0
 13  2  1  0     0  0
 14  1  2  0     0  0
 15 26  1  0     0  0
 16  7  2  0     0  0
 17 20  2  0     0  0
 18 10  2  0     0  0
 19 11  1  0     0  0
 20 11  1  0     0  0
 21 12  1  0     0  0
 22 10  1  0     0  0
 23  5  1  0     0  0
 24  5  1  0     0  0
 25 28  1  0     0  0
 26 24  1  0     0  0
 27 23  1  0     0  0
 21 28  1  6     0  0
 13 19  1  0     0  0
 17  6  1  0     0  0
 15 27  1  0     0  0
M  END