
  SciTegic05281310212D

 27 28  0  0  0  0            999 V2000
   -4.2846    0.1650    0.0000 C   0  0
   -4.2857   -0.6623    0.0000 C   0  0
   -3.5709   -1.0752    0.0000 C   0  0
   -3.5727    0.5778    0.0000 C   0  0
   -2.8573    0.1687    0.0000 C   0  0
   -2.8566   -0.6582    0.0000 C   0  0
   -2.1413   -1.0691    0.0000 O   0  0
   -1.4262   -0.6544    0.0000 C   0  0
   -1.4310    0.1756    0.0000 C   0  0  1  0  0  0
   -2.1469    0.5828    0.0000 O   0  0
   -0.7191    0.5924    0.0000 C   0  0
   -0.0021    0.1843    0.0000 N   0  0
    0.7099    0.6011    0.0000 C   0  0
    1.4268    0.1930    0.0000 C   0  0
    2.1388    0.6098    0.0000 O   0  0
    2.8557    0.2017    0.0000 C   0  0
    2.8566   -0.6236    0.0000 C   0  0
    3.5727   -1.0317    0.0000 C   0  0
    4.2857   -0.6148    0.0000 C   0  0
    4.2780    0.2145    0.0000 C   0  0
    3.5613    0.6188    0.0000 C   0  0
    2.1435   -1.0385    0.0000 O   0  0
    2.1463   -1.8635    0.0000 C   0  0
    3.5529    1.4438    0.0000 O   0  0
    4.2632    1.8635    0.0000 C   0  0
   -3.5752    1.4028    0.0000 F   0  0
   -0.5456    1.6733    0.0000 Cl  0  0
 12 13  1  0
  5  6  1  0
 13 14  1  0
  2  3  1  0
 14 15  1  0
  6  7  1  0
 15 16  1  0
  3  6  2  0
 16 17  2  0
  7  8  1  0
 17 18  1  0
 18 19  2  0
  8  9  1  0
 19 20  1  0
  5  4  2  0
 20 21  2  0
 21 16  1  0
  9 10  1  0
 17 22  1  0
 10  5  1  0
 22 23  1  0
  4  1  1  0
 21 24  1  0
  9 11  1  1
 24 25  1  0
  1  2  2  0
  4 26  1  0
 11 12  1  0
M  END