
  SciTegic01091216402D

 12 13  0  0  0  0            999 V2000
    9.1736    2.1584    0.0000 N   0  0
    9.1724    1.3310    0.0000 C   0  0
   10.6008    2.1620    0.0000 N   0  0
    9.8854    2.5711    0.0000 C   0  0
    9.8830    3.3961    0.0000 N   0  0
   10.6037    1.3315    0.0000 C   0  0
    9.8837    0.9210    0.0000 C   0  0
   11.3158    0.9193    0.0000 C   0  0
   11.4013    0.0987    0.0000 N   0  0
   12.2081   -0.0736    0.0000 C   0  0
   12.6213    0.6405    0.0000 C   0  0
   12.0698    1.2540    0.0000 S   0  0
  6  7  2  0
  6  3  1  0
  8  9  2  0
  1  2  2  0
  3  4  2  0
  4  1  1  0
  2  7  1  0
  4  5  1  0
  9 10  1  0
 10 11  2  0
 11 12  1  0
 12  8  1  0
  6  8  1  0
M  END