
  SciTegic11201309402D

 22 25  0  0  1  0            999 V2000
    0.7551  -28.0096    0.0000 C   0  0
    0.7612  -26.6733    0.0000 C   0  0  2  0  0  0
    0.2758  -27.3395    0.0000 C   0  0
    1.5469  -26.9334    0.0000 C   0  0  1  0  0  0
    1.5409  -27.7585    0.0000 N   0  0
    2.3239  -28.0193    0.0000 C   0  0
    2.8139  -27.3552    0.0000 C   0  0
    2.3336  -26.6841    0.0000 C   0  0
    0.5089  -25.8878    0.0000 C   0  0
   -0.2975  -25.7136    0.0000 O   0  0
   -0.5499  -24.9280    0.0000 C   0  0
   -1.3562  -24.7537    0.0000 C   0  0
    0.0044  -24.3167    0.0000 O   0  0
   -2.6848  -24.8916    0.0000 N   0  0
   -1.9717  -25.3064    0.0000 N   0  0
   -2.5105  -24.0851    0.0000 C   0  0
   -1.6910  -24.0023    0.0000 C   0  0
   -1.3544  -23.2524    0.0000 C   0  0
   -1.8366  -22.5847    0.0000 C   0  0
   -2.6589  -22.6718    0.0000 C   0  0
   -2.9916  -23.4218    0.0000 C   0  0
    1.5533  -25.9334    0.0000 H   0  0
  9 10  1  0
  4  2  1  0
 10 11  1  0
  2  3  1  0
 11 12  1  0
  3  1  1  0
 11 13  2  0
 12 17  2  0
  5  6  1  0
  6  7  1  0
 16 14  2  0
 14 15  1  0
 15 12  1  0
  7  8  1  0
  4  8  1  0
 16 17  1  0
  4  5  1  0
 17 18  1  0
 18 19  2  0
  1  5  1  0
 19 20  1  0
  2  9  1  1
 20 21  2  0
 21 16  1  0
  4 22  1  1
M  END