
  SciTegic01111613442D

 25 28  0  0  0  0            999 V2000
    2.0440    1.7885    0.0000 C   0  0  2  0  0  0
    2.0440    0.3467    0.0000 C   0  0  2  0  0  0
    0.8030   -0.3650    0.0000 C   0  0  1  0  0  0
   -0.4380    0.3285    0.0000 C   0  0  1  0  0  0
   -1.6790   -0.3832    0.0000 C   0  0
   -1.6790   -1.8250    0.0000 C   0  0
    0.8030    2.5185    0.0000 C   0  0
   -0.4562    1.7885    0.0000 C   0  0
    0.8212   -1.8067    0.0000 C   0  0
    4.5625    0.3285    0.0000 C   0  0
   -2.9565    0.3102    0.0000 C   0  0
    3.3032    2.5367    0.0000 C   0  0  2  0  0  0
   -0.4197   -2.5550    0.0000 C   0  0
   -2.9382   -2.5732    0.0000 C   0  0
    4.5625    1.8067    0.0000 C   0  0
   -4.1792   -1.8432    0.0000 C   0  0
   -4.1792   -0.4015    0.0000 C   0  0
    2.0413    2.9885    0.0000 C   0  0
    3.3371    1.3372    0.0000 O   0  0
   -5.2209   -2.4390    0.0000 O   0  0
    1.6715   -0.8608    0.0000 H   0  0
   -1.3064    0.8243    0.0000 H   0  0
    2.2979   -0.6205    0.0000 H   0  0
    4.5984    3.2544    0.0000 C   0  0
    5.6339    3.8610    0.0000 C   0  0
  2  1  1  0
  3  2  1  0
  4  8  1  0
  5  4  1  0
  6  5  2  0
  7  1  1  0
  8  7  1  0
  9  3  1  0
 10  2  1  0
 11  5  1  0
 12  1  1  0
 13  9  1  0
 14  6  1  0
 15 12  1  0
 16 17  1  0
 17 11  2  0
  1 18  1  1
 12 19  1  1
 20 16  1  0
  3 21  1  1
  4 22  1  6
  2 23  1  6
 10 15  1  0
  3  4  1  0
  6 13  1  0
 14 16  2  0
 12 24  1  0
 24 25  3  0
M  END