
  SciTegic09261414532D

 29 32  0  0  0  0            999 V2000
    6.8677   -3.9085    0.0000 N   0  0
    7.6890   -3.9085    0.0000 C   0  0
    7.9475   -3.1277    0.0000 C   0  0
    7.2804   -2.6414    0.0000 S   0  0
    6.6175   -3.1277    0.0000 C   0  0
    5.8361   -2.8755    0.0000 S   0  0
    8.1727   -4.5743    0.0000 O   0  0
    8.7292   -2.8762    0.0000 C   0  0
    9.8037   -2.0967    0.0000 N   0  0
    8.9824   -2.0957    0.0000 C   0  0
    8.4987   -1.4298    0.0000 O   0  0
   10.0551   -2.8784    0.0000 C   0  0
    9.3879   -3.3559    0.0000 C   0  0
    9.4707   -4.1711    0.0000 C   0  0
   10.2200   -4.5098    0.0000 C   0  0
   10.8875   -4.0232    0.0000 C   0  0
   10.8014   -3.2097    0.0000 C   0  0
   10.3102   -5.3307    0.0000 N   0  3
   11.0563   -5.6640    0.0000 O   0  0
    9.6444   -5.8102    0.0000 O   0  5
    6.3865   -4.5731    0.0000 N   0  0
    5.5698   -4.4867    0.0000 C   0  0
    5.0844   -5.1472    0.0000 C   0  0
    5.2342   -3.7356    0.0000 O   0  0
    4.2674   -5.0582    0.0000 C   0  0
    3.7864   -5.7220    0.0000 C   0  0
    4.1178   -6.4741    0.0000 C   0  0
    4.9390   -6.5584    0.0000 N   0  0
    5.4205   -5.8936    0.0000 C   0  0
  1  2  1  0
  2  3  1  0
  3  4  1  0
  4  5  1  0
  5  1  1  0
  5  6  2  0
  2  7  2  0
  3  8  2  0
  8 13  1  0
 12  9  1  0
  9 10  1  0
 10  8  1  0
 10 11  2  0
 12 13  2  0
 13 14  1  0
 14 15  2  0
 15 16  1  0
 16 17  2  0
 17 12  1  0
 18 19  2  0
 18 20  1  0
 15 18  1  0
  1 21  1  0
 21 22  1  0
 22 23  1  0
 22 24  2  0
 23 25  2  0
 25 26  1  0
 26 27  2  0
 27 28  1  0
 28 29  2  0
 29 23  1  0
M  CHG  2  18   1  20  -1
M  END