
  SciTegic11201309402D

101110  0  0  0  0            999 V2000
   -2.4702  -24.9002    0.0000 C   0  0
   -2.4237  -26.5543    0.0000 O   0  0
    1.3425  -22.7831    0.0000 N   0  0
    0.5194  -22.7960    0.0000 C   0  0
    0.1190  -23.5174    0.0000 N   0  0
    0.0950  -22.0886    0.0000 S   0  0
   -0.7058  -23.5313    0.0000 C   0  0
   -1.1246  -22.8233    0.0000 C   0  0
   -1.9487  -22.8368    0.0000 C   0  0
   -1.0983  -24.2514    0.0000 C   0  0
   -1.9210  -24.2684    0.0000 C   0  0
   -2.3516  -23.5543    0.0000 C   0  0
   -3.1639  -23.7432    0.0000 C   0  0
   -3.2352  -24.5741    0.0000 O   0  0
   -3.7874  -23.2029    0.0000 O   0  0
   -1.7408  -25.2889    0.0000 C   0  0
   -1.7215  -26.1183    0.0000 C   0  0
   -0.9948  -26.5145    0.0000 C   0  0
   -0.2869  -26.0825    0.0000 C   0  0
   -0.3103  -25.2500    0.0000 C   0  0
   -1.0375  -24.8576    0.0000 C   0  0
   -3.1516  -26.1592    0.0000 C   0  0
   -3.1730  -25.3370    0.0000 C   0  0
   -3.8945  -24.9462    0.0000 C   0  0
   -4.5952  -25.3765    0.0000 C   0  0
   -4.5697  -26.2016    0.0000 C   0  0
   -3.8477  -26.5887    0.0000 C   0  0
    0.4381  -26.4761    0.0000 O   0  0
   -5.2710  -26.6362    0.0000 O   0  0
    6.4535  -22.6240    0.0000 C   0  0  2  0  0  0
    6.7200  -21.8477    0.0000 C   0  0
    6.0619  -21.3502    0.0000 C   0  0
    5.3853  -21.8224    0.0000 C   0  0
    5.6243  -22.6116    0.0000 N   0  0
    4.9265  -23.0518    0.0000 C   0  0
    4.1964  -22.6676    0.0000 C   0  0
    4.9588  -23.8761    0.0000 O   0  0
    3.4986  -23.1077    0.0000 C   0  0
    2.7686  -22.7235    0.0000 C   0  0
    2.0708  -23.1637    0.0000 C   0  0
   21.3106  -25.3271    0.0000 C   0  0
   22.0575  -24.9730    0.0000 C   0  0
   22.7339  -25.4454    0.0000 C   0  0
   22.6648  -26.2677    0.0000 O   0  0
   23.4830  -25.0961    0.0000 O   0  0
   20.6102  -24.8911    0.0000 C   0  0  2  0  0  0
   19.2071  -24.0552    0.0000 C   0  0
   19.9245  -23.6478    0.0000 C   0  0
   20.6359  -24.0655    0.0000 N   0  0
   19.9304  -22.8228    0.0000 O   0  0
   19.8817  -25.2784    0.0000 C   0  0
   19.8529  -26.1029    0.0000 N   0  0
   19.1821  -24.8412    0.0000 O   0  0
   15.8930  -27.2536    0.0000 C   0  0
   10.5784  -24.0260    0.0000 C   0  0
   11.4034  -24.0256    0.0000 N   0  0
   10.1663  -24.7406    0.0000 O   0  0
   11.8163  -24.7399    0.0000 C   0  0  2  0  0  0
   12.6413  -24.7395    0.0000 C   0  0
   11.4041  -25.4545    0.0000 C   0  0  1  0  0  0
   10.5791  -25.4549    0.0000 C   0  0
   11.8170  -26.1688    0.0000 O   0  0
   13.0541  -25.4537    0.0000 N   0  0
   13.0534  -24.0248    0.0000 O   0  0
    9.3457  -23.3112    0.0000 N   0  0
   10.1660  -23.3119    0.0000 C   0  0  1  0  0  0
   10.4201  -22.5318    0.0000 C   0  0
    9.7566  -22.0491    0.0000 C   0  0
    9.0926  -22.5310    0.0000 C   0  0
   13.8791  -25.4533    0.0000 C   0  0  2  0  0  0
   14.2920  -26.1676    0.0000 C   0  0
   14.2913  -24.7387    0.0000 C   0  0
   13.8798  -26.8823    0.0000 O   0  0
   15.1145  -26.1671    0.0000 N   0  0
   15.1109  -26.9909    0.0000 C   0  0
   16.3845  -26.5910    0.0000 C   0  0
   15.9065  -25.9172    0.0000 C   0  0  1  0  0  0
   16.2923  -25.1880    0.0000 C   0  0
   17.1160  -25.1577    0.0000 N   0  0
   15.8537  -24.4893    0.0000 O   0  0
   17.3990  -25.9319    0.0000 C   0  0
   18.2235  -25.9042    0.0000 C   0  0
   18.4520  -25.1114    0.0000 C   0  0
   17.7680  -24.6486    0.0000 C   0  0  1  0  0  0
   17.7538  -23.8238    0.0000 C   0  0
   18.5418  -23.5674    0.0000 N   0  0
   17.0323  -23.4236    0.0000 O   0  0
   10.8163  -24.7404    0.0000 H   0  0
    8.9392  -24.0291    0.0000 C   0  0
    8.1143  -24.0361    0.0000 C   0  0
    9.3578  -24.7401    0.0000 O   0  0
    7.6957  -23.3251    0.0000 N   0  0
    6.8708  -23.3321    0.0000 C   0  0
    6.4643  -24.0500    0.0000 O   0  0
   18.5375  -22.7417    0.0000 C   0  0
   13.7584  -20.7078    0.0000 C   0  0
    7.6875  -22.5000    0.0000 C   0  0
   11.8228  -20.7054    0.0000 C   0  0
   18.6472  -24.1722    0.0000 H   0  0
   16.9044  -25.8521    0.0000 H   0  0
   11.1606  -23.2077    0.0000 H   0  0
 47 48  1  0
 11 10  2  0
 48 49  1  0
 22 23  2  0
 48 50  2  0
 46 49  1  1
 10  7  1  0
 46 51  1  0
 23 24  1  0
 51 52  1  0
 11 12  1  0
 51 53  2  0
 24 25  2  0
  1 16  1  0
 66 55  1  0
 25 26  1  0
 55 56  1  0
  4  5  1  0
 55 57  2  0
 26 27  2  0
 56 58  1  0
 27 22  1  0
 58 59  1  0
 22  2  1  0
 58 60  1  0
 19 28  1  0
 60 61  1  6
  4  6  2  0
 60 62  1  0
 26 29  1  0
 59 63  1  0
 12 13  1  0
 59 64  2  0
 65 66  1  0
 30 31  1  0
 13 14  1  0
 14  1  1  0
  1 11  1  0
  2 17  1  0
 66 67  1  0
 67 68  1  0
 68 69  1  0
 69 65  1  0
 31 32  1  0
 63 70  1  0
 32 33  1  0
 70 71  1  0
 33 34  1  0
 70 72  1  1
 34 30  1  0
 71 73  2  0
 13 15  2  0
 71 74  1  0
 74 75  1  0
 34 35  1  0
  5  7  1  0
 35 36  1  0
 75 54  1  0
 54 76  1  0
 76 77  1  0
 77 74  1  0
 77 78  1  0
 35 37  2  0
 78 79  1  0
 16 17  2  0
 78 80  2  0
 79 81  1  0
 36 38  1  0
  7  8  2  0
 38 39  1  0
 17 18  1  0
 81 82  1  0
 82 83  1  0
 83 84  1  0
 84 79  1  0
 39 40  1  0
 84 85  1  0
 40  3  1  0
 85 86  1  0
  1 23  1  0
 85 87  2  0
 18 19  2  0
 58 88  1  1
 41 42  1  0
 65 89  1  0
  8  9  1  0
 89 90  1  0
 42 43  1  0
 89 91  2  0
 19 20  1  0
 90 92  1  0
  9 12  2  0
 92 93  1  0
 43 44  1  0
 93 94  2  0
 86 47  1  0
 43 45  2  0
 86 95  1  0
 20 21  2  0
 95 96  1  0
 46 41  1  0
 30 93  1  1
 21 16  1  0
 92 97  1  0
  3  4  1  0
 97 98  1  0
 98 96  2  0
 84 99  1  1
 77100  1  1
 66101  1  6
M  END