
          11280714492D 1   1.00000     0.00000     0

 16 16  0     0  0            999 V2000
    0.6042   -1.7917    0.0000 C   0  0  3  0  0  0           0  0  0
    1.2000   -1.7917    0.0000 C   0  0  0  0  0  0           0  0  0
    0.9000   -1.2667    0.0000 C   0  0  0  0  0  0           0  0  0
    3.0125   -3.1625    0.0000 N   0  0  0  0  0  0           0  0  0
    3.5292   -2.8625    0.0000 C   0  0  3  0  0  0           0  0  0
    0.0792   -2.0917    0.0000 C   0  0  3  0  0  0           0  0  0
    0.9375   -3.1625    0.0000 O   0  0  0  0  0  0           0  0  0
    0.0792   -2.6917    0.0000 N   0  0  0  0  0  0           0  0  0
    1.9667   -3.1625    0.0000 C   0  0  3  0  0  0           0  0  0
    2.4917   -2.8625    0.0000 C   0  0  0  0  0  0           0  0  0
    1.4542   -2.8625    0.0000 C   0  0  0  0  0  0           0  0  0
    1.9667   -3.7625    0.0000 O   0  0  0  0  0  0           0  0  0
    3.5292   -2.2625    0.0000 C   0  0  0  0  0  0           0  0  0
    4.0500   -2.5625    0.0000 C   0  0  0  0  0  0           0  0  0
    4.0500   -3.1625    0.0000 C   0  0  0  0  0  0           0  0  0
   -0.4375   -1.7917    0.0000 C   0  0  0  0  0  0           0  0  0
  2  1  1  0     0  0
  3  1  1  0     0  0
  4 10  1  0     0  0
  5  4  1  0     0  0
  6  1  1  0     0  0
  7  8  1  0     0  0
  8  6  1  0     0  0
  9 11  1  0     0  0
 10  9  1  0     0  0
 11  7  1  0     0  0
 12  9  1  0     0  0
 13  5  1  0     0  0
 14  5  1  0     0  0
 15  5  1  0     0  0
 16  6  1  0     0  0
  2  3  1  0     0  0
M  END