
          11280715122D 1   1.00000     0.00000     0

 32 35  0     0  0            999 V2000
    7.8750   -3.7042    0.0000 C   0  0  0  0  0  0           0  0  0
    7.1625   -3.2917    0.0000 C   0  0  0  0  0  0           0  0  0
    3.1167   -3.8042    0.0000 N   0  0  3  0  0  0           0  0  0
    7.8750   -4.5292    0.0000 C   0  0  0  0  0  0           0  0  0
    2.4000   -3.3917    0.0000 C   0  0  0  0  0  0           0  0  0
    4.4792   -4.7292    0.0000 N   0  0  3  0  0  0           0  0  0
    7.1625   -2.4667    0.0000 N   0  0  3  0  0  0           0  0  0
    3.8167   -0.9042    0.0000 C   0  0  3  0  0  0           0  0  0
    8.5875   -4.9417    0.0000 N   0  0  0  0  0  0           0  0  0
    4.6375   -0.9000    0.0000 C   0  0  0  0  0  0           0  0  0
    4.2167   -0.1792    0.0000 C   0  0  0  0  0  0           0  0  0
    6.4417   -3.7042    0.0000 O   0  0  0  0  0  0           0  0  0
    2.4000   -2.5667    0.0000 C   0  0  0  0  0  0           0  0  0
    3.1125   -2.1500    0.0000 O   0  0  0  0  0  0           0  0  0
    3.8542   -3.4417    0.0000 C   0  0  0  0  0  0           0  0  0
    3.0542   -4.6292    0.0000 C   0  0  0  0  0  0           0  0  0
    7.1625   -4.9417    0.0000 N   0  0  0  0  0  0           0  0  0
    4.5375   -3.9042    0.0000 C   0  0  0  0  0  0           0  0  0
    3.7375   -5.0875    0.0000 C   0  0  0  0  0  0           0  0  0
    3.1042   -1.3250    0.0000 C   0  0  0  0  0  0           0  0  0
    8.5875   -3.2875    0.0000 C   0  0  0  0  0  0           0  0  0
    5.1542   -5.1917    0.0000 C   0  0  0  0  0  0           0  0  0
    5.8667   -4.7792    0.0000 C   0  0  0  0  0  0           0  0  0
    1.6792   -3.8042    0.0000 C   0  0  0  0  0  0           0  0  0
    9.3042   -4.5292    0.0000 C   0  0  0  0  0  0           0  0  0
    6.4500   -5.3625    0.0000 C   0  0  0  0  0  0           0  0  0
    6.4417   -2.0542    0.0000 C   0  0  0  0  0  0           0  0  0
    7.8750   -2.0542    0.0000 C   0  0  0  0  0  0           0  0  0
    1.6792   -2.1542    0.0000 C   0  0  0  0  0  0           0  0  0
    9.3042   -3.7000    0.0000 C   0  0  0  0  0  0           0  0  0
    0.9667   -3.3917    0.0000 C   0  0  0  0  0  0           0  0  0
    0.9667   -2.5667    0.0000 C   0  0  0  0  0  0           0  0  0
  2  1  1  0     0  0
  3 16  1  0     0  0
  4  1  2  0     0  0
  5  3  1  0     0  0
  6 22  1  0     0  0
  7  2  1  0     0  0
  8 20  1  0     0  0
  9  4  1  0     0  0
 10  8  1  0     0  0
 11  8  1  0     0  0
 12  2  2  0     0  0
 13  5  1  0     0  0
 14 13  1  0     0  0
 15 18  1  0     0  0
 16 19  1  0     0  0
 17  4  1  0     0  0
 18  6  1  0     0  0
 19  6  1  0     0  0
 20 14  1  0     0  0
 21  1  1  0     0  0
 22 23  1  0     0  0
 23 26  1  0     0  0
 24  5  2  0     0  0
 25 30  1  0     0  0
 26 17  1  0     0  0
 27  7  1  0     0  0
 28  7  1  0     0  0
 29 13  2  0     0  0
 30 21  2  0     0  0
 31 24  1  0     0  0
 32 31  2  0     0  0
 25  9  2  0     0  0
  3 15  1  0     0  0
 32 29  1  0     0  0
 10 11  1  0     0  0
M  END