
  SciTegic12171512562D

 50 52  0  0  0  0            999 V2000
   35.5256  -24.3484    0.0000 N   0  0
   36.2401  -24.7609    0.0000 C   0  0  2  0  0  0
   36.9546  -24.3484    0.0000 C   0  0
   36.2401  -25.5859    0.0000 C   0  0
   37.6690  -24.7609    0.0000 N   0  0
   36.9546  -23.5234    0.0000 O   0  0
   38.3835  -24.3484    0.0000 C   0  0  2  0  0  0
   39.0980  -24.7609    0.0000 C   0  0
   38.3835  -23.5234    0.0000 C   0  0
   39.0980  -25.5859    0.0000 O   0  0
   39.8124  -24.3484    0.0000 N   0  0
   40.5269  -24.7609    0.0000 C   0  0  2  0  0  0
   41.2414  -24.3484    0.0000 C   0  0
   40.5269  -25.5859    0.0000 C   0  0
   41.9559  -24.7609    0.0000 N   0  0
   41.2414  -23.5234    0.0000 O   0  0
   41.2414  -25.9984    0.0000 C   0  0
   41.2414  -26.8234    0.0000 C   0  0
   41.9559  -27.2359    0.0000 C   0  0
   41.9559  -28.0609    0.0000 N   0  3
   42.6703  -28.4734    0.0000 C   0  0
   41.2414  -28.4734    0.0000 C   0  0
   41.9491  -28.8818    0.0000 C   0  0
   42.6703  -24.3484    0.0000 C   0  0
   43.3848  -24.7609    0.0000 C   0  0
   44.0993  -24.3484    0.0000 N   0  0
   34.8111  -24.7609    0.0000 C   0  0
   34.0967  -24.3484    0.0000 C   0  0  2  0  0  0
   34.8111  -25.5859    0.0000 O   0  0
   39.0499  -23.0392    0.0000 C   0  0
   38.7950  -22.2546    0.0000 C   0  0
   37.9699  -22.2546    0.0000 C   0  0
   37.7151  -23.0392    0.0000 C   0  0
   34.0967  -23.5234    0.0000 C   0  0
   34.8111  -23.1109    0.0000 C   0  0
   33.3822  -24.7609    0.0000 N   0  0
   32.6677  -24.3484    0.0000 C   0  0
   31.9533  -24.7609    0.0000 C   0  0
   32.6677  -23.5234    0.0000 O   0  0
   31.2392  -24.3455    0.0000 C   0  0
   30.5253  -24.7573    0.0000 C   0  0
   30.5248  -25.5832    0.0000 C   0  0
   31.2443  -25.9955    0.0000 C   0  0
   31.9554  -25.5813    0.0000 C   0  0
   29.8109  -25.9966    0.0000 Br  0  0
   35.5254  -23.5260    0.0000 C   0  0
   36.2394  -23.1142    0.0000 C   0  0
   36.2398  -22.2883    0.0000 C   0  0
   35.5203  -21.8760    0.0000 C   0  0
   34.8093  -22.2901    0.0000 C   0  0
  1  2  1  0
  2  3  1  0
  2  4  1  6
  3  5  1  0
  3  6  2  0
  5  7  1  0
  7  8  1  0
  7  9  1  1
  8 10  2  0
  8 11  1  0
 11 12  1  0
 12 13  1  0
 12 14  1  6
 13 15  1  0
 13 16  2  0
 14 17  1  0
 17 18  1  0
 18 19  1  0
 19 20  1  0
 20 21  1  0
 20 22  1  0
 20 23  1  0
 15 24  1  0
 24 25  1  0
 25 26  1  0
  1 27  1  0
 27 28  1  0
 27 29  2  0
  9 30  1  0
 30 31  1  0
 31 32  1  0
 32 33  1  0
 33  9  1  0
 28 34  1  1
 34 35  1  0
 28 36  1  0
 36 37  1  0
 37 38  1  0
 37 39  2  0
 38 40  2  0
 40 41  1  0
 41 42  2  0
 42 43  1  0
 43 44  2  0
 44 38  1  0
 42 45  1  0
 35 46  2  0
 46 47  1  0
 47 48  2  0
 48 49  1  0
 49 50  2  0
 50 35  1  0
M  CHG  1  20   1
M  END