
  SciTegic06051313522D

 27 29  0  0  0  0            999 V2000
   12.0955  -22.2787    0.0000 C   0  0
   12.0943  -23.0983    0.0000 C   0  0
   12.8024  -23.5072    0.0000 C   0  0
   13.5121  -23.0978    0.0000 C   0  0
   13.5092  -22.2751    0.0000 N   0  0
   12.8006  -21.8699    0.0000 C   0  0
   12.7982  -21.0527    0.0000 O   0  0
   11.3905  -21.8669    0.0000 C   0  0
   12.8022  -24.3244    0.0000 S   0  0
   13.5098  -24.7332    0.0000 C   0  0
   13.5055  -25.5486    0.0000 C   0  0
   14.2122  -25.9573    0.0000 C   0  0
   14.9210  -25.5488    0.0000 C   0  0
   14.9186  -24.7274    0.0000 C   0  0
   14.2112  -24.3224    0.0000 C   0  0
   15.6292  -25.9567    0.0000 C   0  0
   15.6301  -26.7738    0.0000 C   0  0
   16.3364  -25.5473    0.0000 C   0  0
   11.3947  -21.0497    0.0000 O   0  0
   10.6807  -22.2718    0.0000 N   0  0
   10.6765  -23.0890    0.0000 C   0  0
    9.9667  -23.4940    0.0000 C   0  0
    9.2628  -23.0802    0.0000 C   0  0
    8.5535  -23.4844    0.0000 C   0  0
    8.5489  -24.3025    0.0000 C   0  0
    9.2594  -24.7146    0.0000 C   0  0
    9.9658  -24.3080    0.0000 C   0  0
  1  2  2  0
  2  3  1  0
  3  4  2  0
  4  5  1  0
  5  6  2  0
  6  1  1  0
  6  7  1  0
  1  8  1  0
  3  9  1  0
  9 10  1  0
 10 11  2  0
 11 12  1  0
 12 13  2  0
 13 14  1  0
 14 15  2  0
 15 10  1  0
 13 16  1  0
 16 17  1  0
 16 18  1  0
  8 19  2  0
  8 20  1  0
 20 21  1  0
 21 22  1  0
 22 23  2  0
 23 24  1  0
 24 25  2  0
 25 26  1  0
 26 27  2  0
 27 22  1  0
M  END