
          05080814042D 1   1.00000     0.00000     0

 36 40  0     1  0            999 V2000
   -5.1223  -14.2518    0.0000 C   0  0  0  0  0  0           0  0  0
   -5.1234  -15.0777    0.0000 C   0  0  0  0  0  0           0  0  0
   -4.4097  -15.4900    0.0000 C   0  0  0  0  0  0           0  0  0
   -4.4115  -13.8396    0.0000 C   0  0  0  0  0  0           0  0  0
   -3.6974  -14.2481    0.0000 C   0  0  0  0  0  0           0  0  0
   -3.6939  -15.0798    0.0000 C   0  0  0  0  0  0           0  0  0
   -2.9759  -15.4905    0.0000 C   0  0  0  0  0  0           0  0  0
   -2.9827  -13.8270    0.0000 C   0  0  0  0  0  0           0  0  0
   -2.2601  -14.2422    0.0000 C   0  0  1  0  0  0           0  0  0
   -2.2590  -15.0756    0.0000 C   0  0  1  0  0  0           0  0  0
   -1.5408  -15.4891    0.0000 N   0  0  3  0  0  0           0  0  0
   -0.8190  -15.0737    0.0000 C   0  0  0  0  0  0           0  0  0
   -0.8201  -14.2404    0.0000 C   0  0  2  0  0  0           0  0  0
   -1.5429  -13.8223    0.0000 C   0  0  0  0  0  0           0  0  0
   -1.5409  -16.3127    0.0000 C   0  0  0  0  0  0           0  0  0
   -0.1068  -13.8284    0.0000 C   0  0  0  0  0  0           0  0  0
    0.6066  -14.2400    0.0000 N   0  0  3  0  0  0           0  0  0
   -0.1070  -13.0047    0.0000 O   0  0  0  0  0  0           0  0  0
    0.6011  -15.0684    0.0000 C   0  0  0  0  0  0           0  0  0
    1.3104  -15.4800    0.0000 C   0  0  0  0  0  0           0  0  0
    2.0260  -15.0714    0.0000 N   0  0  3  0  0  0           0  0  0
    2.0278  -14.2468    0.0000 C   0  0  0  0  0  0           0  0  0
    1.3140  -13.8307    0.0000 C   0  0  0  0  0  0           0  0  0
   -2.2671  -15.8991    0.0000 H   0  0  0  0  0  0           0  0  0
   -2.2671  -13.4156    0.0000 H   0  0  0  0  0  0           0  0  0
    2.7379  -15.4858    0.0000 C   0  0  0  0  0  0           0  0  0
   -4.4142  -13.0155    0.0000 O   0  0  0  0  0  0           0  0  0
   -5.1287  -12.6058    0.0000 C   0  0  0  0  0  0           0  0  0
    2.7315  -16.3078    0.0000 C   0  0  0  0  0  0           0  0  0
    3.4426  -16.7220    0.0000 C   0  0  0  0  0  0           0  0  0
    4.1583  -16.3127    0.0000 C   0  0  0  0  0  0           0  0  0
    4.1585  -15.4848    0.0000 C   0  0  0  0  0  0           0  0  0
    3.4470  -15.0742    0.0000 C   0  0  0  0  0  0           0  0  0
    4.8761  -16.7272    0.0000 N   0  3  0  0  0  0           0  0  0
    5.5902  -16.3170    0.0000 O   0  0  0  0  0  0           0  0  0
    4.8743  -17.5509    0.0000 O   0  5  0  0  0  0           0  0  0
 16 17  1  0     0  0
  7 10  1  0     0  0
 16 18  2  0     0  0
 17 19  1  0     0  0
  9  8  1  0     0  0
  9 10  1  0     0  0
  5  4  2  0     0  0
  4  1  1  0     0  0
  5  6  1  0     0  0
 17 23  1  0     0  0
 19 20  1  0     0  0
 20 21  1  0     0  0
 21 22  1  0     0  0
 22 23  1  0     0  0
 10 24  1  6     0  0
  2  3  1  0     0  0
  9 25  1  1     0  0
  3  6  2  0     0  0
 21 26  1  0     0  0
  9 14  1  0     0  0
 10 11  1  0     0  0
 27 28  1  0     0  0
  4 27  1  0     0  0
 11 12  1  0     0  0
 26 29  2  0     0  0
 12 13  1  0     0  0
 29 30  1  0     0  0
 13 14  1  0     0  0
 30 31  2  0     0  0
  1  2  2  0     0  0
 31 32  1  0     0  0
 11 15  1  0     0  0
 32 33  2  0     0  0
 33 26  1  0     0  0
  5  8  1  0     0  0
 13 16  1  6     0  0
  6  7  1  0     0  0
 34 35  2  0     0  0
 34 36  1  0     0  0
 31 34  1  0     0  0
M  CHG  2  34   1  36  -1
M  END