
          11280714572D 1   1.00000     0.00000     0

 25 27  0     0  0            999 V2000
    4.3042   -5.5292    0.0000 S   0  0  3  0  0  0           0  0  0
    7.8750   -6.7292    0.0000 N   0  0  3  0  0  0           0  0  0
    5.0167   -5.1125    0.0000 N   0  0  0  0  0  0           0  0  0
    7.1542   -6.3250    0.0000 C   0  0  0  0  0  0           0  0  0
    7.1542   -5.5000    0.0000 C   0  0  0  0  0  0           0  0  0
    8.5875   -6.3167    0.0000 C   0  0  0  0  0  0           0  0  0
    8.5792   -5.4917    0.0000 C   0  0  0  0  0  0           0  0  0
    3.5875   -5.1167    0.0000 C   0  0  0  0  0  0           0  0  0
    3.7167   -6.1125    0.0000 O   0  0  0  0  0  0           0  0  0
    4.7125   -6.2417    0.0000 O   0  0  0  0  0  0           0  0  0
    8.6000   -7.9667    0.0000 C   0  0  0  0  0  0           0  0  0
    8.6042   -8.7917    0.0000 C   0  0  0  0  0  0           0  0  0
    6.4500   -6.7417    0.0000 C   0  0  0  0  0  0           0  0  0
    7.8792   -7.5542    0.0000 C   0  0  0  0  0  0           0  0  0
    5.7292   -5.5167    0.0000 C   0  0  0  0  0  0           0  0  0
    6.4375   -5.0917    0.0000 C   0  0  0  0  0  0           0  0  0
    7.8917   -9.2042    0.0000 O   0  0  0  0  0  0           0  0  0
    2.8667   -5.5292    0.0000 C   0  0  0  0  0  0           0  0  0
    3.5875   -4.2875    0.0000 C   0  0  0  0  0  0           0  0  0
    5.7292   -6.3417    0.0000 C   0  0  0  0  0  0           0  0  0
    2.1542   -4.2875    0.0000 C   0  0  0  0  0  0           0  0  0
    9.3167   -9.2000    0.0000 O   0  0  0  0  0  0           0  0  0
    2.1542   -5.1167    0.0000 C   0  0  0  0  0  0           0  0  0
    2.8667   -3.8750    0.0000 C   0  0  0  0  0  0           0  0  0
    1.4417   -3.8792    0.0000 F   0  0  0  0  0  0           0  0  0
  2  4  1  0     0  0
  3  1  1  0     0  0
  4 13  2  0     0  0
  5 16  2  0     0  0
  6  7  2  0     0  0
  7  5  1  0     0  0
  8  1  1  0     0  0
  9  1  2  0     0  0
 10  1  2  0     0  0
 11 14  1  0     0  0
 12 11  1  0     0  0
 13 20  1  0     0  0
 14  2  1  0     0  0
 15  3  1  0     0  0
 16 15  1  0     0  0
 17 12  2  0     0  0
 18  8  2  0     0  0
 19  8  1  0     0  0
 20 15  2  0     0  0
 21 24  1  0     0  0
 22 12  1  0     0  0
 23 18  1  0     0  0
 24 19  2  0     0  0
 25 21  1  0     0  0
 21 23  2  0     0  0
  5  4  1  0     0  0
  2  6  1  0     0  0
M  END