
  SciTegic07291412072D

 52 54  0  0  0  0            999 V2000
    9.2404   -8.3739    0.0000 P   0  0
    4.4924   -1.7802    0.0000 P   0  0
    8.3421   -4.8918    0.0000 C   0  0
    6.8022   -5.4845    0.0000 C   0  0
    9.1120   -4.5955    0.0000 N   0  0
    6.9305   -4.6696    0.0000 N   0  0
    9.7537   -5.1141    0.0000 C   0  0  1  0  0  0
    4.6207   -5.5586    0.0000 C   0  0
   10.5236   -4.8178    0.0000 C   0  0
    7.7005   -4.3732    0.0000 C   0  0  1  0  0  0
    6.0323   -5.7809    0.0000 C   0  0  1  0  0  0
    5.3907   -5.2623    0.0000 N   0  0
    9.6253   -5.9291    0.0000 C   0  0
   11.1652   -5.3364    0.0000 C   0  0
    5.2624   -1.4838    0.0000 O   0  0
    8.4704   -8.6703    0.0000 O   0  0
   10.0103   -8.0776    0.0000 O   0  0
    3.7225   -2.0765    0.0000 O   0  0
    7.4438   -6.0032    0.0000 O   0  0
    8.2138   -5.7068    0.0000 O   0  0
    7.8288   -3.5583    0.0000 C   0  0
    5.9040   -6.5959    0.0000 C   0  0
    4.4924   -6.3736    0.0000 O   0  0
   10.2669   -6.4477    0.0000 O   0  0
    3.9791   -5.0400    0.0000 O   0  0
   11.9351   -5.0400    0.0000 O   0  0
    8.9440   -7.6040    0.0000 O   0  0
    9.5367   -9.1439    0.0000 O   0  0
    4.1961   -1.0103    0.0000 O   0  0
    4.7888   -2.5501    0.0000 O   0  0
    8.8554   -6.2254    0.0000 N   0  0
   11.0369   -6.1513    0.0000 N   0  0
    7.8288   -8.1517    0.0000 C   0  0
    5.9040   -2.0024    0.0000 C   0  0
    7.1872   -3.0397    0.0000 C   0  0
    6.5456   -7.1145    0.0000 C   0  0
    2.6959   -4.0028    0.0000 C   0  0
    2.0543   -3.4842    0.0000 C   0  0
    3.2092   -5.3364    0.0000 C   0  0
    2.1826   -2.6692    0.0000 N   0  0
    2.5676   -4.8178    0.0000 C   0  0
    7.3155   -6.8181    0.0000 C   0  0
    6.4173   -3.3360    0.0000 C   0  0
    6.4173   -7.9294    0.0000 C   0  0
    7.3155   -2.2247    0.0000 C   0  0
    5.7756   -2.8174    0.0000 C   0  0
    7.0589   -8.4480    0.0000 C   0  0
    6.6739   -1.7061    0.0000 C   0  0
    7.9571   -7.3367    0.0000 C   0  0
    1.1560   -4.5955    0.0000 C   0  0
    1.2843   -3.7805    0.0000 C   0  0
    1.7976   -5.1141    0.0000 C   0  0
  2 15  1  0
  3 10  1  0
  4 11  1  0
  5  3  1  0
  6  4  1  0
  7  5  1  0
  8 12  1  0
  7  9  1  1
 10  6  1  0
 11 22  1  6
 12 11  1  0
 13  7  1  0
 14  9  1  0
 15 34  1  0
 16  1  1  0
 17  1  2  0
 18  2  2  0
 19  4  2  0
 20  3  2  0
 10 21  1  1
 22 36  1  0
 23  8  2  0
 24 13  2  0
 25  8  1  0
 26 14  2  0
 27  1  1  0
 28  1  1  0
 29  2  1  0
 30  2  1  0
 31 13  1  0
 32 14  1  0
 33 16  1  0
 34 48  1  0
 35 21  1  0
 36 42  2  0
 37 41  2  0
 38 37  1  0
 39 25  1  0
 40 38  1  0
 41 39  1  0
 42 49  1  0
 43 35  2  0
 44 47  2  0
 45 35  1  0
 46 43  1  0
 47 33  1  0
 48 45  2  0
 49 33  2  0
 50 52  2  0
 51 50  1  0
 52 41  1  0
 36 44  1  0
 46 34  2  0
 38 51  2  0
M  END