


 29 31  0     0  0  0  0  0  0999 V2000
   -1.6050   -0.0770    0.0000 S   0  0  0  0  0  0  0  0  0  0  0  0
    1.7632    1.2345    0.0000 S   0  0  0  0  0  0  0  0  0  0  0  0
   -1.0304   -0.6557    0.0000 O   0  0  0  0  0  0  0  0  0  0  0  0
   -2.1837    0.5059    0.0000 O   0  0  0  0  0  0  0  0  0  0  0  0
    2.1795   -0.3435    0.0000 O   0  0  0  0  0  0  0  0  0  0  0  0
    2.9372    2.3919    0.0000 O   0  0  0  0  0  0  0  0  0  0  0  0
    3.9406    1.3802    0.0000 O   0  0  0  0  0  0  0  0  0  0  0  0
   -1.0179    0.5100    0.0000 N   0  0  0  0  0  0  0  0  0  0  0  0
   -0.2186    0.2935    0.0000 C   0  0  0  0  0  0  0  0  0  0  0  0
    0.0062   -0.5059    0.0000 C   0  0  0  0  0  0  0  0  0  0  0  0
   -2.1920   -0.6515    0.0000 C   0  0  0  0  0  0  0  0  0  0  0  0
    0.8056   -0.7182    0.0000 C   0  0  0  0  0  0  0  0  0  0  0  0
    1.3885   -0.1311    0.0000 C   0  0  0  0  0  0  0  0  0  0  0  0
    1.1761    0.6557    0.0000 C   0  0  0  0  0  0  0  0  0  0  0  0
    0.3685    0.8806    0.0000 C   0  0  0  0  0  0  0  0  0  0  0  0
   -2.9789   -0.4392    0.0000 C   0  0  0  0  0  0  0  0  0  0  0  0
   -1.9797   -1.4551    0.0000 C   0  0  0  0  0  0  0  0  0  0  0  0
   -0.5808   -1.0929    0.0000 C   0  0  0  0  0  0  0  0  0  0  0  0
    1.0179   -1.5176    0.0000 C   0  0  0  0  0  0  0  0  0  0  0  0
   -3.5659   -1.0262    0.0000 C   0  0  0  0  0  0  0  0  0  0  0  0
   -2.5667   -2.0421    0.0000 C   0  0  0  0  0  0  0  0  0  0  0  0
   -3.3536   -1.8173    0.0000 C   0  0  0  0  0  0  0  0  0  0  0  0
   -0.3685   -1.8798    0.0000 C   0  0  0  0  0  0  0  0  0  0  0  0
    0.4392   -2.1046    0.0000 C   0  0  0  0  0  0  0  0  0  0  0  0
   -3.1912    0.3560    0.0000 C   0  0  0  0  0  0  0  0  0  0  0  0
   -1.1803   -1.6674    0.0000 C   0  0  0  0  0  0  0  0  0  0  0  0
    2.5542    1.0179    0.0000 C   0  0  0  0  0  0  0  0  0  0  0  0
   -3.9406   -2.3919    0.0000 C   0  0  0  0  0  0  0  0  0  0  0  0
    3.1413    1.5925    0.0000 C   0  0  0  0  0  0  0  0  0  0  0  0
  1  3  2  0  0  0  0
  1  4  2  0  0  0  0
  1  8  1  0  0  0  0
  1 11  1  0  0  0  0
  2 14  1  0  0  0  0
  2 27  1  0  0  0  0
  5 13  1  0  0  0  0
  6 29  2  0  0  0  0
  7 29  1  0  0  0  0
  8  9  1  0  0  0  0
  9 10  2  0  0  0  0
  9 15  1  0  0  0  0
 10 12  1  0  0  0  0
 10 18  1  0  0  0  0
 11 16  2  0  0  0  0
 11 17  1  0  0  0  0
 12 13  2  0  0  0  0
 12 19  1  0  0  0  0
 13 14  1  0  0  0  0
 14 15  2  0  0  0  0
 16 20  1  0  0  0  0
 16 25  1  0  0  0  0
 17 21  2  0  0  0  0
 17 26  1  0  0  0  0
 18 23  2  0  0  0  0
 19 24  2  0  0  0  0
 20 22  2  0  0  0  0
 21 22  1  0  0  0  0
 22 28  1  0  0  0  0
 23 24  1  0  0  0  0
 27 29  1  0  0  0  0
M  END