
  SciTegic07101214422D

 34 36  0  0  0  0            999 V2000
   12.8700  -21.0849    0.0000 C   0  0
   13.9550  -21.8949    0.0000 C   0  0  2  0  0  0
   13.4303  -21.4625    0.0000 C   0  0
   12.4447  -21.4625    0.0000 C   0  0
   12.3048  -20.6381    0.0000 N   0  3  2  0  0  0
   13.8124  -21.0666    0.0000 C   0  0
   11.9166  -22.1825    0.0000 C   0  0
   12.5487  -21.8015    0.0000 C   0  0
   14.3691  -22.6085    0.0000 C   0  0
   15.1941  -22.6065    0.0000 C   0  0
   15.6083  -23.3200    0.0000 C   0  0
   15.4042  -21.8042    0.0000 C   0  0
   15.6142  -21.0018    0.0000 N   0  0
   15.9875  -22.3875    0.0000 C   0  0
   15.1962  -24.0321    0.0000 C   0  0
   15.6097  -24.7451    0.0000 C   0  0
   16.4356  -24.7437    0.0000 C   0  0
   16.8462  -24.0232    0.0000 C   0  0
   16.4304  -23.3131    0.0000 C   0  0
   16.5727  -22.9678    0.0000 C   0  0
   17.3654  -22.7493    0.0000 C   0  0
   17.5731  -21.9520    0.0000 C   0  0
   16.9818  -21.3733    0.0000 C   0  0
   16.1913  -21.5948    0.0000 C   0  0
   11.5042  -20.4208    0.0000 C   0  0
   12.7125  -19.9208    0.0000 C   0  0
   12.2952  -19.2092    0.0000 C   0  0
   12.7029  -18.4919    0.0000 C   0  0
   12.2856  -17.7802    0.0000 C   0  0
   12.6933  -17.0630    0.0000 C   0  0
   12.2760  -16.3513    0.0000 C   0  0
   12.6836  -15.6341    0.0000 C   0  0
   12.2663  -14.9224    0.0000 C   0  0
   13.3958  -19.9542    0.0000 Br  0  5
 15 16  1  0
  4  7  1  0
 16 17  2  0
  1  8  1  0
 17 18  1  0
  7  8  1  0
 18 19  2  0
 19 11  1  0
 14 20  2  0
  2  9  1  6
 20 21  1  0
 21 22  2  0
  9 10  1  0
 22 23  1  0
  2  3  1  0
 23 24  2  0
 24 14  1  0
 10 11  1  0
  5 25  1  0
  3  4  1  0
  5 26  1  1
 10 12  1  0
 26 27  1  0
  4  5  1  0
 27 28  1  0
 12 13  3  0
 28 29  1  0
  5  1  1  0
 29 30  1  0
 10 14  1  0
 30 31  1  0
  1  6  1  0
 31 32  1  0
 11 15  2  0
 32 33  1  0
  6  2  1  0
M  CHG  2   5   1  34  -1
M  END