
  SciTegic01161211242D

 29 32  0  0  0  0            999 V2000
   -2.8647  -25.8874    0.0000 N   0  0
   -3.6897  -25.0624    0.0000 C   0  0
   -3.6897  -25.8874    0.0000 C   0  0
   -2.8647  -25.0624    0.0000 C   0  0
   -2.2814  -24.4791    0.0000 O   0  0
   -4.2731  -26.4708    0.0000 O   0  0
   -3.6989  -24.2329    0.0000 C   0  0
   -2.9889  -23.8124    0.0000 C   0  0
   -4.5148  -25.0670    0.0000 C   0  0
   -4.9312  -24.3549    0.0000 C   0  0
   -2.4652  -26.6095    0.0000 C   0  0
   -2.8931  -27.3139    0.0000 C   0  0
   -2.4942  -28.0355    0.0000 C   0  0
   -1.6682  -28.0509    0.0000 C   0  0
   -1.2427  -27.3388    0.0000 C   0  0
   -1.6440  -26.6201    0.0000 C   0  0
   -1.2218  -25.9113    0.0000 C   0  0
   -0.3969  -25.9225    0.0000 S   0  0
    0.0253  -25.2137    0.0000 C   0  0
    0.8441  -25.1342    0.0000 O   0  0
   -0.3027  -24.4512    0.0000 N   0  0
    0.3177  -23.9075    0.0000 N   0  0
    1.0235  -24.3305    0.0000 C   0  0
    1.7393  -23.9203    0.0000 C   0  0
    2.4496  -24.3397    0.0000 C   0  0
    3.1648  -23.9302    0.0000 C   0  0
    3.1679  -23.1042    0.0000 C   0  0
    2.4498  -22.6895    0.0000 C   0  0
    1.7374  -23.1015    0.0000 C   0  0
  2  7  1  0
 14 15  1  0
  1  4  1  0
 15 16  2  0
 16 11  1  0
  7  8  1  0
 16 17  1  0
  4  2  1  0
 17 18  1  0
  2  9  1  0
 18 19  1  0
 19 20  1  0
  2  3  1  0
  9 10  1  0
 20 23  1  0
 22 21  1  0
 21 19  2  0
  4  5  2  0
  1 11  1  0
 22 23  2  0
 23 24  1  0
 11 12  2  0
 24 25  2  0
  3  6  2  0
 25 26  1  0
 12 13  1  0
 26 27  2  0
  3  1  1  0
 27 28  1  0
 13 14  2  0
 28 29  2  0
 29 24  1  0
M  END