
  -ISIS-  04291017112D

 38 41  0  0  0  0  0  0  0  0999 V2000
    8.1292  -10.3792    0.0000 C   0  0  0  0  0  0  0  0  0  0  0  0
    8.1250   -9.5542    0.0000 C   0  0  0  0  0  0  0  0  0  0  0  0
    5.2750  -10.3792    0.0000 C   0  0  0  0  0  0  0  0  0  0  0  0
    0.9958   -9.5792    0.0000 C   0  0  0  0  0  0  0  0  0  0  0  0
    0.2792   -9.1667    0.0000 N   0  0  0  0  0  0  0  0  0  0  0  0
   -0.4333  -10.4083    0.0000 N   0  0  0  0  0  0  0  0  0  0  0  0
    9.5500   -9.5500    0.0000 N   0  0  3  0  0  0  0  0  0  0  0  0
    0.9958  -10.4083    0.0000 C   0  0  0  0  0  0  0  0  0  0  0  0
    7.4167  -10.7917    0.0000 C   0  0  0  0  0  0  0  0  0  0  0  0
    0.2792  -10.8208    0.0000 C   0  0  0  0  0  0  0  0  0  0  0  0
    5.9875  -10.7917    0.0000 N   0  0  0  0  0  0  0  0  0  0  0  0
   10.9708  -10.3708    0.0000 N   0  0  3  0  0  0  0  0  0  0  0  0
    8.8375   -9.1417    0.0000 C   0  0  0  0  0  0  0  0  0  0  0  0
    4.5625  -10.7917    0.0000 N   0  0  0  0  0  0  0  0  0  0  0  0
   -0.4333   -9.5792    0.0000 C   0  0  0  0  0  0  0  0  0  0  0  0
    6.7000  -10.3792    0.0000 C   0  0  0  0  0  0  0  0  0  0  0  0
    5.2750   -9.5542    0.0000 O   0  0  0  0  0  0  0  0  0  0  0  0
    7.4083   -9.1458    0.0000 C   0  0  0  0  0  0  0  0  0  0  0  0
    1.7083   -9.1625    0.0000 O   0  0  0  0  0  0  0  0  0  0  0  0
    3.8542  -10.3875    0.0000 C   0  0  0  0  0  0  0  0  0  0  0  0
    0.2750  -11.6417    0.0000 N   0  0  0  0  0  0  0  0  0  0  0  0
   10.2542   -9.1333    0.0000 C   0  0  0  0  0  0  0  0  0  0  0  0
    9.5542  -10.3792    0.0000 C   0  0  0  0  0  0  0  0  0  0  0  0
   10.2583  -10.7792    0.0000 C   0  0  0  0  0  0  0  0  0  0  0  0
   10.9667   -9.5458    0.0000 C   0  0  0  0  0  0  0  0  0  0  0  0
    2.4250   -9.5708    0.0000 C   0  0  0  0  0  0  0  0  0  0  0  0
    6.7000   -9.5583    0.0000 C   0  0  0  0  0  0  0  0  0  0  0  0
    3.1375  -10.8042    0.0000 C   0  0  0  0  0  0  0  0  0  0  0  0
    3.8458   -9.5583    0.0000 C   0  0  0  0  0  0  0  0  0  0  0  0
    2.4250  -10.3958    0.0000 C   0  0  0  0  0  0  0  0  0  0  0  0
    3.1292   -9.1542    0.0000 C   0  0  0  0  0  0  0  0  0  0  0  0
   11.6833  -10.7792    0.0000 C   0  0  0  0  0  0  0  0  0  0  0  0
    0.9833  -12.0625    0.0000 C   0  0  0  0  0  0  0  0  0  0  0  0
   12.3958  -10.3667    0.0000 C   0  0  0  0  0  0  0  0  0  0  0  0
    8.8449  -10.7894    0.0000 C   0  0  3  0  0  0  0  0  0  0  0  0
    8.6250  -11.5833    0.0000 F   0  0  0  0  0  0  0  0  0  0  0  0
    9.2500  -11.5000    0.0000 F   0  0  0  0  0  0  0  0  0  0  0  0
    9.6375  -11.0000    0.0000 F   0  0  0  0  0  0  0  0  0  0  0  0
  5  4  2  0  0  0  0
  6 15  2  0  0  0  0
  7 13  1  0  0  0  0
  8  4  1  0  0  0  0
  9  1  1  0  0  0  0
 10  8  2  0  0  0  0
 11 16  1  0  0  0  0
 12 25  1  0  0  0  0
 13  2  1  0  0  0  0
 14  3  1  0  0  0  0
 15  5  1  0  0  0  0
 16  9  2  0  0  0  0
 17  3  2  0  0  0  0
 18  2  1  0  0  0  0
 19 26  1  0  0  0  0
 20 14  1  0  0  0  0
 21 10  1  0  0  0  0
 22  7  1  0  0  0  0
 23  7  1  0  0  0  0
 24 23  1  0  0  0  0
 25 22  1  0  0  0  0
 26 31  2  0  0  0  0
 27 18  2  0  0  0  0
 28 20  1  0  0  0  0
 29 20  2  0  0  0  0
 30 28  2  0  0  0  0
 31 29  1  0  0  0  0
 32 12  1  0  0  0  0
 33 21  1  0  0  0  0
 34 32  1  0  0  0  0
 16 27  1  0  0  0  0
 12 24  1  0  0  0  0
 30 26  1  0  0  0  0
 10  6  1  0  0  0  0
  1 35  1  0  0  0  0
  2  1  2  0  0  0  0
 35 36  1  0  0  0  0
  3 11  1  0  0  0  0
 35 37  1  0  0  0  0
  4 19  1  0  0  0  0
 35 38  1  0  0  0  0
M  END