
  SciTegic04201614442D

 39 43  0  0  0  0            999 V2000
   -2.6111    0.7486    0.0000 N   0  0
   -2.6111   -0.7486    0.0000 C   0  0
   -1.2964   -1.4973    0.0000 N   0  0
   -1.2964    1.4973    0.0000 C   0  0
    0.0000    0.7486    0.0000 C   0  0
    0.0000   -0.7486    0.0000 C   0  0
    1.2964   -1.4973    0.0000 N   0  0
    1.2964    1.4973    0.0000 C   0  0
    2.5929    0.7486    0.0000 C   0  0
    2.5929   -0.7486    0.0000 C   0  0
    1.2964   -2.9980    0.0000 C   0  0
   -0.0014   -3.7503    0.0000 C   0  0
    0.0011   -5.2503    0.0000 C   0  0
    1.3014   -5.9981    0.0000 C   0  0
    2.5992   -5.2460    0.0000 C   0  0
    2.5967   -3.7460    0.0000 C   0  0
    3.9017   -5.9916    0.0000 N   0  0
    5.1991   -5.2372    0.0000 C   0  0
    6.5017   -5.9828    0.0000 C   0  0
    5.1951   -4.0372    0.0000 O   0  0
    7.5390   -5.3796    0.0000 C   0  0
   -3.9091   -1.5019    0.0000 N   0  0
   -3.9067   -3.0027    0.0000 C   0  0
   -5.2030   -3.7575    0.0000 C   0  0
   -5.1976   -5.2575    0.0000 C   0  0
   -3.8958   -6.0028    0.0000 C   0  0
   -2.5995   -5.2481    0.0000 C   0  0
   -2.6050   -3.7481    0.0000 C   0  0
   -3.8904   -7.5035    0.0000 N   0  0
   -5.1855   -8.2604    0.0000 C   0  0
   -5.1777   -9.7604    0.0000 C   0  0
   -3.8747  -10.5036    0.0000 N   0  0
   -2.5796   -9.7469    0.0000 C   0  0
   -2.5874   -8.2469    0.0000 C   0  0
   -6.5071   -3.0146    0.0000 O   0  0
   -7.5432   -3.6199    0.0000 C   0  0
    3.6321   -1.3486    0.0000 O   0  0
    1.2964    2.6973    0.0000 C   0  0
   -3.8685  -11.7036    0.0000 C   0  0
  1  2  2  0
  2  3  1  0
  3  6  2  0
  5  4  2  0
  4  1  1  0
  5  6  1  0
  5  8  1  0
  6  7  1  0
  7 10  1  0
  9  8  2  0
  9 10  1  0
 11 12  2  0
 12 13  1  0
 13 14  2  0
 14 15  1  0
 15 16  2  0
 16 11  1  0
  7 11  1  0
 15 17  1  0
 17 18  1  0
 18 19  1  0
 18 20  2  0
 19 21  2  0
  2 22  1  0
 22 23  1  0
 23 24  2  0
 24 25  1  0
 25 26  2  0
 26 27  1  0
 27 28  2  0
 28 23  1  0
 29 30  1  0
 29 34  1  0
 30 31  1  0
 31 32  1  0
 32 33  1  0
 33 34  1  0
 26 29  1  0
 35 36  1  0
 24 35  1  0
 10 37  2  0
  8 38  1  0
 32 39  1  0
M  END