
  SciTegic11201309402D

 76 80  0  0  1  0            999 V2000
    5.4000  -10.9292    0.0000 N   0  0
    4.5917  -11.1000    0.0000 C   0  0
    2.8167   -5.9375    0.0000 N   0  0
    4.0375  -10.4875    0.0000 C   0  0  2  0  0  0
    4.2292   -6.7542    0.0000 C   0  0
    4.5542   -9.8417    0.0000 N   0  0
    4.6792   -7.4417    0.0000 N   0  0
    0.5000   -6.5542    0.0000 N   0  0
    1.9917   -5.8917    0.0000 C   0  0
    4.8542   -9.0667    0.0000 C   0  0
   -0.0208   -7.2042    0.0000 C   0  0
    3.5917   -6.2375    0.0000 C   0  0  2  0  0  0
    4.9000   -8.2417    0.0000 C   0  0  1  0  0  0
   -0.3583   -8.8000    0.0000 N   0  0
    1.1917   -6.1042    0.0000 C   0  0  1  0  0  0
   -0.1458   -9.5917    0.0000 C   0  0
    6.0125  -11.4792    0.0000 C   0  0
   -0.3208   -7.9750    0.0000 C   0  0  2  0  0  0
    5.7167   -8.1542    0.0000 C   0  0
    5.9250  -12.3000    0.0000 C   0  0
    0.3042  -10.2917    0.0000 C   0  0
    2.5417  -11.1500    0.0000 S   0  0
    1.7417  -11.1542    0.0000 S   0  0
    9.4417  -13.0750    0.0000 C   0  0
    6.4042   -8.6500    0.0000 C   0  0
    0.9417  -10.8042    0.0000 C   0  0
    4.3292  -11.8875    0.0000 O   0  0
    4.8500   -6.2000    0.0000 O   0  0
    3.3417  -10.9375    0.0000 C   0  0
    1.8417   -5.2792    0.0000 O   0  0
   -0.7375   -6.7875    0.0000 O   0  0
    5.6625   -9.2417    0.0000 O   0  0
   -1.1250   -7.8000    0.0000 C   0  0
    0.8542   -5.3542    0.0000 C   0  0
   -0.9083   -9.9292    0.0000 O   0  0
    5.1667  -12.6375    0.0000 O   0  0
    9.4292  -13.9000    0.0000 O   0  0
    6.2167   -9.2750    0.0000 O   0  0
    6.5917  -12.7875    0.0000 N   0  0
    8.7667  -12.5917    0.0000 N   0  0
   10.1542  -12.6667    0.0000 C   0  0  1  0  0  0
    4.0042   -5.5167    0.0000 C   0  0
    5.7375  -10.1667    0.0000 C   0  0
    7.2250   -8.5625    0.0000 N   0  0
   -1.8458   -8.2042    0.0000 C   0  0
   -3.2833   -9.0167    0.0000 C   0  0
   10.8667  -13.0875    0.0000 N   0  0
    1.3417   -4.6792    0.0000 C   0  0
   -2.5583   -7.7875    0.0000 C   0  0
   -1.8458   -9.0292    0.0000 C   0  0
   10.1792   -9.3667    0.0000 N   0  0
   -3.2708   -8.1917    0.0000 C   0  0
   -2.5625   -9.4375    0.0000 C   0  0
    6.7292  -11.0667    0.0000 C   0  0
   -3.9958   -9.4292    0.0000 O   0  0
    6.5542  -10.2542    0.0000 C   0  0
    1.4167  -11.4292    0.0000 C   0  0
    0.1750  -10.7125    0.0000 C   0  0
    7.3500  -12.4500    0.0000 C   0  0
    8.0167  -12.9292    0.0000 C   0  0
   10.1792  -10.1917    0.0000 C   0  0
   10.1625  -11.8417    0.0000 C   0  0
    4.8292   -5.5167    0.0000 C   0  0
    3.5917   -4.8000    0.0000 C   0  0
   -4.0000  -10.2542    0.0000 C   0  0
    1.0042   -3.9292    0.0000 C   0  0
    2.1667   -4.7667    0.0000 C   0  0
    9.4542  -10.6042    0.0000 C   0  0
    9.4542  -11.4292    0.0000 C   0  0
   -3.2875  -10.6667    0.0000 C   0  0
    1.0000  -12.1417    0.0000 C   0  0
   -0.2375  -11.4292    0.0000 C   0  0
    1.4917   -3.2542    0.0000 C   0  0
    2.6500   -4.1000    0.0000 C   0  0
    2.3125   -3.3417    0.0000 C   0  0
    0.1750  -12.1417    0.0000 C   0  0
  2  1  1  0
  3 12  1  0
  4  2  1  1
  5  7  1  0
  6  4  1  0
  7 13  1  0
  8 11  1  0
  9  3  1  0
 10  6  1  0
 11 18  1  0
 12  5  1  0
 13 10  1  0
 14 16  1  0
 15  9  1  0
 16 21  1  0
 17  1  1  0
 18 14  1  0
 13 19  1  6
 20 17  1  0
 21 26  1  0
 22 29  1  0
 23 22  1  0
 24 40  1  0
 25 19  1  0
 26 23  1  0
 27  2  2  0
 28  5  2  0
  4 29  1  0
 30  9  2  0
 31 11  2  0
 32 10  2  0
 18 33  1  6
 15 34  1  6
 35 16  2  0
 36 20  2  0
 37 24  2  0
 38 25  2  0
 39 20  1  0
 40 60  1  0
 41 24  1  0
 12 42  1  1
 43  1  1  0
 44 25  1  0
 45 33  1  0
 46 53  1  0
 41 47  1  6
 48 34  1  0
 49 45  2  0
 50 45  1  0
 51 61  1  0
 52 49  1  0
 53 50  2  0
 54 17  1  0
 55 46  1  0
 56 43  1  0
 57 26  1  0
 58 26  1  0
 59 39  1  0
 60 59  1  0
 61 68  1  0
 41 62  1  0
 63 42  1  0
 64 42  1  0
 65 55  1  0
 66 48  2  0
 67 48  1  0
 68 69  1  0
 69 62  1  0
 70 65  1  0
 71 57  1  0
 72 58  1  0
 73 66  1  0
 74 67  2  0
 75 74  1  0
 76 72  1  0
 54 56  1  0
 71 76  1  0
  8 15  1  0
 52 46  2  0
 73 75  2  0
M  END