
          11280714542D 1   1.00000     0.00000     0

 26 27  0     0  0            999 V2000
    0.3875    0.2083    0.0000 C   0  0  3  0  0  0           0  0  0
    0.9667    0.0583    0.0000 C   0  0  0  0  0  0           0  0  0
   -0.1333    0.5083    0.0000 C   0  0  0  0  0  0           0  0  0
    0.3917   -0.3917    0.0000 C   0  0  0  0  0  0           0  0  0
    1.2792   -0.3750    0.0000 O   0  0  0  0  0  0           0  0  0
   -0.1333    1.1083    0.0000 C   0  0  0  0  0  0           0  0  0
   -0.6458    0.2000    0.0000 C   0  0  0  0  0  0           0  0  0
    0.9125   -0.6917    0.0000 C   0  0  0  0  0  0           0  0  0
   -0.1250   -0.6917    0.0000 C   0  0  0  0  0  0           0  0  0
    1.3875    0.4833    0.0000 O   0  0  0  0  0  0           0  0  0
    2.9667    0.6083    0.0000 N   0  0  3  0  0  0           0  0  0
   -1.1708    1.1000    0.0000 C   0  0  0  0  0  0           0  0  0
    0.3917   -1.5917    0.0000 C   0  0  0  0  0  0           0  0  0
   -0.6583    1.4000    0.0000 C   0  0  0  0  0  0           0  0  0
    0.9125   -1.2917    0.0000 C   0  0  0  0  0  0           0  0  0
   -1.1708    0.4958    0.0000 C   0  0  0  0  0  0           0  0  0
   -0.1250   -1.2917    0.0000 C   0  0  0  0  0  0           0  0  0
   -1.6958    1.3958    0.0000 O   0  0  0  0  0  0           0  0  0
    0.3875   -2.2000    0.0000 O   0  0  0  0  0  0           0  0  0
    1.9667    0.3333    0.0000 C   0  0  0  0  0  0           0  0  0
    0.5417    0.7958    0.0000 C   0  0  0  0  0  0           0  0  0
    2.3792    0.7583    0.0000 C   0  0  0  0  0  0           0  0  0
    3.1292    0.0333    0.0000 C   0  0  0  0  0  0           0  0  0
    3.3917    1.0333    0.0000 C   0  0  0  0  0  0           0  0  0
    3.9667    0.8833    0.0000 C   0  0  0  0  0  0           0  0  0
    3.7042   -0.1250    0.0000 C   0  0  0  0  0  0           0  0  0
  2  1  1  0     0  0
  3  1  1  0     0  0
  4  1  1  0     0  0
  5  2  2  0     0  0
  6  3  2  0     0  0
  7  3  1  0     0  0
  8  4  2  0     0  0
  9  4  1  0     0  0
 10  2  1  0     0  0
 11 22  1  0     0  0
 12 16  1  0     0  0
 13 17  1  0     0  0
 14  6  1  0     0  0
 15  8  1  0     0  0
 16  7  2  0     0  0
 17  9  2  0     0  0
 18 12  1  0     0  0
 19 13  1  0     0  0
 20 10  1  0     0  0
 21  1  1  0     0  0
 22 20  1  0     0  0
 23 11  1  0     0  0
 24 11  1  0     0  0
 25 24  1  0     0  0
 26 23  1  0     0  0
 15 13  2  0     0  0
 12 14  2  0     0  0
M  END