
  Mrv0541 04051115152D          

 27 29  0  0  0  0            999 V2000
   -2.1148    4.4511    0.0000 F   0  0  0  0  0  0  0  0  0  0  0  0
   -1.4004    4.0386    0.0000 C   0  0  0  0  0  0  0  0  0  0  0  0
   -1.8129    3.3241    0.0000 F   0  0  0  0  0  0  0  0  0  0  0  0
   -0.9879    4.7531    0.0000 F   0  0  0  0  0  0  0  0  0  0  0  0
   -0.6859    3.6261    0.0000 O   0  0  0  0  0  0  0  0  0  0  0  0
   -0.6859    2.8011    0.0000 C   0  0  0  0  0  0  0  0  0  0  0  0
    0.0286    2.3886    0.0000 C   0  0  0  0  0  0  0  0  0  0  0  0
    0.0286    1.5636    0.0000 C   0  0  0  0  0  0  0  0  0  0  0  0
   -0.6859    1.1511    0.0000 C   0  0  0  0  0  0  0  0  0  0  0  0
   -1.4004    1.5636    0.0000 C   0  0  0  0  0  0  0  0  0  0  0  0
   -1.4004    2.3886    0.0000 C   0  0  0  0  0  0  0  0  0  0  0  0
   -0.6859    0.3261    0.0000 N   0  0  0  0  0  0  0  0  0  0  0  0
    0.0286   -0.0864    0.0000 C   0  0  0  0  0  0  0  0  0  0  0  0
    0.7430    0.3261    0.0000 N   0  0  0  0  0  0  0  0  0  0  0  0
    1.4575   -0.0864    0.0000 C   0  0  0  0  0  0  0  0  0  0  0  0
    1.4575   -0.9114    0.0000 N   0  0  0  0  0  0  0  0  0  0  0  0
    0.7430   -1.3239    0.0000 C   0  0  0  0  0  0  0  0  0  0  0  0
    0.0286   -0.9114    0.0000 C   0  0  0  0  0  0  0  0  0  0  0  0
    0.7430   -2.1489    0.0000 C   0  0  0  0  0  0  0  0  0  0  0  0
    1.4575   -2.5614    0.0000 C   0  0  0  0  0  0  0  0  0  0  0  0
    1.4575   -3.3864    0.0000 C   0  0  0  0  0  0  0  0  0  0  0  0
    0.7430   -3.7989    0.0000 C   0  0  0  0  0  0  0  0  0  0  0  0
    0.0286   -3.3864    0.0000 C   0  0  0  0  0  0  0  0  0  0  0  0
    0.0286   -2.5614    0.0000 C   0  0  0  0  0  0  0  0  0  0  0  0
    2.1720   -3.7989    0.0000 C   0  0  0  0  0  0  0  0  0  0  0  0
    2.8864   -3.3864    0.0000 O   0  0  0  0  0  0  0  0  0  0  0  0
    2.1720   -4.6239    0.0000 N   0  0  0  0  0  0  0  0  0  0  0  0
  2  1  1  0  0  0  0
  2  3  1  0  0  0  0
  2  4  1  0  0  0  0
  2  5  1  0  0  0  0
  6  5  1  0  0  0  0
  6  7  2  0  0  0  0
 11  6  1  0  0  0  0
  7  8  1  0  0  0  0
  9  8  2  0  0  0  0
  9 10  1  0  0  0  0
  9 12  1  0  0  0  0
 10 11  2  0  0  0  0
 13 12  1  0  0  0  0
 13 14  2  0  0  0  0
 13 18  1  0  0  0  0
 15 14  1  0  0  0  0
 15 16  2  0  0  0  0
 17 16  1  0  0  0  0
 17 18  2  0  0  0  0
 17 19  1  0  0  0  0
 19 20  2  0  0  0  0
 19 24  1  0  0  0  0
 20 21  1  0  0  0  0
 21 22  2  0  0  0  0
 21 25  1  0  0  0  0
 22 23  1  0  0  0  0
 23 24  2  0  0  0  0
 25 26  2  0  0  0  0
 25 27  1  0  0  0  0
M  END