
  SciTegic02271515152D

 32 35  0  0  0  0            999 V2000
    3.9277  -13.4877    0.0000 C   0  0
    3.9266  -14.3073    0.0000 C   0  0
    4.6346  -14.7162    0.0000 C   0  0
    5.3443  -14.3068    0.0000 C   0  0
    5.3414  -13.4841    0.0000 C   0  0
    4.6328  -13.0789    0.0000 C   0  0
    3.2199  -13.0793    0.0000 C   0  0
    2.5123  -13.4881    0.0000 N   0  0
    6.0486  -14.7124    0.0000 C   0  0
    6.1353  -15.5249    0.0000 C   0  0
    6.9349  -15.6936    0.0000 N   0  0
    7.3425  -14.9852    0.0000 C   0  0
    6.7946  -14.3789    0.0000 S   0  0
    1.8045  -13.0797    0.0000 C   0  0
    1.0969  -13.4884    0.0000 O   0  0
    1.8043  -12.2625    0.0000 C   0  0  2  0  0  0
    2.4707  -11.7830    0.0000 C   0  0
    2.2180  -11.0059    0.0000 C   0  0  2  0  0  0
    1.4007  -11.0061    0.0000 C   0  0
    1.1485  -11.7834    0.0000 N   0  0
    0.3710  -12.0350    0.0000 C   0  0
    0.2002  -12.8342    0.0000 O   0  0
    2.6981  -10.3447    0.0000 O   0  0
    5.5289  -16.0727    0.0000 C   0  0
   -1.0175  -11.7392    0.0000 N   0  0
   -0.2430  -11.4859    0.0000 C   0  0  1  0  0  0
   -0.2424  -10.6683    0.0000 C   0  0
   -1.0164  -10.4162    0.0000 C   0  0
   -1.5022  -11.0781    0.0000 C   0  0
   -1.2690  -12.5165    0.0000 C   0  0
   -2.0712  -12.6870    0.0000 O   0  0
   -0.7184  -13.1234    0.0000 C   0  0
  1  2  2  0
  2  3  1  0
  3  4  2  0
  4  5  1  0
  5  6  2  0
  6  1  1  0
  1  7  1  0
  7  8  1  0
  9 10  2  0
 10 11  1  0
 11 12  2  0
 12 13  1  0
 13  9  1  0
  4  9  1  0
  8 14  1  0
 14 15  2  0
 16 14  1  1
 16 17  1  0
 17 18  1  0
 18 19  1  0
 19 20  1  0
 20 16  1  0
 20 21  1  0
 26 21  1  1
 21 22  2  0
 18 23  1  6
 10 24  1  0
 25 26  1  0
 26 27  1  0
 27 28  1  0
 28 29  1  0
 29 25  1  0
 25 30  1  0
 30 31  2  0
 30 32  1  0
M  END