
          02060813472D 1   1.00000     0.00000     0

 30 32  0     1  0            999 V2000
   -3.6292  -20.3792    0.0000 C   0  0  0  0  0  0           0  0  0
   -3.6292  -21.2042    0.0000 O   0  0  0  0  0  0           0  0  0
   -2.9171  -21.6125    0.0000 C   0  0  0  0  0  0           0  0  0
   -2.2051  -21.2042    0.0000 C   0  0  0  0  0  0           0  0  0
   -2.2051  -20.3792    0.0000 N   0  0  3  0  0  0           0  0  0
   -2.9171  -19.9625    0.0000 C   0  0  0  0  0  0           0  0  0
   -1.4895  -19.9688    0.0000 C   0  0  0  0  0  0           0  0  0
   -0.7762  -20.3834    0.0000 C   0  0  0  0  0  0           0  0  0
   -1.4870  -19.1438    0.0000 O   0  0  0  0  0  0           0  0  0
   -0.0605  -19.9729    0.0000 C   0  0  1  0  0  0           0  0  0
   -0.0667  -19.1458    0.0000 C   0  0  0  0  0  0           0  0  0
    0.6447  -18.7280    0.0000 C   0  0  3  0  0  0           0  0  0
    1.3615  -19.1409    0.0000 C   0  0  0  0  0  0           0  0  0
    2.0708  -18.7266    0.0000 C   0  0  0  0  0  0           0  0  0
    2.0689  -17.9013    0.0000 C   0  0  0  0  0  0           0  0  0
    1.3515  -17.4919    0.0000 C   0  0  0  0  0  0           0  0  0
    0.6360  -17.9079    0.0000 C   0  0  0  0  0  0           0  0  0
    0.6549  -20.3838    0.0000 C   0  0  0  0  0  0           0  0  0
    0.6567  -21.2088    0.0000 O   0  0  0  0  0  0           0  0  0
    1.3684  -19.9697    0.0000 N   0  0  0  0  0  0           0  0  0
    2.0828  -20.3814    0.0000 C   0  0  2  0  0  0           0  0  0
    2.4472  -19.6365    0.0000 C   0  0  0  0  0  0           0  0  0
    2.8111  -18.8931    0.0000 N   0  0  0  0  0  0           0  0  0
    1.7548  -21.1360    0.0000 C   0  0  0  0  0  0           0  0  0
    2.5141  -21.6418    0.0000 C   0  0  0  0  0  0           0  0  0
    3.1734  -21.1458    0.0000 N   0  0  3  0  0  0           0  0  0
    2.9053  -20.3656    0.0000 C   0  0  0  0  0  0           0  0  0
    3.9622  -21.3875    0.0000 C   0  0  3  0  0  0           0  0  0
    4.1472  -22.1915    0.0000 C   0  0  0  0  0  0           0  0  0
    4.5660  -20.8253    0.0000 C   0  0  0  0  0  0           0  0  0
  7  8  1  0     0  0
 12 17  1  0     0  0
 13 14  1  0     0  0
 14 15  1  0     0  0
 15 16  1  0     0  0
 16 17  1  0     0  0
  1  6  1  0     0  0
 10 18  1  0     0  0
  7  9  2  0     0  0
 18 19  2  0     0  0
  2  3  1  0     0  0
 18 20  1  0     0  0
  8 10  1  0     0  0
 21 20  1  1     0  0
  3  4  1  0     0  0
 21 22  1  0     0  0
 10 11  1  1     0  0
 22 23  3  0     0  0
  4  5  1  0     0  0
 21 24  1  0     0  0
 11 12  1  0     0  0
 12 13  1  0     0  0
  5  6  1  0     0  0
 24 25  1  0     0  0
 25 26  1  0     0  0
 26 27  1  0     0  0
 21 27  1  0     0  0
 26 28  1  0     0  0
  5  7  1  0     0  0
 28 29  1  0     0  0
  1  2  1  0     0  0
 28 30  1  0     0  0
M  END