
  SciTegic11201309402D

243252  0  0  1  0            999 V2000
    4.6625   -3.4500    0.0000 C   0  0  2  0  0  0
    2.1292   -8.3417    0.0000 N   0  0
   10.4125  -11.3500    0.0000 N   0  0
    7.2417   -5.7500    0.0000 N   0  0
    4.5875   -2.6292    0.0000 N   0  0
    2.7875   -7.8417    0.0000 C   0  0
    7.2792   -6.5667    0.0000 C   0  0
    9.8250  -11.9250    0.0000 C   0  0
    4.6250   -4.2667    0.0000 N   0  0
    0.6667   -9.0667    0.0000 C   0  0
   -6.3667   -1.3292    0.0000 N   0  0
   15.3667   -3.5542    0.0000 C   0  0  1  0  0  0
   16.1292   -3.2542    0.0000 C   0  0
   14.7250   -3.0375    0.0000 N   0  0
    1.9125    1.3208    0.0000 N   0  0
    3.6792   -0.3625    0.0000 N   0  0
   -6.8250   -3.7292    0.0000 N   0  0
   -2.8333    1.8958    0.0000 N   0  0
   -6.2542   -6.1000    0.0000 N   0  0
   -0.1333   -9.2542    0.0000 N   0  0
    4.3917   -1.8417    0.0000 C   0  0
   -5.5208    0.0708    0.0000 C   0  0
   13.9667   -3.3292    0.0000 C   0  0
   -4.9583    0.6625    0.0000 N   0  0
   -0.3958    2.1208    0.0000 N   0  0
   -2.5708   -9.1375    0.0000 N   0  0
   -4.7458   -8.0167    0.0000 N   0  0
   -6.6292   -2.1042    0.0000 C   0  0
    9.5625  -10.1542    0.0000 C   0  0
    3.1667    0.2833    0.0000 C   0  0
   -6.7417   -4.5417    0.0000 C   0  0
    5.7917   -5.5792    0.0000 C   0  0
   -1.2208    2.1583    0.0000 C   0  0
    5.3792   -3.8417    0.0000 C   0  0
   -3.5958    1.5833    0.0000 C   0  0
   -5.8458   -6.8125    0.0000 C   0  0
    1.1792    1.6958    0.0000 C   0  0
   -1.7625   -9.2917    0.0000 C   0  0
   -4.0833   -8.4917    0.0000 C   0  0
   -5.9875   -0.5917    0.0000 C   0  0  1  0  0  0
   12.5625   -3.1167    0.0000 N   0  0
    1.4292   -8.7542    0.0000 C   0  0  1  0  0  0
    8.7667   -8.1417    0.0000 C   0  0
   11.9167   -2.6000    0.0000 C   0  0
   10.2875  -10.5375    0.0000 C   0  0  2  0  0  0
    6.5542   -5.2917    0.0000 C   0  0  1  0  0  0
    2.5750    0.8458    0.0000 C   0  0  1  0  0  0
    4.7417   -7.4792    0.0000 C   0  0
    9.7542   -2.6792    0.0000 C   0  0
    9.5292   -9.3417    0.0000 N   0  0
    4.0917   -1.0792    0.0000 C   0  0  2  0  0  0
   -6.5542   -5.3375    0.0000 C   0  0  1  0  0  0
   -6.7792   -2.9042    0.0000 C   0  0  2  0  0  0
   -2.0375    2.0833    0.0000 C   0  0  1  0  0  0
   20.3375   -3.9042    0.0000 C   0  0
   22.3792   -4.6292    0.0000 C   0  0
   18.1667   -3.9792    0.0000 C   0  0
    8.8000   -8.9667    0.0000 C   0  0  1  0  0  0
    5.6542   -6.3875    0.0000 N   0  0
    3.3500   -7.2500    0.0000 C   0  0  2  0  0  0
    3.9792   -7.7667    0.0000 N   0  0
    5.4042   -4.6667    0.0000 N   0  0
   16.7667   -3.7667    0.0000 N   0  0
    8.0375   -7.7667    0.0000 N   0  0
   13.3250   -2.8167    0.0000 C   0  0  1  0  0  0
   10.5167   -2.3792    0.0000 N   0  0
   23.1500   -4.3375    0.0000 N   0  0
    4.8875   -6.6792    0.0000 C   0  0  1  0  0  0
    9.1125   -2.1667    0.0000 C   0  0  1  0  0  0
   18.9292   -3.6875    0.0000 N   0  0
   20.9792   -4.4167    0.0000 N   0  0
    9.2417   -1.3542    0.0000 C   0  0
    5.8625   -7.3917    0.0000 C   0  0
   11.1542   -2.9000    0.0000 C   0  0  1  0  0  0
    4.4667   -5.0750    0.0000 C   0  0
    8.0042   -6.9417    0.0000 C   0  0  1  0  0  0
    5.0875    0.7250    0.0000 N   0  0
   23.6500   -1.0917    0.0000 C   0  0
    2.6292    4.7542    0.0000 C   0  0
   19.4417   -0.4417    0.0000 C   0  0
   -8.7125   -8.6042    0.0000 C   0  0
   23.7917   -4.8500    0.0000 C   0  0  2  0  0  0
   -0.9458   -9.3292    0.0000 C   0  0  2  0  0  0
   -4.3083    1.1708    0.0000 C   0  0  2  0  0  0
   -3.3458   -8.8750    0.0000 C   0  0  1  0  0  0
    0.4042    1.9625    0.0000 C   0  0  2  0  0  0
   -5.3458   -7.4542    0.0000 C   0  0  2  0  0  0
   24.5542   -4.5542    0.0000 C   0  0
    9.0417  -11.7042    0.0000 C   0  0  2  0  0  0
    3.0917    1.4750    0.0000 C   0  0
    3.9042    1.3375    0.0000 C   0  0
   19.5750   -4.1917    0.0000 C   0  0  1  0  0  0
   10.0042   -1.0625    0.0000 C   0  0
    5.9000   -8.5625    0.0000 C   0  0
    4.4917    1.9125    0.0000 N   0  0
   17.5292   -3.4667    0.0000 C   0  0  1  0  0  0
   21.7417   -4.1167    0.0000 C   0  0  1  0  0  0
    5.2167    1.5333    0.0000 C   0  0
   19.9667   -6.3292    0.0000 C   0  0
    3.4167    4.9667    0.0000 N   0  0
   24.4125   -0.8000    0.0000 N   0  0
   -9.5000   -8.3625    0.0000 N   0  0
   20.2042   -0.1417    0.0000 N   0  0
    3.3292   -8.4500    0.0000 O   0  0
    4.2750    0.6000    0.0000 C   0  0
    0.9167   -9.8417    0.0000 O   0  0
   10.0292  -12.7167    0.0000 O   0  0
    6.5792   -7.0042    0.0000 O   0  0
   16.2542   -2.4417    0.0000 O   0  0
   13.8375   -4.1417    0.0000 O   0  0
    5.4000   -5.3417    0.0000 O   0  0
    8.8667  -10.6042    0.0000 O   0  0
   -6.1417    0.5875    0.0000 O   0  0
    5.1667   -1.5917    0.0000 O   0  0
   -1.2375    2.9833    0.0000 O   0  0
   -7.5542   -4.6792    0.0000 O   0  0
   -7.4167   -1.8917    0.0000 O   0  0
    3.7792    0.8333    0.0000 O   0  0
   -1.8625  -10.1042    0.0000 O   0  0
   -6.5167   -7.2667    0.0000 O   0  0
   -3.9583    2.3208    0.0000 O   0  0
   -4.5000   -9.1917    0.0000 O   0  0
    1.5042    2.4583    0.0000 O   0  0
    6.0875   -3.4167    0.0000 O   0  0
    4.8250   -0.7167    0.0000 C   0  0
   -7.3375   -5.5875    0.0000 C   0  0
   -7.5917   -2.8125    0.0000 C   0  0
    9.4542   -7.7000    0.0000 O   0  0
   12.0500   -1.7917    0.0000 O   0  0
    5.3792   -8.0042    0.0000 O   0  0
    9.6250   -3.4917    0.0000 O   0  0
   18.0500   -4.7917    0.0000 O   0  0
   20.4667   -3.0917    0.0000 O   0  0
   22.2625   -5.4417    0.0000 O   0  0
   23.6667   -5.6542    0.0000 C   0  0
    9.2417  -12.4917    0.0000 C   0  0
   -2.1708    2.8958    0.0000 C   0  0
   24.6750   -3.7417    0.0000 O   0  0
   11.0292   -3.7042    0.0000 C   0  0
    4.7667   -5.0917    0.0000 O   0  0
   15.2417   -4.3625    0.0000 C   0  0  2  0  0  0
    3.8167   -6.5792    0.0000 C   0  0
   10.1292   -0.2542    0.0000 O   0  0
    6.4500   -8.9792    0.0000 O   0  0
   20.6042   -6.8417    0.0000 O   0  0
   19.4542   -5.0125    0.0000 C   0  0
   -8.1042   -8.0625    0.0000 N   0  0
   19.3125   -1.2542    0.0000 N   0  0
   23.5292   -1.9042    0.0000 N   0  0
    2.4125    3.9708    0.0000 N   0  0
    2.0417    5.3417    0.0000 N   0  0
   23.0167   -0.5792    0.0000 N   0  0
   18.8000    0.0708    0.0000 N   0  0
   -8.5417   -9.4125    0.0000 N   0  0
   25.1917   -5.0625    0.0000 N   0  0
    2.7417   -8.9000    0.0000 C   0  0
    7.8875   -5.2375    0.0000 C   0  0
   11.2167  -11.4792    0.0000 C   0  0
    4.2000   -5.8500    0.0000 C   0  0
    8.4542  -12.2792    0.0000 N   0  0
   13.4500   -2.0042    0.0000 C   0  0  2  0  0  0
   10.6417   -1.5750    0.0000 N   0  0
   20.0917   -5.5250    0.0000 C   0  0
   -7.9167   -2.0542    0.0000 C   0  0
    5.5042   -1.1792    0.0000 C   0  0
   -7.9417   -5.0292    0.0000 C   0  0
   19.2000   -6.6292    0.0000 N   0  0
   24.3042   -6.1792    0.0000 C   0  0
    8.6667  -13.0625    0.0000 C   0  0
    5.3625   -3.0292    0.0000 C   0  0
   -8.5667   -0.5417    0.0000 C   0  0
   25.5792   -7.2042    0.0000 C   0  0
    6.8667   -2.1042    0.0000 C   0  0
   -9.1542   -3.9375    0.0000 C   0  0
    7.5167  -14.2000    0.0000 C   0  0
    5.3625   -9.3542    0.0000 O   0  0
   -6.6917   -0.1750    0.0000 C   0  0
    8.1042   -9.4042    0.0000 C   0  0
   -8.7167   -5.2875    0.0000 C   0  0
   24.1792   -6.9875    0.0000 C   0  0
    5.4500   -1.9917    0.0000 C   0  0
   -7.7667   -4.2375    0.0000 C   0  0
    6.2417   -0.8167    0.0000 C   0  0
   -7.4292   -1.4000    0.0000 C   0  0
   25.0667   -5.8750    0.0000 C   0  0
    7.8917  -12.8417    0.0000 C   0  0
   -8.7417   -1.9542    0.0000 C   0  0
    8.8792  -13.8375    0.0000 C   0  0
   10.0042   -3.9875    0.0000 N   0  0
   -9.0667   -1.2042    0.0000 C   0  0
    6.9167   -1.2792    0.0000 C   0  0
   25.7042   -6.3875    0.0000 C   0  0
    6.1250   -2.4542    0.0000 C   0  0
   -7.7542   -0.6500    0.0000 C   0  0
   -9.3292   -4.7292    0.0000 C   0  0
    7.3167  -13.4125    0.0000 C   0  0
   24.8167   -7.5000    0.0000 C   0  0
    8.3042  -14.4125    0.0000 C   0  0
   -8.3750   -3.6875    0.0000 C   0  0
    1.6000   -9.5625    0.0000 C   0  0
    6.7750   -4.5042    0.0000 C   0  0
   11.0167  -10.1792    0.0000 C   0  0
   15.8792   -4.8750    0.0000 O   0  0
   -9.7667   -3.3792    0.0000 O   0  0
    7.5417   -2.5542    0.0000 O   0  0
   26.2250   -7.7167    0.0000 O   0  0
   -8.8917    0.2083    0.0000 O   0  0
    6.9500  -14.7625    0.0000 O   0  0
   -6.6667    0.6500    0.0000 O   0  0
    7.3792   -9.0250    0.0000 O   0  0
    2.4167   -9.6500    0.0000 C   0  0
   11.6000  -10.7667    0.0000 C   0  0
    7.5917   -4.4667    0.0000 C   0  0
    8.7000   -6.5042    0.0000 C   0  0
    0.6167    2.7583    0.0000 C   0  0
   -5.9458   -8.0042    0.0000 C   0  0
   -1.5458    3.4083    0.0000 C   0  0
   11.6667   -4.2167    0.0000 C   0  0
   -4.7708    1.8500    0.0000 C   0  0
   -3.6625   -9.6292    0.0000 C   0  0
   -0.9208  -10.1542    0.0000 C   0  0
   21.8667   -3.3125    0.0000 C   0  0
   17.6542   -2.6542    0.0000 C   0  0
   18.5500   -1.5500    0.0000 C   0  0
   22.7542   -2.2042    0.0000 C   0  0
    1.6167    3.7583    0.0000 C   0  0
   -7.3292   -8.3042    0.0000 C   0  0
    9.3167   -4.4292    0.0000 C   0  0
   12.8125   -1.4917    0.0000 C   0  0
   14.4792   -4.6542    0.0000 C   0  0
   14.2125   -1.7125    0.0000 C   0  0
   -6.7167   -7.7542    0.0000 C   0  0
    1.4042    2.9625    0.0000 C   0  0
   18.4167   -2.3667    0.0000 C   0  0
   22.6375   -3.0125    0.0000 C   0  0
    8.6625   -5.6875    0.0000 C   0  0
    9.3542   -5.2417    0.0000 C   0  0
   11.5417   -5.0292    0.0000 C   0  0
   12.4292   -3.9250    0.0000 C   0  0
   -0.7708    3.1208    0.0000 C   0  0
   -1.6750    4.2167    0.0000 C   0  0
   12.9292   -0.6875    0.0000 C   0  0
    0.9614   -9.6380    0.0000 H   0  0
  2  6  1  0
  3 45  1  0
  4 46  1  0
  5  1  1  0
  6 60  1  0
  7  4  1  0
  8  3  1  0
  1  9  1  0
 10 42  1  0
 11 40  1  0
 12 14  1  6
 13 12  1  0
 14 23  1  0
 15 47  1  0
 16 51  1  0
 17 31  1  0
 18 54  1  0
 19 36  1  0
 20 10  1  0
 21  5  1  0
 22 24  1  0
 23 65  1  0
 24 84  1  0
 25 86  1  0
 26 38  1  0
 27 39  1  0
 28 11  1  0
 29 50  1  0
 30 16  1  0
 31 52  1  0
 32 59  1  0
 33 25  1  0
 34  1  1  0
 35 18  1  0
 36 87  1  0
 37 15  1  0
 38 83  1  0
 39 85  1  0
 40 22  1  0
 41 44  1  0
 42  2  1  0
 43 64  1  0
 44 74  1  0
 45 29  1  6
 46 32  1  1
 47 30  1  0
 48 61  1  0
 49 69  1  0
 58 50  1  1
 51 21  1  0
 52 19  1  0
 53 28  1  0
 54 33  1  0
 55 92  1  0
 56 97  1  0
 57 96  1  0
 58 43  1  0
 68 59  1  1
 60142  1  0
 60 61  1  1
 62 34  1  0
 63 13  1  0
 76 64  1  6
 65 41  1  1
 66 49  1  0
 67 56  1  0
 68 48  1  0
 69 62  1  1
 70 57  1  0
 71 55  1  0
 69 72  1  0
 68 73  1  0
 74 66  1  6
 75  9  1  0
 76  7  1  0
 77105  1  0
 78149  2  0
 79150  2  0
 80148  2  0
 81147  2  0
 82 67  1  6
 83 20  1  0
 84 35  1  0
 85 26  1  0
 86 37  1  0
 87 27  1  0
 88 82  1  0
 89  8  1  0
 47 90  1  6
 91 90  1  0
 92 70  1  6
 93 72  1  0
 94 73  1  0
 95 91  1  0
 96 63  1  1
 97 71  1  1
 98 95  2  0
 99163  1  0
100 79  1  0
101 78  1  0
102 81  1  0
103 80  1  0
104  6  2  0
105 91  2  0
106 10  2  0
107  8  2  0
108  7  2  0
109 13  2  0
110 23  2  0
111 32  2  0
112 29  2  0
113 22  2  0
114 21  2  0
115 33  2  0
116 31  2  0
117 28  2  0
118 30  2  0
119 38  2  0
120 36  2  0
121 35  2  0
122 39  2  0
123 37  2  0
124 34  2  0
 51125  1  1
 52126  1  6
 53127  1  1
128 43  2  0
129 44  2  0
130 48  2  0
131 49  2  0
132 57  2  0
133 55  2  0
134 56  2  0
 82135  1  0
 89136  1  0
 54137  1  6
138 88  2  0
 74139  1  0
140 75  2  0
 12141  1  0
142159  1  0
143 93  2  0
144 94  2  0
145 99  2  0
 92146  1  0
147227  1  0
148224  1  0
149225  1  0
150226  1  0
151 79  1  0
152 78  1  0
153 80  1  0
154 81  1  0
155 88  1  0
156  2  1  0
157  4  1  0
158  3  1  0
159 75  1  0
 89160  1  6
 65161  1  0
162 93  1  0
163146  1  0
164127  1  0
165125  1  0
166126  1  0
167 99  1  0
168135  1  0
169136  1  0
  1170  1  6
171190  1  0
172192  1  0
173191  1  0
174199  2  0
175198  1  0
176 94  1  0
 40177  1  6
 58178  1  0
179166  1  0
180168  2  0
181165  2  0
182166  2  0
183165  1  0
184164  2  0
185168  1  0
186169  2  0
187164  1  0
188169  1  0
189228  1  0
190187  2  0
191183  2  0
192185  2  0
193181  1  0
194184  1  0
195179  2  0
196186  1  0
197180  1  0
198188  2  0
199182  1  0
 42200  1  0
 46201  1  0
 45202  1  0
141203  1  6
204174  1  0
205173  1  0
206172  1  0
207171  1  0
208175  1  0
209177  1  0
210178  1  0
211156  1  0
212202  1  0
213201  1  0
 76214  1  0
 86215  1  1
 87216  1  1
217137  1  0
218139  1  0
 84219  1  1
 85220  1  6
 83221  1  1
 97222  1  0
 96223  1  0
224234  1  0
225235  1  0
226233  1  0
227232  1  0
228237  1  0
229161  1  0
230141  1  0
161231  1  6
232216  1  0
233215  1  0
234223  1  0
235222  1  0
236214  1  0
237236  1  0
238218  1  0
239218  1  0
240217  1  0
241217  1  0
242229  1  0
173193  2  0
211200  1  0
 98 77  1  0
157213  1  0
 17 53  1  0
158212  1  0
195174  1  0
171194  2  0
196175  2  0
172197  2  0
 42243  1  1
M  END