
  SciTegic05291413152D

 17 17  0  0  0  0            999 V2000
    6.1311   -3.9626    0.0000 N   0  3
    2.9761   -1.6400    0.0000 P   0  0
    5.5484   -3.3882    0.0000 C   0  0
    5.7607   -2.5848    0.0000 C   0  0
    5.9230   -4.7617    0.0000 O   0  5
    3.8002   -1.6400    0.0000 O   0  0
    4.7492   -3.6004    0.0000 C   0  0
    6.9302   -3.7503    0.0000 O   0  0
    2.9761   -0.8158    0.0000 O   0  0
    5.1738   -2.0021    0.0000 C   0  0
    4.3871   -2.2227    0.0000 C   0  0
    2.1519   -1.6400    0.0000 O   0  0
    2.9761   -2.4641    0.0000 O   0  0
    4.1706   -3.0135    0.0000 C   0  0
    6.5556   -2.3642    0.0000 C   0  0
    2.2518   -2.8720    0.0000 C   0  0
    1.4402   -1.2279    0.0000 C   0  0
  2  6  1  0
  3  1  1  0
  4  3  1  0
  5  1  1  0
  6 11  1  0
  7  3  2  0
  8  1  2  0
  9  2  2  0
 10  4  2  0
 11 14  2  0
 12  2  1  0
 13  2  1  0
 14  7  1  0
 15  4  1  0
 16 13  1  0
 17 12  1  0
 10 11  1  0
M  CHG  2   1   1   5  -1
M  ISO  2  16  14  17  14
M  END