
  CDK    5/12/10,14:52

 34 37  0  0  0  0  0  0  0  0999 V2000
   -4.0014  -21.2291    0.0000 C   0  0  0  0  0  0  0  0  0  0  0  0
   -4.0026  -22.0565    0.0000 C   0  0  0  0  0  0  0  0  0  0  0  0
   -3.2878  -22.4694    0.0000 C   0  0  0  0  0  0  0  0  0  0  0  0
   -3.2896  -20.8164    0.0000 C   0  0  0  0  0  0  0  0  0  0  0  0
   -2.5742  -21.2255    0.0000 C   0  0  0  0  0  0  0  0  0  0  0  0
   -2.5734  -22.0523    0.0000 C   0  0  0  0  0  0  0  0  0  0  0  0
   -1.8581  -22.4633    0.0000 C   0  0  0  0  0  0  0  0  0  0  0  0
   -1.1431  -22.0485    0.0000 C   0  0  0  0  0  0  0  0  0  0  0  0
   -1.1479  -21.2186    0.0000 C   0  0  0  0  0  0  0  0  0  0  0  0
   -1.8638  -20.8113    0.0000 C   0  0  0  0  0  0  0  0  0  0  0  0
   -1.8708  -19.9833    0.0000 O   0  0  0  0  0  0  0  0  0  0  0  0
   -0.4359  -20.8017    0.0000 C   0  0  0  0  0  0  0  0  0  0  0  0
    0.2783  -21.2133    0.0000 C   0  0  0  0  0  0  0  0  0  0  0  0
    0.2632  -19.5634    0.0000 C   0  0  0  0  0  0  0  0  0  0  0  0
   -0.4453  -19.9819    0.0000 C   0  0  0  0  0  0  0  0  0  0  0  0
    0.9852  -19.9713    0.0000 C   0  0  0  0  0  0  0  0  0  0  0  0
    0.9891  -20.7940    0.0000 C   0  0  0  0  0  0  0  0  0  0  0  0
    1.7023  -21.2002    0.0000 C   0  0  0  0  0  0  0  0  0  0  0  0
    2.4122  -20.7849    0.0000 C   0  0  0  0  0  0  0  0  0  0  0  0
    2.4044  -19.9591    0.0000 C   0  0  0  0  0  0  0  0  0  0  0  0
    1.6906  -19.5566    0.0000 C   0  0  0  0  0  0  0  0  0  0  0  0
   -4.7160  -20.8168    0.0000 O   0  0  0  0  0  0  0  0  0  0  0  0
   -4.7174  -22.4684    0.0000 O   0  0  0  0  0  0  0  0  0  0  0  0
   -3.2859  -23.2944    0.0000 C   0  0  0  0  0  0  0  0  0  0  0  0
   -3.9994  -23.7085    0.0000 C   0  0  0  0  0  0  0  0  0  0  0  0
   -2.5704  -23.7052    0.0000 C   0  0  0  0  0  0  0  0  0  0  0  0
   -0.4270  -22.4583    0.0000 C   0  0  0  0  0  0  0  0  0  0  0  0
    0.2708  -22.0375    0.0000 O   0  0  0  0  0  0  0  0  0  0  0  0
   -1.1641  -19.5770    0.0000 C   0  0  0  0  0  0  0  0  0  0  0  0
    1.6831  -18.7316    0.0000 C   0  0  0  0  0  0  0  0  0  0  0  0
    2.3938  -18.3127    0.0000 C   0  0  0  0  0  0  0  0  0  0  0  0
    0.9649  -18.3256    0.0000 C   0  0  0  0  0  0  0  0  0  0  0  0
    3.1148  -19.5396    0.0000 O   0  0  0  0  0  0  0  0  0  0  0  0
    3.1298  -21.1919    0.0000 O   0  0  0  0  0  0  0  0  0  0  0  0
  1  2  2  0  0  0  0 
  7  8  2  0  0  0  0 
 16 17  1  0  0  0  0 
  5  4  2  0  0  0  0 
 17 18  2  0  0  0  0 
  8  9  1  0  0  0  0 
 18 19  1  0  0  0  0 
  4  1  1  0  0  0  0 
 19 20  2  0  0  0  0 
  9 10  2  0  0  0  0 
 20 21  1  0  0  0  0 
 21 16  2  0  0  0  0 
 10  5  1  0  0  0  0 
  1 22  1  0  0  0  0 
  2 23  1  0  0  0  0 
 10 11  1  0  0  0  0 
  3 24  1  0  0  0  0 
  2  3  1  0  0  0  0 
 24 25  1  0  0  0  0 
  9 12  1  0  0  0  0 
 24 26  1  0  0  0  0 
  5  6  1  0  0  0  0 
  8 27  1  0  0  0  0 
 12 13  2  0  0  0  0 
 13 28  1  0  0  0  0 
 13 17  1  0  0  0  0 
 15 29  1  0  0  0  0 
  3  6  2  0  0  0  0 
 21 30  1  0  0  0  0 
 16 14  1  0  0  0  0 
 30 31  1  0  0  0  0 
  6  7  1  0  0  0  0 
 30 32  1  0  0  0  0 
 14 15  2  0  0  0  0 
 20 33  1  0  0  0  0 
 15 12  1  0  0  0  0 
 19 34  1  0  0  0  0 
M  END