
  Mrv0541 09091311402D          

 21 22  0  0  0  0            999 V2000
   -4.3040    1.4024    0.0000 C   0  0  0  0  0  0  0  0  0  0  0  0
   -4.3051    0.5744    0.0000 C   0  0  0  0  0  0  0  0  0  0  0  0
   -3.5891    0.1591    0.0000 N   0  0  0  0  0  0  0  0  0  0  0  0
   -2.8758    0.5749    0.0000 C   0  0  0  0  0  0  0  0  0  0  0  0
   -2.8787    1.4060    0.0000 C   0  0  0  0  0  0  0  0  0  0  0  0
   -3.5909    1.8134    0.0000 C   0  0  0  0  0  0  0  0  0  0  0  0
   -5.0210    0.1600    0.0000 C   0  0  0  0  0  0  0  0  0  0  0  0
   -2.1595    0.1611    0.0000 C   0  0  0  0  0  0  0  0  0  0  0  0
   -1.4480   -0.2489    0.0000 C   0  0  0  0  0  0  0  0  0  0  0  0
   -0.7344   -0.6639    0.0000 C   0  0  0  0  0  0  0  0  0  0  0  0
   -0.7382   -1.4889    0.0000 C   0  0  0  0  0  0  0  0  0  0  0  0
   -0.0253   -1.8995    0.0000 C   0  0  0  0  0  0  0  0  0  0  0  0
    0.6903   -1.4905    0.0000 C   0  0  0  0  0  0  0  0  0  0  0  0
    0.6886   -0.6622    0.0000 C   0  0  0  0  0  0  0  0  0  0  0  0
   -0.0248   -0.2511    0.0000 C   0  0  0  0  0  0  0  0  0  0  0  0
    1.4032   -0.2457    0.0000 N   0  0  0  0  0  0  0  0  0  0  0  0
    2.1157   -0.6589    0.0000 O   0  0  0  0  0  0  0  0  0  0  0  0
    2.8303   -0.2424    0.0000 C   0  0  0  0  0  0  0  0  0  0  0  0
    3.5432    0.1743    0.0000 H   0  0  0  0  0  0  0  0  0  0  0  0
    2.4153    0.4708    0.0000 H   0  0  0  0  0  0  0  0  0  0  0  0
    3.2488   -0.9558    0.0000 H   0  0  0  0  0  0  0  0  0  0  0  0
  2  3  1  0  0  0  0
 10 11  1  0  0  0  0
  5  6  2  0  0  0  0
 11 12  1  0  0  0  0
  6  1  1  0  0  0  0
 12 13  1  0  0  0  0
  1  2  2  0  0  0  0
 13 14  1  0  0  0  0
  2  7  1  0  0  0  0
 14 15  1  0  0  0  0
 15 10  2  0  0  0  0
  3  4  2  0  0  0  0
 14 16  2  0  0  0  0
  4  8  1  0  0  0  0
 16 17  1  0  0  0  0
 17 18  1  0  0  0  0
  8  9  3  0  0  0  0
 18 19  1  0  0  0  0
  4  5  1  0  0  0  0
 18 20  1  0  0  0  0
  9 10  1  0  0  0  0
 18 21  1  0  0  0  0
M  ISO  3  19   3  20   3  21   3
M  END