
          11280714442D 1   1.00000     0.00000     0

 19 21  0     0  0            999 V2000
    2.6125    0.7208    0.0000 C   0  0  0  0  0  0           0  0  0
    2.6125    1.5458    0.0000 C   0  0  0  0  0  0           0  0  0
    3.3250    1.9583    0.0000 C   0  0  0  0  0  0           0  0  0
    1.9000    1.9583    0.0000 O   0  0  0  0  0  0           0  0  0
    4.0375    1.5458    0.0000 C   0  0  0  0  0  0           0  0  0
    3.3167    0.3083    0.0000 C   0  0  0  0  0  0           0  0  0
    4.0292    0.7208    0.0000 C   0  0  0  0  0  0           0  0  0
    1.9000    0.3000    0.0000 C   0  0  0  0  0  0           0  0  0
    1.1917    0.7208    0.0000 C   0  0  3  0  0  0           0  0  0
    0.4750    0.4083    0.0000 C   0  0  0  0  0  0           0  0  0
    1.1917    1.5458    0.0000 C   0  0  0  0  0  0           0  0  0
   -0.2375    0.8208    0.0000 C   0  0  0  0  0  0           0  0  0
    0.4792   -0.4167    0.0000 C   0  0  0  0  0  0           0  0  0
   -0.9500   -0.4167    0.0000 C   0  0  0  0  0  0           0  0  0
    4.7500    1.9583    0.0000 O   0  0  0  0  0  0           0  0  0
    4.7417    0.2958    0.0000 O   0  0  0  0  0  0           0  0  0
   -0.2333   -0.8292    0.0000 C   0  0  0  0  0  0           0  0  0
   -0.9500    0.4083    0.0000 C   0  0  0  0  0  0           0  0  0
   -1.6708   -0.8292    0.0000 O   0  0  0  0  0  0           0  0  0
  2  1  2  0     0  0
  3  2  1  0     0  0
  4  2  1  0     0  0
  5  7  1  0     0  0
  6  1  1  0     0  0
  7  6  2  0     0  0
  8  1  1  0     0  0
  9  8  1  0     0  0
 10  9  1  0     0  0
 11  9  1  0     0  0
 12 10  2  0     0  0
 13 10  1  0     0  0
 14 17  1  0     0  0
 15  5  1  0     0  0
 16  7  1  0     0  0
 17 13  2  0     0  0
 18 12  1  0     0  0
 19 14  1  0     0  0
  4 11  1  0     0  0
  3  5  2  0     0  0
 18 14  2  0     0  0
M  END