
          11280715242D 1   1.00000     0.00000     0

 44 49  0     0  0            999 V2000
    4.6917   -6.4667    0.0000 N   0  0  0  0  0  0           0  0  0
    4.2167   -5.2250    0.0000 N   0  0  3  0  0  0           0  0  0
    5.3292   -5.9542    0.0000 C   0  0  0  0  0  0           0  0  0
    5.0417   -5.1792    0.0000 N   0  0  0  0  0  0           0  0  0
    0.5125   -3.0792    0.0000 N   0  0  3  0  0  0           0  0  0
    4.0000   -6.0167    0.0000 C   0  0  0  0  0  0           0  0  0
    1.3375   -2.9917    0.0000 N   0  0  0  0  0  0           0  0  0
    1.5042   -2.1917    0.0000 N   0  0  0  0  0  0           0  0  0
    0.7917   -1.7792    0.0000 N   0  0  0  0  0  0           0  0  0
    0.1000   -3.7917    0.0000 C   0  0  0  0  0  0           0  0  0
    0.1792   -2.3292    0.0000 C   0  0  0  0  0  0           0  0  0
    0.5125   -4.5042    0.0000 C   0  0  0  0  0  0           0  0  0
    8.1667   -9.2417    0.0000 N   0  0  0  0  0  0           0  0  0
    8.8875   -8.8375    0.0000 C   0  0  0  0  0  0           0  0  0
    3.8042   -4.5042    0.0000 C   0  0  0  0  0  0           0  0  0
    9.6042   -7.6000    0.0000 C   0  0  0  0  0  0           0  0  0
    6.0417   -6.3667    0.0000 S   0  0  0  0  0  0           0  0  0
    1.3375   -4.5042    0.0000 C   0  0  0  0  0  0           0  0  0
    8.8917   -7.1875    0.0000 C   0  0  0  0  0  0           0  0  0
    9.6042   -8.4250    0.0000 C   0  0  0  0  0  0           0  0  0
    1.7417   -5.2250    0.0000 C   0  0  0  0  0  0           0  0  0
    1.7417   -3.7917    0.0000 C   0  0  0  0  0  0           0  0  0
    8.8875   -6.3542    0.0000 C   0  0  0  0  0  0           0  0  0
    8.1750   -7.5917    0.0000 C   0  0  0  0  0  0           0  0  0
    2.9792   -4.5042    0.0000 C   0  0  0  0  0  0           0  0  0
    6.7542   -5.9500    0.0000 C   0  0  0  0  0  0           0  0  0
    7.4667   -6.3625    0.0000 C   0  0  0  0  0  0           0  0  0
    2.5667   -3.7917    0.0000 C   0  0  0  0  0  0           0  0  0
    2.5667   -5.2250    0.0000 C   0  0  0  0  0  0           0  0  0
    8.1792   -5.9500    0.0000 C   0  0  0  0  0  0           0  0  0
    7.4667   -7.1792    0.0000 C   0  0  0  0  0  0           0  0  0
    3.2292   -6.3125    0.0000 C   0  0  0  0  0  0           0  0  0
   -0.7250   -3.8000    0.0000 C   0  0  0  0  0  0           0  0  0
    0.1000   -5.2167    0.0000 C   0  0  0  0  0  0           0  0  0
   10.3167   -7.1875    0.0000 C   0  0  0  0  0  0           0  0  0
   10.3167   -8.8375    0.0000 C   0  0  0  0  0  0           0  0  0
    3.0917   -7.1250    0.0000 C   0  0  0  0  0  0           0  0  0
    2.0792   -8.1292    0.0000 C   0  0  0  0  0  0           0  0  0
    2.2917   -7.3375    0.0000 C   0  0  0  0  0  0           0  0  0
   -0.7250   -5.2167    0.0000 C   0  0  0  0  0  0           0  0  0
   -1.1333   -4.5042    0.0000 C   0  0  0  0  0  0           0  0  0
   11.0292   -7.5917    0.0000 C   0  0  0  0  0  0           0  0  0
    1.2542   -8.1292    0.0000 C   0  0  0  0  0  0           0  0  0
   11.0292   -8.4250    0.0000 C   0  0  0  0  0  0           0  0  0
  2  6  1  0     0  0
  3  1  1  0     0  0
  4  3  2  0     0  0
  5 10  1  0     0  0
  6  1  2  0     0  0
  7  5  1  0     0  0
  8  7  2  0     0  0
  9 11  2  0     0  0
 10 12  2  0     0  0
 11  5  1  0     0  0
 12 18  1  0     0  0
 13 14  3  0     0  0
 14 20  1  0     0  0
 15  2  1  0     0  0
 16 19  1  0     0  0
 17  3  1  0     0  0
 18 21  2  0     0  0
 19 24  2  0     0  0
 20 16  2  0     0  0
 21 29  1  0     0  0
 22 28  2  0     0  0
 23 30  2  0     0  0
 24 31  1  0     0  0
 25 15  1  0     0  0
 26 17  1  0     0  0
 27 26  1  0     0  0
 28 25  1  0     0  0
 29 25  2  0     0  0
 30 27  1  0     0  0
 31 27  2  0     0  0
 32  6  1  0     0  0
 33 10  1  0     0  0
 34 12  1  0     0  0
 35 16  1  0     0  0
 36 20  1  0     0  0
 37 32  1  0     0  0
 38 39  1  0     0  0
 39 37  1  0     0  0
 40 34  2  0     0  0
 41 40  1  0     0  0
 42 35  2  0     0  0
 43 38  1  0     0  0
 44 42  1  0     0  0
  2  4  1  0     0  0
 18 22  1  0     0  0
 19 23  1  0     0  0
 41 33  2  0     0  0
 44 36  2  0     0  0
  9  8  1  0     0  0
M  END