
  SciTegic01181116592D

 45 51  0  0  0  0            999 V2000
   -4.1286    2.1958    0.0000 N   0  0
   -4.1286    1.3693    0.0000 C   0  0
   -3.4152    0.9601    0.0000 C   0  0
   -2.7019    1.3693    0.0000 N   0  0
   -2.7019    2.1958    0.0000 C   0  0
   -3.4152    2.6132    0.0000 C   0  0
   -1.9866    0.9549    0.0000 C   0  0
   -1.9911    0.1283    0.0000 C   0  0
   -1.2767   -0.2859    0.0000 C   0  0
   -0.5593    0.1264    0.0000 C   0  0
   -0.5608    0.9572    0.0000 C   0  0
   -1.2757    1.3677    0.0000 C   0  0
   -1.2777    2.1942    0.0000 C   0  0
   -0.5629    2.6093    0.0000 F   0  0
   -1.9946    2.6058    0.0000 F   0  0
    0.1558   -2.7616    0.0000 N   0  0
    0.8740   -2.3440    0.0000 C   0  0
   -0.5606   -2.3474    0.0000 C   0  0
   -0.5583   -1.5256    0.0000 C   0  0
   -1.2677   -1.1144    0.0000 C   0  0
   -1.9799   -1.5240    0.0000 C   0  0
   -1.9783   -2.3490    0.0000 C   0  0
   -1.2683   -2.7564    0.0000 C   0  0
   -2.6936   -1.1112    0.0000 C   0  0
   -2.6923   -0.2835    0.0000 C   0  0
   -3.4073    0.1295    0.0000 N   0  0
   -3.4057   -1.5241    0.0000 C   0  0
   -4.1213   -1.1147    0.0000 C   0  0
   -4.1211   -0.2856    0.0000 C   0  0
   -4.8378    0.1272    0.0000 C   0  0
   -5.5553   -0.2878    0.0000 C   0  0
   -5.5514   -1.1200    0.0000 C   0  0
   -4.8341   -1.5291    0.0000 C   0  0
    0.1564   -1.1135    0.0000 C   0  0
    0.8688   -1.5196    0.0000 C   0  0
    1.5746   -1.1057    0.0000 C   0  0
    1.5691   -0.2859    0.0000 C   0  0
    0.8519    0.1182    0.0000 C   0  0
    0.1492   -0.2981    0.0000 N   0  0
    0.8431    0.9447    0.0000 O   0  0
   -1.2857    3.0224    0.0000 F   0  0
   -4.8456    2.6070    0.0000 C   0  0
   -4.8480    3.4336    0.0000 C   0  0
   -5.5603    2.1916    0.0000 O   0  0
   -4.1335    3.8490    0.0000 C   0  0
 20 21  2  0
  3  4  1  0
 21 22  1  0
 10 11  1  0
 22 23  2  0
 23 18  1  0
  4  5  1  0
 11 12  2  0
 24 25  2  0
 12  7  1  0
 25 26  1  0
 26 29  2  0
  5  6  1  0
 28 27  2  0
 27 24  1  0
 21 24  1  0
 12 13  1  0
 28 29  1  0
 13 14  1  0
 29 30  1  0
  4  7  1  0
 30 31  2  0
 13 15  1  0
 31 32  1  0
 10 39  1  0
 32 33  2  0
 33 28  1  0
 34 19  2  0
  1  2  1  0
 34 35  1  0
 18 16  2  0
 35 36  1  0
  7  8  2  0
 36 37  2  0
 16 17  1  0
 37 38  1  0
 17 35  2  0
 38 39  1  0
 39 34  1  0
  1  6  1  0
 38 40  2  0
  8  9  1  0
 13 41  1  0
 18 19  1  0
  1 42  1  0
  2  3  1  0
 42 43  1  0
 19 20  1  0
 42 44  2  0
  9 10  2  0
 43 45  1  0
M  END