
          02060813472D 1   1.00000     0.00000     0

 22 25  0     0  0            999 V2000
   -2.5288  -10.2095    0.0000 C   0  0  0  0  0  0           0  0  0
   -2.5300  -11.0364    0.0000 C   0  0  0  0  0  0           0  0  0
   -1.8156  -11.4490    0.0000 C   0  0  0  0  0  0           0  0  0
   -1.8174   -9.7971    0.0000 C   0  0  0  0  0  0           0  0  0
   -1.1026  -10.2059    0.0000 C   0  0  0  0  0  0           0  0  0
   -1.1023  -11.0364    0.0000 C   0  0  0  0  0  0           0  0  0
   -0.3129   -9.9491    0.0000 N   0  0  0  0  0  0           0  0  0
    0.1756  -10.6207    0.0000 C   0  0  0  0  0  0           0  0  0
   -0.3157  -11.2906    0.0000 N   0  0  3  0  0  0           0  0  0
    0.1695  -11.9648    0.0000 N   0  0  0  0  0  0           0  0  0
    0.9607  -11.7117    0.0000 S   0  0  0  0  0  0           0  0  0
    0.9643  -10.8811    0.0000 C   0  0  0  0  0  0           0  0  0
   -3.2444  -11.4480    0.0000 S   0  0  3  0  0  0           0  0  0
   -3.9640  -11.8543    0.0000 N   0  0  0  0  0  0           0  0  0
   -2.8358  -12.1641    0.0000 O   0  0  0  0  0  0           0  0  0
   -3.6511  -10.7309    0.0000 O   0  0  0  0  0  0           0  0  0
    1.6335  -10.3994    0.0000 N   0  0  3  0  0  0           0  0  0
    2.3821  -10.7405    0.0000 C   0  0  0  0  0  0           0  0  0
    3.0495  -10.2626    0.0000 C   0  0  0  0  0  0           0  0  0
    2.9712   -9.4416    0.0000 O   0  0  0  0  0  0           0  0  0
    2.2195   -9.1007    0.0000 C   0  0  0  0  0  0           0  0  0
    1.5461   -9.5809    0.0000 C   0  0  0  0  0  0           0  0  0
  9 10  1  0     0  0
 10 11  2  0     0  0
 11 12  2  0     0  0
 12  8  1  0     0  0
  2  3  1  0     0  0
  2 13  1  0     0  0
  3  6  2  0     0  0
 13 14  1  0     0  0
  6  9  1  0     0  0
 13 15  2  0     0  0
  8  7  2  0     0  0
 13 16  2  0     0  0
  7  5  1  0     0  0
 12 17  1  0     0  0
 17 18  1  0     0  0
  8  9  1  0     0  0
  1  2  2  0     0  0
  5  4  2  0     0  0
  4  1  1  0     0  0
  5  6  1  0     0  0
 17 22  1  0     0  0
 18 19  1  0     0  0
 19 20  1  0     0  0
 20 21  1  0     0  0
 21 22  1  0     0  0
M  END