
  CDK    9/16/09,9:51

 26 28  0  0  0  0  0  0  0  0999 V2000
   14.0323  -20.9546    0.0000 C   0  0  0  0  0  0  0  0  0  0  0  0
   14.0323  -21.7832    0.0000 N   0  0  0  0  0  0  0  0  0  0  0  0
   14.7460  -22.1953    0.0000 N   0  0  0  0  0  0  0  0  0  0  0  0
   15.4642  -21.7832    0.0000 C   0  0  0  0  0  0  0  0  0  0  0  0
   14.7460  -20.5380    0.0000 C   0  0  0  0  0  0  0  0  0  0  0  0
   15.4634  -20.9488    0.0000 C   0  0  0  0  0  0  0  0  0  0  0  0
   16.0759  -20.3935    0.0000 C   0  0  0  0  0  0  0  0  0  0  0  0
   15.7370  -19.6393    0.0000 S   0  0  0  0  0  0  0  0  0  0  0  0
   14.9151  -19.7288    0.0000 C   0  0  0  0  0  0  0  0  0  0  0  0
   16.1775  -22.1959    0.0000 O   0  0  0  0  0  0  0  0  0  0  0  0
   16.8826  -20.5621    0.0000 N   0  0  0  0  0  0  0  0  0  0  0  0
   13.3176  -20.5443    0.0000 C   0  0  0  0  0  0  0  0  0  0  0  0
   13.3156  -19.7202    0.0000 O   0  0  0  0  0  0  0  0  0  0  0  0
   12.6049  -20.9580    0.0000 O   0  0  0  0  0  0  0  0  0  0  0  0
   11.8903  -20.5477    0.0000 C   0  0  0  0  0  0  0  0  0  0  0  0
   11.1776  -20.9615    0.0000 C   0  0  0  0  0  0  0  0  0  0  0  0
   14.7428  -23.0159    0.0000 C   0  0  0  0  0  0  0  0  0  0  0  0
   14.0270  -23.4262    0.0000 C   0  0  0  0  0  0  0  0  0  0  0  0
   14.0254  -24.2496    0.0000 C   0  0  0  0  0  0  0  0  0  0  0  0
   14.7391  -24.6635    0.0000 C   0  0  0  0  0  0  0  0  0  0  0  0
   15.4557  -24.2479    0.0000 C   0  0  0  0  0  0  0  0  0  0  0  0
   15.4537  -23.4260    0.0000 C   0  0  0  0  0  0  0  0  0  0  0  0
   14.7391  -25.4876    0.0000 O   0  0  0  0  0  0  0  0  0  0  0  0
   14.0253  -25.8995    0.0000 C   0  0  0  0  0  0  0  0  0  0  0  0
   14.0253  -26.7236    0.0000 O   0  0  0  0  0  0  0  0  0  0  0  0
   13.3117  -25.4874    0.0000 C   0  0  0  0  0  0  0  0  0  0  0  0
  1  2  2  0  0  0  0 
 12 13  2  0  0  0  0 
  1  5  1  0  0  0  0 
 12 14  1  0  0  0  0 
  2  3  1  0  0  0  0 
 14 15  1  0  0  0  0 
  3  4  1  0  0  0  0 
 15 16  1  0  0  0  0 
  6  7  2  0  0  0  0 
  7  8  1  0  0  0  0 
 17 18  2  0  0  0  0 
  8  9  1  0  0  0  0 
 18 19  1  0  0  0  0 
  9  5  2  0  0  0  0 
 19 20  2  0  0  0  0 
  4  6  1  0  0  0  0 
 20 21  1  0  0  0  0 
  4 10  2  0  0  0  0 
 21 22  2  0  0  0  0 
 22 17  1  0  0  0  0 
  3 17  1  0  0  0  0 
  5  6  1  0  0  0  0 
 20 23  1  0  0  0  0 
  7 11  1  0  0  0  0 
 23 24  1  0  0  0  0 
 24 25  2  0  0  0  0 
  1 12  1  0  0  0  0 
 24 26  1  0  0  0  0 
M  END