
  SciTegic05191616132D

 26 26  0  0  0  0            999 V2000
    6.6999   -9.0582    0.0000 S   0  0
    7.4143   -8.6457    0.0000 C   0  0
    8.1288   -9.0582    0.0000 N   0  0
    7.4143   -7.8207    0.0000 N   0  0
    8.8432   -8.6457    0.0000 C   0  0
    5.9854   -8.6457    0.0000 C   0  0
    5.2710   -9.0582    0.0000 C   0  0
    4.5565   -8.6457    0.0000 C   0  0
    3.8423   -9.0582    0.0000 N   0  0
    9.5577   -9.0582    0.0000 C   0  0
   10.2721   -8.6457    0.0000 C   0  0
   10.9890   -9.0645    0.0000 C   0  0
    3.1262   -8.6469    0.0000 C   0  0
    2.4141   -9.0558    0.0000 C   0  0
    2.4100   -9.8809    0.0000 C   0  0
    3.1241  -10.2954    0.0000 C   0  0
    3.8424   -9.8849    0.0000 C   0  0
   11.7033   -8.6514    0.0000 C   0  0
   12.4187   -9.0706    0.0000 C   0  0
   13.1309   -8.6609    0.0000 C   0  0
   13.1346   -7.8353    0.0000 C   0  0
   12.4198   -7.4211    0.0000 C   0  0
   11.7013   -7.8323    0.0000 C   0  0
   13.8496   -7.4251    0.0000 C   0  0
   14.5654   -7.0149    0.0000 N   0  0
    7.8332  -10.5289    0.0000 Cl  0  0
  1  2  1  0
  2  3  1  0
  2  4  2  0
  3  5  1  0
  1  6  1  0
  6  7  1  0
  7  8  1  0
  8  9  1  0
  5 10  1  0
 10 11  1  0
 11 12  1  0
  9 13  1  0
  9 17  1  0
 13 14  1  0
 14 15  1  0
 15 16  1  0
 16 17  1  0
 18 12  1  0
 18 19  1  0
 18 23  2  0
 19 20  2  0
 20 21  1  0
 21 22  2  0
 22 23  1  0
 24 25  3  0
 21 24  1  0
M  END