
          11280715292D 1   1.00000     0.00000     0

 14 14  0     0  0            999 V2000
    1.8667   -0.9917    0.0000 N   0  0  3  0  0  0           0  0  0
    2.6917   -1.0000    0.0000 C   0  0  0  0  0  0           0  0  0
    1.4500   -1.7042    0.0000 C   0  0  0  0  0  0           0  0  0
    3.9250   -1.7167    0.0000 N   0  0  3  0  0  0           0  0  0
    3.1000   -1.7125    0.0000 C   0  0  0  0  0  0           0  0  0
    1.4542   -0.2792    0.0000 C   0  0  0  0  0  0           0  0  0
    0.6292   -1.7042    0.0000 C   0  0  0  0  0  0           0  0  0
    1.8542   -2.4167    0.0000 C   0  0  0  0  0  0           0  0  0
    4.3375   -2.4292    0.0000 C   0  0  0  0  0  0           0  0  0
    4.3417   -1.0042    0.0000 C   0  0  0  0  0  0           0  0  0
    1.4500    0.5458    0.0000 C   0  0  0  0  0  0           0  0  0
    0.2167   -2.4167    0.0000 C   0  0  0  0  0  0           0  0  0
    1.4417   -3.1375    0.0000 C   0  0  0  0  0  0           0  0  0
    0.6167   -3.1292    0.0000 C   0  0  0  0  0  0           0  0  0
  2  1  1  0     0  0
  3  1  1  0     0  0
  4  5  1  0     0  0
  5  2  1  0     0  0
  6  1  1  0     0  0
  7  3  1  0     0  0
  8  3  2  0     0  0
  9  4  1  0     0  0
 10  4  1  0     0  0
 11  6  1  0     0  0
 12  7  2  0     0  0
 13  8  1  0     0  0
 14 13  2  0     0  0
 12 14  1  0     0  0
M  END