
  SciTegic04091416292D

 42 45  0  0  0  0            999 V2000
   14.0200  -16.2666    0.0000 S   0  0
   13.6103  -16.9826    0.0000 O   0  0
   14.4352  -16.9795    0.0000 O   0  0
   11.1578  -13.8056    0.0000 C   0  0
   10.4435  -13.3884    0.0000 C   0  0
    9.7270  -13.7982    0.0000 C   0  0
    9.7237  -14.6253    0.0000 C   0  0
   10.4428  -15.0408    0.0000 C   0  0
   11.1563  -14.6284    0.0000 C   0  0
   10.4490  -12.5614    0.0000 C   0  0
   11.1671  -12.1534    0.0000 C   0  0
   11.1728  -11.3320    0.0000 C   0  0
   10.4621  -10.9125    0.0000 C   0  0
    9.7440  -11.3205    0.0000 C   0  0
    9.7366  -12.1481    0.0000 C   0  0
   10.4429  -15.8657    0.0000 C   0  0
   11.1624  -16.2774    0.0000 N   0  0
   11.8753  -15.8622    0.0000 C   0  0
   12.5912  -16.2720    0.0000 C   0  0
   11.8721  -15.0373    0.0000 O   0  0
   13.3041  -15.8569    0.0000 N   0  0
   13.3010  -15.0319    0.0000 C   0  0
   14.7329  -15.8514    0.0000 C   0  0
   15.4460  -16.2634    0.0000 C   0  0
   16.1584  -15.8489    0.0000 C   0  0
   16.1557  -15.0232    0.0000 C   0  0
   15.4347  -14.6135    0.0000 C   0  0
   14.7254  -15.0303    0.0000 C   0  0
   14.0074  -14.6239    0.0000 F   0  0
   15.4473  -17.0884    0.0000 F   0  0
   16.8742  -16.2591    0.0000 F   0  0
   15.4288  -13.7886    0.0000 F   0  0
   16.8681  -14.6070    0.0000 F   0  0
   11.1680  -17.0998    0.0000 C   0  0
   10.4536  -17.5144    0.0000 C   0  0
   10.4563  -18.3385    0.0000 C   0  0
   11.1729  -18.7491    0.0000 C   0  0
   11.8881  -18.3294    0.0000 C   0  0
   11.8817  -17.5066    0.0000 C   0  0
   11.1784  -19.5750    0.0000 C   0  0
   10.4661  -19.9911    0.0000 O   0  0
   11.8949  -19.9837    0.0000 O   0  0
  2  1  2  0
  1  3  2  0
  4  5  2  0
  5  6  1  0
  6  7  2  0
  7  8  1  0
  8  9  2  0
  9  4  1  0
 10 11  1  0
 10 15  1  0
 11 12  1  0
 12 13  1  0
 13 14  1  0
 14 15  1  0
  5 10  1  0
  8 16  1  0
 16 17  1  0
 17 18  1  0
 18 19  1  0
 18 20  2  0
 19 21  1  0
 21  1  1  0
 21 22  1  0
  1 23  1  0
 23 24  2  0
 24 25  1  0
 25 26  2  0
 26 27  1  0
 27 28  2  0
 28 23  1  0
 28 29  1  0
 24 30  1  0
 25 31  1  0
 27 32  1  0
 26 33  1  0
 34 35  2  0
 35 36  1  0
 36 37  2  0
 37 38  1  0
 38 39  2  0
 39 34  1  0
 17 34  1  0
 40 41  1  0
 40 42  2  0
 37 40  1  0
M  END