
  SciTegic11161115462D

 24 27  0  0  0  0            999 V2000
    3.1130    0.0282    0.0000 C   0  0
    2.3986   -0.3843    0.0000 C   0  0
    2.3986   -1.2093    0.0000 C   0  0
    3.1130   -1.6218    0.0000 C   0  0
    3.8275   -1.2093    0.0000 C   0  0
    3.8275   -0.3843    0.0000 C   0  0
    3.1130    0.8532    0.0000 O   0  0
    0.9696   -0.3843    0.0000 N   0  0
    1.6841    0.0282    0.0000 C   0  0
    1.6841    0.8532    0.0000 N   0  0
    0.9696    1.2657    0.0000 C   0  0
    0.2552    0.8532    0.0000 N   0  0
    0.2552    0.0282    0.0000 C   0  0
   -0.5455   -1.2047    0.0000 C   0  0
   -0.4593   -0.3843    0.0000 N   0  0
   -1.2130   -0.0487    0.0000 C   0  0
   -1.7650   -0.6618    0.0000 C   0  0
   -2.5900   -0.6618    0.0000 C   0  0
   -3.0025   -1.3763    0.0000 C   0  0
   -2.5900   -2.0907    0.0000 C   0  0
   -1.7650   -2.0907    0.0000 C   0  0
   -1.3525   -1.3763    0.0000 C   0  0
   -3.8275   -1.3763    0.0000 F   0  0
    0.9696    2.0907    0.0000 N   0  0
  1  2  1  0
  2  3  2  0
  3  4  1  0
  4  5  2  0
  5  6  1  0
  1  6  2  0
  1  7  1  0
  8  9  1  0
  9 10  2  0
 10 11  1  0
 11 12  2  0
 12 13  1  0
  8 13  2  0
 14 15  1  0
 15 16  1  0
 16 17  1  0
 17 18  1  0
 18 19  2  0
 19 20  1  0
 20 21  2  0
 21 22  1  0
 14 22  1  0
 17 22  2  0
 19 23  1  0
 13 15  1  0
 11 24  1  0
  2  9  1  0
M  END