
  SciTegic01161211262D

 36 39  0  0  0  0            999 V2000
    0.4375   -4.1500    0.0000 O   0  0
   -0.2750   -4.5667    0.0000 S   0  0
    0.4421   -4.9754    0.0000 O   0  0
    0.4095   -2.4958    0.0000 C   0  0
    1.0687   -1.9998    0.0000 C   0  0
    0.8025   -1.2188    0.0000 C   0  0
   -0.0250   -1.2323    0.0000 N   0  0
   -0.2638   -2.0210    0.0000 N   0  0
   -0.5212   -0.5728    0.0000 C   0  0
   -0.1977    0.1874    0.0000 C   0  0
   -0.6940    0.8455    0.0000 C   0  0
   -1.5137    0.7447    0.0000 C   0  0
   -1.8347   -0.0200    0.0000 C   0  0
   -1.3365   -0.6749    0.0000 C   0  0
    1.2786   -0.5478    0.0000 C   0  0
    2.1013   -0.6229    0.0000 C   0  0
    2.5758    0.0511    0.0000 C   0  0
    2.2288    0.8005    0.0000 C   0  0
    1.4026    0.8719    0.0000 C   0  0
    0.9317    0.1970    0.0000 C   0  0
    0.4222   -3.3207    0.0000 C   0  0
   -0.2859   -3.7442    0.0000 N   0  0
    1.1429   -3.7222    0.0000 N   0  0
   -2.0116    1.4025    0.0000 Cl  0  0
   -1.6561   -1.4354    0.0000 Cl  0  0
    1.8509   -3.2987    0.0000 C   0  0
   -0.9812   -4.9925    0.0000 C   0  0
   -1.6998   -4.5867    0.0000 C   0  0
   -2.4074   -5.0094    0.0000 C   0  0
   -2.3951   -5.8352    0.0000 C   0  0
   -1.6694   -6.2364    0.0000 C   0  0
   -0.9648   -5.8113    0.0000 C   0  0
   -3.1026   -6.2596    0.0000 C   0  0
   -3.8238   -5.8591    0.0000 F   0  0
   -3.0888   -7.0845    0.0000 F   0  0
   -3.8208   -6.6667    0.0000 F   0  0
  9 10  2  0
 18 19  1  0
  4  5  1  0
 19 20  2  0
 20 15  1  0
  6 15  1  0
 10 11  1  0
  4 21  1  0
 21 22  2  0
 11 12  2  0
 21 23  1  0
  5  6  1  0
 12 24  1  0
 12 13  1  0
 14 25  1  0
  6  7  1  0
 23 26  1  0
 22  2  1  0
 13 14  2  0
  2 27  1  0
 14  9  1  0
 27 28  2  0
  7  9  1  0
 28 29  1  0
  7  8  1  0
 29 30  2  0
  8  4  2  0
 30 31  1  0
 15 16  2  0
 31 32  2  0
 32 27  1  0
  2  1  2  0
 30 33  1  0
 16 17  1  0
 33 34  1  0
  3  2  2  0
 33 35  1  0
 17 18  2  0
 33 36  1  0
M  END