
  SciTegic01161211252D

 16 15  0  0  0  0            999 V2000
    7.1042   -2.6625    0.0000 P   0  0
    6.4042   -3.0667    0.0000 C   0  0
    2.9250   -2.6792    0.0000 P   0  0
    3.6250   -3.0792    0.0000 C   0  0
    4.3167   -2.6667    0.0000 C   0  0
    5.7125   -2.6625    0.0000 C   0  0
    7.7417   -3.1667    0.0000 O   0  0
    7.8917   -2.4542    0.0000 O   0  0
    7.1000   -1.8542    0.0000 O   0  0
    2.0542   -3.2042    0.0000 O   0  0
    2.0917   -2.2042    0.0000 O   0  0
    2.9167   -1.8667    0.0000 O   0  0
    5.0125   -3.0667    0.0000 N   0  0
    6.0000   -3.7625    0.0000 F   0  0
    6.8042   -3.7625    0.0000 F   0  0
    4.3167   -1.8542    0.0000 O   0  0
  2  1  1  0
  3  4  1  0
  4  5  1  0
  5 13  1  0
  6  2  1  0
  7  1  1  0
  8  1  1  0
  9  1  2  0
 10  3  1  0
 11  3  1  0
 12  3  2  0
 13  6  1  0
 14  2  1  0
 15  2  1  0
 16  5  2  0
M  END