
  SciTegic12171312592D

 23 24  0  0  0  0            999 V2000
    9.3594  -26.3264    0.0000 C   0  0
    9.3594  -27.1419    0.0000 C   0  0
   10.0673  -27.5538    0.0000 C   0  0
   10.7753  -27.1419    0.0000 C   0  0
   10.7753  -26.3264    0.0000 C   0  0
   10.0673  -25.9145    0.0000 C   0  0
   11.4874  -27.5538    0.0000 C   0  0
   12.1953  -27.1419    0.0000 N   0  0
   12.1953  -26.3264    0.0000 C   0  0
   11.4874  -25.9145    0.0000 C   0  0
   11.4874  -28.3730    0.0000 Cl  0  0
   11.4874  -25.0952    0.0000 O   0  0
   12.9029  -25.9147    0.0000 C   0  0
   12.9029  -25.0954    0.0000 O   0  0
   13.6147  -26.3264    0.0000 N   0  0
   14.3223  -25.9147    0.0000 C   0  0  1  0  0  0
   15.0299  -26.3264    0.0000 C   0  0
   14.3221  -25.0955    0.0000 C   0  0
   15.7375  -25.9147    0.0000 O   0  0
   15.0299  -27.1415    0.0000 O   0  0
   15.0300  -24.6868    0.0000 C   0  0
   15.7377  -25.0954    0.0000 O   0  0
   15.0300  -23.8696    0.0000 O   0  0
  1  2  2  0
  2  3  1  0
  3  4  2  0
  4  5  1  0
  5  6  2  0
  6  1  1  0
  4  7  1  0
  7  8  2  0
  8  9  1  0
  9 10  2  0
 10  5  1  0
  7 11  1  0
 10 12  1  0
  9 13  1  0
 13 14  2  0
 13 15  1  0
 15 16  1  0
 16 17  1  0
 16 18  1  6
 17 19  1  0
 17 20  2  0
 18 21  1  0
 21 22  2  0
 21 23  1  0
M  END