
  SciTegic12231509382D

 35 38  0  0  0  0            999 V2000
   10.3911  -16.8101    0.0000 C   0  0  2  0  0  0
   11.8131  -16.8197    0.0000 C   0  0
    8.9643  -16.8101    0.0000 C   0  0
    9.6729  -17.2226    0.0000 C   0  0
   11.0948  -17.2226    0.0000 C   0  0
   10.3960  -15.9851    0.0000 C   0  0  2  0  0  0
   11.8179  -15.9947    0.0000 C   0  0
    8.2461  -17.2226    0.0000 C   0  0
    7.5327  -16.8101    0.0000 C   0  0
    7.5327  -15.9802    0.0000 C   0  0
   11.1094  -15.5774    0.0000 C   0  0  1  0  0  0
    8.9643  -15.9802    0.0000 C   0  0  2  0  0  0
    9.6777  -15.5628    0.0000 C   0  0
    6.8193  -15.5676    0.0000 C   0  0
    8.2461  -15.5628    0.0000 C   0  0
   12.5265  -17.2323    0.0000 C   0  0
    6.1059  -15.9802    0.0000 C   0  0
    6.8193  -17.2226    0.0000 C   0  0
   11.0899  -18.0476    0.0000 O   0  0
    8.2412  -18.0476    0.0000 O   0  0
   11.1143  -14.7475    0.0000 N   0  0
    6.8193  -14.7426    0.0000 N   0  0
   10.3863  -17.6303    0.0000 O   0  0
   12.5216  -18.0525    0.0000 O   0  0
    9.6729  -18.0476    0.0000 O   0  0
   12.5362  -15.5871    0.0000 O   0  0
    6.1059  -16.8101    0.0000 C   0  0
   13.2399  -16.8197    0.0000 N   0  0
    6.8241  -18.0476    0.0000 O   0  0
   11.8325  -14.3399    0.0000 C   0  0
   10.4009  -14.3350    0.0000 C   0  0
    7.5327  -14.3301    0.0000 C   0  0
    6.1010  -14.3350    0.0000 C   0  0
   10.3863  -15.1552    0.0000 H   0  0
    8.9595  -15.1552    0.0000 H   0  0
  2  5  1  0
  3  4  2  0
  4  1  1  0
  5  1  1  0
  6  1  1  0
  7 11  1  0
  8  3  1  0
  9  8  1  0
 10 15  1  0
 11  6  1  0
 12 13  1  0
 13  6  1  0
 14 10  2  0
 15 12  1  0
 16  2  1  0
 17 14  1  0
 18  9  2  0
 19  5  2  0
 20  8  2  0
 11 21  1  6
 22 14  1  0
  1 23  1  6
 24 16  2  0
 25  4  1  0
 26  7  1  0
 27 18  1  0
 28 16  1  0
 29 18  1  0
 30 21  1  0
 31 21  1  0
 32 22  1  0
 33 22  1  0
  6 34  1  6
 12 35  1  6
  3 12  1  0
  7  2  2  0
  9 10  1  0
 27 17  2  0
M  END