
  SciTegic01311418092D

 20 19  0  0  0  0            999 V2000
    7.7789   -1.3581    0.0000 C   0  0
    8.5131   -0.9550    0.0000 O   0  0
    7.7789   -2.1499    0.0000 O   0  0
    7.0686   -0.9550    0.0000 C   0  0
    6.3488   -1.3581    0.0000 C   0  0
   -3.7574   -1.3581    0.0000 C   0  0
   -3.0328   -0.9550    0.0000 C   0  0
    2.0059   -1.3581    0.0000 C   0  0
    1.2669   -0.9550    0.0000 C   0  0
    0.5519   -1.3581    0.0000 C   0  0
   -0.1679   -0.9550    0.0000 C   0  0
   -0.8782   -1.3581    0.0000 C   0  0
   -1.5932   -0.9550    0.0000 C   0  0
   -2.3274   -1.3581    0.0000 C   0  0
    4.8996   -1.3581    0.0000 C   0  0
    5.6050   -0.9550    0.0000 C   0  0
    4.1749   -0.9550    0.0000 C   0  0
    3.4600   -1.3581    0.0000 C   0  0
    2.7257   -0.9550    0.0000 C   0  0
   -4.5012   -0.9550    0.0000 C   0  0
  2  1  1  0
  3  1  2  0
  4  1  1  0
  5  4  1  0
  6  7  1  0
  7 14  1  0
  8 19  1  0
  9  8  1  0
 10  9  1  0
 11 10  1  0
 12 11  1  0
 13 12  1  0
 14 13  1  0
 15 16  1  0
 16  5  1  0
 17 15  1  0
 18 17  1  0
 19 18  1  0
 20  6  1  0
M  END