
  SciTegic03161210572D

 37 38  0  0  0  0            999 V2000
   13.2542   -5.3000    0.0000 F   0  0
   13.6708   -6.0167    0.0000 C   0  0
   14.0832   -5.2975    0.0000 F   0  0
   13.3625   -7.1417    0.0000 F   0  0
   12.9542   -6.4292    0.0000 C   0  0
   12.5413   -7.1390    0.0000 F   0  0
   11.8250   -5.3000    0.0000 F   0  0
   12.2417   -6.0167    0.0000 C   0  0
   12.6540   -5.2975    0.0000 F   0  0
   11.9333   -7.1417    0.0000 F   0  0
   11.5250   -6.4292    0.0000 C   0  0
   11.1121   -7.1390    0.0000 F   0  0
   10.3958   -5.3000    0.0000 F   0  0
   10.8125   -6.0167    0.0000 C   0  0
   11.2248   -5.2975    0.0000 F   0  0
   10.5042   -7.1417    0.0000 F   0  0
   10.0958   -6.4292    0.0000 C   0  0
    9.6830   -7.1390    0.0000 F   0  0
    8.6708   -6.4333    0.0000 N   0  0
    9.3853   -6.0208    0.0000 C   0  0
    9.3853   -5.1958    0.0000 O   0  0
   14.3866   -6.4333    0.0000 C   0  0
   15.1011   -6.0208    0.0000 N   0  0
   14.3866   -7.2583    0.0000 O   0  0
   15.8155   -6.4333    0.0000 O   0  0
    7.9564   -6.0208    0.0000 C   0  0
    7.9613   -5.1948    0.0000 C   0  0
    7.2477   -4.7823    0.0000 C   0  0
    6.5322   -5.1949    0.0000 C   0  0
    6.5349   -6.0242    0.0000 C   0  0
    7.2491   -6.4328    0.0000 C   0  0
    5.8192   -4.7834    0.0000 C   0  0
    5.8195   -3.9573    0.0000 C   0  0
    5.1053   -3.5458    0.0000 C   0  0
    4.3904   -3.9593    0.0000 C   0  0
    4.3941   -4.7886    0.0000 C   0  0
    5.1089   -5.1963    0.0000 C   0  0
 17 14  1  0
 14 11  1  0
 11  8  1  0
  8  5  1  0
  5  2  1  0
 14 13  1  0
  2 22  1  0
 15 14  1  0
 22 23  1  0
  9  8  1  0
 22 24  2  0
  5  4  1  0
 23 25  1  0
  6  5  1  0
 19 26  1  0
 17 16  1  0
 26 27  2  0
 18 17  1  0
 27 28  1  0
 28 29  2  0
 11 10  1  0
 29 30  1  0
 12 11  1  0
 30 31  2  0
 31 26  1  0
  2  1  1  0
  3  2  1  0
 32 33  2  0
 19 20  1  0
 33 34  1  0
 20 17  1  0
 34 35  2  0
  8  7  1  0
 35 36  1  0
 20 21  2  0
 36 37  2  0
 37 32  1  0
 29 32  1  0
M  END