
          11280715032D 1   1.00000     0.00000     0

 18 18  0     0  0            999 V2000
    3.6917   -3.1417    0.0000 C   0  0  0  0  0  0           0  0  0
    4.4000   -2.7292    0.0000 O   0  0  0  0  0  0           0  0  0
    3.6917   -3.9667    0.0000 C   0  0  0  0  0  0           0  0  0
    7.2667   -2.7167    0.0000 N   0  0  0  0  0  0           0  0  0
    2.9750   -2.7375    0.0000 C   0  0  0  0  0  0           0  0  0
    7.9750   -3.1292    0.0000 C   0  0  3  0  0  0           0  0  0
    2.9750   -4.3667    0.0000 C   0  0  0  0  0  0           0  0  0
    5.8375   -2.7292    0.0000 C   0  0  3  0  0  0           0  0  0
    5.1167   -3.1417    0.0000 C   0  0  0  0  0  0           0  0  0
    6.5417   -3.1292    0.0000 C   0  0  0  0  0  0           0  0  0
    2.2667   -3.1500    0.0000 C   0  0  0  0  0  0           0  0  0
    4.4000   -4.4042    0.0000 Cl  0  0  0  0  0  0           0  0  0
    2.2667   -3.9542    0.0000 C   0  0  0  0  0  0           0  0  0
    5.8375   -1.9042    0.0000 O   0  0  0  0  0  0           0  0  0
    8.4042   -2.4125    0.0000 C   0  0  0  0  0  0           0  0  0
    7.5625   -3.8500    0.0000 C   0  0  0  0  0  0           0  0  0
    8.6917   -3.5417    0.0000 C   0  0  0  0  0  0           0  0  0
    1.5292   -2.7542    0.0000 C   0  0  0  0  0  0           0  0  0
  2  1  1  0     0  0
  3  1  2  0     0  0
  4 10  1  0     0  0
  5  1  1  0     0  0
  6  4  1  0     0  0
  7  3  1  0     0  0
  8  9  1  0     0  0
  9  2  1  0     0  0
 10  8  1  0     0  0
 11  5  2  0     0  0
 12  3  1  0     0  0
 13 11  1  0     0  0
 14  8  1  0     0  0
 15  6  1  0     0  0
 16  6  1  0     0  0
 17  6  1  0     0  0
 18 11  1  0     0  0
 13  7  2  0     0  0
M  END