
  SciTegic05171617282D

 35 38  0  0  0  0            999 V2000
   -8.8511    5.8554    0.0000 C   0  0
   -7.8126    5.2541    0.0000 C   0  0
   -7.8141    4.2541    0.0000 C   0  0
   -6.5114    6.0021    0.0000 N   0  0
   -6.5122    7.5029    0.0000 C   0  0
   -7.8118    8.2535    0.0000 C   0  0
   -7.8148    9.7535    0.0000 C   0  0
   -9.1152   10.5010    0.0000 C   0  0
  -10.4129    9.7485    0.0000 C   0  0
  -10.4100    8.2485    0.0000 C   0  0
   -9.1095    7.5010    0.0000 C   0  0
   -5.2118    5.2515    0.0000 C   0  0
   -4.1727    5.8517    0.0000 O   0  0
   -5.2110    3.7506    0.0000 C   0  0
   -3.9114    3.0001    0.0000 N   0  0
   -3.9106    1.4992    0.0000 S   0  0
   -4.9500    2.0989    0.0000 O   0  0
   -4.9497    0.8990    0.0000 O   0  0
   -2.6111    0.7486    0.0000 C   0  0
   -2.6111   -0.7486    0.0000 C   0  0
   -1.2964   -1.4973    0.0000 C   0  0
    0.0000   -0.7486    0.0000 C   0  0
    1.2964   -1.4973    0.0000 N   0  0
    2.5929   -0.7486    0.0000 C   0  0
    3.6321   -1.3486    0.0000 O   0  0
    2.5929    0.7486    0.0000 C   0  0
    1.2964    1.4973    0.0000 C   0  0
    0.0000    0.7486    0.0000 C   0  0
   -1.2964    1.4973    0.0000 C   0  0
   -6.5106    3.0000    0.0000 C   0  0
   -6.5124    1.5000    0.0000 C   0  0
   -7.8124    0.7515    0.0000 C   0  0
   -9.1105    1.5030    0.0000 C   0  0
   -9.1087    3.0030    0.0000 C   0  0
   -7.8088    3.7515    0.0000 C   0  0
  1  2  1  0
  2  3  1  0
  2  4  1  0
  4  5  1  0
  5  6  1  0
  6  7  2  0
  7  8  1  0
  8  9  2  0
  9 10  1  0
 10 11  2  0
  6 11  1  0
  4 12  1  0
 12 13  2  0
 12 14  1  0
 14 15  1  0
 15 16  1  0
 16 17  2  0
 16 18  2  0
 16 19  1  0
 19 20  2  0
 20 21  1  0
 21 22  2  0
 22 23  1  0
 23 24  1  0
 24 25  2  0
 24 26  1  0
 26 27  1  0
 27 28  1  0
 22 28  1  0
 28 29  2  0
 19 29  1  0
 14 30  1  0
 30 31  2  0
 31 32  1  0
 32 33  2  0
 33 34  1  0
 34 35  2  0
 30 35  1  0
M  END