
  CDK    9/16/09,9:56

 25 28  0  0  0  0  0  0  0  0999 V2000
    3.4010   -6.1418    0.0000 C   0  0  0  0  0  0  0  0  0  0  0  0
    3.4010   -6.9714    0.0000 C   0  0  0  0  0  0  0  0  0  0  0  0
    4.1154   -7.3839    0.0000 N   0  0  0  0  0  0  0  0  0  0  0  0
    4.8345   -6.9714    0.0000 C   0  0  0  0  0  0  0  0  0  0  0  0
    4.8345   -6.1418    0.0000 C   0  0  0  0  0  0  0  0  0  0  0  0
    4.1154   -5.7248    0.0000 O   0  0  0  0  0  0  0  0  0  0  0  0
    5.5494   -5.7301    0.0000 C   0  0  0  0  0  0  0  0  0  0  0  0
    6.2635   -6.1432    0.0000 O   0  0  0  0  0  0  0  0  0  0  0  0
    6.9784   -5.7315    0.0000 C   0  0  0  0  0  0  0  0  0  0  0  0
    7.6892   -6.1485    0.0000 C   0  0  0  0  0  0  0  0  0  0  0  0
    8.4037   -5.7374    0.0000 C   0  0  0  0  0  0  0  0  0  0  0  0
    8.4049   -4.9115    0.0000 C   0  0  0  0  0  0  0  0  0  0  0  0
    7.6858   -4.4985    0.0000 C   0  0  0  0  0  0  0  0  0  0  0  0
    6.9743   -4.9120    0.0000 C   0  0  0  0  0  0  0  0  0  0  0  0
    9.1192   -4.4988    0.0000 C   0  0  0  0  0  0  0  0  0  0  0  0
    9.8339   -4.9111    0.0000 N   0  0  0  0  0  0  0  0  0  0  0  0
    9.8297   -5.7394    0.0000 C   0  0  0  0  0  0  0  0  0  0  0  0
   10.5404   -6.1516    0.0000 C   0  0  0  0  0  0  0  0  0  0  0  0
   11.2571   -5.7424    0.0000 O   0  0  0  0  0  0  0  0  0  0  0  0
   11.2588   -4.9164    0.0000 C   0  0  0  0  0  0  0  0  0  0  0  0
   10.5438   -4.4997    0.0000 C   0  0  0  0  0  0  0  0  0  0  0  0
    4.1142   -8.2090    0.0000 C   0  0  0  0  0  0  0  0  0  0  0  0
    3.5280   -8.7895    0.0000 C   0  0  0  0  0  0  0  0  0  0  0  0
    4.1106   -9.3736    0.0000 C   0  0  0  0  0  0  0  0  0  0  0  0
    4.6948   -8.7910    0.0000 C   0  0  0  0  0  0  0  0  0  0  0  0
  5  6  1  0  0  0  0 
 12 13  1  0  0  0  0 
 13 14  2  0  0  0  0 
 14  9  1  0  0  0  0 
  5  7  1  0  0  0  0 
 12 15  1  0  0  0  0 
  1  2  1  0  0  0  0 
 15 16  1  0  0  0  0 
 16 17  1  0  0  0  0 
  7  8  1  0  0  0  0 
  1  6  1  0  0  0  0 
  8  9  1  0  0  0  0 
  2  3  1  0  0  0  0 
  9 10  2  0  0  0  0 
 16 21  1  0  0  0  0 
 17 18  1  0  0  0  0 
 18 19  1  0  0  0  0 
 19 20  1  0  0  0  0 
 20 21  1  0  0  0  0 
  3  4  1  0  0  0  0 
  3 22  1  0  0  0  0 
 22 23  1  0  0  0  0 
 10 11  1  0  0  0  0 
  4  5  1  0  0  0  0 
 11 12  2  0  0  0  0 
 23 24  1  0  0  0  0 
 24 25  1  0  0  0  0 
 25 22  1  0  0  0  0 
M  END