
  SciTegic01161211222D

 43 48  0  0  0  0            999 V2000
    0.2634   -0.2258    0.0000 N   0  0
    1.6896   -0.2330    0.0000 C   0  0  1  0  0  0
    0.9784    0.1868    0.0000 C   0  0
   -1.1143    1.4689    0.0000 C   0  0
   -0.4096    1.0346    0.0000 C   0  0
   -0.4333    0.2071    0.0000 C   0  0
    2.4247    0.1249    0.0000 C   0  0
    3.1253   -0.3094    0.0000 N   0  0
    2.4443    0.9524    0.0000 O   0  0
    3.0973   -1.1331    0.0000 C   0  0
    3.7938   -1.5672    0.0000 C   0  0
    4.5246   -1.1776    0.0000 N   0  0
    4.5503   -0.3492    0.0000 C   0  0
    3.8453    0.0896    0.0000 C   0  0
    5.2205   -1.6137    0.0000 C   0  0
    5.1922   -2.4421    0.0000 C   0  0
    5.8945   -2.8790    0.0000 C   0  0
    6.6213   -2.4886    0.0000 C   0  0
    6.6456   -1.6568    0.0000 C   0  0
    5.9468   -1.2237    0.0000 C   0  0
    7.3261   -2.9265    0.0000 N   0  3
    8.0513   -2.5351    0.0000 O   0  0
    7.3004   -3.7540    0.0000 O   0  5
    0.3148    1.4277    0.0000 C   0  0
   -1.8386    1.0758    0.0000 C   0  0
   -2.5398    1.5122    0.0000 C   0  0
   -2.5822   -0.1429    0.0000 C   0  0
   -1.8571    0.2521    0.0000 C   0  0
   -3.2878    0.2914    0.0000 C   0  0
   -3.2644    1.1179    0.0000 C   0  0
   -4.0432    1.3955    0.0000 O   0  0
   -4.5438    0.7406    0.0000 C   0  0
   -4.0811    0.0583    0.0000 O   0  0
    1.6849    0.5978    0.0000 H   0  0
    1.6855   -1.0608    0.0000 C   0  0
    0.9668   -1.4681    0.0000 C   0  0  1  0  0  0
    0.2592   -1.0536    0.0000 C   0  0  1  0  0  0
   -0.4495   -1.4568    0.0000 C   0  0
   -0.4570   -2.2762    0.0000 C   0  0
    0.2506   -2.6907    0.0000 C   0  0
    0.9656   -2.2858    0.0000 C   0  0
    1.6807   -1.8814    0.0000 H   0  0
   -0.5435   -0.8361    0.0000 H   0  0
 12 15  1  0
  8 10  1  0
  4  5  1  0
 21 22  2  0
 21 23  1  0
 18 21  1  0
  1  3  1  0
  5 24  1  0
  5  6  1  0
  4 25  1  0
  6  1  1  0
 25 26  2  0
 26 30  1  0
  8 14  1  0
 29 27  1  0
 10 11  1  0
 27 28  2  0
 28 25  1  0
 29 30  2  0
 11 12  1  0
 12 13  1  0
 13 14  1  0
 35  2  1  0
  2  7  1  0
 30 31  1  0
 31 32  1  0
 32 33  1  0
 33 29  1  0
 15 16  2  0
  2 34  1  6
 35 36  1  0
  2  3  1  0
 36 37  1  0
 16 17  1  0
  7  8  1  0
 17 18  2  0
  1 37  1  0
 18 19  1  0
  7  9  2  0
 36 41  1  0
 37 38  1  0
 38 39  1  0
 39 40  1  0
 40 41  1  0
 19 20  2  0
 36 42  1  1
 20 15  1  0
 37 43  1  6
M  CHG  2  21   1  23  -1
M  END