
          11280715132D 1   1.00000     0.00000     0

 29 31  0     0  0            999 V2000
    5.5250   -7.0667    0.0000 C   0  0  0  0  0  0           0  0  0
   -1.3208   -5.1500    0.0000 N   0  0  3  0  0  0           0  0  0
    4.8125   -6.6542    0.0000 C   0  0  0  0  0  0           0  0  0
   -2.0375   -4.7375    0.0000 C   0  0  0  0  0  0           0  0  0
    4.0917   -5.4167    0.0000 N   0  0  0  0  0  0           0  0  0
    0.2292   -5.6917    0.0000 N   0  0  3  0  0  0           0  0  0
    6.2417   -6.6542    0.0000 N   0  0  3  0  0  0           0  0  0
    3.3792   -5.8292    0.0000 C   0  0  0  0  0  0           0  0  0
    4.8042   -5.8292    0.0000 C   0  0  0  0  0  0           0  0  0
    5.5292   -7.8917    0.0000 O   0  0  0  0  0  0           0  0  0
   -1.1708   -5.9542    0.0000 C   0  0  0  0  0  0           0  0  0
   -0.6958   -4.6167    0.0000 C   0  0  0  0  0  0           0  0  0
    4.0917   -7.0667    0.0000 C   0  0  0  0  0  0           0  0  0
   -2.0375   -3.9042    0.0000 C   0  0  0  0  0  0           0  0  0
    0.0792   -4.8792    0.0000 C   0  0  0  0  0  0           0  0  0
   -0.3958   -6.2375    0.0000 C   0  0  0  0  0  0           0  0  0
    2.7542   -5.4667    0.0000 N   0  0  0  0  0  0           0  0  0
    3.3792   -6.6542    0.0000 C   0  0  0  0  0  0           0  0  0
   -1.3250   -3.4917    0.0000 O   0  0  0  0  0  0           0  0  0
    0.8917   -6.0000    0.0000 C   0  0  0  0  0  0           0  0  0
    1.4917   -5.5792    0.0000 C   0  0  0  0  0  0           0  0  0
   -2.7583   -5.1500    0.0000 C   0  0  0  0  0  0           0  0  0
    2.1542   -5.8875    0.0000 C   0  0  0  0  0  0           0  0  0
    6.9542   -7.0667    0.0000 C   0  0  0  0  0  0           0  0  0
    6.2375   -5.8292    0.0000 C   0  0  0  0  0  0           0  0  0
   -2.7583   -3.4917    0.0000 C   0  0  0  0  0  0           0  0  0
   -0.6083   -3.9000    0.0000 C   0  0  0  0  0  0           0  0  0
   -3.4708   -4.7375    0.0000 C   0  0  0  0  0  0           0  0  0
   -3.4708   -3.9042    0.0000 C   0  0  0  0  0  0           0  0  0
  2 11  1  0     0  0
  3  1  1  0     0  0
  4  2  1  0     0  0
  5  9  2  0     0  0
  6 20  1  0     0  0
  7  1  1  0     0  0
  8 18  2  0     0  0
  9  3  1  0     0  0
 10  1  2  0     0  0
 11 16  1  0     0  0
 12 15  1  0     0  0
 13  3  2  0     0  0
 14  4  1  0     0  0
 15  6  1  0     0  0
 16  6  1  0     0  0
 17  8  1  0     0  0
 18 13  1  0     0  0
 19 14  1  0     0  0
 20 21  1  0     0  0
 21 23  1  0     0  0
 22  4  2  0     0  0
 23 17  1  0     0  0
 24  7  1  0     0  0
 25  7  1  0     0  0
 26 14  2  0     0  0
 27 19  1  0     0  0
 28 22  1  0     0  0
 29 28  2  0     0  0
  8  5  1  0     0  0
  2 12  1  0     0  0
 29 26  1  0     0  0
M  END