
  CDK    9/16/09,9:46

107112  0  0  0  0  0  0  0  0999 V2000
   13.0405   -8.6929    0.0000 N   0  0  0  0  0  0  0  0  0  0  0  0
   15.1830   -8.2822    0.0000 N   0  0  0  0  0  0  0  0  0  0  0  0
   15.8863   -8.7134    0.0000 C   0  0  0  0  0  0  0  0  0  0  0  0
   16.6327   -7.4945    0.0000 O   0  0  0  0  0  0  0  0  0  0  0  0
   16.6111   -8.3195    0.0000 C   0  0  0  0  0  0  0  0  0  0  0  0
   15.8622   -9.5388    0.0000 C   0  0  0  0  0  0  0  0  0  0  0  0
   16.5747   -9.9545    0.0000 C   0  0  0  0  0  0  0  0  0  0  0  0
   16.5706  -10.7794    0.0000 C   0  0  0  0  0  0  0  0  0  0  0  0
   17.2914   -9.5453    0.0000 C   0  0  0  0  0  0  0  0  0  0  0  0
   17.3145   -8.7507    0.0000 N   0  0  0  0  0  0  0  0  0  0  0  0
   18.0439   -8.3568    0.0000 C   0  0  0  0  0  0  0  0  0  0  0  0
   19.4722   -8.3942    0.0000 O   0  0  0  0  0  0  0  0  0  0  0  0
   18.7473   -8.7880    0.0000 C   0  0  0  0  0  0  0  0  0  0  0  0
   18.0655   -7.5319    0.0000 C   0  0  0  0  0  0  0  0  0  0  0  0
   18.8119   -6.3130    0.0000 C   0  0  0  0  0  0  0  0  0  0  0  0
   18.7903   -7.1380    0.0000 C   0  0  0  0  0  0  0  0  0  0  0  0
   19.4937   -7.5691    0.0000 C   0  0  0  0  0  0  0  0  0  0  0  0
   20.2186   -7.1753    0.0000 C   0  0  0  0  0  0  0  0  0  0  0  0
   20.2401   -6.3502    0.0000 C   0  0  0  0  0  0  0  0  0  0  0  0
   19.5367   -5.9191    0.0000 C   0  0  0  0  0  0  0  0  0  0  0  0
   20.9650   -5.9564    0.0000 O   0  0  0  0  0  0  0  0  0  0  0  0
   18.7259   -9.6130    0.0000 N   0  0  0  0  0  0  0  0  0  0  0  0
   19.3812  -10.1172    0.0000 C   0  0  0  0  0  0  0  0  0  0  0  0
   20.0801   -8.8490    0.0000 O   0  0  0  0  0  0  0  0  0  0  0  0
   20.0775   -9.6729    0.0000 C   0  0  0  0  0  0  0  0  0  0  0  0
   19.1052  -10.8963    0.0000 C   0  0  0  0  0  0  0  0  0  0  0  0
   18.0454  -10.0829    0.0000 C   0  0  0  0  0  0  0  0  0  0  0  0
   18.2802  -10.8749    0.0000 C   0  0  0  0  0  0  0  0  0  0  0  0
   20.7880  -10.0908    0.0000 N   0  0  0  0  0  0  0  0  0  0  0  0
   21.5055   -9.6839    0.0000 C   0  0  0  0  0  0  0  0  0  0  0  0
   22.2090  -10.9268    0.0000 O   0  0  0  0  0  0  0  0  0  0  0  0
   22.2160  -10.1019    0.0000 C   0  0  0  0  0  0  0  0  0  0  0  0
   21.5127   -8.8590    0.0000 C   0  0  0  0  0  0  0  0  0  0  0  0
   20.7978   -8.4421    0.0000 S   0  0  0  0  0  0  0  0  0  0  0  0
   22.9337   -9.6949    0.0000 O   0  0  0  0  0  0  0  0  0  0  0  0
   13.7526   -8.2826    0.0000 C   0  0  0  0  0  0  0  0  0  0  0  0
   14.4679   -8.6941    0.0000 C   0  0  0  0  0  0  0  0  0  0  0  0
   14.4691   -9.5194    0.0000 O   0  0  0  0  0  0  0  0  0  0  0  0
   -2.6817  -11.9891    0.0000 N   0  0  0  0  0  0  0  0  0  0  0  0
   -3.3961  -12.4017    0.0000 C   0  0  0  0  0  0  0  0  0  0  0  0
   -4.1104  -11.9891    0.0000 N   0  0  0  0  0  0  0  0  0  0  0  0
   -3.3961  -13.2270    0.0000 N   0  0  0  0  0  0  0  0  0  0  0  0
   -3.3961   -9.9259    0.0000 N   0  0  0  0  0  0  0  0  0  0  0  0
   -2.6817   -9.5132    0.0000 C   0  0  0  0  0  0  0  0  0  0  0  0
   -3.3961   -8.2753    0.0000 O   0  0  0  0  0  0  0  0  0  0  0  0
   -2.6817   -8.6880    0.0000 C   0  0  0  0  0  0  0  0  0  0  0  0
   -1.9628   -9.9259    0.0000 C   0  0  0  0  0  0  0  0  0  0  0  0
   -1.9628  -10.7512    0.0000 C   0  0  0  0  0  0  0  0  0  0  0  0
   -2.6817  -11.1638    0.0000 C   0  0  0  0  0  0  0  0  0  0  0  0
   -1.9628   -8.2753    0.0000 N   0  0  0  0  0  0  0  0  0  0  0  0
   -1.2484   -8.6880    0.0000 C   0  0  0  0  0  0  0  0  0  0  0  0
   -0.5340   -7.4500    0.0000 O   0  0  0  0  0  0  0  0  0  0  0  0
   -0.5340   -8.2753    0.0000 C   0  0  0  0  0  0  0  0  0  0  0  0
   -1.2484   -9.5132    0.0000 C   0  0  0  0  0  0  0  0  0  0  0  0
   -0.5340  -10.7512    0.0000 C   0  0  0  0  0  0  0  0  0  0  0  0
   -0.5340   -9.9259    0.0000 C   0  0  0  0  0  0  0  0  0  0  0  0
    0.1804   -9.5132    0.0000 C   0  0  0  0  0  0  0  0  0  0  0  0
    0.8947   -9.9259    0.0000 C   0  0  0  0  0  0  0  0  0  0  0  0
    0.8947  -10.7512    0.0000 C   0  0  0  0  0  0  0  0  0  0  0  0
    0.1804  -11.1638    0.0000 C   0  0  0  0  0  0  0  0  0  0  0  0
    0.1804   -8.6880    0.0000 N   0  0  0  0  0  0  0  0  0  0  0  0
    0.8947   -8.2753    0.0000 C   0  0  0  0  0  0  0  0  0  0  0  0
    1.6091   -9.5132    0.0000 O   0  0  0  0  0  0  0  0  0  0  0  0
    1.6091   -8.6880    0.0000 C   0  0  0  0  0  0  0  0  0  0  0  0
    0.8947   -7.4500    0.0000 C   0  0  0  0  0  0  0  0  0  0  0  0
    2.3235   -8.2753    0.0000 N   0  0  0  0  0  0  0  0  0  0  0  0
    3.0378   -8.6880    0.0000 C   0  0  0  0  0  0  0  0  0  0  0  0
    3.7522   -7.4500    0.0000 O   0  0  0  0  0  0  0  0  0  0  0  0
    3.7522   -8.2753    0.0000 C   0  0  0  0  0  0  0  0  0  0  0  0
    3.0378   -9.5132    0.0000 C   0  0  0  0  0  0  0  0  0  0  0  0
    3.7522   -9.9259    0.0000 O   0  0  0  0  0  0  0  0  0  0  0  0
    2.3235   -9.9259    0.0000 C   0  0  0  0  0  0  0  0  0  0  0  0
    4.4666   -8.6880    0.0000 N   0  0  0  0  0  0  0  0  0  0  0  0
    5.1855   -8.2753    0.0000 C   0  0  0  0  0  0  0  0  0  0  0  0
    5.8999   -9.5132    0.0000 O   0  0  0  0  0  0  0  0  0  0  0  0
    5.8999   -8.6880    0.0000 C   0  0  0  0  0  0  0  0  0  0  0  0
    6.6143   -8.2753    0.0000 N   0  0  0  0  0  0  0  0  0  0  0  0
    7.3287   -8.6880    0.0000 C   0  0  0  0  0  0  0  0  0  0  0  0
    8.0430   -7.4500    0.0000 O   0  0  0  0  0  0  0  0  0  0  0  0
    8.0430   -8.2753    0.0000 C   0  0  0  0  0  0  0  0  0  0  0  0
    7.3272   -9.5119    0.0000 C   0  0  0  0  0  0  0  0  0  0  0  0
    8.7574   -8.6880    0.0000 N   0  0  0  0  0  0  0  0  0  0  0  0
    9.4718   -8.2753    0.0000 C   0  0  0  0  0  0  0  0  0  0  0  0
   10.1861   -9.5132    0.0000 O   0  0  0  0  0  0  0  0  0  0  0  0
   10.1861   -8.6880    0.0000 C   0  0  0  0  0  0  0  0  0  0  0  0
    9.4718   -7.4500    0.0000 C   0  0  0  0  0  0  0  0  0  0  0  0
   10.9005   -7.4500    0.0000 C   0  0  0  0  0  0  0  0  0  0  0  0
   10.1861   -7.0374    0.0000 C   0  0  0  0  0  0  0  0  0  0  0  0
   10.1861   -6.2121    0.0000 C   0  0  0  0  0  0  0  0  0  0  0  0
   10.9005   -5.7995    0.0000 C   0  0  0  0  0  0  0  0  0  0  0  0
   11.6147   -6.2121    0.0000 C   0  0  0  0  0  0  0  0  0  0  0  0
   11.6147   -7.0374    0.0000 C   0  0  0  0  0  0  0  0  0  0  0  0
   10.9005   -8.2753    0.0000 N   0  0  0  0  0  0  0  0  0  0  0  0
    0.8894   -6.6207    0.0000 C   0  0  0  0  0  0  0  0  0  0  0  0
    1.7200   -7.4475    0.0000 C   0  0  0  0  0  0  0  0  0  0  0  0
    0.0694   -7.4568    0.0000 S   0  0  0  0  0  0  0  0  0  0  0  0
    8.0406   -9.9262    0.0000 C   0  0  0  0  0  0  0  0  0  0  0  0
    8.0125  -10.7472    0.0000 N   0  0  0  0  0  0  0  0  0  0  0  0
    8.7885  -11.0282    0.0000 C   0  0  0  0  0  0  0  0  0  0  0  0
    9.2957  -10.3771    0.0000 N   0  0  0  0  0  0  0  0  0  0  0  0
    8.8331   -9.6937    0.0000 C   0  0  0  0  0  0  0  0  0  0  0  0
   11.6140   -8.6888    0.0000 C   0  0  0  0  0  0  0  0  0  0  0  0
   12.3293   -8.2772    0.0000 C   0  0  0  0  0  0  0  0  0  0  0  0
   11.6128   -9.5141    0.0000 C   0  0  0  0  0  0  0  0  0  0  0  0
   12.3268   -9.9278    0.0000 C   0  0  0  0  0  0  0  0  0  0  0  0
   13.0422   -9.5162    0.0000 C   0  0  0  0  0  0  0  0  0  0  0  0
   12.3322   -7.4520    0.0000 O   0  0  0  0  0  0  0  0  0  0  0  0
 30 32  1  0  0  0  0 
 32 31  2  0  0  0  0 
 30 33  1  0  0  0  0 
 33 34  1  0  0  0  0 
  5 10  1  0  0  0  0 
 36 37  1  0  0  0  0 
 37  2  1  0  0  0  0 
 13 22  1  0  0  0  0 
 37 38  2  0  0  0  0 
 36  1  1  0  0  0  0 
 25 29  1  0  0  0  0 
 32 35  1  0  0  0  0 
  3  2  1  0  0  0  0 
  3  5  1  0  0  0  0 
  5  4  2  0  0  0  0 
  3  6  1  6  0  0  0 
  6  7  1  0  0  0  0 
  7  8  1  0  0  0  0 
  7  9  1  0  0  0  0 
 11 10  1  1  0  0  0 
 11 13  1  0  0  0  0 
 13 12  2  0  0  0  0 
 11 14  1  0  0  0  0 
 14 16  1  0  0  0  0 
 15 16  2  0  0  0  0 
 46 50  1  0  0  0  0 
 53 61  1  0  0  0  0 
 64 66  1  0  0  0  0 
 69 73  1  0  0  0  0 
 76 77  1  0  0  0  0 
 80 82  1  0  0  0  0 
 85 93  1  0  0  0  0 
 39 40  1  0  0  0  0 
 40 41  1  0  0  0  0 
 40 42  2  0  0  0  0 
 44 43  1  6  0  0  0 
 44 46  1  0  0  0  0 
 46 45  2  0  0  0  0 
 44 47  1  0  0  0  0 
 47 48  1  0  0  0  0 
 48 49  1  0  0  0  0 
 49 39  1  0  0  0  0 
 51 50  1  0  0  0  0 
 51 53  1  0  0  0  0 
 53 52  2  0  0  0  0 
 51 54  1  6  0  0  0 
 54 56  1  0  0  0  0 
 55 56  2  0  0  0  0 
 56 57  1  0  0  0  0 
 57 58  2  0  0  0  0 
 58 59  1  0  0  0  0 
 59 60  2  0  0  0  0 
 60 55  1  0  0  0  0 
 62 61  1  1  0  0  0 
 62 64  1  0  0  0  0 
 64 63  2  0  0  0  0 
 62 65  1  0  0  0  0 
 67 66  1  6  0  0  0 
 67 69  1  0  0  0  0 
 69 68  2  0  0  0  0 
 67 70  1  0  0  0  0 
 70 71  1  6  0  0  0 
 70 72  1  0  0  0  0 
 73 74  1  0  0  0  0 
 74 76  1  0  0  0  0 
 76 75  2  0  0  0  0 
 78 77  1  0  0  0  0 
 78 80  1  0  0  0  0 
 80 79  2  0  0  0  0 
 78 81  1  6  0  0  0 
 83 82  1  1  0  0  0 
 83 85  1  0  0  0  0 
 85 84  2  0  0  0  0 
 83 86  1  0  0  0  0 
 86 88  1  0  0  0  0 
 87 88  2  0  0  0  0 
 88 89  1  0  0  0  0 
 89 90  2  0  0  0  0 
 90 91  1  0  0  0  0 
 91 92  2  0  0  0  0 
 92 87  1  0  0  0  0 
 16 17  1  0  0  0  0 
 65 94  1  0  0  0  0 
 17 18  2  0  0  0  0 
 65 95  1  0  0  0  0 
 18 19  1  0  0  0  0 
 65 96  1  0  0  0  0 
 19 20  2  0  0  0  0 
 81 97  1  0  0  0  0 
 97 98  1  0  0  0  0 
 20 15  1  0  0  0  0 
 19 21  1  0  0  0  0 
 22 23  1  0  0  0  0 
 23 25  1  6  0  0  0 
 98 99  1  0  0  0  0 
 99100  2  0  0  0  0 
100101  1  0  0  0  0 
101 97  2  0  0  0  0 
 25 24  2  0  0  0  0 
102 93  1  1  0  0  0 
 23 26  1  0  0  0  0 
102103  1  0  0  0  0 
103  1  1  0  0  0  0 
  1106  1  0  0  0  0 
 27 28  1  0  0  0  0 
102104  1  0  0  0  0 
 28 26  1  0  0  0  0 
104105  1  0  0  0  0 
 27 22  1  0  0  0  0 
105106  1  0  0  0  0 
 30 29  1  1  0  0  0 
103107  2  0  0  0  0 
M  END