
  Mrv0541 04051115152D          

 17 18  0  0  0  0            999 V2000
    0.8440    1.5564    0.0000 N   0  0  0  0  0  0  0  0  0  0  0  0
    0.1295    1.9689    0.0000 C   0  0  0  0  0  0  0  0  0  0  0  0
    0.8440    0.7314    0.0000 C   0  0  0  0  0  0  0  0  0  0  0  0
    0.1295    0.3189    0.0000 C   0  0  0  0  0  0  0  0  0  0  0  0
   -0.5849    0.7314    0.0000 C   0  0  0  0  0  0  0  0  0  0  0  0
   -0.5849    1.5564    0.0000 N   0  0  0  0  0  0  0  0  0  0  0  0
    0.1295   -0.5061    0.0000 C   0  0  0  0  0  0  0  0  0  0  0  0
    0.8440   -0.9186    0.0000 C   0  0  0  0  0  0  0  0  0  0  0  0
    0.8440   -1.7436    0.0000 C   0  0  0  0  0  0  0  0  0  0  0  0
    0.1295   -2.1561    0.0000 C   0  0  0  0  0  0  0  0  0  0  0  0
   -0.5849   -1.7436    0.0000 C   0  0  0  0  0  0  0  0  0  0  0  0
   -0.5849   -0.9186    0.0000 C   0  0  0  0  0  0  0  0  0  0  0  0
    1.5585    0.3189    0.0000 N   0  0  0  0  0  0  0  0  0  0  0  0
    0.1295    2.7939    0.0000 N   0  0  0  0  0  0  0  0  0  0  0  0
   -1.2994    0.3189    0.0000 C   0  0  0  0  0  0  0  0  0  0  0  0
   -2.0139    0.7314    0.0000 C   0  0  0  0  0  0  0  0  0  0  0  0
    0.1295   -2.9811    0.0000 Cl  0  0  0  0  0  0  0  0  0  0  0  0
  2  1  1  0  0  0  0
  3  1  2  0  0  0  0
  2  6  2  0  0  0  0
  2 14  1  0  0  0  0
  3  4  1  0  0  0  0
  3 13  1  0  0  0  0
  4  5  2  0  0  0  0
  4  7  1  0  0  0  0
  5  6  1  0  0  0  0
 15  5  1  0  0  0  0
  7  8  1  0  0  0  0
 12  7  2  0  0  0  0
  8  9  2  0  0  0  0
 10  9  1  0  0  0  0
 10 11  2  0  0  0  0
 10 17  1  0  0  0  0
 11 12  1  0  0  0  0
 15 16  1  0  0  0  0
M  END