
  SciTegic12091219262D

 25 26  0  0  0  0            999 V2000
    2.5167   -0.0667    0.0000 N   0  0
   -2.3833   -0.0292    0.0000 C   0  0
   -3.8708   -0.2542    0.0000 C   0  0
   -2.3833    0.3625    0.0000 O   0  0
   -3.8708   -0.6667    0.0000 O   0  0
    2.0167   -0.3667    0.0000 C   0  0
   -3.3708    0.0208    0.0000 O   0  0
    1.5417   -0.0667    0.0000 C   0  0
   -1.9083   -0.3375    0.0000 N   0  0
   -2.8833   -0.3000    0.0000 C   0  0
    1.0542   -0.3667    0.0000 C   0  0
    0.5750   -0.0667    0.0000 C   0  0
   -0.9083   -0.3375    0.0000 C   0  0
    0.0792   -0.3375    0.0000 O   0  0
    3.0000   -0.3667    0.0000 C   0  0
    2.5167    0.4708    0.0000 C   0  0
    1.0542    0.7750    0.0000 C   0  0
   -1.4208   -0.0542    0.0000 C   0  0
   -4.3458    0.0458    0.0000 C   0  0
    1.5417    0.4708    0.0000 C   0  0
   -0.4250   -0.0667    0.0000 C   0  0
    0.5750    0.4708    0.0000 C   0  0
    3.4917   -0.0667    0.0000 C   0  0
    3.0000    0.7750    0.0000 C   0  0
    3.4917    0.5000    0.0000 C   0  0
  2  9  1  0
  3  7  1  0
  4  2  2  0
  5  3  2  0
  6  1  1  0
  7 10  1  0
  8  6  1  0
  9 18  1  0
 10  2  1  0
 11  8  1  0
 12 11  2  0
 13 21  1  0
 14 12  1  0
 15  1  1  0
 16  1  1  0
 17 20  1  0
 18 13  1  0
 19  3  1  0
 20  8  2  0
 21 14  1  0
 22 17  2  0
 23 15  1  0
 24 16  1  0
 25 23  1  0
 24 25  1  0
 12 22  1  0
M  END