
  CDK    9/16/09,10:2

 37 38  0  0  0  0  0  0  0  0999 V2000
    4.3541   -6.9321    0.0000 C   0  0  0  0  0  0  0  0  0  0  0  0
    4.3528   -7.7597    0.0000 C   0  0  0  0  0  0  0  0  0  0  0  0
    5.0651   -8.1750    0.0000 C   0  0  0  0  0  0  0  0  0  0  0  0
    5.7840   -7.7593    0.0000 C   0  0  0  0  0  0  0  0  0  0  0  0
    5.7807   -6.9281    0.0000 C   0  0  0  0  0  0  0  0  0  0  0  0
    5.0632   -6.5216    0.0000 C   0  0  0  0  0  0  0  0  0  0  0  0
    3.6383   -8.1736    0.0000 C   0  0  0  0  0  0  0  0  0  0  0  0
    3.6371   -8.9986    0.0000 C   0  0  0  0  0  0  0  0  0  0  0  0
    2.9226   -9.4077    0.0000 C   0  0  0  0  0  0  0  0  0  0  0  0
    4.3503   -9.4098    0.0000 C   0  0  0  0  0  0  0  0  0  0  0  0
    4.3492  -10.2348    0.0000 C   0  0  0  0  0  0  0  0  0  0  0  0
    5.0625  -10.6508    0.0000 C   0  0  0  0  0  0  0  0  0  0  0  0
    5.0613  -11.4758    0.0000 C   0  0  0  0  0  0  0  0  0  0  0  0
    5.7770  -10.2369    0.0000 O   0  0  0  0  0  0  0  0  0  0  0  0
    4.3468  -11.8849    0.0000 C   0  0  0  0  0  0  0  0  0  0  0  0
    5.7746  -11.8870    0.0000 C   0  0  0  0  0  0  0  0  0  0  0  0
    6.4890  -11.4779    0.0000 C   0  0  0  0  0  0  0  0  0  0  0  0
    3.6347  -10.6487    0.0000 O   0  0  0  0  0  0  0  0  0  0  0  0
    6.4982   -8.1734    0.0000 N   0  0  0  0  0  0  0  0  0  0  0  0
    7.2117   -7.7580    0.0000 C   0  0  0  0  0  0  0  0  0  0  0  0
    7.9305   -8.1721    0.0000 C   0  0  0  0  0  0  0  0  0  0  0  0
    7.2109   -6.9328    0.0000 O   0  0  0  0  0  0  0  0  0  0  0  0
    7.9313   -8.9971    0.0000 C   0  0  0  0  0  0  0  0  0  0  0  0
    8.6440   -7.7566    0.0000 C   0  0  0  0  0  0  0  0  0  0  0  0
    8.6456   -9.4066    0.0000 C   0  0  0  0  0  0  0  0  0  0  0  0
    8.6463  -10.2317    0.0000 C   0  0  0  0  0  0  0  0  0  0  0  0
    7.3101  -11.4768    0.0000 C   0  0  0  0  0  0  0  0  0  0  0  0
    6.2790  -10.6811    0.0000 C   0  0  0  0  0  0  0  0  0  0  0  0
    7.7259  -12.1901    0.0000 O   0  0  0  0  0  0  0  0  0  0  0  0
    7.7240  -10.7624    0.0000 C   0  0  0  0  0  0  0  0  0  0  0  0
    7.3082  -10.0490    0.0000 O   0  0  0  0  0  0  0  0  0  0  0  0
    6.4832  -10.0501    0.0000 C   0  0  0  0  0  0  0  0  0  0  0  0
    8.5509  -12.1890    0.0000 C   0  0  0  0  0  0  0  0  0  0  0  0
    8.9602  -11.4747    0.0000 O   0  0  0  0  0  0  0  0  0  0  0  0
    8.9620  -12.9024    0.0000 N   0  0  0  0  0  0  0  0  0  0  0  0
    3.6356   -6.5171    0.0000 O   0  0  0  0  0  0  0  0  0  0  0  0
    2.9157  -10.2348    0.0000 C   0  0  0  0  0  0  0  0  0  0  0  0
  8  9  1  6  0  0  0 
  4 19  1  0  0  0  0 
  4  5  1  0  0  0  0 
 19 20  1  0  0  0  0 
  8 10  1  0  0  0  0 
 20 21  1  0  0  0  0 
  2  3  1  0  0  0  0 
 20 22  2  0  0  0  0 
 10 11  1  0  0  0  0 
 21 23  2  0  0  0  0 
  5  6  2  0  0  0  0 
 21 24  1  0  0  0  0 
 11 12  1  0  0  0  0 
 23 25  1  0  0  0  0 
  6  1  1  0  0  0  0 
 25 26  2  0  0  0  0 
 12 13  1  0  0  0  0 
 17 27  1  0  0  0  0 
  1  2  2  0  0  0  0 
 17 28  1  0  0  0  0 
 12 14  1  6  0  0  0 
 27 29  1  1  0  0  0 
  2  7  1  0  0  0  0 
 27 30  1  0  0  0  0 
 13 15  1  6  0  0  0 
 30 31  1  1  0  0  0 
  3  4  2  0  0  0  0 
 31 32  1  0  0  0  0 
 30 26  1  0  0  0  0 
 13 16  1  0  0  0  0 
 29 33  1  0  0  0  0 
  7  8  1  0  0  0  0 
 33 34  2  0  0  0  0 
 16 17  2  0  0  0  0 
 33 35  1  0  0  0  0 
  1 36  1  0  0  0  0 
 11 18  1  1  0  0  0 
 18 37  1  0  0  0  0 
M  END