
          11280714522D 1   1.00000     0.00000     0

 31 35  0     1  0            999 V2000
    5.8042   -4.7167    0.0000 S   0  0  3  0  0  0           0  0  0
    5.6042   -5.5167    0.0000 C   0  0  0  0  0  0           0  0  0
    6.0250   -3.9250    0.0000 N   0  0  3  0  0  0           0  0  0
    4.7375   -2.0917    0.0000 C   0  0  2  0  0  0           0  0  0
    4.7292   -2.9167    0.0000 C   0  0  0  0  0  0           0  0  0
    5.4542   -1.6875    0.0000 N   0  0  3  0  0  0           0  0  0
    5.4417   -3.3417    0.0000 C   0  0  1  0  0  0           0  0  0
    4.0167   -1.6875    0.0000 C   0  0  0  0  0  0           0  0  0
    6.1917   -6.0875    0.0000 C   0  0  0  0  0  0           0  0  0
    5.0042   -4.5042    0.0000 O   0  0  0  0  0  0           0  0  0
    6.6042   -4.9292    0.0000 O   0  0  0  0  0  0           0  0  0
    6.1625   -2.9292    0.0000 C   0  0  0  0  0  0           0  0  0
    6.1667   -2.1042    0.0000 C   0  0  0  0  0  0           0  0  0
    4.0167   -0.8542    0.0000 C   0  0  0  0  0  0           0  0  0
    5.4542   -0.8542    0.0000 C   0  0  0  0  0  0           0  0  0
    4.7375   -0.4292    0.0000 C   0  0  0  0  0  0           0  0  0
    5.9917   -6.8792    0.0000 C   0  0  0  0  0  0           0  0  0
    4.8125   -5.7417    0.0000 C   0  0  0  0  0  0           0  0  0
    6.8167   -3.7042    0.0000 C   0  0  0  0  0  0           0  0  0
    3.3042   -2.0917    0.0000 C   0  0  0  0  0  0           0  0  0
    6.9792   -5.8667    0.0000 C   0  0  0  0  0  0           0  0  0
    4.6042   -6.5417    0.0000 C   0  0  0  0  0  0           0  0  0
    5.2000   -7.1167    0.0000 C   0  0  0  0  0  0           0  0  0
    3.3042   -0.4417    0.0000 C   0  0  0  0  0  0           0  0  0
    6.5792   -7.4500    0.0000 C   0  0  0  0  0  0           0  0  0
    2.5917   -1.6792    0.0000 C   0  0  0  0  0  0           0  0  0
    7.5667   -6.4292    0.0000 C   0  0  0  0  0  0           0  0  0
    2.5917   -0.8542    0.0000 C   0  0  0  0  0  0           0  0  0
    7.3667   -7.2292    0.0000 C   0  0  0  0  0  0           0  0  0
    4.7250   -3.7500    0.0000 H   0  0  0  0  0  0           0  0  0
    4.0167   -2.5042    0.0000 H   0  0  0  0  0  0           0  0  0
  2  1  1  0     0  0
  3  1  1  0     0  0
  4  5  1  0     0  0
  5  7  1  0     0  0
  6 13  1  0     0  0
  7  3  1  0     0  0
  8  4  1  0     0  0
  9  2  1  0     0  0
 10  1  2  0     0  0
 11  1  2  0     0  0
 12  7  1  0     0  0
 13 12  1  0     0  0
 14  8  1  0     0  0
 15  6  1  0     0  0
 16 15  1  0     0  0
 17  9  1  0     0  0
 18  2  2  0     0  0
 19  3  1  0     0  0
 20  8  2  0     0  0
 21  9  2  0     0  0
 22 18  1  0     0  0
 23 22  2  0     0  0
 24 14  2  0     0  0
 25 17  2  0     0  0
 26 20  1  0     0  0
 27 21  1  0     0  0
 28 26  2  0     0  0
 29 27  2  0     0  0
  7 30  1  6     0  0
  4 31  1  6     0  0
 23 17  1  0     0  0
  4  6  1  0     0  0
 29 25  1  0     0  0
 16 14  1  0     0  0
 28 24  1  0     0  0
M  END