
  SciTegic06051313522D

 33 37  0  0  0  0            999 V2000
   20.1477   -5.6790    0.0000 C   0  0
   20.1466   -6.4986    0.0000 C   0  0
   20.8546   -6.9075    0.0000 C   0  0
   20.8528   -5.2702    0.0000 C   0  0
   21.5614   -5.6754    0.0000 C   0  0
   21.5622   -6.4944    0.0000 C   0  0
   22.2707   -6.9015    0.0000 C   0  0
   22.9790   -6.4907    0.0000 C   0  0
   22.9743   -5.6686    0.0000 C   0  0
   22.2652   -5.2652    0.0000 C   0  0
   21.0667   -4.4739    0.0000 C   0  0
   22.0477   -4.4698    0.0000 C   0  0
   22.3469   -3.5355    0.0000 C   0  0
   21.5508   -2.9622    0.0000 C   0  0
   20.7596   -3.5422    0.0000 N   0  0
   21.5466   -1.9811    0.0000 O   0  0
   23.2786   -3.2284    0.0000 N   0  0
   24.0104   -3.8818    0.0000 C   0  0
   24.9422   -3.5748    0.0000 C   0  0
   25.6740   -4.2281    0.0000 C   0  0
   26.6057   -3.9211    0.0000 C   0  0
   27.3375   -4.5745    0.0000 C   0  0
   28.2693   -4.2674    0.0000 C   0  0
   22.2724   -7.7187    0.0000 O   0  0
   22.9810   -8.1258    0.0000 C   0  0
   22.9793   -8.9407    0.0000 C   0  0
   23.6871   -9.3477    0.0000 C   0  0
   24.3949   -8.9376    0.0000 C   0  0
   24.3906   -8.1162    0.0000 C   0  0
   23.6823   -7.7128    0.0000 C   0  0
   25.1040   -9.3438    0.0000 C   0  0
   25.1068  -10.1610    0.0000 C   0  0
   25.8103   -8.9328    0.0000 C   0  0
  1  2  2  0
  2  3  1  0
  3  6  2  0
  5  4  2  0
  4  1  1  0
  5  6  1  0
  6  7  1  0
  7  8  2  0
  8  9  1  0
  9 10  2  0
 10  5  1  0
  4 11  1  0
 10 12  1  0
 11 12  1  0
 12 13  2  0
 13 14  1  0
 14 15  1  0
 15 11  2  0
 14 16  2  0
 13 17  1  0
 17 18  1  0
 18 19  1  0
 19 20  1  0
 20 21  1  0
 21 22  1  0
 22 23  1  0
  7 24  1  0
 24 25  1  0
 25 26  2  0
 26 27  1  0
 27 28  2  0
 28 29  1  0
 29 30  2  0
 30 25  1  0
 28 31  1  0
 31 32  1  0
 31 33  1  0
M  END