
  SciTegic12201609102D

 22 22  0  0  0  0            999 V2000
    0.7500   -1.0323    0.0000 N   0  0
    1.6281   -2.2462    0.0000 C   0  0  2  0  0  0
    1.0157   -3.6164    0.0000 C   0  0
    1.8954   -4.8324    0.0000 N   0  0
   -0.1779   -3.7398    0.0000 O   0  0
    2.8218   -2.1229    0.0000 C   0  0
    1.2830   -6.2026    0.0000 C   0  0  2  0  0  0
    2.1626   -7.4186    0.0000 C   0  0
    3.3562   -7.2953    0.0000 O   0  0
    1.6729   -8.5142    0.0000 O   0  0
   -0.2096   -6.3600    0.0000 C   0  0
   -0.6981   -7.4560    0.0000 C   0  0
   -0.9149   -5.3891    0.0000 C   0  0
    1.2135    0.3943    0.0000 N   0  0
    0.0000    1.2760    0.0000 N   0  0
   -1.2135    0.3943    0.0000 C   0  0
   -0.7500   -1.0323    0.0000 C   0  0
   -2.6391    0.8554    0.0000 C   0  0  1  0  0  0
   -3.5295    0.0509    0.0000 N   0  0
   -2.9540    2.3228    0.0000 C   0  0  1  0  0  0
   -2.0636    3.1272    0.0000 C   0  0
   -4.0958    2.6921    0.0000 O   0  0
  1  2  1  0
  2  3  1  0
  3  4  1  0
  3  5  2  0
  2  6  1  1
  4  7  1  0
  7  8  1  0
  8  9  1  0
  8 10  2  0
  7 11  1  6
 11 12  1  0
 11 13  1  0
  1 14  1  0
 14 15  2  0
 15 16  1  0
 16 17  2  0
 17  1  1  0
 16 18  1  0
 18 19  1  1
 18 20  1  0
 20 21  1  0
 20 22  1  6
M  END