
  SciTegic01091216402D

 69 71  0  0  0  0            999 V2000
   15.7657   -2.3057    0.0000 Na  0  3
   12.1038   -1.9039    0.0000 C   0  0  1  0  0  0
   11.3952   -2.3328    0.0000 C   0  0  1  0  0  0
   11.4168   -3.1560    0.0000 C   0  0  2  0  0  0
   12.1362   -3.5567    0.0000 C   0  0
   12.8461   -3.1258    0.0000 C   0  0  1  0  0  0
   12.8338   -2.2981    0.0000 O   0  0
   13.5542   -2.6948    0.0000 C   0  0
   13.5364   -1.8652    0.0000 O   0  0
   10.7083   -3.5849    0.0000 O   0  0
   10.6726   -1.9367    0.0000 N   0  0
   12.0877   -1.0778    0.0000 C   0  0  1  0  0  0
   12.7950   -0.6468    0.0000 C   0  0  1  0  0  0
    9.9646   -2.3667    0.0000 C   0  0
    9.2363   -1.9692    0.0000 C   0  0
    9.9794   -3.1927    0.0000 O   0  0
   11.3588   -0.6814    0.0000 O   0  0
   12.8101   -1.4714    0.0000 H   0  0
   12.7733    0.1806    0.0000 C   0  0
   13.5182   -1.0418    0.0000 O   0  0
   13.4805    0.6116    0.0000 N   0  0
   13.4609    1.4355    0.0000 C   0  0
   14.1646    1.8643    0.0000 O   0  0
   12.7377    1.8305    0.0000 C   0  0
   12.7183    2.6553    0.0000 C   0  0
   11.9959    3.0503    0.0000 C   0  0
   11.2913    2.6214    0.0000 C   0  0
   11.3135    1.7933    0.0000 C   0  0
   12.0364    1.4021    0.0000 C   0  0
   10.5675    3.0154    0.0000 Cl  0  0
   12.8627   -3.9451    0.0000 O   0  0
    8.5370   -6.3694    0.0000 C   0  0  2  0  0  0
    9.2473   -6.7870    0.0000 C   0  0  2  0  0  0
    9.9623   -6.3865    0.0000 C   0  0  1  0  0  0
    9.9732   -5.5626    0.0000 O   0  0
    9.2629   -5.1408    0.0000 C   0  0  1  0  0  0
    8.5417   -5.5471    0.0000 C   0  0  2  0  0  0
    7.8276   -5.1244    0.0000 O   0  0
    9.2723   -4.3127    0.0000 C   0  0
    8.5593   -3.8924    0.0000 O   0  0
   10.6711   -6.8070    0.0000 O   0  0
    7.8160   -6.7756    0.0000 O   0  0
    9.2388   -7.6152    0.0000 O   0  0
   11.3937   -6.4034    0.0000 C   0  0  2  0  0  0
   12.1031   -6.8271    0.0000 C   0  0  2  0  0  0
   12.8235   -6.4269    0.0000 C   0  0  2  0  0  0
   12.8375   -5.5984    0.0000 O   0  0
   12.1248   -5.1716    0.0000 C   0  0  1  0  0  0
   11.3981   -5.5775    0.0000 C   0  0  2  0  0  0
   11.3873   -7.2294    0.0000 H   0  0
   10.6847   -5.1536    0.0000 O   0  0
   12.1374   -4.3435    0.0000 C   0  0
   13.5348   -6.8501    0.0000 O   0  0
   12.0900   -7.6551    0.0000 N   0  0
   12.7971   -8.0784    0.0000 C   0  0
   12.7841   -8.9023    0.0000 C   0  0
   13.5172   -7.6776    0.0000 O   0  0
   14.2538   -6.4474    0.0000 C   0  0  1  0  0  0
   14.9621   -6.8687    0.0000 C   0  0  2  0  0  0
   14.2645   -5.6234    0.0000 C   0  0
   14.9513   -7.6928    0.0000 N   0  0
   15.6810   -6.4661    0.0000 C   0  0
   16.3893   -6.8874    0.0000 O   0  0
   15.6918   -5.6421    0.0000 O   0  0
   17.1082   -6.4847    0.0000 C   0  0
   15.6595   -8.1141    0.0000 C   0  0
   15.6488   -8.9381    0.0000 C   0  0
   16.3785   -7.7114    0.0000 O   0  0
   14.2769   -3.0908    0.0000 O   0  5
  2 18  1  1
 32 37  1  0
 33 34  1  0
 34 35  1  0
 35 36  1  0
 36 37  1  0
  8  9  2  0
 37 38  1  1
 13 19  1  0
 36 39  1  1
  2  3  1  0
 39 40  1  0
 13 20  1  1
 34 41  1  1
  4 10  1  6
 32 42  1  1
 19 21  1  0
 33 43  1  6
  2  7  1  0
 44 41  1  0
 44 45  1  0
 21 22  1  0
  3 11  1  1
 22 23  2  0
  3  4  1  0
 22 24  1  0
 44 49  1  0
 45 46  1  0
 46 47  1  0
 47 48  1  0
 48 49  1  0
  2 12  1  0
 44 50  1  6
 24 25  2  0
 49 51  1  1
  4  5  1  0
 48 52  1  1
 52 31  1  0
 25 26  1  0
 46 53  1  6
 12 13  1  0
 45 54  1  6
 26 27  2  0
 54 55  1  0
  5  6  1  0
 55 56  1  0
 27 28  1  0
 55 57  2  0
 11 14  1  0
 53 58  1  0
 28 29  2  0
 58 59  1  0
 29 24  1  0
 58 60  1  6
  6  7  1  0
 59 61  1  1
 27 30  1  0
 59 62  1  0
 14 15  1  0
 62 63  1  0
  6 31  1  0
 62 64  2  0
 63 65  1  0
 32 33  1  0
 61 66  1  0
 14 16  2  0
 66 67  1  0
  6  8  1  1
 66 68  2  0
 12 17  1  6
  8 69  1  0
M  CHG  2   1   1  69  -1
M  END