
  SciTegic11201309402D

 96107  0  0  1  0            999 V2000
   -1.6208   -1.4792    0.0000 S   0  0
    7.7042    0.8333    0.0000 S   0  0
   12.0167   -3.3042    0.0000 S   0  0
   10.0042   -2.4667    0.0000 C   0  0
    0.5417   -1.4417    0.0000 C   0  0
    5.5500    0.5500    0.0000 C   0  0
    4.1792   -3.6667    0.0000 C   0  0  1  0  0  0
    5.7542   -4.0792    0.0000 C   0  0
    4.9042   -4.0667    0.0000 C   0  0  2  0  0  0
    6.4417   -6.1292    0.0000 C   0  0  2  0  0  0
    0.6917   -0.6292    0.0000 C   0  0
   10.1792   -1.6667    0.0000 C   0  0
    5.2917    1.3333    0.0000 C   0  0
    5.7417   -5.7292    0.0000 C   0  0  1  0  0  0
    1.2792   -1.8292    0.0000 C   0  0
    4.8875    0.0583    0.0000 C   0  0
    9.1917   -2.5667    0.0000 C   0  0
    6.4625   -3.6625    0.0000 C   0  0  1  0  0  0
    4.9000   -3.2500    0.0000 C   0  0
    3.7542   -5.3167    0.0000 C   0  0  1  0  0  0
    7.2917   -6.1417    0.0000 C   0  0
    5.7500   -4.9042    0.0000 O   0  0
    3.7625   -4.4917    0.0000 O   0  0
    9.4542   -1.2625    0.0000 C   0  0
    4.4667    1.3208    0.0000 C   0  0
    1.5042   -0.5167    0.0000 C   0  0
    1.8667   -1.2542    0.0000 C   0  0
    4.2125    0.5375    0.0000 C   0  0
    8.8500   -1.8125    0.0000 C   0  0
    3.0417   -5.7375    0.0000 O   0  0
    8.0000   -5.7167    0.0000 C   0  0  2  0  0  0
   11.4000   -2.7542    0.0000 C   0  0
    6.9000    0.9958    0.0000 C   0  0
   -0.8458   -1.1917    0.0000 C   0  0
   -0.2208   -1.7167    0.0000 C   0  0
    6.3500    0.3833    0.0000 C   0  0
   10.6167   -3.0167    0.0000 C   0  0
    5.7500   -3.2542    0.0000 C   0  0
    5.6042   -2.0042    0.0000 C   0  0
    7.2792   -2.8375    0.0000 C   0  0
    6.4417   -5.3167    0.0000 O   0  0
    2.2667   -3.7750    0.0000 C   0  0
    4.9000   -2.4250    0.0000 N   0  0
    6.4542   -2.8375    0.0000 N   0  0
    3.0375   -4.0875    0.0000 N   0  0
    3.0417   -4.9125    0.0000 C   0  0
   10.9542   -1.4042    0.0000 C   0  0
    5.8292    1.9458    0.0000 C   0  0
    0.0667   -0.1042    0.0000 C   0  0
    4.8917   -0.7667    0.0000 C   0  0
    8.5167   -3.5417    0.0000 C   0  0
    1.3917   -2.6417    0.0000 C   0  0
    2.1917   -5.7292    0.0000 C   0  0  2  0  0  0
    7.8750    1.6375    0.0000 O   0  0
   -2.3958   -1.7667    0.0000 O   0  0
   12.6292   -3.8542    0.0000 O   0  0
   12.5667   -2.6917    0.0000 O   0  0
   -2.0375   -0.7625    0.0000 O   0  0
    8.5125    0.6708    0.0000 O   0  0
    7.2875   -5.3167    0.0000 C   0  0
    7.6917   -3.5417    0.0000 O   0  0
    5.6042   -1.1792    0.0000 O   0  0
    2.1542   -2.9542    0.0000 O   0  0
   -0.7083   -0.3792    0.0000 C   0  0
    6.6375    1.7833    0.0000 C   0  0
   11.5667   -1.9542    0.0000 C   0  0
    1.6167   -4.2792    0.0000 O   0  0
    4.8875   -1.5917    0.0000 O   0  0
    7.6917   -2.1167    0.0000 O   0  0
   -1.3458   -2.2542    0.0000 O   0  0
   11.4625   -3.9167    0.0000 O   0  0
    7.4875    0.0375    0.0000 O   0  0
    2.1917   -4.9125    0.0000 C   0  0
    7.2875   -6.9667    0.0000 N   0  0
    1.4917   -5.3250    0.0000 C   0  0
    6.8375   -5.6167    0.0000 O   0  0
    4.8667   -3.5000    0.0000 O   0  0
    2.1917   -6.5500    0.0000 C   0  0
    7.9917   -6.5417    0.0000 O   0  0
    1.4750   -6.9542    0.0000 N   0  0
    9.2875   -0.4542    0.0000 C   0  0
    1.9667    0.1625    0.0000 C   0  0
    3.9125    1.9333    0.0000 C   0  0
    8.0667   -1.5625    0.0000 C   0  0
    3.4167    0.3625    0.0000 C   0  0
    2.6792   -1.3167    0.0000 C   0  0
    7.9917   -4.8917    0.0000 C   0  0
    7.9917   -7.3792    0.0000 C   0  0
    1.4667   -7.7792    0.0000 C   0  0
    2.9042   -6.9667    0.0000 C   0  0
    3.1417   -0.6375    0.0000 C   0  0
    2.7792    0.1083    0.0000 C   0  0
    3.1125    1.7583    0.0000 C   0  0
    8.5042   -0.2042    0.0000 C   0  0
    7.8917   -0.7625    0.0000 C   0  0
    2.8625    0.9708    0.0000 C   0  0
  2 33  1  0
  3 32  1  0
  4 17  1  0
  5 35  1  0
  6 16  1  0
  7 23  1  6
  9  8  1  0
  7  9  1  0
 14 10  1  0
 11 49  1  0
 12  4  2  0
 13  6  2  0
 14 22  1  1
 15  5  1  0
 16 50  1  0
 17 51  1  0
 18 38  1  0
 19  7  1  0
 20 46  1  0
 10 21  1  0
 22  8  1  0
 20 23  1  1
 24 29  2  0
 25 28  2  0
 26 11  1  0
 27 15  1  0
 28 16  1  0
 29 17  1  0
 20 30  1  0
 31 60  1  0
 32 37  2  0
 33 36  2  0
 34  1  1  0
 35 34  2  0
 36  6  1  0
 37  4  1  0
 38 19  1  0
 39 43  1  0
 40 44  1  0
 41 14  1  0
 42 63  1  0
 43 19  1  0
 18 44  1  1
 45 42  1  0
 46 45  1  0
 47 12  1  0
 48 13  1  0
 49 64  2  0
 50 62  1  0
 51 61  1  0
 52 15  1  0
 75 53  1  0
 54  2  2  0
 55  1  2  0
 56  3  2  0
 57  3  2  0
 58  1  2  0
 59  2  2  0
 60 41  1  0
 61 40  1  0
 62 39  1  0
 63 52  1  0
 64 34  1  0
 65 33  1  0
 66 32  1  0
 67 42  2  0
 68 39  2  0
 69 40  2  0
 70  1  1  0
 71  3  1  0
 72  2  1  0
 73 46  1  0
 74 21  1  0
 75 73  1  0
 10 76  1  6
  9 77  1  6
 53 78  1  1
 31 79  1  6
 80 78  1  0
 81 24  1  0
 82 26  1  0
 83 25  1  0
 84 29  1  0
 85 28  1  0
 86 27  1  0
 87 31  1  0
 88 74  1  0
 89 80  1  0
 90 78  1  0
 91 86  2  0
 92 82  2  0
 93 96  1  0
 94 95  1  0
 95 84  2  0
 96 85  2  0
 11  5  2  0
 27 26  2  0
 92 91  1  0
 53 30  1  0
 18  8  1  0
 31 21  1  0
 25 13  1  0
 93 83  2  0
 48 65  2  0
 24 12  1  0
 94 81  2  0
 47 66  2  0
M  END