
  SciTegic01181116592D

 40 44  0  0  0  0            999 V2000
    4.9027  -13.6500    0.0000 C   0  0
    4.9016  -14.4773    0.0000 C   0  0
    5.6164  -14.8902    0.0000 C   0  0
    6.3328  -14.4769    0.0000 C   0  0
    6.3300  -13.6463    0.0000 C   0  0
    5.6146  -13.2372    0.0000 C   0  0
    5.6162  -15.7152    0.0000 C   0  0
    5.6121  -12.4122    0.0000 N   0  0
    6.2749  -11.9280    0.0000 C   0  0
    6.0176  -11.1442    0.0000 C   0  0
    5.1927  -11.1465    0.0000 C   0  0
    4.9401  -11.9320    0.0000 N   0  0
    7.0599  -12.1811    0.0000 N   0  0
    7.7700  -11.7613    0.0000 C   0  0
    8.4887  -12.1663    0.0000 N   0  0
    7.7615  -10.9363    0.0000 O   0  0
    9.2047  -11.7557    0.0000 C   0  0
   10.6330  -10.9379    0.0000 C   0  0
    9.9145  -10.5240    0.0000 C   0  0
    9.2025  -10.9365    0.0000 C   0  0
   10.6307  -11.7638    0.0000 C   0  0
    9.9165  -12.1706    0.0000 C   0  0
    9.9127  -12.9907    0.0000 C   0  0
   10.6224  -13.4049    0.0000 C   0  0
   11.3373  -12.9931    0.0000 C   0  0
   11.3376  -12.1744    0.0000 C   0  0
    4.7058  -10.4805    0.0000 C   0  0
    3.8792  -10.4792    0.0000 C   0  0
    5.1125   -9.7625    0.0000 C   0  0
    4.1167   -9.8917    0.0000 C   0  0
    4.1868  -14.8893    0.0000 C   0  0
    3.4726  -14.4762    0.0000 N   0  0
    4.1861  -15.7143    0.0000 O   0  0
    2.7578  -14.8881    0.0000 C   0  0
    2.0437  -14.4751    0.0000 C   0  0
    2.0492  -13.6491    0.0000 C   0  0
    1.3359  -13.2361    0.0000 C   0  0
    0.6201  -13.6481    0.0000 N   0  0
    0.6221  -14.4773    0.0000 C   0  0
    1.3360  -14.8866    0.0000 C   0  0
 18 19  1  0
  4  5  1  0
 19 20  2  0
 20 17  1  0
  2  3  1  0
  5  6  2  0
 21 22  1  0
  9 10  2  0
 22 23  1  0
 10 11  1  0
 23 24  2  0
 11 12  2  0
 24 25  1  0
 12  8  1  0
 25 26  2  0
 26 21  1  0
  6  1  1  0
 11 27  1  0
  9 13  1  0
 27 28  1  0
  1  2  2  0
 27 29  1  0
 13 14  1  0
 27 30  1  0
  3  7  1  0
  2 31  1  0
 14 15  1  0
 31 32  1  0
  3  4  2  0
 31 33  2  0
 14 16  2  0
 32 34  1  0
  6  8  1  0
 34 35  1  0
 15 17  1  0
 35 36  2  0
 17 22  2  0
 36 37  1  0
  8  9  1  0
 37 38  2  0
 21 18  2  0
 38 39  1  0
 39 40  2  0
 40 35  1  0
M  END