
  SciTegic01091216402D

 23 24  0  0  0  0            999 V2000
   19.1165   -2.8115    0.0000 N   0  0
   19.1351   -3.6378    0.0000 N   0  0
   19.9236   -3.8711    0.0000 C   0  0
   20.3934   -3.1915    0.0000 C   0  0
   19.8920   -2.5373    0.0000 C   0  0
   18.4372   -2.3414    0.0000 C   0  0
   17.7197   -2.7487    0.0000 N   0  0
   18.4446   -1.5189    0.0000 N   0  0
   21.2197   -3.1730    0.0000 C   0  0
   21.6472   -3.8757    0.0000 C   0  0
   19.1620   -1.1116    0.0000 C   0  0
   19.8721   -1.5269    0.0000 C   0  0
   17.0090   -2.3322    0.0000 S   0  0
   17.4249   -1.6233    0.0000 O   0  0
   16.3066   -2.7672    0.0000 C   0  0
   16.3327   -3.5918    0.0000 C   0  0
   15.6302   -4.0267    0.0000 C   0  0
   14.9017   -3.6371    0.0000 C   0  0
   14.8755   -2.8125    0.0000 C   0  0
   15.5780   -2.3775    0.0000 C   0  0
   16.4208   -1.7417    0.0000 O   0  0
   14.1485   -2.4225    0.0000 Cl  0  0
   15.6563   -4.8513    0.0000 Cl  0  0
  3  4  1  0
  4  5  1  0
  1  5  1  0
  6  7  2  0
  6  8  1  0
  1  6  1  0
  9 10  1  0
  4  9  1  0
 11 12  1  0
  8 11  1  0
 13 14  2  0
 15 16  1  0
 16 17  2  0
 17 18  1  0
 18 19  2  0
 19 20  1  0
 15 20  2  0
 13 15  1  0
  7 13  1  0
 13 21  2  0
  1  2  1  0
 19 22  1  0
  2  3  2  0
 17 23  1  0
M  END