
          11280715132D 1   1.00000     0.00000     0

 30 32  0     0  0            999 V2000
    5.8042   -5.3042    0.0000 C   0  0  0  0  0  0           0  0  0
    5.0917   -4.8917    0.0000 C   0  0  0  0  0  0           0  0  0
    1.0417   -5.4125    0.0000 N   0  0  3  0  0  0           0  0  0
    0.3292   -5.0000    0.0000 C   0  0  0  0  0  0           0  0  0
    5.8042   -6.1292    0.0000 C   0  0  0  0  0  0           0  0  0
    0.3292   -4.1667    0.0000 C   0  0  0  0  0  0           0  0  0
    2.4042   -6.3375    0.0000 N   0  0  3  0  0  0           0  0  0
   -0.3875   -3.7542    0.0000 C   0  0  0  0  0  0           0  0  0
    5.0917   -4.0667    0.0000 N   0  0  3  0  0  0           0  0  0
   -0.3875   -5.4125    0.0000 C   0  0  0  0  0  0           0  0  0
    6.5167   -6.5417    0.0000 N   0  0  0  0  0  0           0  0  0
    4.3750   -5.3042    0.0000 O   0  0  0  0  0  0           0  0  0
    1.7875   -5.0417    0.0000 C   0  0  0  0  0  0           0  0  0
    0.9875   -6.2292    0.0000 C   0  0  0  0  0  0           0  0  0
    5.0917   -6.5500    0.0000 N   0  0  0  0  0  0           0  0  0
   -1.1000   -4.1750    0.0000 C   0  0  0  0  0  0           0  0  0
    1.6667   -6.6917    0.0000 C   0  0  0  0  0  0           0  0  0
    2.4667   -5.5125    0.0000 C   0  0  0  0  0  0           0  0  0
   -1.1000   -5.0000    0.0000 C   0  0  0  0  0  0           0  0  0
    1.0417   -3.7542    0.0000 O   0  0  0  0  0  0           0  0  0
    6.5167   -4.8917    0.0000 C   0  0  0  0  0  0           0  0  0
   -1.8125   -3.7625    0.0000 F   0  0  0  0  0  0           0  0  0
    3.0875   -6.8000    0.0000 C   0  0  0  0  0  0           0  0  0
    3.8000   -6.3792    0.0000 C   0  0  0  0  0  0           0  0  0
    7.2292   -6.1292    0.0000 C   0  0  0  0  0  0           0  0  0
    4.3792   -6.9667    0.0000 C   0  0  0  0  0  0           0  0  0
    5.8042   -3.6542    0.0000 C   0  0  0  0  0  0           0  0  0
    4.3750   -3.6542    0.0000 C   0  0  0  0  0  0           0  0  0
    1.7542   -4.1625    0.0000 C   0  0  0  0  0  0           0  0  0
    7.2292   -5.3042    0.0000 C   0  0  0  0  0  0           0  0  0
  2  1  1  0     0  0
  3 13  1  0     0  0
  4  3  1  0     0  0
  5  1  2  0     0  0
  6  4  1  0     0  0
  7 23  1  0     0  0
  8  6  2  0     0  0
  9  2  1  0     0  0
 10  4  2  0     0  0
 11  5  1  0     0  0
 12  2  2  0     0  0
 13 18  1  0     0  0
 14 17  1  0     0  0
 15  5  1  0     0  0
 16 19  2  0     0  0
 17  7  1  0     0  0
 18  7  1  0     0  0
 19 10  1  0     0  0
 20  6  1  0     0  0
 21  1  1  0     0  0
 22 16  1  0     0  0
 23 24  1  0     0  0
 24 26  1  0     0  0
 25 30  1  0     0  0
 26 15  1  0     0  0
 27  9  1  0     0  0
 28  9  1  0     0  0
 29 20  1  0     0  0
 30 21  2  0     0  0
 25 11  2  0     0  0
 14  3  1  0     0  0
 16  8  1  0     0  0
M  END