
  SciTegic07291412072D

 51 55  0  0  0  0            999 V2000
    9.0056   -4.8300    0.0000 N   0  0
    8.1955   -6.8568    0.0000 N   0  0
    8.4656   -5.4536    0.0000 C   0  0
    8.7356   -6.2332    0.0000 C   0  0  2  0  0  0
    9.8276   -4.9004    0.0000 C   0  0  2  0  0  0
    7.3854   -6.7009    0.0000 C   0  0
   10.2539   -5.6067    0.0000 C   0  0
    6.8453   -7.3245    0.0000 C   0  0  1  0  0  0
    8.4656   -7.6364    0.0000 C   0  0
    8.8186   -4.0265    0.0000 C   0  0
   10.1486   -4.1403    0.0000 C   0  0
    9.5457   -6.3891    0.0000 C   0  0
   11.0787   -5.5908    0.0000 N   0  0
    9.5249   -3.6003    0.0000 C   0  0
   12.2470   -1.9952    0.0000 C   0  0
    6.0351   -7.1686    0.0000 N   0  0
    7.1153   -8.1041    0.0000 C   0  0
   12.3022   -4.8526    0.0000 C   0  0
    9.2757   -7.7923    0.0000 C   0  0
    6.5752   -8.7277    0.0000 C   0  0
    9.8158   -7.1686    0.0000 C   0  0
    5.7532   -8.6574    0.0000 S   0  0
    7.6554   -5.2977    0.0000 O   0  0
    5.4951   -7.7923    0.0000 C   0  0
   11.4773   -4.8685    0.0000 C   0  0  2  0  0  0
   12.6732   -2.7016    0.0000 N   0  0
    7.1153   -5.9214    0.0000 O   0  0
    9.8552   -6.3290    0.0000 O   0  0
    5.4323   -9.4174    0.0000 C   0  0
    6.7623   -9.5312    0.0000 C   0  0
   12.7008   -4.1303    0.0000 O   0  0
    6.0559   -9.9575    0.0000 C   0  0
    5.2553   -8.5817    0.0000 O   0  0
   11.4221   -2.0111    0.0000 N   0  0
   12.6456   -1.2729    0.0000 N   0  0
   12.7284   -5.5589    0.0000 O   0  0
    2.7946   -8.7277    0.0000 N   0  0
    8.0963   -3.6278    0.0000 C   0  0
    9.5090   -2.7754    0.0000 C   0  0
   10.6259   -7.3245    0.0000 C   0  0
    9.5457   -8.5718    0.0000 C   0  0
    4.6849   -7.6364    0.0000 C   0  0
   11.0511   -4.1621    0.0000 C   0  0
   11.0235   -2.7334    0.0000 C   0  0
    3.3347   -8.1041    0.0000 C   0  0
    4.1448   -8.2600    0.0000 C   0  0
   11.4497   -3.4398    0.0000 C   0  0
    8.0803   -2.8030    0.0000 C   0  0
    8.7867   -2.3768    0.0000 C   0  0
   10.3559   -8.7277    0.0000 C   0  0
   10.8960   -8.1041    0.0000 C   0  0
  2  4  1  0
  3  1  1  0
  4  3  1  6
  5  1  1  0
  6  2  1  0
  5  7  1  1
  8  6  1  0
  9  2  1  0
 10  1  1  0
 11  5  1  0
 12  4  1  0
 13  7  1  0
 14 10  1  0
 15 34  2  0
 16  8  1  0
  8 17  1  6
 18 25  1  0
 19 21  2  0
 20 17  1  0
 21 12  1  0
 22 20  1  0
 23  3  2  0
 24 16  1  0
 25 13  1  0
 26 15  1  0
 27  6  2  0
 28  7  2  0
 29 22  1  0
 30 20  2  0
 31 18  2  0
 32 30  1  0
 33 24  2  0
 34 44  1  0
 35 15  1  0
 36 18  1  0
 37 45  1  0
 38 10  1  0
 39 14  1  0
 40 21  1  0
 41 19  1  0
 42 24  1  0
 25 43  1  1
 44 47  1  0
 45 46  1  0
 46 42  1  0
 47 43  1  0
 48 38  1  0
 49 48  1  0
 50 51  1  0
 51 40  2  0
 11 14  1  0
 39 49  1  0
  9 19  1  0
 41 50  2  0
 29 32  2  0
M  END