
  SciTegic12231509382D

 36 39  0  0  0  0            999 V2000
    1.7138   -1.2033    0.0000 N   0  0
    0.2917   -0.7475    0.0000 C   0  0
    2.1852   -2.6281    0.0000 C   0  0  1  0  0  0
    0.2917    0.7475    0.0000 C   0  0
    1.9971   -5.0249    0.0000 C   0  0  1  0  0  0
   -1.0028   -1.5132    0.0000 N   0  0
    1.7138    1.2033    0.0000 N   0  0
    3.5643   -3.1717    0.0000 C   0  0  1  0  0  0
    1.2071   -3.7498    0.0000 O   0  0
    2.5889    0.0182    0.0000 C   0  0
   -2.3155    0.7475    0.0000 N   0  0
    3.4539   -4.6676    0.0000 C   0  0  2  0  0  0
   -1.0028    1.5132    0.0000 C   0  0
   -2.3155   -0.7475    0.0000 C   0  0
    1.4334   -6.4131    0.0000 C   0  0
  -12.6611    3.8567    0.0000 C   0  0
    0.2447   -6.5776    0.0000 O   0  0
   -3.6217   -1.4865    0.0000 N   0  0
    4.5805   -2.5334    0.0000 O   0  0
  -12.6471    5.0566    0.0000 O   0  0
   -0.9991    2.7132    0.0000 N   0  0
    2.3546   -7.5980    0.0000 N   0  0
    4.3702   -5.4425    0.0000 O   0  0
  -11.3707    3.0904    0.0000 C   0  0
  -10.0978    0.8233    0.0000 C   0  0
  -13.7075    3.2692    0.0000 O   0  0
   -7.5151   -0.7033    0.0000 C   0  0
  -11.3882    1.5897    0.0000 C   0  0
  -10.1132   -0.6766    0.0000 C   0  0
   -8.7911    1.5600    0.0000 C   0  0
   -8.8219   -1.4399    0.0000 C   0  0
   -7.4999    0.7967    0.0000 C   0  0
   -4.9153   -0.7255    0.0000 C   0  0
   -6.2216   -1.4644    0.0000 C   0  0
    1.7899   -8.9885    0.0000 C   0  0
    2.5264   -9.9359    0.0000 C   0  0
  1  2  1  0
  3  1  1  1
  2  4  2  0
  2  6  1  0
  4  7  1  0
  3  8  1  0
  3  9  1  0
  5  9  1  0
  1 10  1  0
  7 10  2  0
  5 12  1  0
  8 12  1  0
  4 13  1  0
 11 13  2  0
  6 14  2  0
 11 14  1  0
  5 15  1  1
 15 17  2  0
 14 18  1  0
  8 19  1  6
 16 20  2  0
 13 21  1  0
 15 22  1  0
 12 23  1  6
 16 24  1  0
 16 26  1  0
 24 28  1  0
 25 28  1  0
 25 29  1  0
 25 30  2  0
 27 31  1  0
 29 31  2  0
 27 32  2  0
 30 32  1  0
 18 33  1  0
 27 34  1  0
 33 34  1  0
 22 35  1  0
 35 36  1  0
M  END