
  Mrv0541 05211314572D          

 15 16  0  0  0  0            999 V2000
    0.8538   -2.6642    0.0000 C   0  0  0  0  0  0  0  0  0  0  0  0
    2.9972   -2.2517    0.0000 N   0  0  0  0  0  0  0  0  0  0  0  0
    0.8538   -3.4892    0.0000 C   0  0  0  0  0  0  0  0  0  0  0  0
    2.2828   -2.6642    0.0000 C   0  0  0  0  0  0  0  0  0  0  0  0
    0.1394   -2.2517    0.0000 C   0  0  0  0  0  0  0  0  0  0  0  0
    1.5683   -2.2517    0.0000 C   0  0  0  0  0  0  0  0  0  0  0  0
   -0.5751   -2.6642    0.0000 C   0  0  0  0  0  0  0  0  0  0  0  0
   -0.5751   -3.4892    0.0000 C   0  0  0  0  0  0  0  0  0  0  0  0
    0.1394   -3.9017    0.0000 C   0  0  0  0  0  0  0  0  0  0  0  0
    1.5683   -3.9017    0.0000 C   0  0  0  0  0  0  0  0  0  0  0  0
    2.2828   -3.4892    0.0000 C   0  0  0  0  0  0  0  0  0  0  0  0
   -1.2896   -2.2517    0.0000 O   0  0  0  0  0  0  0  0  0  0  0  0
   -1.2896   -3.9017    0.0000 O   0  0  0  0  0  0  0  0  0  0  0  0
    2.9972   -1.4267    0.0000 C   0  0  0  0  0  0  0  0  0  0  0  0
    3.7117   -2.6642    0.0000 C   0  0  0  0  0  0  0  0  0  0  0  0
  2  4  1  0  0  0  0
  3  1  1  0  0  0  0
  4  6  1  0  0  0  0
  5  1  2  0  0  0  0
  6  1  1  0  0  0  0
  7  5  1  0  0  0  0
  8  7  2  0  0  0  0
  9  3  2  0  0  0  0
 10  3  1  0  0  0  0
 11  4  1  0  0  0  0
 12  7  1  0  0  0  0
 13  8  1  0  0  0  0
 14  2  1  0  0  0  0
 15  2  1  0  0  0  0
  9  8  1  0  0  0  0
 11 10  1  0  0  0  0
M  END