
          11280715462D 1   1.00000     0.00000     0

 24 26  0     0  0            999 V2000
    1.1917   -2.7792    0.0000 N   0  0  3  0  0  0           0  0  0
    5.5042   -1.8792    0.0000 C   0  0  0  0  0  0           0  0  0
    6.2125   -1.4625    0.0000 C   0  0  0  0  0  0           0  0  0
    2.6292   -1.9375    0.0000 N   0  0  3  0  0  0           0  0  0
    0.4875   -3.1917    0.0000 C   0  0  0  0  0  0           0  0  0
    1.1917   -1.9375    0.0000 C   0  0  0  0  0  0           0  0  0
    1.9042   -3.1750    0.0000 C   0  0  0  0  0  0           0  0  0
    5.5167   -2.7125    0.0000 O   0  0  0  0  0  0           0  0  0
    7.6417   -1.4417    0.0000 N   0  0  0  0  0  0           0  0  0
    4.7792   -1.4792    0.0000 N   0  0  0  0  0  0           0  0  0
   -0.2333   -2.7792    0.0000 C   0  0  0  0  0  0           0  0  0
    0.4917   -4.0167    0.0000 C   0  0  0  0  0  0           0  0  0
    1.9042   -1.5167    0.0000 C   0  0  0  0  0  0           0  0  0
    2.6292   -2.7792    0.0000 C   0  0  0  0  0  0           0  0  0
    6.9292   -1.8667    0.0000 C   0  0  0  0  0  0           0  0  0
   -0.9500   -3.2000    0.0000 C   0  0  0  0  0  0           0  0  0
   -0.2208   -4.4417    0.0000 C   0  0  0  0  0  0           0  0  0
   -0.9458   -4.0292    0.0000 C   0  0  0  0  0  0           0  0  0
    4.0667   -1.9042    0.0000 C   0  0  0  0  0  0           0  0  0
    3.3542   -1.5125    0.0000 C   0  0  0  0  0  0           0  0  0
    6.2000   -0.6417    0.0000 C   0  0  0  0  0  0           0  0  0
    7.6292   -0.6167    0.0000 C   0  0  0  0  0  0           0  0  0
   -1.6583   -4.4417    0.0000 C   0  0  0  0  0  0           0  0  0
    6.9042   -0.2167    0.0000 C   0  0  0  0  0  0           0  0  0
  2 10  1  0     0  0
  3  2  1  0     0  0
  4 14  1  0     0  0
  5  1  1  0     0  0
  6  1  1  0     0  0
  7  1  1  0     0  0
  8  2  2  0     0  0
  9 15  1  0     0  0
 10 19  1  0     0  0
 11  5  2  0     0  0
 12  5  1  0     0  0
 13  6  1  0     0  0
 14  7  1  0     0  0
 15  3  2  0     0  0
 16 11  1  0     0  0
 17 12  2  0     0  0
 18 17  1  0     0  0
 19 20  1  0     0  0
 20  4  1  0     0  0
 21  3  1  0     0  0
 22 24  1  0     0  0
 23 18  1  0     0  0
 24 21  2  0     0  0
  4 13  1  0     0  0
 18 16  2  0     0  0
 22  9  2  0     0  0
M  END