
          11280715462D 1   1.00000     0.00000     0

 25 28  0     0  0            999 V2000
    0.5417   -2.2917    0.0000 N   0  0  3  0  0  0           0  0  0
   -1.7083    2.6500    0.0000 C   0  0  0  0  0  0           0  0  0
   -0.1208   -2.7792    0.0000 N   0  0  0  0  0  0           0  0  0
   -2.1958    3.3208    0.0000 N   0  0  0  0  0  0           0  0  0
    0.1292   -3.5625    0.0000 N   0  0  0  0  0  0           0  0  0
    0.9542   -3.5667    0.0000 N   0  0  0  0  0  0           0  0  0
   -2.1958    1.9750    0.0000 O   0  0  0  0  0  0           0  0  0
    1.2167   -2.7792    0.0000 C   0  0  0  0  0  0           0  0  0
   -2.9833    3.0625    0.0000 C   0  0  0  0  0  0           0  0  0
   -2.9833    2.2333    0.0000 C   0  0  0  0  0  0           0  0  0
    0.5417   -1.4667    0.0000 C   0  0  0  0  0  0           0  0  0
   -0.1708    1.4125    0.0000 C   0  0  0  0  0  0           0  0  0
   -0.8833    2.6500    0.0000 S   0  0  0  0  0  0           0  0  0
    0.5417    1.0083    0.0000 N   0  0  0  0  0  0           0  0  0
   -0.8833    1.0000    0.0000 O   0  0  0  0  0  0           0  0  0
    1.2625   -1.0542    0.0000 C   0  0  0  0  0  0           0  0  0
   -0.1708   -1.0542    0.0000 C   0  0  0  0  0  0           0  0  0
   -0.1708    2.2375    0.0000 C   0  0  0  0  0  0           0  0  0
    0.5500    0.1833    0.0000 C   0  0  0  0  0  0           0  0  0
    1.2667   -0.2292    0.0000 C   0  0  0  0  0  0           0  0  0
   -0.1625   -0.2292    0.0000 C   0  0  0  0  0  0           0  0  0
   -3.7000    3.4833    0.0000 C   0  0  0  0  0  0           0  0  0
   -3.7000    1.8208    0.0000 C   0  0  0  0  0  0           0  0  0
   -4.4125    2.2333    0.0000 C   0  0  0  0  0  0           0  0  0
   -4.4125    3.0625    0.0000 C   0  0  0  0  0  0           0  0  0
  2 13  1  0     0  0
  3  1  1  0     0  0
  4  2  2  0     0  0
  5  3  2  0     0  0
  6  8  2  0     0  0
  7  2  1  0     0  0
  8  1  1  0     0  0
  9  4  1  0     0  0
 10  7  1  0     0  0
 11  1  1  0     0  0
 12 14  1  0     0  0
 13 18  1  0     0  0
 14 19  1  0     0  0
 15 12  2  0     0  0
 16 11  1  0     0  0
 17 11  2  0     0  0
 18 12  1  0     0  0
 19 21  2  0     0  0
 20 16  2  0     0  0
 21 17  1  0     0  0
 22  9  2  0     0  0
 23 10  2  0     0  0
 24 23  1  0     0  0
 25 22  1  0     0  0
  5  6  1  0     0  0
 20 19  1  0     0  0
  9 10  1  0     0  0
 25 24  2  0     0  0
M  END