
  Mrv0541 04051115152D          

 30 33  0  0  0  0            999 V2000
    1.5747    2.0562    0.0000 C   0  0  0  0  0  0  0  0  0  0  0  0
    1.2776    0.6585    0.0000 N   0  0  0  0  0  0  0  0  0  0  0  0
    2.3817    1.8847    0.0000 O   0  0  0  0  0  0  0  0  0  0  0  0
    1.0227    1.4431    0.0000 C   0  0  0  0  0  0  0  0  0  0  0  0
    4.9201   -0.4215    0.0000 C   0  0  0  0  0  0  0  0  0  0  0  0
   -0.4448    0.7055    0.0000 O   0  0  0  0  0  0  0  0  0  0  0  0
   -1.2698    0.1016    0.0000 O   0  0  0  0  0  0  0  0  0  0  0  0
   -1.2698   -1.5484    0.0000 O   0  0  0  0  0  0  0  0  0  0  0  0
   -4.7933   -1.1359    0.0000 C   0  0  0  0  0  0  0  0  0  0  0  0
   -4.7933   -0.3109    0.0000 C   0  0  0  0  0  0  0  0  0  0  0  0
    3.4912    0.4035    0.0000 C   0  0  0  0  0  0  0  0  0  0  0  0
   -4.0788   -1.5484    0.0000 C   0  0  0  0  0  0  0  0  0  0  0  0
   -4.0788    0.1016    0.0000 C   0  0  0  0  0  0  0  0  0  0  0  0
    2.7767    0.8160    0.0000 C   0  0  0  0  0  0  0  0  0  0  0  0
    2.7767   -0.8340    0.0000 C   0  0  0  0  0  0  0  0  0  0  0  0
   -2.5797   -1.3909    0.0000 C   0  0  0  0  0  0  0  0  0  0  0  0
    1.2776   -0.6764    0.0000 C   0  0  0  0  0  0  0  0  0  0  0  0
   -0.4448   -0.7234    0.0000 N   0  0  0  0  0  0  0  0  0  0  0  0
    4.2057   -0.8340    0.0000 O   0  0  0  0  0  0  0  0  0  0  0  0
   -2.5797   -0.0560    0.0000 O   0  0  0  0  0  0  0  0  0  0  0  0
   -0.0323   -0.0090    0.0000 C   0  0  0  0  0  0  0  0  0  0  0  0
    3.4912   -0.4215    0.0000 C   0  0  0  0  0  0  0  0  0  0  0  0
   -2.0948   -0.7234    0.0000 C   0  0  0  0  0  0  0  0  0  0  0  0
    0.7927   -0.0090    0.0000 C   0  0  0  0  0  0  0  0  0  0  0  0
   -3.3643   -1.1359    0.0000 C   0  0  0  0  0  0  0  0  0  0  0  0
    2.0623   -0.4215    0.0000 C   0  0  0  0  0  0  0  0  0  0  0  0
   -3.3643   -0.3109    0.0000 C   0  0  0  0  0  0  0  0  0  0  0  0
    2.0623    0.4035    0.0000 C   0  0  0  0  0  0  0  0  0  0  0  0
   -1.2698   -0.7234    0.0000 S   0  0  0  0  0  0  0  0  0  0  0  0
    1.3198    2.8408    0.0000 O   0  0  0  0  0  0  0  0  0  0  0  0
  1  4  1  0  0  0  0
  1 30  2  0  0  0  0
  1  3  1  0  0  0  0
 28  2  1  0  0  0  0
  4  2  1  0  0  0  0
 24  2  1  0  0  0  0
  5 19  1  0  0  0  0
 21  6  2  0  0  0  0
  7 29  2  0  0  0  0
  8 29  2  0  0  0  0
  9 10  2  0  0  0  0
  9 12  1  0  0  0  0
 10 13  1  0  0  0  0
 11 22  2  0  0  0  0
 11 14  1  0  0  0  0
 12 25  2  0  0  0  0
 13 27  2  0  0  0  0
 14 28  2  0  0  0  0
 15 22  1  0  0  0  0
 15 26  2  0  0  0  0
 16 23  2  0  0  0  0
 16 25  1  0  0  0  0
 17 26  1  0  0  0  0
 17 24  2  0  0  0  0
 21 18  1  0  0  0  0
 18 29  1  0  0  0  0
 22 19  1  0  0  0  0
 23 20  1  0  0  0  0
 27 20  1  0  0  0  0
 21 24  1  0  0  0  0
 23 29  1  0  0  0  0
 25 27  1  0  0  0  0
 26 28  1  0  0  0  0
M  END