
          05080814032D 1   1.00000     0.00000     0

 30 34  0     1  0            999 V2000
    2.2996  -11.0400    0.0000 C   0  0  0  0  0  0           0  0  0
    2.2996  -11.8691    0.0000 C   0  0  0  0  0  0           0  0  0
    3.0137  -12.2813    0.0000 N   0  0  3  0  0  0           0  0  0
    3.7324  -11.8691    0.0000 C   0  0  0  0  0  0           0  0  0
    3.7324  -11.0400    0.0000 C   0  0  0  0  0  0           0  0  0
    3.0137  -10.6231    0.0000 O   0  0  0  0  0  0           0  0  0
    3.0125  -13.1059    0.0000 C   0  0  0  0  0  0           0  0  0
    3.7260  -13.5192    0.0000 C   0  0  0  0  0  0           0  0  0
    3.7249  -14.3437    0.0000 C   0  0  0  0  0  0           0  0  0
    4.4384  -14.7570    0.0000 O   0  0  0  0  0  0           0  0  0
    5.1531  -14.3457    0.0000 C   0  0  0  0  0  0           0  0  0
    5.8641  -14.7603    0.0000 C   0  0  0  0  0  0           0  0  0
    5.8612  -13.1112    0.0000 C   0  0  0  0  0  0           0  0  0
    5.1500  -13.5241    0.0000 C   0  0  0  0  0  0           0  0  0
    6.5798  -13.5242    0.0000 C   0  0  0  0  0  0           0  0  0
    6.5781  -14.3520    0.0000 C   0  0  0  0  0  0           0  0  0
    8.0100  -13.5271    0.0000 C   0  0  0  0  0  0           0  0  0
    7.2934  -13.1095    0.0000 C   0  0  1  0  0  0           0  0  0
    8.0084  -14.3547    0.0000 N   0  0  3  0  0  0           0  0  0
    7.2900  -14.7604    0.0000 C   0  0  2  0  0  0           0  0  0
    7.4538  -15.5691    0.0000 C   0  0  0  0  0  0           0  0  0
    8.2735  -15.6631    0.0000 C   0  0  0  0  0  0           0  0  0
    8.6162  -14.9127    0.0000 C   0  0  0  0  0  0           0  0  0
    7.2940  -12.2850    0.0000 C   0  0  0  0  0  0           0  0  0
    6.5736  -15.1673    0.0000 H   0  0  0  0  0  0           0  0  0
    8.0082  -11.8775    0.0000 N   0  0  0  0  0  0           0  0  0
    8.0091  -11.0537    0.0000 C   0  0  0  0  0  0           0  0  0
    7.2947  -10.6401    0.0000 C   0  0  0  0  0  0           0  0  0
    6.5780  -11.0565    0.0000 N   0  0  0  0  0  0           0  0  0
    6.5807  -11.8789    0.0000 C   0  0  0  0  0  0           0  0  0
 14 11  1  0     0  0
 15 16  2  0     0  0
  3  7  1  0     0  0
  1  2  1  0     0  0
  7  8  1  0     0  0
  1  6  1  0     0  0
 15 18  1  0     0  0
 16 20  1  0     0  0
 19 17  1  0     0  0
 17 18  1  0     0  0
 19 20  1  0     0  0
  8  9  1  0     0  0
  2  3  1  0     0  0
  9 10  1  0     0  0
  3  4  1  0     0  0
 10 11  1  0     0  0
 20 21  1  0     0  0
 21 22  1  0     0  0
 22 23  1  0     0  0
 23 19  1  0     0  0
  4  5  1  0     0  0
 18 24  1  6     0  0
 11 12  2  0     0  0
 20 25  1  1     0  0
 12 16  1  0     0  0
 24 26  2  0     0  0
  5  6  1  0     0  0
 26 27  1  0     0  0
 15 13  1  0     0  0
 27 28  2  0     0  0
 28 29  1  0     0  0
 13 14  2  0     0  0
 29 30  2  0     0  0
 30 24  1  0     0  0
M  END