
  SciTegic06051313552D

 38 41  0  0  0  0            999 V2000
   11.1321  -16.5794    0.0000 C   0  0
   11.1310  -17.4068    0.0000 C   0  0
   11.8457  -17.8197    0.0000 C   0  0
   11.8439  -16.1666    0.0000 C   0  0
   13.3506  -16.3173    0.0000 C   0  0
   12.5594  -16.5758    0.0000 C   0  0
   12.5619  -17.4090    0.0000 C   0  0
   13.3558  -17.6626    0.0000 N   0  0
   13.8412  -16.9854    0.0000 N   0  0
   13.6152  -18.4458    0.0000 C   0  0
   13.1928  -19.1537    0.0000 C   0  0
   12.3702  -19.1389    0.0000 C   0  0
   11.9473  -19.8464    0.0000 C   0  0
   12.3493  -20.5679    0.0000 C   0  0
   13.1785  -20.5775    0.0000 C   0  0
   13.5978  -19.8693    0.0000 C   0  0
   13.5829  -21.2966    0.0000 C   0  0
   13.1624  -22.0064    0.0000 N   0  0
   13.5669  -22.7254    0.0000 C   0  0
   13.7558  -15.5985    0.0000 N   0  0
   14.5804  -15.5903    0.0000 S   0  0
   14.9804  -16.3117    0.0000 C   0  0
   14.5291  -14.7596    0.0000 O   0  0
   15.3622  -15.3219    0.0000 O   0  0
   11.8373  -15.3458    0.0000 O   0  0
   11.1195  -14.9392    0.0000 C   0  0
   14.3918  -22.7347    0.0000 O   0  0
   13.1464  -23.4353    0.0000 C   0  0
   12.3214  -23.4260    0.0000 O   0  0
   13.1419  -24.2588    0.0000 C   0  0
   13.8586  -23.8463    0.0000 C   0  0
   14.5525  -17.0174    0.0000 C   0  0
   14.9518  -17.7384    0.0000 C   0  0
   15.7774  -17.7533    0.0000 C   0  0
   16.2023  -17.0410    0.0000 C   0  0
   15.8006  -16.3230    0.0000 C   0  0
   17.0272  -17.0525    0.0000 F   0  0
   16.1784  -18.4742    0.0000 C   0  0
  1  2  2  0
  2  3  1  0
  3  7  2  0
  6  4  2  0
  4  1  1  0
  6  7  1  0
  5  6  1  0
  7  8  1  0
  8  9  1  0
  9  5  2  0
  8 10  1  0
 10 11  1  0
 11 12  2  0
 12 13  1  0
 13 14  2  0
 14 15  1  0
 15 16  2  0
 16 11  1  0
 15 17  1  0
 17 18  1  0
 18 19  1  0
  5 20  1  0
 20 21  1  0
 21 22  1  0
 21 23  2  0
 21 24  2  0
  4 25  1  0
 25 26  1  0
 19 27  2  0
 28 19  1  0
 28 29  1  0
 28 30  1  0
 28 31  1  0
 22 32  2  0
 32 33  1  0
 33 34  2  0
 34 35  1  0
 35 36  2  0
 36 22  1  0
 35 37  1  0
 34 38  1  0
M  END