
  SciTegic02181312462D

 46 49  0  0  0  0            999 V2000
   17.2971   -4.7246    0.0000 C   0  0
   17.9892   -4.3161    0.0000 C   0  0
   17.9848   -3.5114    0.0000 C   0  0
   17.2842   -3.1145    0.0000 C   0  0
   16.5921   -3.5231    0.0000 C   0  0
   16.5972   -4.3236    0.0000 C   0  0
   18.6898   -4.7129    0.0000 C   0  0
   17.2798   -2.3099    0.0000 F   0  0
   16.6676   -6.7822    0.0000 C   0  0
   16.6399   -5.9774    0.0000 C   0  0
   17.3223   -5.5530    0.0000 C   0  0
   18.0336   -5.9291    0.0000 C   0  0
   18.0613   -6.7339    0.0000 C   0  0
   17.3789   -7.1584    0.0000 N   0  0
   18.7722   -7.1194    0.0000 N   0  0
   15.9090   -5.5876    0.0000 N   0  0
   15.8811   -4.7596    0.0000 C   0  0
   15.2058   -6.0258    0.0000 C   0  0
   14.4748   -5.6359    0.0000 C   0  0
   15.2337   -6.8538    0.0000 O   0  0
   13.7717   -6.0741    0.0000 C   0  0
   13.0415   -5.6810    0.0000 C   0  0
   12.3388   -6.1185    0.0000 C   0  0
   12.3663   -6.9474    0.0000 C   0  0
   13.1023   -7.3369    0.0000 C   0  0
   13.8020   -6.8972    0.0000 C   0  0
   15.0434   -5.0262    0.0000 C   0  0
   14.0391   -4.9266    0.0000 C   0  0
   13.1332   -8.1649    0.0000 C   0  0
   12.4316   -8.6055    0.0000 F   0  0
   13.8655   -8.5521    0.0000 F   0  0
   13.1563   -8.9867    0.0000 F   0  0
   11.6080   -5.7283    0.0000 C   0  0
   11.5805   -4.9003    0.0000 F   0  0
   10.9047   -6.1661    0.0000 F   0  0
   11.0045   -5.1522    0.0000 F   0  0
   18.7874   -7.9305    0.0000 C   0  0
   19.4944   -8.3161    0.0000 C   0  0
   20.1864   -7.8965    0.0000 N   0  0
   20.1668   -7.0870    0.0000 C   0  0  2  0  0  0
   19.4552   -6.6970    0.0000 C   0  0
   20.8744   -6.6561    0.0000 C   0  0
   20.9132   -8.2942    0.0000 S   0  0
   20.9321   -9.1225    0.0000 C   0  0
   21.4986   -7.7032    0.0000 O   0  0
   21.7120   -8.5066    0.0000 O   0  0
  1  2  1  0
  2  3  2  0
  3  4  1  0
  4  5  2  0
  5  6  1  0
  1  6  2  0
  2  7  1  0
  4  8  1  0
  9 10  1  0
 10 11  2  0
 11 12  1  0
 12 13  2  0
 13 14  1  0
  9 14  2  0
 13 15  1  0
 10 16  1  0
 16 17  1  0
 16 18  1  0
 18 19  1  0
 18 20  2  0
 19 21  1  0
 21 22  2  0
 22 23  1  0
 23 24  2  0
 24 25  1  0
 25 26  2  0
 26 21  1  0
 19 27  1  0
 19 28  1  0
 25 29  1  0
 29 30  1  0
 29 31  1  0
 29 32  1  0
 23 33  1  0
 33 34  1  0
 33 35  1  0
 33 36  1  0
 15 37  1  0
 15 41  1  0
 37 38  1  0
 38 39  1  0
 39 40  1  0
 40 41  1  0
 40 42  1  6
 39 43  1  0
 43 44  1  0
 43 45  2  0
 43 46  2  0
 11  1  1  0
M  END