
  CDK    9/16/09,9:45

 59 64  0  0  0  0  0  0  0  0999 V2000
   10.8834   -2.0652    0.0000 C   0  0  0  0  0  0  0  0  0  0  0  0
   10.0602   -2.0599    0.0000 C   0  0  0  0  0  0  0  0  0  0  0  0
    9.6458   -2.7690    0.0000 C   0  0  0  0  0  0  0  0  0  0  0  0
   10.0535   -3.4840    0.0000 C   0  0  0  0  0  0  0  0  0  0  0  0
   10.8798   -3.4853    0.0000 C   0  0  0  0  0  0  0  0  0  0  0  0
   11.2905   -2.7755    0.0000 C   0  0  0  0  0  0  0  0  0  0  0  0
    8.9777   -0.4000    0.0000 C   0  0  0  0  0  0  0  0  0  0  0  0
   -0.3098   -0.8416    0.0000 C   0  0  0  0  0  0  0  0  0  0  0  0
   -0.3109   -1.6690    0.0000 C   0  0  0  0  0  0  0  0  0  0  0  0
    0.4039   -2.0819    0.0000 C   0  0  0  0  0  0  0  0  0  0  0  0
    1.1203   -1.6685    0.0000 C   0  0  0  0  0  0  0  0  0  0  0  0
    1.1175   -0.8380    0.0000 C   0  0  0  0  0  0  0  0  0  0  0  0
    0.4021   -0.4289    0.0000 C   0  0  0  0  0  0  0  0  0  0  0  0
    1.8304   -0.4228    0.0000 C   0  0  0  0  0  0  0  0  0  0  0  0
    2.5464   -0.8326    0.0000 N   0  0  0  0  0  0  0  0  0  0  0  0
    3.2593   -0.4174    0.0000 C   0  0  0  0  0  0  0  0  0  0  0  0
    3.9753   -0.8272    0.0000 C   0  0  0  0  0  0  0  0  0  0  0  0
    3.2562    0.4076    0.0000 O   0  0  0  0  0  0  0  0  0  0  0  0
    3.9784   -1.6522    0.0000 C   0  0  0  0  0  0  0  0  0  0  0  0
    4.6883   -0.4120    0.0000 N   0  0  0  0  0  0  0  0  0  0  0  0
    5.4043   -0.8218    0.0000 C   0  0  0  0  0  0  0  0  0  0  0  0
    6.1172   -0.4067    0.0000 C   0  0  0  0  0  0  0  0  0  0  0  0
    5.4074   -1.6468    0.0000 O   0  0  0  0  0  0  0  0  0  0  0  0
    6.8332   -0.8165    0.0000 N   0  0  0  0  0  0  0  0  0  0  0  0
    7.5461   -0.4013    0.0000 C   0  0  0  0  0  0  0  0  0  0  0  0
    8.2621   -0.8111    0.0000 N   0  0  0  0  0  0  0  0  0  0  0  0
    7.5430    0.4237    0.0000 O   0  0  0  0  0  0  0  0  0  0  0  0
    9.6861   -0.8173    0.0000 C   0  0  0  0  0  0  0  0  0  0  0  0
    9.6846    0.8332    0.0000 C   0  0  0  0  0  0  0  0  0  0  0  0
    8.9724    0.4204    0.0000 C   0  0  0  0  0  0  0  0  0  0  0  0
   11.1911    0.6698    0.0000 C   0  0  0  0  0  0  0  0  0  0  0  0
   10.4034    0.4193    0.0000 C   0  0  0  0  0  0  0  0  0  0  0  0
   10.3994   -0.4080    0.0000 C   0  0  0  0  0  0  0  0  0  0  0  0
   11.1856   -0.6661    0.0000 N   0  0  0  0  0  0  0  0  0  0  0  0
   11.6728    0.0025    0.0000 C   0  0  0  0  0  0  0  0  0  0  0  0
   11.4388   -1.4513    0.0000 C   0  0  0  0  0  0  0  0  0  0  0  0
    9.6519   -1.3430    0.0000 Cl  0  0  0  0  0  0  0  0  0  0  0  0
   12.1155   -2.7773    0.0000 Cl  0  0  0  0  0  0  0  0  0  0  0  0
    3.2655   -2.0674    0.0000 C   0  0  0  0  0  0  0  0  0  0  0  0
    3.2686   -2.8924    0.0000 C   0  0  0  0  0  0  0  0  0  0  0  0
    2.5557   -3.3076    0.0000 N   0  0  0  0  0  0  0  0  0  0  0  0
    2.5588   -4.1326    0.0000 C   0  0  0  0  0  0  0  0  0  0  0  0
    1.8459   -4.5478    0.0000 N   0  0  0  0  0  0  0  0  0  0  0  0
    3.2749   -4.5424    0.0000 N   0  0  0  0  0  0  0  0  0  0  0  0
   11.4497    1.4533    0.0000 C   0  0  0  0  0  0  0  0  0  0  0  0
   12.2575    1.6210    0.0000 N   0  0  0  0  0  0  0  0  0  0  0  0
   12.8651    1.0685    0.0000 C   0  0  0  0  0  0  0  0  0  0  0  0
   13.5815    1.4777    0.0000 C   0  0  0  0  0  0  0  0  0  0  0  0
   13.4137    2.2855    0.0000 C   0  0  0  0  0  0  0  0  0  0  0  0
   12.5936    2.3754    0.0000 C   0  0  0  0  0  0  0  0  0  0  0  0
    6.1141    0.4183    0.0000 C   0  0  0  0  0  0  0  0  0  0  0  0
    5.3981    0.8281    0.0000 C   0  0  0  0  0  0  0  0  0  0  0  0
    5.3999    1.6532    0.0000 C   0  0  0  0  0  0  0  0  0  0  0  0
    4.6848    2.0629    0.0000 C   0  0  0  0  0  0  0  0  0  0  0  0
    3.9709    1.6477    0.0000 C   0  0  0  0  0  0  0  0  0  0  0  0
    3.9766    0.8184    0.0000 C   0  0  0  0  0  0  0  0  0  0  0  0
    4.6924    0.4125    0.0000 C   0  0  0  0  0  0  0  0  0  0  0  0
    3.2543    2.0565    0.0000 O   0  0  0  0  0  0  0  0  0  0  0  0
    3.2501    2.8815    0.0000 C   0  0  0  0  0  0  0  0  0  0  0  0
 32 29  1  0  0  0  0 
 14 15  1  0  0  0  0 
 29 30  2  0  0  0  0 
 30  7  1  0  0  0  0 
 32 33  2  0  0  0  0 
 15 16  1  0  0  0  0 
  8  9  2  0  0  0  0 
 16 17  1  0  0  0  0 
  4  5  1  0  0  0  0 
 31 32  1  0  0  0  0 
 33 34  1  0  0  0  0 
 34 35  1  0  0  0  0 
 35 31  2  0  0  0  0 
 16 18  2  0  0  0  0 
 34 36  1  0  0  0  0 
 36  1  1  0  0  0  0 
  9 10  1  0  0  0  0 
  2 37  1  0  0  0  0 
 17 19  1  1  0  0  0 
  6 38  1  0  0  0  0 
  2  3  1  0  0  0  0 
 19 39  1  0  0  0  0 
 17 20  1  0  0  0  0 
 39 40  1  0  0  0  0 
 10 11  2  0  0  0  0 
 40 41  1  0  0  0  0 
 20 21  1  0  0  0  0 
 41 42  1  0  0  0  0 
  5  6  2  0  0  0  0 
 42 43  1  0  0  0  0 
 21 22  1  0  0  0  0 
 42 44  2  0  0  0  0 
 11 12  1  0  0  0  0 
 31 45  1  0  0  0  0 
 21 23  2  0  0  0  0 
 45 46  1  0  0  0  0 
 46 47  1  0  0  0  0 
  6  1  1  0  0  0  0 
 22 24  1  0  0  0  0 
 12 13  2  0  0  0  0 
 24 25  1  0  0  0  0 
 47 48  1  0  0  0  0 
 48 49  1  0  0  0  0 
 49 50  1  0  0  0  0 
 50 46  1  0  0  0  0 
 13  8  1  0  0  0  0 
 22 51  1  6  0  0  0 
 25 26  1  0  0  0  0 
 51 52  1  0  0  0  0 
  1  2  2  0  0  0  0 
 52 53  2  0  0  0  0 
 25 27  2  0  0  0  0 
 53 54  1  0  0  0  0 
 26  7  1  0  0  0  0 
 54 55  2  0  0  0  0 
 12 14  1  0  0  0  0 
 55 56  1  0  0  0  0 
  7 28  2  0  0  0  0 
 56 57  2  0  0  0  0 
 57 52  1  0  0  0  0 
 28 33  1  0  0  0  0 
 55 58  1  0  0  0  0 
  3  4  2  0  0  0  0 
 58 59  1  0  0  0  0 
M  END