
          11280715362D 1   1.00000     0.00000     0

 37 38  0     1  0            999 V2000
    2.8542   -2.8667    0.0000 P   0  0  3  0  0  0           0  0  0
    7.3042   -4.1792    0.0000 C   0  0  0  0  0  0           0  0  0
    5.9917   -5.0667    0.0000 C   0  0  0  0  0  0           0  0  0
    6.9542   -4.6542    0.0000 C   0  0  1  0  0  0           0  0  0
    6.3417   -4.5917    0.0000 N   0  0  0  0  0  0           0  0  0
    7.9042   -4.2417    0.0000 N   0  0  3  0  0  0           0  0  0
    5.3917   -5.0042    0.0000 C   0  0  1  0  0  0           0  0  0
    5.0417   -5.4792    0.0000 N   0  0  0  0  0  0           0  0  0
    4.4292   -5.4167    0.0000 C   0  0  0  0  0  0           0  0  0
    3.4417   -2.7542    0.0000 O   0  0  0  0  0  0           0  0  0
    2.7417   -2.2792    0.0000 O   0  0  0  0  0  0           0  0  0
    8.2667   -3.7667    0.0000 C   0  0  0  0  0  0           0  0  0
    7.0667   -3.6292    0.0000 O   0  0  0  0  0  0           0  0  0
    6.2417   -5.6292    0.0000 O   0  0  0  0  0  0           0  0  0
    7.1917   -5.2042    0.0000 C   0  0  0  0  0  0           0  0  0
    5.1542   -4.4417    0.0000 C   0  0  0  0  0  0           0  0  0
    4.1917   -4.8667    0.0000 O   0  0  0  0  0  0           0  0  0
    2.9667   -3.4667    0.0000 O   0  0  0  0  0  0           0  0  0
    2.2542   -2.9917    0.0000 O   0  0  0  0  0  0           0  0  0
    8.8542   -3.8292    0.0000 C   0  0  0  0  0  0           0  0  0
    3.8417   -3.2167    0.0000 C   0  0  0  0  0  0           0  0  0
    4.6292   -4.1417    0.0000 C   0  0  0  0  0  0           0  0  0
    9.9542   -4.3167    0.0000 C   0  0  0  0  0  0           0  0  0
    4.8292   -3.5667    0.0000 C   0  0  0  0  0  0           0  0  0
    8.9292   -4.4292    0.0000 C   0  0  0  0  0  0           0  0  0
    4.0292   -4.2417    0.0000 C   0  0  0  0  0  0           0  0  0
    9.3417   -3.4792    0.0000 C   0  0  0  0  0  0           0  0  0
    3.6417   -3.7917    0.0000 C   0  0  0  0  0  0           0  0  0
    4.4292   -3.1167    0.0000 C   0  0  0  0  0  0           0  0  0
    9.8917   -3.7292    0.0000 C   0  0  0  0  0  0           0  0  0
    9.4667   -4.6792    0.0000 C   0  0  0  0  0  0           0  0  0
    8.1542   -4.8042    0.0000 C   0  0  0  0  0  0           0  0  0
    7.5667   -5.6792    0.0000 C   0  0  3  0  0  0           0  0  0
    4.0792   -5.8917    0.0000 C   0  0  0  0  0  0           0  0  0
   10.5042   -4.5667    0.0000 C   0  0  0  0  0  0           0  0  0
    7.3417   -6.2417    0.0000 C   0  0  0  0  0  0           0  0  0
    8.1542   -5.5917    0.0000 C   0  0  0  0  0  0           0  0  0
  2  4  1  0     0  0
  3  7  1  0     0  0
  4  5  1  0     0  0
  5  3  1  0     0  0
  6  2  1  0     0  0
  7 16  1  1     0  0
  8  7  1  0     0  0
  9  8  1  0     0  0
 10  1  1  0     0  0
 11  1  2  0     0  0
 12  6  1  0     0  0
 13  2  2  0     0  0
 14  3  2  0     0  0
  4 15  1  6     0  0
 16 22  1  0     0  0
 17  9  2  0     0  0
 18  1  1  0     0  0
 19  1  1  0     0  0
 20 12  1  0     0  0
 21 10  1  0     0  0
 22 24  1  0     0  0
 23 30  2  0     0  0
 24 29  2  0     0  0
 25 20  1  0     0  0
 26 28  1  0     0  0
 27 20  2  0     0  0
 28 21  2  0     0  0
 29 21  1  0     0  0
 30 27  1  0     0  0
 31 25  2  0     0  0
 32  6  1  0     0  0
 33 15  1  0     0  0
 34  9  1  0     0  0
 35 23  1  0     0  0
 36 33  1  0     0  0
 37 33  1  0     0  0
 26 22  2  0     0  0
 31 23  1  0     0  0
M  END