
          03140815522D 1   1.00000     0.00000     0

 17 18  0     0  0            999 V2000
   -5.8556   -9.6500    0.0000 C   0  0  0  0  0  0           0  0  0
   -5.8568  -10.4773    0.0000 C   0  0  0  0  0  0           0  0  0
   -5.1419  -10.8902    0.0000 C   0  0  0  0  0  0           0  0  0
   -4.4255  -10.4769    0.0000 C   0  0  0  0  0  0           0  0  0
   -4.4284   -9.6463    0.0000 C   0  0  0  0  0  0           0  0  0
   -5.1437   -9.2372    0.0000 C   0  0  0  0  0  0           0  0  0
   -3.7154   -9.2311    0.0000 O   0  0  0  0  0  0           0  0  0
   -2.9994   -9.6409    0.0000 C   0  0  0  0  0  0           0  0  0
   -2.9997  -10.4636    0.0000 C   0  0  0  0  0  0           0  0  0
   -2.2845  -10.8733    0.0000 C   0  0  0  0  0  0           0  0  0
   -1.5706  -10.4581    0.0000 C   0  0  0  0  0  0           0  0  0
   -1.5764   -9.6288    0.0000 C   0  0  0  0  0  0           0  0  0
   -2.2921   -9.2228    0.0000 C   0  0  0  0  0  0           0  0  0
   -2.2995   -8.3979    0.0000 O   0  0  0  0  0  0           0  0  0
   -0.8540  -10.8669    0.0000 C   0  0  0  0  0  0           0  0  0
   -0.8498  -11.6919    0.0000 O   0  0  0  0  0  0           0  0  0
   -0.1417  -10.4508    0.0000 O   0  0  0  0  0  0           0  0  0
  8  9  2  0     0  0
  4  5  1  0     0  0
  9 10  1  0     0  0
  2  3  1  0     0  0
 10 11  2  0     0  0
  5  6  2  0     0  0
 11 12  1  0     0  0
  6  1  1  0     0  0
 12 13  2  0     0  0
 13  8  1  0     0  0
  1  2  2  0     0  0
 13 14  1  0     0  0
  5  7  1  0     0  0
 11 15  1  0     0  0
  3  4  2  0     0  0
 15 16  2  0     0  0
  7  8  1  0     0  0
 15 17  1  0     0  0
M  END