
  CDK    6/4/10,11:42

 21 22  0  0  0  0  0  0  0  0999 V2000
   11.0736  -10.7250    0.0000 C   0  0  0  0  0  0  0  0  0  0  0  0
   11.0724  -11.5523    0.0000 C   0  0  0  0  0  0  0  0  0  0  0  0
   11.7872  -11.9652    0.0000 C   0  0  0  0  0  0  0  0  0  0  0  0
   12.5037  -11.5519    0.0000 C   0  0  0  0  0  0  0  0  0  0  0  0
   12.5008  -10.7213    0.0000 C   0  0  0  0  0  0  0  0  0  0  0  0
   11.7854  -10.3122    0.0000 C   0  0  0  0  0  0  0  0  0  0  0  0
   11.7830   -9.4872    0.0000 O   0  0  0  0  0  0  0  0  0  0  0  0
   10.3576  -11.9643    0.0000 O   0  0  0  0  0  0  0  0  0  0  0  0
   10.3570  -12.7893    0.0000 C   0  0  0  0  0  0  0  0  0  0  0  0
   10.3590  -10.3126    0.0000 C   0  0  0  0  0  0  0  0  0  0  0  0
   10.3588   -9.4876    0.0000 O   0  0  0  0  0  0  0  0  0  0  0  0
    9.6446  -10.7253    0.0000 N   0  0  0  0  0  0  0  0  0  0  0  0
    8.9301  -10.3130    0.0000 C   0  0  0  0  0  0  0  0  0  0  0  0
    8.2157  -10.7256    0.0000 C   0  0  0  0  0  0  0  0  0  0  0  0
    7.4649  -10.3924    0.0000 N   0  0  0  0  0  0  0  0  0  0  0  0
    6.9130  -11.0056    0.0000 C   0  0  0  0  0  0  0  0  0  0  0  0
    7.3257  -11.7200    0.0000 C   0  0  0  0  0  0  0  0  0  0  0  0
    8.1326  -11.5482    0.0000 C   0  0  0  0  0  0  0  0  0  0  0  0
    7.2928   -9.5855    0.0000 C   0  0  0  0  0  0  0  0  0  0  0  0
    7.9055   -9.0331    0.0000 C   0  0  0  0  0  0  0  0  0  0  0  0
   13.2137  -10.3061    0.0000 I   0  0  0  0  0  0  0  0  0  0  0  0
  2  3  1  0  0  0  0 
 10 11  2  0  0  0  0 
  5  6  2  0  0  0  0 
 10 12  1  0  0  0  0 
  6  1  1  0  0  0  0 
 12 13  1  0  0  0  0 
  1  2  2  0  0  0  0 
 14 13  1  6  0  0  0 
 14 15  1  0  0  0  0 
  6  7  1  0  0  0  0 
  3  4  2  0  0  0  0 
  2  8  1  0  0  0  0 
 15 16  1  0  0  0  0 
 16 17  1  0  0  0  0 
 17 18  1  0  0  0  0 
 18 14  1  0  0  0  0 
  8  9  1  0  0  0  0 
 15 19  1  0  0  0  0 
  4  5  1  0  0  0  0 
 19 20  1  0  0  0  0 
  1 10  1  0  0  0  0 
  5 21  1  0  0  0  0 
M  END