
  SciTegic09291413392D

 14 15  0  0  0  0            999 V2000
    3.6636   -6.6861    0.0000 C   0  0
    3.6624   -7.5056    0.0000 C   0  0
    4.3705   -7.9146    0.0000 C   0  0
    5.0801   -7.5051    0.0000 C   0  0
    5.0773   -6.6825    0.0000 C   0  0
    4.3687   -6.2772    0.0000 C   0  0
    5.7835   -6.2712    0.0000 N   0  0
    2.9598   -6.2734    0.0000 C   0  0
    2.9685   -5.4566    0.0000 C   0  0
    2.2656   -5.0440    0.0000 C   0  0
    1.5553   -5.4473    0.0000 C   0  0
    1.5525   -6.2673    0.0000 N   0  0
    2.2560   -6.6762    0.0000 C   0  0
    0.8498   -5.0349    0.0000 N   0  0
  1  2  2  0
  2  3  1  0
  3  4  2  0
  4  5  1  0
  5  6  2  0
  6  1  1  0
  5  7  1  0
  1  8  1  0
  8  9  2  0
  9 10  1  0
 10 11  2  0
 11 12  1  0
 12 13  2  0
 13  8  1  0
 11 14  1  0
M  END