
  SciTegic01181116592D

 36 39  0  0  0  0            999 V2000
   -4.4039   -6.1390    0.0000 C   0  0
   -4.4039   -6.9676    0.0000 C   0  0
   -3.6903   -7.3797    0.0000 C   0  0
   -3.6903   -5.7224    0.0000 C   0  0
   -2.9721   -6.1390    0.0000 C   0  0
   -2.9711   -6.9676    0.0000 C   0  0
   -2.2570   -7.3787    0.0000 C   0  0
   -1.5393   -6.9658    0.0000 C   0  0
   -1.5403   -6.1371    0.0000 C   0  0
   -2.2590   -5.7215    0.0000 C   0  0
   -0.8260   -5.7275    0.0000 C   0  0
   -0.1124   -6.1415    0.0000 C   0  0
   -0.1105   -4.4945    0.0000 C   0  0
   -0.8282   -4.9048    0.0000 C   0  0
    0.6031   -4.9085    0.0000 C   0  0
    0.5951   -5.7361    0.0000 C   0  0
    1.3039   -6.1545    0.0000 C   0  0
    2.0252   -5.7498    0.0000 C   0  0
    2.0332   -4.9222    0.0000 C   0  0
    1.3198   -4.4993    0.0000 C   0  0
   -0.8257   -7.3779    0.0000 C   0  0
   -5.1186   -5.7287    0.0000 O   0  0
   -5.1177   -7.3797    0.0000 O   0  0
   -2.2612   -4.8975    0.0000 O   0  0
   -2.2571   -8.2027    0.0000 O   0  0
   -1.5415   -4.4923    0.0000 C   0  0
   -0.1079   -3.6704    0.0000 O   0  0
   -0.1146   -6.9656    0.0000 O   0  0
    2.7512   -4.5178    0.0000 O   0  0
    2.7342   -6.1697    0.0000 O   0  0
    1.3266   -3.6753    0.0000 C   0  0
    2.0436   -3.2691    0.0000 C   0  0
    0.6164   -3.2574    0.0000 C   0  0
   -3.6918   -8.2037    0.0000 C   0  0
   -4.4060   -8.6145    0.0000 C   0  0
   -2.9788   -8.6169    0.0000 C   0  0
  5 10  1  0
  6  7  1  0
  7  8  1  0
 15 20  2  0
 16 17  2  0
 17 18  1  0
 18 19  2  0
 19 20  1  0
  8  9  2  0
  8 21  1  0
  9 10  1  0
  1 22  1  0
 11 12  1  0
  2 23  1  0
  5  6  2  0
 10 24  2  0
  7 25  2  0
  1  2  1  0
 14 26  1  0
  1  4  2  0
 13 27  2  0
 11 14  2  0
 12 28  2  0
 12 16  1  0
 19 29  1  0
 15 13  1  0
 18 30  1  0
 13 14  1  0
 20 31  1  0
  9 11  1  0
 31 32  1  0
 15 16  1  0
 31 33  1  0
  2  3  2  0
  3 34  1  0
  3  6  1  0
 34 35  1  0
  5  4  1  0
 34 36  1  0
M  END