
  SciTegic03291108482D

 27 30  0  0  0  0            999 V2000
   -1.3770   -2.6423    0.0000 S   0  0
   -2.0915    0.2452    0.0000 S   0  0
   -0.6625    1.0702    0.0000 O   0  0
   -1.7895   -1.9279    0.0000 O   0  0
   -0.9645   -3.3568    0.0000 O   0  0
   -0.6625   -2.2298    0.0000 N   0  0
   -2.7589    1.5551    0.0000 N   0  0
   -1.4240    1.5551    0.0000 N   0  0
   -2.5040    2.3397    0.0000 N   0  0
    0.0519   -0.9923    0.0000 C   0  0
   -0.6625   -1.4048    0.0000 C   0  0
    0.0519   -0.1673    0.0000 C   0  0
   -0.6625    0.2452    0.0000 C   0  0
   -1.3770   -0.1673    0.0000 C   0  0
   -1.3770   -0.9923    0.0000 C   0  0
   -2.0915   -3.0548    0.0000 C   0  0
    0.7664   -1.4048    0.0000 C   0  0
    0.7664    0.2452    0.0000 C   0  0
   -2.0915    1.0702    0.0000 C   0  0
    1.4809   -0.9923    0.0000 C   0  0
    1.4809   -0.1673    0.0000 C   0  0
   -2.0915   -3.8798    0.0000 C   0  0
   -2.8060   -2.6423    0.0000 C   0  0
   -2.8060   -4.2923    0.0000 C   0  0
   -3.5204   -3.0548    0.0000 C   0  0
   -1.6790    2.3397    0.0000 C   0  0
   -3.5204   -3.8798    0.0000 C   0  0
  1  4  2  0
  1  5  2  0
  1  6  1  0
  1 16  1  0
  2 14  1  0
  2 19  1  0
  3 13  1  0
  6 11  1  0
  7  9  1  0
  7 19  2  0
  8 19  1  0
  8 26  2  0
  9 26  1  0
 10 11  1  0
 10 12  1  0
 10 17  2  0
 11 15  2  0
 12 13  1  0
 12 18  2  0
 13 14  2  0
 14 15  1  0
 16 22  2  0
 16 23  1  0
 17 20  1  0
 18 21  1  0
 20 21  2  0
 22 24  1  0
 23 25  2  0
 24 27  2  0
 25 27  1  0
M  END