
  SciTegic11201309402D

 19 20  0  0  1  0            999 V2000
   15.2667   -5.8500    0.0000 N   0  0
   14.5625   -6.2667    0.0000 C   0  0  1  0  0  0
   13.8417   -5.8542    0.0000 C   0  0  1  0  0  0
   13.1292   -6.2667    0.0000 C   0  0
   12.4167   -5.8542    0.0000 O   0  0
   13.8417   -5.0292    0.0000 O   0  0
   11.7000   -6.2667    0.0000 C   0  0
   15.2667   -5.0250    0.0000 C   0  0
   15.9792   -6.2667    0.0000 C   0  0
   14.5625   -7.0917    0.0000 C   0  0
   10.9875   -5.8542    0.0000 C   0  0
   11.7042   -7.0917    0.0000 C   0  0
   15.9792   -7.0917    0.0000 C   0  0
   15.2667   -7.5000    0.0000 C   0  0
   10.9917   -7.5042    0.0000 C   0  0
   10.2667   -6.2667    0.0000 C   0  0
   10.2667   -7.0917    0.0000 C   0  0
   13.1292   -5.4417    0.0000 H   0  0
   14.5542   -5.4417    0.0000 H   0  0
  2  1  1  0
  3  2  1  0
  4  3  1  0
  5  4  1  0
  3  6  1  0
  7  5  1  0
  8  1  1  0
  9  1  1  0
 10  2  1  0
 11  7  2  0
 12  7  1  0
 13  9  1  0
 14 13  1  0
 15 12  2  0
 16 11  1  0
 17 15  1  0
  3 18  1  6
  2 19  1  1
 14 10  1  0
 17 16  2  0
M  END