
          03140815522D 1   1.00000     0.00000     0

 16 15  0     0  0            999 V2000
   -0.0834   -6.6148    0.0000 N   0  0  0  0  0  0           0  0  0
    0.7249   -6.7771    0.0000 O   0  0  0  0  0  0           0  0  0
    1.1343   -6.0628    0.0000 C   0  0  0  0  0  0           0  0  0
    0.5766   -5.4502    0.0000 C   0  0  0  0  0  0           0  0  0
   -0.1764   -5.7958    0.0000 C   0  0  0  0  0  0           0  0  0
   -3.7500   -4.5672    0.0000 C   0  0  0  0  0  0           0  0  0
   -3.0370   -4.9780    0.0000 C   0  0  0  0  0  0           0  0  0
   -2.3217   -5.3931    0.0000 C   0  0  0  0  0  0           0  0  0
   -1.6064   -5.8041    0.0000 C   0  0  0  0  0  0           0  0  0
   -0.8846   -5.3896    0.0000 O   0  0  0  0  0  0           0  0  0
   -4.4648   -4.9790    0.0000 N   0  3  3  0  0  0           0  0  0
    1.9534   -5.9758    0.0000 C   0  0  0  0  0  0           0  0  0
   -4.0530   -5.6937    0.0000 C   0  0  0  0  0  0           0  0  0
   -4.8808   -4.2642    0.0000 C   0  0  0  0  0  0           0  0  0
   -5.1837   -5.3949    0.0000 C   0  0  0  0  0  0           0  0  0
   -2.3421   -6.8267    0.0000 I   0  5  0  0  0  0           0  0  0
  1  2  1  0     0  0
  2  3  1  0     0  0
  3  4  2  0     0  0
  4  5  1  0     0  0
  5  1  2  0     0  0
  6  7  1  0     0  0
  7  8  3  0     0  0
  8  9  1  0     0  0
  9 10  1  0     0  0
 10  5  1  0     0  0
  6 11  1  0     0  0
  3 12  1  0     0  0
 11 13  1  0     0  0
 11 14  1  0     0  0
 11 15  1  0     0  0
M  CHG  2  11   1  16  -1
M  END