
  SciTegic10311316262D

 47 51  0  0  0  0            999 V2000
   11.1188  -27.5658    0.0000 O   0  0
   11.7048  -28.1518    0.0000 S   0  0
   11.9178  -27.3528    0.0000 O   0  0
    5.3858  -29.7307    0.0000 C   0  0  2  0  0  0
    6.0957  -30.1434    0.0000 N   0  0
    6.7065  -29.5944    0.0000 C   0  0
    6.3716  -28.8448    0.0000 N   0  0
    5.5563  -28.9291    0.0000 C   0  0  2  0  0  0
    5.0114  -28.3176    0.0000 C   0  0
    5.2664  -27.5360    0.0000 C   0  0
    4.7170  -26.9284    0.0000 C   0  0
    3.9124  -27.0971    0.0000 C   0  0
    3.6601  -27.8829    0.0000 C   0  0
    4.2112  -28.4913    0.0000 C   0  0
    4.6383  -30.0674    0.0000 C   0  0
    3.9777  -29.5804    0.0000 C   0  0
    3.2272  -29.9112    0.0000 C   0  0
    3.1402  -30.7288    0.0000 C   0  0
    3.8057  -31.2144    0.0000 C   0  0
    4.5536  -30.8810    0.0000 C   0  0
    3.3655  -26.4857    0.0000 Cl  0  0
    2.3896  -31.0654    0.0000 Cl  0  0
    6.7851  -28.1334    0.0000 C   0  0
    7.6064  -28.1344    0.0000 N   0  0
    6.3732  -27.4211    0.0000 O   0  0
    8.0074  -28.8477    0.0000 C   0  0
    8.8251  -28.8506    0.0000 C   0  0
    9.2425  -28.1410    0.0000 N   0  0
    8.8318  -27.4269    0.0000 C   0  0
    8.0079  -27.4224    0.0000 C   0  0
   10.0638  -28.1451    0.0000 C   0  0
   10.4689  -28.8589    0.0000 C   0  0
    7.5050  -29.7628    0.0000 C   0  0
    7.7556  -30.5459    0.0000 C   0  0
    8.5581  -30.7169    0.0000 C   0  0
    9.1107  -30.1100    0.0000 C   0  0
    8.8553  -29.3251    0.0000 C   0  0
    8.0535  -29.1536    0.0000 C   0  0
    7.2075  -31.1560    0.0000 O   0  0
    7.4582  -31.9379    0.0000 C   0  0
    6.9059  -32.5481    0.0000 C   0  0
   11.2943  -28.8630    0.0000 C   0  0
   12.5277  -28.1572    0.0000 C   0  0
    9.9142  -30.2798    0.0000 C   0  0
   10.1668  -31.0611    0.0000 C   0  0
   10.4609  -29.6683    0.0000 C   0  0
   10.7349  -30.2773    0.0000 C   0  0
  2  1  2  0
  3  2  2  0
  4  5  1  0
  5  6  2  0
  6  7  1  0
  7  8  1  0
  8  4  1  0
  9 10  2  0
 10 11  1  0
 11 12  2  0
 12 13  1  0
 13 14  2  0
 14  9  1  0
  8  9  1  1
 15 16  2  0
 16 17  1  0
 17 18  2  0
 18 19  1  0
 19 20  2  0
 20 15  1  0
  4 15  1  1
 12 21  1  0
 18 22  1  0
  7 23  1  0
 23 24  1  0
 23 25  2  0
 24 26  1  0
 24 30  1  0
 26 27  1  0
 27 28  1  0
 28 29  1  0
 29 30  1  0
 28 31  1  0
 31 32  1  0
 33 34  2  0
 34 35  1  0
 35 36  2  0
 36 37  1  0
 37 38  2  0
 38 33  1  0
  6 33  1  0
 34 39  1  0
 39 40  1  0
 40 41  1  0
 32 42  1  0
 42  2  1  0
  2 43  1  0
 36 44  1  0
 44 45  1  0
 44 46  1  0
 44 47  1  0
M  END