
          11280714442D 1   1.00000     0.00000     0

 22 23  0     0  0            999 V2000
    6.1042   -1.2042    0.0000 C   0  0  0  0  0  0           0  0  0
    6.8042   -0.7625    0.0000 C   0  0  0  0  0  0           0  0  0
    5.3750   -0.8250    0.0000 C   0  0  0  0  0  0           0  0  0
    7.5375   -1.1417    0.0000 O   0  0  0  0  0  0           0  0  0
   10.3917   -1.0125    0.0000 N   0  0  0  0  0  0           0  0  0
    6.7667    0.0583    0.0000 O   0  0  0  0  0  0           0  0  0
   11.0875   -0.5667    0.0000 C   0  0  3  0  0  0           0  0  0
    4.6792   -1.2750    0.0000 C   0  0  0  0  0  0           0  0  0
    8.9625   -1.0792    0.0000 C   0  0  3  0  0  0           0  0  0
    8.2292   -0.7000    0.0000 C   0  0  0  0  0  0           0  0  0
    9.6542   -0.6292    0.0000 C   0  0  0  0  0  0           0  0  0
    6.1500   -2.0292    0.0000 C   0  0  0  0  0  0           0  0  0
    9.0000   -1.9042    0.0000 O   0  0  0  0  0  0           0  0  0
    5.3375    0.0000    0.0000 C   0  0  0  0  0  0           0  0  0
    5.4542   -2.4750    0.0000 C   0  0  0  0  0  0           0  0  0
    4.7167   -2.0917    0.0000 C   0  0  0  0  0  0           0  0  0
   11.0500    0.2583    0.0000 C   0  0  0  0  0  0           0  0  0
   11.6417    0.0375    0.0000 C   0  0  0  0  0  0           0  0  0
   11.8167   -0.9500    0.0000 C   0  0  0  0  0  0           0  0  0
    3.9500   -0.8917    0.0000 C   0  0  0  0  0  0           0  0  0
    4.6042    0.3750    0.0000 C   0  0  0  0  0  0           0  0  0
    3.9125   -0.0667    0.0000 C   0  0  0  0  0  0           0  0  0
  2  1  1  0     0  0
  3  1  2  0     0  0
  4  2  1  0     0  0
  5 11  1  0     0  0
  6  2  2  0     0  0
  7  5  1  0     0  0
  8  3  1  0     0  0
  9 10  1  0     0  0
 10  4  1  0     0  0
 11  9  1  0     0  0
 12  1  1  0     0  0
 13  9  1  0     0  0
 14  3  1  0     0  0
 15 12  2  0     0  0
 16 15  1  0     0  0
 17  7  1  0     0  0
 18  7  1  0     0  0
 19  7  1  0     0  0
 20  8  1  0     0  0
 21 14  2  0     0  0
 22 21  1  0     0  0
 16  8  2  0     0  0
 22 20  2  0     0  0
M  END