
  SciTegic12231509382D

 18 19  0  0  0  0            999 V2000
    4.7463  -16.2035    0.0000 C   0  0
    5.4540  -15.7949    0.0000 C   0  0
    4.0386  -15.7949    0.0000 O   0  0
    3.3309  -16.2035    0.0000 C   0  0
    2.6232  -15.7949    0.0000 C   0  0
    2.6283  -14.9766    0.0000 C   0  0
    1.2154  -15.7982    0.0000 C   0  0
    1.9229  -16.2030    0.0000 C   0  0
    1.2128  -14.9768    0.0000 C   0  0
    1.9237  -14.5681    0.0000 C   0  0
    1.7548  -13.7656    0.0000 O   0  0
    0.9394  -13.6783    0.0000 C   0  0
    0.6045  -14.4269    0.0000 O   0  0
    3.3309  -17.0207    0.0000 O   0  0
    6.1617  -16.2035    0.0000 C   0  0
    5.4540  -14.9777    0.0000 O   0  0
    6.8694  -15.7949    0.0000 N   0  0
    7.5771  -16.2035    0.0000 C   0  0
  1  2  1  0
  1  3  1  0
  3  4  1  0
  4  5  1  0
  5  6  2  0
  6 10  1  0
  9  7  1  0
  7  8  2  0
  8  5  1  0
  9 10  2  0
 10 11  1  0
 11 12  1  0
 12 13  1  0
 13  9  1  0
  4 14  2  0
  2 15  1  0
  2 16  1  0
 15 17  1  0
 17 18  1  0
M  END