
          11280715462D 1   1.00000     0.00000     0

 27 30  0     0  0            999 V2000
   -0.8958    0.3333    0.0000 C   0  0  0  0  0  0           0  0  0
   -0.2250    0.8208    0.0000 N   0  0  3  0  0  0           0  0  0
   -0.6458   -0.4542    0.0000 N   0  0  3  0  0  0           0  0  0
    0.4417    0.3375    0.0000 C   0  0  0  0  0  0           0  0  0
    0.1875   -0.4542    0.0000 C   0  0  3  0  0  0           0  0  0
   -1.7208    0.3458    0.0000 N   0  0  0  0  0  0           0  0  0
   -0.2250    1.6458    0.0000 C   0  0  0  0  0  0           0  0  0
   -1.3083   -0.9292    0.0000 C   0  0  0  0  0  0           0  0  0
   -1.9750   -0.4417    0.0000 C   0  0  0  0  0  0           0  0  0
   -0.9458    2.0583    0.0000 C   0  0  0  0  0  0           0  0  0
    0.4917    2.0625    0.0000 C   0  0  0  0  0  0           0  0  0
    0.9792   -0.6625    0.0000 C   0  0  0  0  0  0           0  0  0
    1.2292    0.5958    0.0000 O   0  0  0  0  0  0           0  0  0
   -0.9458    2.8833    0.0000 C   0  0  0  0  0  0           0  0  0
    0.4917    2.8833    0.0000 C   0  0  0  0  0  0           0  0  0
   -0.2250    3.2958    0.0000 C   0  0  0  0  0  0           0  0  0
   -1.3125   -1.7542    0.0000 Br  0  0  0  0  0  0           0  0  0
    0.1792   -1.2792    0.0000 C   0  0  0  0  0  0           0  0  0
    0.9750   -1.4875    0.0000 C   0  0  0  0  0  0           0  0  0
    0.9542   -3.1292    0.0000 C   0  0  0  0  0  0           0  0  0
    1.2042    3.2958    0.0000 Cl  0  0  0  0  0  0           0  0  0
   -1.6583    3.2958    0.0000 Cl  0  0  0  0  0  0           0  0  0
    0.9542   -3.9542    0.0000 Br  0  0  0  0  0  0           0  0  0
    0.2542   -1.8917    0.0000 C   0  0  0  0  0  0           0  0  0
    1.6875   -1.8917    0.0000 C   0  0  0  0  0  0           0  0  0
    0.2500   -2.7167    0.0000 C   0  0  0  0  0  0           0  0  0
    1.6875   -2.7167    0.0000 C   0  0  0  0  0  0           0  0  0
  2  1  1  0     0  0
  3  1  1  0     0  0
  4  2  1  0     0  0
  5  3  1  0     0  0
  6  1  2  0     0  0
  7  2  1  0     0  0
  8  3  1  0     0  0
  9  6  1  0     0  0
 10  7  1  0     0  0
 11  7  2  0     0  0
 12  5  1  0     0  0
 13  4  2  0     0  0
 14 10  2  0     0  0
 15 11  1  0     0  0
 16 15  2  0     0  0
 17  8  1  0     0  0
 18  5  1  0     0  0
 19 12  1  0     0  0
 20 27  1  0     0  0
 21 15  1  0     0  0
 22 14  1  0     0  0
 23 20  1  0     0  0
 24 19  2  0     0  0
 25 19  1  0     0  0
 26 24  1  0     0  0
 27 25  2  0     0  0
  8  9  2  0     0  0
  5  4  1  0     0  0
 14 16  1  0     0  0
 26 20  2  0     0  0
M  END