
  SciTegic05171617292D

 39 42  0  0  0  0            999 V2000
    2.5956   -2.7031    0.0000 C   0  0
    2.5973   -1.5031    0.0000 C   0  0
    1.2990   -0.7500    0.0000 N   0  0
    1.2990    0.7500    0.0000 C   0  0
    0.0000    1.5000    0.0000 C   0  0
   -1.2990    0.7500    0.0000 C   0  0
   -1.2990   -0.7500    0.0000 C   0  0
    0.0000   -1.5000    0.0000 C   0  0
   -2.5987    1.5004    0.0000 C   0  0
   -2.6012    3.0004    0.0000 C   0  0
   -3.9015    3.7484    0.0000 C   0  0
   -5.1993    2.9963    0.0000 C   0  0
   -6.4987    3.7473    0.0000 N   0  0
   -6.4990    5.2481    0.0000 C   0  0
   -7.7966    6.0007    0.0000 N   0  0
   -7.7938    7.5006    0.0000 C   0  0
   -6.4933    8.2482    0.0000 C   0  0
   -5.1957    7.4958    0.0000 C   0  0
   -3.8930    8.2411    0.0000 C   0  0
   -2.5957    7.4864    0.0000 C   0  0
   -1.2930    8.2317    0.0000 C   0  0
   -1.2901    9.7318    0.0000 C   0  0
    0.0103   10.4793    0.0000 C   0  0
    1.3079    9.7269    0.0000 C   0  0
    1.3051    8.2269    0.0000 C   0  0
    0.0046    7.4793    0.0000 C   0  0
    0.0049    5.9785    0.0000 C   0  0
    1.3044    5.2275    0.0000 C   0  0
    2.3437    5.8274    0.0000 N   0  0
    1.3046    4.0275    0.0000 O   0  0
   -5.1985    5.9958    0.0000 N   0  0
   -6.4905    9.7490    0.0000 C   0  0
   -7.5283   10.3516    0.0000 F   0  0
   -5.4500   10.3468    0.0000 F   0  0
   -6.4877   10.9490    0.0000 F   0  0
   -5.1969    1.4963    0.0000 C   0  0
   -6.4939    0.7411    0.0000 O   0  0
   -6.4903   -0.4589    0.0000 C   0  0
   -3.8967    0.7484    0.0000 C   0  0
  1  2  1  0
  2  3  1  0
  3  4  1  0
  4  5  1  0
  5  6  1  0
  6  7  1  0
  7  8  1  0
  3  8  1  0
  6  9  1  0
  9 10  2  0
 10 11  1  0
 11 12  2  0
 12 13  1  0
 13 14  1  0
 14 15  2  0
 15 16  1  0
 16 17  2  0
 17 18  1  0
 18 19  1  0
 19 20  1  0
 20 21  1  0
 21 22  2  0
 22 23  1  0
 23 24  2  0
 24 25  1  0
 25 26  2  0
 21 26  1  0
 26 27  1  0
 27 28  1  0
 28 29  1  0
 28 30  2  0
 18 31  2  0
 14 31  1  0
 17 32  1  0
 32 33  1  0
 32 34  1  0
 32 35  1  0
 12 36  1  0
 36 37  1  0
 37 38  1  0
 36 39  2  0
  9 39  1  0
M  END