
  SciTegic06051313522D

 48 51  0  0  0  0            999 V2000
   30.9958  -24.6507    0.0000 N   0  0
   31.7050  -24.2448    0.0000 C   0  0
   31.7057  -23.4292    0.0000 C   0  0
   32.4141  -23.0234    0.0000 C   0  0
   33.1212  -23.4347    0.0000 C   0  0
   33.1155  -24.2561    0.0000 C   0  0
   32.4065  -24.6582    0.0000 C   0  0
   32.4168  -22.2062    0.0000 F   0  0
   33.8163  -24.6685    0.0000 C   0  0
   34.5272  -24.2633    0.0000 N   0  0
   35.2315  -24.6764    0.0000 C   0  0
   35.2259  -25.4945    0.0000 C   0  0
   34.5103  -25.8977    0.0000 C   0  0
   33.8090  -25.4823    0.0000 C   0  0
   35.9313  -25.9105    0.0000 C   0  0
   36.6425  -25.5080    0.0000 O   0  0
   35.9243  -26.7276    0.0000 O   0  0
   23.9200  -24.6725    0.0000 C   0  0
   23.9189  -25.4921    0.0000 C   0  0
   24.6269  -25.9010    0.0000 C   0  0
   25.3366  -25.4916    0.0000 C   0  0
   25.3337  -24.6689    0.0000 C   0  0
   24.6251  -24.2637    0.0000 C   0  0
   26.0449  -25.8991    0.0000 Cl  0  0
   23.2122  -24.2641    0.0000 O   0  0
   23.2120  -23.4469    0.0000 C   0  0
   23.2108  -25.9001    0.0000 N   0  0
   23.2102  -26.7173    0.0000 C   0  0
   22.5021  -27.1253    0.0000 C   0  0
   23.9176  -27.1265    0.0000 O   0  0
   22.5015  -27.9425    0.0000 S   0  0
   21.7935  -28.3506    0.0000 C   0  0
   21.0879  -27.9373    0.0000 N   0  0
   20.3804  -28.3447    0.0000 C   0  0
   20.3793  -29.1627    0.0000 C   0  0
   21.0917  -29.5717    0.0000 C   0  0
   21.7963  -29.1620    0.0000 C   0  0
   26.0399  -24.2577    0.0000 O   0  0
   26.7491  -24.6636    0.0000 C   0  0
   27.4553  -24.2523    0.0000 C   0  0  2  0  0  0
   28.1645  -24.6583    0.0000 C   0  0  2  0  0  0
   28.8707  -24.2470    0.0000 C   0  0  1  0  0  0
   29.5800  -24.6529    0.0000 C   0  0  1  0  0  0
   30.2861  -24.2417    0.0000 C   0  0
   27.4522  -23.4352    0.0000 O   0  0
   28.1676  -25.4755    0.0000 O   0  0
   28.8676  -23.4298    0.0000 O   0  0
   29.5830  -25.4701    0.0000 O   0  0
  1  2  1  0
  2  3  2  0
  3  4  1  0
  4  5  2  0
  5  6  1  0
  6  7  2  0
  7  2  1  0
  4  8  1  0
  9 10  2  0
 10 11  1  0
 11 12  2  0
 12 13  1  0
 13 14  2  0
 14  9  1  0
  6  9  1  0
 15 16  1  0
 15 17  2  0
 12 15  1  0
 18 19  2  0
 19 20  1  0
 20 21  2  0
 21 22  1  0
 22 23  2  0
 23 18  1  0
 21 24  1  0
 18 25  1  0
 25 26  1  0
 19 27  1  0
 27 28  1  0
 28 29  1  0
 28 30  2  0
 29 31  1  0
 31 32  1  0
 32 33  2  0
 33 34  1  0
 34 35  2  0
 35 36  1  0
 36 37  2  0
 37 32  1  0
 22 38  1  0
 38 39  1  0
 39 40  1  0
 40 41  1  0
 41 42  1  0
 42 43  1  0
 43 44  1  0
 44  1  1  0
 40 45  1  1
 41 46  1  6
 42 47  1  6
 43 48  1  1
M  END