
          11280715112D 1   1.00000     0.00000     0

 20 22  0     0  0            999 V2000
   -0.3250    0.2708    0.0000 N   0  0  0  0  0  0           0  0  0
   -0.6208    0.7833    0.0000 C   0  0  0  0  0  0           0  0  0
   -0.2208    1.2250    0.0000 N   0  0  0  0  0  0           0  0  0
    0.2542    0.3875    0.0000 C   0  0  0  0  0  0           0  0  0
    0.3167    0.9833    0.0000 C   0  0  0  0  0  0           0  0  0
   -2.5875   -0.0292    0.0000 N   0  0  0  0  0  0           0  0  0
   -2.7708    0.5458    0.0000 C   0  0  0  0  0  0           0  0  0
   -3.5583   -0.0167    0.0000 N   0  0  0  0  0  0           0  0  0
   -3.0750   -0.3792    0.0000 C   0  0  0  0  0  0           0  0  0
    0.7000   -0.0167    0.0000 C   0  0  0  0  0  0           0  0  0
   -3.3708    0.5458    0.0000 C   0  0  0  0  0  0           0  0  0
   -1.2208    0.8458    0.0000 S   0  0  0  0  0  0           0  0  0
    1.2167    0.2833    0.0000 C   0  0  0  0  0  0           0  0  0
    0.6917   -0.6167    0.0000 C   0  0  0  0  0  0           0  0  0
   -2.2500    0.8458    0.0000 C   0  0  0  0  0  0           0  0  0
    1.7292   -0.6250    0.0000 C   0  0  0  0  0  0           0  0  0
   -1.7333    0.5458    0.0000 C   0  0  0  0  0  0           0  0  0
    1.2042   -0.9167    0.0000 C   0  0  0  0  0  0           0  0  0
    1.7292   -0.0167    0.0000 C   0  0  0  0  0  0           0  0  0
    2.2417   -0.9250    0.0000 Cl  0  0  0  0  0  0           0  0  0
  2  1  2  0     0  0
  3  2  1  0     0  0
  4  1  1  0     0  0
  5  4  2  0     0  0
  6  7  1  0     0  0
  7 15  1  0     0  0
  8 11  1  0     0  0
  9  6  2  0     0  0
 10  4  1  0     0  0
 11  7  2  0     0  0
 12  2  1  0     0  0
 13 10  2  0     0  0
 14 10  1  0     0  0
 15 17  1  0     0  0
 16 18  1  0     0  0
 17 12  1  0     0  0
 18 14  2  0     0  0
 19 13  1  0     0  0
 20 16  1  0     0  0
  3  5  1  0     0  0
 19 16  2  0     0  0
  9  8  1  0     0  0
M  END