
  Mrv0541 04051115152D          

 22 24  0  0  0  0            999 V2000
   -0.0549   -0.0146    0.0000 C   0  0  0  0  0  0  0  0  0  0  0  0
   -0.7694   -0.4271    0.0000 C   0  0  0  0  0  0  0  0  0  0  0  0
   -1.4839   -0.0146    0.0000 C   0  0  0  0  0  0  0  0  0  0  0  0
   -1.4839    0.8104    0.0000 O   0  0  0  0  0  0  0  0  0  0  0  0
   -2.1983    1.2229    0.0000 C   0  0  0  0  0  0  0  0  0  0  0  0
   -2.1983   -0.4271    0.0000 C   0  0  0  0  0  0  0  0  0  0  0  0
   -0.7694   -1.2521    0.0000 C   0  0  0  0  0  0  0  0  0  0  0  0
   -1.4839   -1.6646    0.0000 C   0  0  0  0  0  0  0  0  0  0  0  0
   -2.1983   -1.2521    0.0000 C   0  0  0  0  0  0  0  0  0  0  0  0
   -2.9128   -1.6646    0.0000 O   0  0  0  0  0  0  0  0  0  0  0  0
    0.6596   -0.4271    0.0000 C   0  0  0  0  0  0  0  0  0  0  0  0
    0.6596   -1.2521    0.0000 C   0  0  0  0  0  0  0  0  0  0  0  0
    1.3740   -1.6646    0.0000 C   0  0  0  0  0  0  0  0  0  0  0  0
    2.0885   -1.2521    0.0000 C   0  0  0  0  0  0  0  0  0  0  0  0
    2.0885   -0.4271    0.0000 N   0  0  0  0  0  0  0  0  0  0  0  0
    1.3740   -0.0146    0.0000 C   0  0  0  0  0  0  0  0  0  0  0  0
    1.3740    0.8104    0.0000 C   0  0  0  0  0  0  0  0  0  0  0  0
    0.6596    1.2229    0.0000 C   0  0  0  0  0  0  0  0  0  0  0  0
    0.6596    2.0479    0.0000 N   0  0  0  0  0  0  0  0  0  0  0  0
    1.3740    2.4604    0.0000 C   0  0  0  0  0  0  0  0  0  0  0  0
    2.0885    2.0479    0.0000 C   0  0  0  0  0  0  0  0  0  0  0  0
    2.0885    1.2229    0.0000 C   0  0  0  0  0  0  0  0  0  0  0  0
  2  1  1  0  0  0  0
  1 11  2  0  0  0  0
  3  2  1  0  0  0  0
  2  7  2  0  0  0  0
  3  4  1  0  0  0  0
  6  3  2  0  0  0  0
  5  4  1  0  0  0  0
  9  6  1  0  0  0  0
  7  8  1  0  0  0  0
  9  8  2  0  0  0  0
  9 10  1  0  0  0  0
 12 11  1  0  0  0  0
 11 16  1  0  0  0  0
 13 12  1  0  0  0  0
 14 13  1  0  0  0  0
 14 15  1  0  0  0  0
 16 15  2  0  0  0  0
 17 16  1  0  0  0  0
 17 18  1  0  0  0  0
 17 22  2  0  0  0  0
 18 19  2  0  0  0  0
 20 19  1  0  0  0  0
 21 20  2  0  0  0  0
 22 21  1  0  0  0  0
M  END