
          11280715482D 1   1.00000     0.00000     0

 32 34  0     0  0            999 V2000
    5.7500   -1.7417    0.0000 S   0  0  3  0  0  0           0  0  0
    4.1917   -1.6375    0.0000 C   0  0  0  0  0  0           0  0  0
    4.9542   -1.9667    0.0000 N   0  0  0  0  0  0           0  0  0
    4.0917   -0.8125    0.0000 N   0  0  3  0  0  0           0  0  0
    3.3792   -0.4042    0.0000 N   0  0  0  0  0  0           0  0  0
    3.5542    0.4083    0.0000 C   0  0  0  0  0  0           0  0  0
    4.3625    0.4958    0.0000 C   0  0  3  0  0  0           0  0  0
    4.6917   -0.2667    0.0000 C   0  0  0  0  0  0           0  0  0
    3.5292   -2.1292    0.0000 N   0  0  0  0  0  0           0  0  0
    5.7375   -2.5667    0.0000 N   0  0  3  0  0  0           0  0  0
    5.7667   -0.9167    0.0000 O   0  0  0  0  0  0           0  0  0
    6.5750   -1.7625    0.0000 O   0  0  0  0  0  0           0  0  0
    2.9667    0.9958    0.0000 C   0  0  0  0  0  0           0  0  0
    4.8042    1.1875    0.0000 C   0  0  0  0  0  0           0  0  0
    3.1792    1.7750    0.0000 C   0  0  0  0  0  0           0  0  0
    2.1667    0.7708    0.0000 C   0  0  0  0  0  0           0  0  0
    1.8042    2.1500    0.0000 C   0  0  0  0  0  0           0  0  0
    2.6000    2.3625    0.0000 C   0  0  0  0  0  0           0  0  0
    1.5875    1.3583    0.0000 C   0  0  0  0  0  0           0  0  0
    1.2292    2.7333    0.0000 Cl  0  0  0  0  0  0           0  0  0
    3.6292   -2.9500    0.0000 C   0  0  3  0  0  0           0  0  0
    5.0167   -2.9667    0.0000 C   0  0  0  0  0  0           0  0  0
    6.4417   -2.9917    0.0000 C   0  0  0  0  0  0           0  0  0
    5.6292    1.1458    0.0000 C   0  0  0  0  0  0           0  0  0
    4.4292    1.9250    0.0000 C   0  0  0  0  0  0           0  0  0
    2.9667   -3.4417    0.0000 C   0  0  0  0  0  0           0  0  0
    4.3917   -3.2750    0.0000 C   0  0  0  0  0  0           0  0  0
    6.4292   -3.8167    0.0000 C   0  0  0  0  0  0           0  0  0
    5.0000   -3.7917    0.0000 C   0  0  0  0  0  0           0  0  0
    4.8792    2.6208    0.0000 C   0  0  0  0  0  0           0  0  0
    6.0792    1.8375    0.0000 C   0  0  0  0  0  0           0  0  0
    5.7042    2.5708    0.0000 C   0  0  0  0  0  0           0  0  0
  2  3  1  0     0  0
  3  1  1  0     0  0
  4  2  1  0     0  0
  5  4  1  0     0  0
  6  5  2  0     0  0
  7  8  1  0     0  0
  8  4  1  0     0  0
  9  2  2  0     0  0
 10  1  1  0     0  0
 11  1  2  0     0  0
 12  1  2  0     0  0
 13  6  1  0     0  0
 14  7  1  0     0  0
 15 13  1  0     0  0
 16 13  2  0     0  0
 17 19  2  0     0  0
 18 15  2  0     0  0
 19 16  1  0     0  0
 20 17  1  0     0  0
 21  9  1  0     0  0
 22 10  1  0     0  0
 23 10  1  0     0  0
 24 14  2  0     0  0
 25 14  1  0     0  0
 26 21  1  0     0  0
 27 21  1  0     0  0
 28 23  1  0     0  0
 29 22  1  0     0  0
 30 25  2  0     0  0
 31 24  1  0     0  0
 32 30  1  0     0  0
  7  6  1  0     0  0
 18 17  1  0     0  0
 31 32  2  0     0  0
M  END