
  SciTegic01181116592D

 24 25  0  0  0  0            999 V2000
    8.6493   -6.9954    0.0000 C   0  0
    7.9357   -7.4034    0.0000 C   0  0
    7.9355   -8.2340    0.0000 C   0  0
    8.6469   -8.6426    0.0000 C   0  0
    9.3639   -8.2312    0.0000 C   0  0
    9.3648   -7.4062    0.0000 C   0  0
    8.6481   -9.4656    0.0000 S   0  0
    7.8258   -9.4661    0.0000 O   0  0
    9.4715   -9.4650    0.0000 O   0  0
    8.6482  -10.2898    0.0000 N   0  0
    5.8014   -3.6912    0.0000 N   0  0
    5.8003   -4.5207    0.0000 C   0  0
    6.5176   -4.9326    0.0000 N   0  0
    7.2281   -4.5203    0.0000 C   0  0
    7.2253   -3.6917    0.0000 C   0  0
    6.5158   -3.2836    0.0000 C   0  0
    6.5174   -2.4605    0.0000 Cl  0  0
    7.9374   -4.9307    0.0000 N   0  0
    5.0830   -4.9400    0.0000 S   0  0
    5.0855   -5.7667    0.0000 C   0  0
    7.9386   -5.7578    0.0000 C   0  0
    8.6480   -6.1724    0.0000 C   0  0
    7.9448   -3.2691    0.0000 C   0  0
    8.6674   -3.6779    0.0000 O   0  0
  6  1  1  0
 12 13  1  0
  1  2  2  0
 13 14  2  0
  4  7  1  0
 14 15  1  0
  3  4  2  0
 15 16  2  0
 16 11  1  0
  7  8  2  0
 16 17  1  0
 14 18  1  0
  7  9  2  0
 12 19  1  0
  4  5  1  0
 19 20  1  0
  7 10  1  0
 18 21  1  0
  2  3  1  0
 21 22  1  0
 22  1  1  0
  5  6  2  0
 15 23  1  0
 11 12  2  0
 23 24  2  0
M  END