
  SciTegic01181116592D

 49 51  0  0  0  0            999 V2000
   17.6475  -23.8778    0.0000 N   0  0
   11.2225  -23.3896    0.0000 C   0  0
   11.9321  -23.8105    0.0000 C   0  0
   12.6514  -23.4064    0.0000 C   0  0
   13.3609  -23.8273    0.0000 C   0  0
   14.0802  -23.4232    0.0000 C   0  0
   14.7898  -23.8441    0.0000 C   0  0
   15.5091  -23.4401    0.0000 C   0  0
   16.2186  -23.8610    0.0000 C   0  0
   16.9379  -23.4569    0.0000 C   0  0
   -3.1654  -25.2516    0.0000 C   0  0
   -3.5866  -25.9638    0.0000 C   0  0
   -3.1805  -26.6825    0.0000 C   0  0
   -2.3534  -26.6902    0.0000 C   0  0
   -1.9340  -25.9733    0.0000 C   0  0
   -2.3425  -25.2576    0.0000 C   0  0
   -1.9253  -24.5460    0.0000 N   0  0
   -1.1043  -24.4647    0.0000 N   0  0
   -0.9279  -23.6588    0.0000 C   0  0
   -1.6399  -23.2419    0.0000 C   0  0
   -2.2562  -23.7903    0.0000 C   0  0
   -3.0766  -23.7919    0.0000 C   0  0
   -3.4891  -23.0761    0.0000 C   0  0
   -4.3133  -23.0764    0.0000 C   0  0
   -4.7261  -23.7917    0.0000 C   0  0
   -4.3086  -24.5082    0.0000 C   0  0
   -3.4857  -24.5044    0.0000 C   0  0
   -1.7211  -22.4209    0.0000 C   0  0
   -0.2082  -23.2549    0.0000 C   0  0
    0.5014  -23.6758    0.0000 N   0  0
   -0.1985  -22.4299    0.0000 O   0  0
   -1.1091  -25.9777    0.0000 Cl  0  0
   -3.5996  -27.3931    0.0000 Cl  0  0
   -5.5511  -23.7934    0.0000 Cl  0  0
    1.2206  -23.2717    0.0000 C   0  0
    1.9302  -23.6926    0.0000 C   0  0
    2.6495  -23.2885    0.0000 C   0  0
    3.3590  -23.7094    0.0000 C   0  0
    4.0783  -23.3054    0.0000 C   0  0
    4.7879  -23.7263    0.0000 C   0  0
    5.5072  -23.3222    0.0000 C   0  0
    6.2167  -23.7431    0.0000 C   0  0
    6.9360  -23.3391    0.0000 C   0  0
    7.6456  -23.7599    0.0000 C   0  0
    8.3649  -23.3559    0.0000 C   0  0
    9.0744  -23.7768    0.0000 N   0  0
    9.7937  -23.3727    0.0000 C   0  0
   10.5033  -23.7936    0.0000 C   0  0
    9.0647  -24.6017    0.0000 C   0  0
 24 25  2  0
  2  3  1  0
 25 26  1  0
 13 14  2  0
 26 27  2  0
 27 22  1  0
 21 22  1  0
  7  8  1  0
 20 28  1  0
 14 15  1  0
 19 29  1  0
  4  5  1  0
 29 30  1  0
 15 16  2  0
 29 31  2  0
 16 11  1  0
 15 32  1  0
 17 18  1  0
 13 33  1  0
  8  9  1  0
 25 34  1  0
 30 35  1  0
  9 10  1  0
 35 36  1  0
 10  1  1  0
 36 37  1  0
  5  6  1  0
 37 38  1  0
 18 19  2  0
 38 39  1  0
 19 20  1  0
 39 40  1  0
 20 21  2  0
 40 41  1  0
 21 17  1  0
 41 42  1  0
 16 17  1  0
 42 43  1  0
  3  4  1  0
 43 44  1  0
 11 12  2  0
 44 45  1  0
 22 23  2  0
 45 46  1  0
  6  7  1  0
 46 47  1  0
 23 24  1  0
 47 48  1  0
 48  2  1  0
 12 13  1  0
 46 49  1  0
M  END