
          11280715522D 1   1.00000     0.00000     0

 28 29  0     0  0            999 V2000
    3.4616   -4.4468    0.0000 C   0  0  0  0  0  0           0  0  0
    3.8745   -5.1609    0.0000 C   0  0  0  0  0  0           0  0  0
    4.6791   -4.9899    0.0000 C   0  0  0  0  0  0           0  0  0
    4.7675   -4.1645    0.0000 O   0  0  0  0  0  0           0  0  0
    4.0131   -3.8310    0.0000 C   0  0  3  0  0  0           0  0  0
    5.2950   -5.5384    0.0000 O   0  0  0  0  0  0           0  0  0
    3.3441   -3.3513    0.0000 C   0  0  0  0  0  0           0  0  0
    4.4261   -3.1168    0.0000 C   0  0  0  0  0  0           0  0  0
    4.0131   -2.4027    0.0000 O   0  0  0  0  0  0           0  0  0
    4.4261   -1.6884    0.0000 C   0  0  0  0  0  0           0  0  0
    5.2517   -1.6884    0.0000 O   0  0  0  0  0  0           0  0  0
    3.5364   -5.9107    0.0000 C   0  0  0  0  0  0           0  0  0
    2.5867   -3.6848    0.0000 O   0  0  0  0  0  0           0  0  0
    4.0131   -0.9742    0.0000 C   0  0  0  0  0  0           0  0  0
    4.4261   -0.2601    0.0000 C   0  0  3  0  0  0           0  0  0
    5.2517   -0.2601    0.0000 C   0  0  3  0  0  0           0  0  0
    5.6647   -0.9742    0.0000 C   0  0  0  0  0  0           0  0  0
    5.6647    0.4617    0.0000 C   0  0  0  0  0  0           0  0  0
    4.0131    0.4617    0.0000 C   0  0  3  0  0  0           0  0  0
    3.1874    0.4617    0.0000 C   0  0  0  0  0  0           0  0  0
    4.4261    1.1759    0.0000 C   0  0  0  0  0  0           0  0  0
    2.7153   -5.9931    0.0000 C   0  0  0  0  0  0           0  0  0
    2.2363   -5.3205    0.0000 C   0  0  0  0  0  0           0  0  0
    1.4159   -5.4023    0.0000 C   0  0  0  0  0  0           0  0  0
    1.0759   -6.1553    0.0000 C   0  0  0  0  0  0           0  0  0
    1.5625   -6.8271    0.0000 C   0  0  0  0  0  0           0  0  0
    2.3811   -6.7418    0.0000 C   0  0  0  0  0  0           0  0  0
    0.2539   -6.2389    0.0000 O   0  0  0  0  0  0           0  0  0
  5  7  1  0     0  0
  5  8  1  0     0  0
  8  9  1  0     0  0
  9 10  1  0     0  0
 10 11  2  0     0  0
  2 12  2  0     0  0
  7 13  1  0     0  0
 14 15  1  0     0  0
 15 16  1  0     0  0
 16 17  1  0     0  0
 16 18  1  0     0  0
 15 19  1  0     0  0
 19 20  1  0     0  0
 19 21  1  0     0  0
 10 14  1  0     0  0
 12 22  1  0     0  0
  1  2  1  0     0  0
 22 23  2  0     0  0
  2  3  1  0     0  0
 23 24  1  0     0  0
  3  4  1  0     0  0
 24 25  2  0     0  0
  4  5  1  0     0  0
 25 26  1  0     0  0
  5  1  1  0     0  0
 26 27  2  0     0  0
 27 22  1  0     0  0
  3  6  2  0     0  0
 25 28  1  0     0  0
M  END