
  SciTegic11201309402D

114122  0  0  0  0            999 V2000
    7.6400  -17.1481    0.0000 C   0  0
  -11.2550  -12.4722    0.0000 C   0  0
  -12.0430  -13.9278    0.0000 O   0  0
    2.3402  -13.8963    0.0000 C   0  0
    3.1652  -13.8997    0.0000 N   0  0
    1.9248  -14.6091    0.0000 O   0  0
    3.5748  -14.6158    0.0000 C   0  0  2  0  0  0
    4.3998  -14.6192    0.0000 C   0  0
    3.1594  -15.3286    0.0000 C   0  0  1  0  0  0
    2.3344  -15.3252    0.0000 C   0  0
    3.5690  -16.0447    0.0000 O   0  0
    4.8094  -15.3353    0.0000 N   0  0
    4.8152  -13.9064    0.0000 O   0  0
    1.1108  -13.1759    0.0000 N   0  0
    1.9311  -13.1804    0.0000 C   0  0  1  0  0  0
    2.1887  -12.4014    0.0000 C   0  0
    1.5274  -11.9157    0.0000 C   0  0
    0.8612  -12.3946    0.0000 C   0  0
    5.6344  -15.3387    0.0000 C   0  0  2  0  0  0
    6.0440  -16.0548    0.0000 C   0  0
    6.0498  -14.6259    0.0000 C   0  0
    5.6286  -16.7676    0.0000 O   0  0
    6.8665  -16.0581    0.0000 N   0  0
    6.8592  -16.8818    0.0000 C   0  0
    8.1346  -16.4877    0.0000 C   0  0
    7.6596  -15.8118    0.0000 C   0  0  1  0  0  0
    8.0488  -15.0844    0.0000 C   0  0
    8.8726  -15.0578    0.0000 N   0  0
    7.6134  -14.3836    0.0000 O   0  0
    9.1520  -15.8333    0.0000 C   0  0
    9.9767  -15.8093    0.0000 C   0  0
   10.2087  -15.0175    0.0000 C   0  0
    9.5278  -14.5511    0.0000 C   0  0  1  0  0  0
    9.2377  -13.7788    0.0000 C   0  0
    9.7601  -13.1329    0.0000 N   0  0
    8.4238  -13.6438    0.0000 O   0  0
    2.5748  -14.6118    0.0000 H   0  0
    0.7010  -13.8920    0.0000 C   0  0
   -0.1240  -13.8952    0.0000 C   0  0  1  0  0  0
    1.1163  -14.6048    0.0000 O   0  0
   -0.5392  -13.1823    0.0000 N   0  0
   -0.5337  -14.6113    0.0000 C   0  0
    9.3573  -12.4130    0.0000 C   0  0  2  0  0  0
    8.5324  -12.4014    0.0000 C   0  0
    9.7789  -11.7045    0.0000 C   0  0
   10.6038  -11.6905    0.0000 C   0  0
   11.0284  -12.3979    0.0000 C   0  0
   10.6296  -13.1203    0.0000 O   0  0
   11.8548  -12.3849    0.0000 O   0  0
    8.1296  -11.6813    0.0000 N   0  0
    8.1099  -13.1100    0.0000 O   0  0
    8.4496  -10.9198    0.0000 C   0  0
   -0.1184  -15.3241    0.0000 C   0  0
   -1.3642  -13.1855    0.0000 C   0  0
   -1.7795  -12.4727    0.0000 C   0  0
   -1.7739  -13.9016    0.0000 O   0  0
   -3.3259  -12.0734    0.0000 C   0  0
   -4.0333  -12.4978    0.0000 C   0  0
   -3.3397  -11.2485    0.0000 O   0  0
   -4.7546  -12.0973    0.0000 C   0  0
   -5.4621  -12.5217    0.0000 C   0  0
   -6.1916  -12.1212    0.0000 C   0  0
   -6.8925  -12.5456    0.0000 N   0  0
   -7.6129  -12.1451    0.0000 C   0  0
   -8.3220  -12.5695    0.0000 N   0  0
   -7.6324  -11.3202    0.0000 S   0  0
   -9.0425  -12.1690    0.0000 C   0  0
   -9.0506  -11.3466    0.0000 C   0  0
   -9.7718  -10.9462    0.0000 C   0  0
   -9.7425  -12.5964    0.0000 C   0  0
  -10.4633  -12.1997    0.0000 C   0  0
  -10.4807  -11.3660    0.0000 C   0  0
  -11.2829  -11.1234    0.0000 C   0  0
  -11.7556  -11.8072    0.0000 O   0  0
  -11.5464  -10.3437    0.0000 O   0  0
  -10.8172  -13.1736    0.0000 C   0  0
  -11.2192  -13.9014    0.0000 C   0  0
  -10.7836  -14.6079    0.0000 C   0  0
   -9.9544  -14.5879    0.0000 C   0  0
   -9.5588  -13.8553    0.0000 C   0  0
   -9.9920  -13.1518    0.0000 C   0  0
  -12.4770  -13.2217    0.0000 C   0  0
  -12.0862  -12.4990    0.0000 C   0  0
  -12.5152  -11.7998    0.0000 C   0  0
  -13.3350  -11.8220    0.0000 C   0  0
  -13.7277  -12.5493    0.0000 C   0  0
  -13.2927  -13.2455    0.0000 C   0  0
   -9.5271  -15.2913    0.0000 O   0  0
  -14.5531  -12.5749    0.0000 O   0  0
   -0.5281  -16.0402    0.0000 C   0  0
   -1.3549  -16.0445    0.0000 O   0  0
   -0.1146  -16.7542    0.0000 O   0  0
   -1.3750  -11.7499    0.0000 C   0  0
   -0.9698  -11.0313    0.0000 C   0  0
    7.3047  -11.6767    0.0000 C   0  0
    6.8962  -10.9599    0.0000 C   0  0
    6.0712  -10.9552    0.0000 C   0  0
    5.6547  -11.6673    0.0000 C   0  0
    4.8297  -11.6626    0.0000 C   0  0
    4.4199  -10.9457    0.0000 C   0  0
   -2.2000  -11.7584    0.0000 C   0  0
   -2.6051  -12.4770    0.0000 N   0  0
    3.5949  -10.9421    0.0000 C   0  0
    3.1793  -11.6548    0.0000 C   0  0
    2.3544  -11.6512    0.0000 C   0  0
    1.8991  -10.3391    0.0000 C   0  0
   -0.1449  -11.0228    0.0000 C   0  0
    0.2603  -10.3042    0.0000 C   0  0
    9.1583  -10.5000    0.0000 C   0  0
    9.8773  -10.9045    0.0000 O   0  0
    9.1492   -9.6751    0.0000 N   0  0
   10.3149  -13.9342    0.0000 H   0  0
    8.6578  -15.7512    0.0000 H   0  0
    2.9261  -13.0807    0.0000 H   0  0
 26 23  1  0
 42 53  1  0
  2 76  1  0
 41 54  1  0
 26 27  1  0
 54 55  1  0
  8 13  2  0
 54 56  2  0
 55102  1  0
 27 28  1  0
102 57  1  0
 14 15  1  0
 57 58  1  0
 27 29  2  0
 57 59  2  0
 28 30  1  0
 58 60  1  0
  4  6  2  0
 60 61  1  0
 82  3  1  0
 61 62  1  0
  5  7  1  0
 62 63  1  0
  3 77  1  0
 63 64  1  0
 30 31  1  0
 64 65  1  0
 31 32  1  0
 64 66  2  0
 32 33  1  0
 65 67  1  0
 33 28  1  0
 67 68  2  0
  7  8  1  0
 68 69  1  0
 69 72  2  0
 33 34  1  0
 71 70  2  0
 70 67  1  0
 71 72  1  0
 15 16  1  0
 34 35  1  0
 16 17  1  0
 34 36  2  0
 72 73  1  0
 73 74  1  0
 74  2  1  0
  2 71  1  0
 17 18  1  0
 73 75  2  0
  7 37  1  1
 18 14  1  0
 76 77  2  0
 14 38  1  0
 77 78  1  0
 78 79  2  0
 38 39  1  0
 79 80  1  0
 12 19  1  0
 80 81  2  0
 81 76  1  0
 38 40  2  0
  7  9  1  0
 82 83  2  0
 39 41  1  0
 83 84  1  0
 19 20  1  0
 84 85  2  0
 39 42  1  6
 85 86  1  0
 15  4  1  0
 86 87  2  0
 87 82  1  0
 35 43  1  0
 79 88  1  0
 19 21  1  1
 86 89  1  0
 43 44  1  0
 53 90  1  0
  9 10  1  6
 43 45  1  6
 90 91  1  0
 90 92  2  0
 20 22  2  0
 45 46  1  0
 93 94  1  0
  2 83  1  0
 50 95  1  0
 46 47  1  0
 95 96  1  0
 20 23  1  0
 96 97  1  0
 23 24  1  0
 97 98  1  0
 47 48  1  0
 98 99  1  0
 47 49  2  0
 99100  1  0
  9 11  1  0
 93101  1  0
 44 50  1  0
101102  1  0
  4  5  1  0
100103  1  0
 44 51  2  0
103104  1  0
  8 12  1  0
104105  1  0
 50 52  1  0
105106  1  0
 24  1  1  0
 94107  1  0
107108  1  0
108106  2  0
 52109  1  0
  1 25  1  0
109110  2  0
 25 26  1  0
109111  1  0
 33112  1  1
 26113  1  1
 15114  1  6
M  END