
  SciTegic12231509382D

 16 16  0  0  0  0            999 V2000
    9.9652   -2.7291    0.0000 C   0  0
    9.9641   -3.5565    0.0000 C   0  0
   10.6789   -3.9694    0.0000 C   0  0
   11.3953   -3.5560    0.0000 C   0  0
   11.3925   -2.7255    0.0000 C   0  0
   10.6771   -2.3164    0.0000 C   0  0
    9.2493   -3.9684    0.0000 C   0  0
   12.1105   -3.9674    0.0000 O   0  0
   12.8243   -3.5538    0.0000 C   0  0
   13.5394   -3.9652    0.0000 C   0  0  2  0  0  0
   14.2532   -3.5515    0.0000 C   0  0
   14.9683   -3.9629    0.0000 N   0  0
   15.6822   -3.5493    0.0000 C   0  0
   16.3973   -3.9607    0.0000 C   0  0
   15.6809   -2.7243    0.0000 C   0  0
   13.5407   -4.7902    0.0000 O   0  0
  4  8  1  0
  8  9  1  0
  4  5  1  0
  9 10  1  0
  2  3  1  0
 10 11  1  0
  5  6  2  0
 11 12  1  0
  6  1  1  0
 12 13  1  0
  1  2  2  0
 13 14  1  0
  2  7  1  0
 13 15  1  0
  3  4  2  0
 10 16  1  6
M  END