
  SciTegic11201309402D

110111  0  0  1  0            999 V2000
   17.5174   -0.8846    0.0000 C   0  0  1  0  0  0
   18.2411   -1.2733    0.0000 C   0  0
   16.7936   -1.2867    0.0000 N   0  0
   -9.2813   -1.3135    0.0000 N   0  0
   -8.5576   -0.9047    0.0000 C   0  0  2  0  0  0
   15.3059    3.0088    0.0000 P   0  0
   -8.5978   -5.1868    0.0000 P   0  0
   -9.9985   -0.9047    0.0000 C   0  0
   16.0699   -0.8913    0.0000 C   0  0
   13.8919   -1.3135    0.0000 C   0  0
   18.9648   -0.8712    0.0000 N   0  0
   -7.8137   -1.3135    0.0000 C   0  0
   14.6156   -0.9047    0.0000 N   0  0
  -10.7222   -1.3068    0.0000 C   0  0  1  0  0  0
   13.1681   -0.9248    0.0000 C   0  0  1  0  0  0
   19.7019   -1.2733    0.0000 C   0  0  2  0  0  0
   -3.4712   -1.3135    0.0000 C   0  0
   20.4257   -0.8511    0.0000 C   0  0
   -4.2017   -0.9114    0.0000 C   0  0  1  0  0  0
  -11.4258   -0.9047    0.0000 N   0  0
   12.4444   -1.3336    0.0000 N   0  0
   -4.9255   -1.3135    0.0000 N   0  0
   15.3461   -1.3135    0.0000 C   0  0  1  0  0  0
   -5.6492   -0.9114    0.0000 C   0  0
   -7.1101   -0.9047    0.0000 N   0  0
   11.7206   -0.9449    0.0000 C   0  0
  -12.1629   -1.3068    0.0000 C   0  0
   15.5271    2.2248    0.0000 O   0  0
   -8.3766   -4.4028    0.0000 O   0  0
   16.0900   -3.3239    0.0000 C   0  0
   14.8837    3.6991    0.0000 O   0  0
   -9.4220   -5.1132    0.0000 O   0  0
   18.2545   -2.0908    0.0000 O   0  0
   -9.9985   -0.0872    0.0000 O   0  0
   16.0631   -0.0872    0.0000 O   0  0
   13.8986   -2.1310    0.0000 O   0  0
   13.1548   -0.1206    0.0000 C   0  0
  -10.7222   -2.1177    0.0000 C   0  0
   -7.8338   -2.1177    0.0000 O   0  0
   -3.4780   -2.1310    0.0000 O   0  0
   20.4123   -0.0470    0.0000 O   0  0
   19.7019   -2.0775    0.0000 C   0  0
   -4.1950   -0.1073    0.0000 C   0  0
   17.5106   -0.0671    0.0000 C   0  0  2  0  0  0
   -8.5442   -0.0872    0.0000 C   0  0  2  0  0  0
   -5.6492   -0.1073    0.0000 O   0  0
  -12.1697   -2.1177    0.0000 O   0  0
   11.7073   -0.1274    0.0000 O   0  0
   16.8137   -3.7192    0.0000 O   0  0
   15.3461   -2.1177    0.0000 C   0  0
   14.4749    3.0088    0.0000 O   0  0
   15.8889    3.5718    0.0000 O   0  0
   -8.0550   -5.7967    0.0000 O   0  0
   -9.0803   -5.8369    0.0000 O   0  0
   -6.3730   -1.3135    0.0000 C   0  0
   -2.7475   -0.9114    0.0000 N   0  0
   21.1494   -1.2464    0.0000 N   0  0
   16.0900   -2.5130    0.0000 C   0  0
   14.9239    1.6485    0.0000 C   0  0
   -8.9596   -3.8265    0.0000 C   0  0
   13.7378    0.4825    0.0000 C   0  0
  -10.1191   -2.6806    0.0000 C   0  0
   15.3662   -3.7393    0.0000 O   0  0
   14.5420    0.2747    0.0000 C   0  0
   13.5099    1.2799    0.0000 C   0  0
  -10.3536   -3.4646    0.0000 C   0  0
   -9.3416   -2.4728    0.0000 C   0  0
   14.0997    1.8629    0.0000 C   0  0
   15.1451    0.8577    0.0000 C   0  0
   -9.7706   -4.0276    0.0000 C   0  0
   -8.7452   -3.0425    0.0000 C   0  0
   -7.8137    0.3149    0.0000 O   0  0
   18.2343    0.3350    0.0000 O   0  0
   10.9969   -1.3470    0.0000 C   0  0
   10.2732   -0.9449    0.0000 O   0  0
    1.5950   -0.9315    0.0000 O   0  0
    3.7595   -1.3470    0.0000 O   0  0
    5.9307   -0.9449    0.0000 O   0  0
    8.1019   -1.3470    0.0000 O   0  0
   -0.5763   -1.3336    0.0000 O   0  0
   20.2917   -2.6404    0.0000 C   0  0
   -3.7796    0.6031    0.0000 C   0  0
  -12.8733   -0.8913    0.0000 C   0  0
   -2.0238   -1.3135    0.0000 C   0  0
   16.7735    0.3217    0.0000 C   0  0
   -9.2813    0.3149    0.0000 C   0  0
   -1.3000   -0.9248    0.0000 C   0  0
    5.2069   -1.3470    0.0000 C   0  0
    0.1475   -0.9315    0.0000 C   0  0
    6.6544   -1.3470    0.0000 C   0  0
    7.3782   -0.9516    0.0000 C   0  0
    2.3187   -1.3336    0.0000 C   0  0
    8.8257   -0.9516    0.0000 C   0  0
    9.5494   -1.3470    0.0000 C   0  0
    3.0425   -0.9315    0.0000 C   0  0
    0.8712   -1.3336    0.0000 C   0  0
    4.4832   -0.9449    0.0000 C   0  0
   -4.2151    1.3000    0.0000 C   0  0
   20.0706   -3.4244    0.0000 C   0  0
   21.1092   -2.4393    0.0000 C   0  0
   -2.9485    0.6031    0.0000 C   0  0
   16.8046   -0.4692    0.0000 H   0  0
   -7.8441   -0.4905    0.0000 H   0  0
  -11.4358   -1.7209    0.0000 H   0  0
   12.4522   -0.5148    0.0000 H   0  0
   20.4173   -1.6842    0.0000 H   0  0
   -4.9110   -0.4901    0.0000 H   0  0
   16.0615   -1.7244    0.0000 H   0  0
   17.5016    0.7579    0.0000 H   0  0
   -8.5458    0.7378    0.0000 H   0  0
  2  1  1  0
  3  1  1  0
  4  5  1  0
  5 12  1  0
  6 28  1  0
  7 29  1  0
  8  4  1  0
  9  3  1  0
 10 13  1  0
 11  2  1  0
 12 25  1  0
 13 23  1  0
 14  8  1  0
 15 10  1  0
 16 11  1  0
 17 56  1  0
 18 16  1  0
 19 17  1  0
 20 14  1  0
 21 15  1  0
 22 19  1  0
 23  9  1  0
 24 22  1  0
 25 55  1  0
 26 21  1  0
 27 20  1  0
 28 59  1  0
 29 60  1  0
 30 58  1  0
 31  6  2  0
 32  7  2  0
 33  2  2  0
 34  8  2  0
 35  9  2  0
 36 10  2  0
 15 37  1  0
 14 38  1  0
 39 12  2  0
 40 17  2  0
 41 18  2  0
 16 42  1  0
 19 43  1  0
  1 44  1  0
  5 45  1  0
 46 24  2  0
 47 27  2  0
 48 26  2  0
 49 30  2  0
 23 50  1  0
 51  6  1  0
 52  6  1  0
 53  7  1  0
 54  7  1  0
 55 24  1  0
 56 84  1  0
 57 18  1  0
 58 50  1  0
 59 68  2  0
 60 71  1  0
 61 37  1  0
 62 38  1  0
 63 30  1  0
 64 61  1  0
 65 61  2  0
 66 62  2  0
 67 62  1  0
 68 65  1  0
 69 64  2  0
 70 66  1  0
 71 67  2  0
 72 45  1  0
 73 44  1  0
 74 26  1  0
 75 74  1  0
 76 92  1  0
 77 97  1  0
 78 90  1  0
 79 93  1  0
 80 89  1  0
 81 42  1  0
 82 43  1  0
 83 27  1  0
 84 87  1  0
 44 85  1  0
 45 86  1  0
 87 80  1  0
 88 78  1  0
 89 96  1  0
 90 91  1  0
 91 79  1  0
 92 95  1  0
 93 94  1  0
 94 75  1  0
 95 77  1  0
 96 76  1  0
 97 88  1  0
 98 82  1  0
 99 81  1  0
100 81  1  0
101 82  1  0
 69 59  1  0
 70 60  2  0
  1102  1  6
  5103  1  6
 14104  1  1
 15105  1  6
 16106  1  1
 19107  1  6
 23108  1  1
 44109  1  6
 45110  1  6
M  END