
  CDK    9/16/09,9:46

 12 12  0  0  0  0  0  0  0  0999 V2000
    0.0902   -0.5623    0.0000 C   0  0  0  0  0  0  0  0  0  0  0  0
    0.0891   -1.3892    0.0000 C   0  0  0  0  0  0  0  0  0  0  0  0
    0.8036   -1.8020    0.0000 C   0  0  0  0  0  0  0  0  0  0  0  0
    1.5197   -1.3888    0.0000 C   0  0  0  0  0  0  0  0  0  0  0  0
    1.5169   -0.5586    0.0000 C   0  0  0  0  0  0  0  0  0  0  0  0
    0.8018   -0.1496    0.0000 C   0  0  0  0  0  0  0  0  0  0  0  0
   -0.6254   -1.8011    0.0000 S   0  0  0  0  0  0  0  0  0  0  0  0
   -1.3453   -2.2074    0.0000 N   0  0  0  0  0  0  0  0  0  0  0  0
   -0.2168   -2.5174    0.0000 O   0  0  0  0  0  0  0  0  0  0  0  0
   -1.0324   -1.0838    0.0000 O   0  0  0  0  0  0  0  0  0  0  0  0
    2.2295   -0.1435    0.0000 C   0  0  0  0  0  0  0  0  0  0  0  0
    2.9405    0.2749    0.0000 C   0  0  0  0  0  0  0  0  0  0  0  0
  6  1  1  0  0  0  0 
  1  2  2  0  0  0  0 
  2  7  1  0  0  0  0 
  3  4  2  0  0  0  0 
  7  8  1  0  0  0  0 
  7  9  2  0  0  0  0 
  4  5  1  0  0  0  0 
  7 10  2  0  0  0  0 
  2  3  1  0  0  0  0 
  5 11  1  0  0  0  0 
  5  6  2  0  0  0  0 
 11 12  3  0  0  0  0 
M  END