
  SciTegic04191613082D

179189  0  0  1  0            999 V2000
    9.0232   -4.9313    0.0000 C   0  0
    9.9191   -6.1344    0.0000 C   0  0
   11.4090   -5.9601    0.0000 C   0  0
   12.0029   -4.5827    0.0000 C   0  0
   11.1070   -3.3796    0.0000 C   0  0
    9.6172   -3.5539    0.0000 C   0  0
    7.5322   -5.1027    0.0000 C   0  0
    6.6305   -3.8883    0.0000 C   0  0  1  0  0  0
    5.6799   -5.0487    0.0000 C   0  0
    6.5264   -5.8992    0.0000 O   0  0
    4.5152   -5.9939    0.0000 N   0  0
    3.1840   -6.6853    0.0000 C   0  0  2  0  0  0
    1.7409   -7.0946    0.0000 C   0  0
    0.2450   -7.2051    0.0000 N   0  0
   -1.2425   -7.0122    0.0000 C   0  0  1  0  0  0
   -1.5850   -8.4854    0.0000 C   0  0
   -2.7844   -9.3876    0.0000 C   0  0
   -2.6037  -10.8775    0.0000 C   0  0
   -3.8032  -11.7797    0.0000 N   0  0
   -3.6225  -13.2696    0.0000 C   0  0
   -4.5815  -13.9909    0.0000 N   0  0
   -2.5185  -13.7398    0.0000 N   0  0
   -2.6608   -6.5237    0.0000 C   0  0
   -3.9517   -5.7598    0.0000 N   0  0
   -5.0624   -4.7517    0.0000 C   0  0  1  0  0  0
   -5.7707   -6.0881    0.0000 C   0  0
   -4.9745   -7.3603    0.0000 C   0  0
   -5.6773   -8.6864    0.0000 C   0  0
   -4.8811   -9.9586    0.0000 N   0  0
   -5.5840  -11.2847    0.0000 C   0  0
   -4.9473  -12.3019    0.0000 N   0  0
   -6.7832  -11.3278    0.0000 N   0  0
   -5.9474   -3.5406    0.0000 C   0  0
   -6.8103   -4.0459    0.0000 O   0  0
   -6.5705   -2.1761    0.0000 N   0  0
   -6.9062   -0.7142    0.0000 C   0  0  2  0  0  0
   -6.9408    0.7854    0.0000 C   0  0
   -6.6727    2.2613    0.0000 N   0  0
   -6.1131    3.6530    0.0000 C   0  0  1  0  0  0
   -7.6124    3.8531    0.0000 C   0  0
   -8.1851    5.2403    0.0000 C   0  0
   -9.6727    5.4389    0.0000 C   0  0
  -10.2455    6.8261    0.0000 N   0  0
  -11.7331    7.0247    0.0000 C   0  0
  -12.4650    6.0738    0.0000 N   0  0
  -12.1910    8.1339    0.0000 N   0  0
   -5.2848    4.9035    0.0000 C   0  0
   -6.2130    5.6640    0.0000 O   0  0
   -4.2217    5.9617    0.0000 N   0  0
   -2.9673    6.7843    0.0000 C   0  0  1  0  0  0
   -1.5731    7.3375    0.0000 C   0  0
   -0.0960    7.5987    0.0000 N   0  0
    1.4034    7.5573    0.0000 C   0  0
    2.8638    7.2148    0.0000 C   0  0
    2.3905    7.5997    0.0000 C   0  0
    2.9324    7.3249    0.0000 C   0  0
    1.4932    7.7475    0.0000 C   0  0
    0.0000    7.8901    0.0000 N   0  0
   -1.4932    7.7475    0.0000 C   0  0  1  0  0  0
   -1.2561    9.2294    0.0000 C   0  0
    0.2644    9.3407    0.0000 C   0  0
    0.9276   10.6862    0.0000 C   0  0
    0.0939   11.9332    0.0000 C   0  0
   -1.4028   11.8348    0.0000 C   0  0
   -2.0660   10.4893    0.0000 C   0  0
   -2.9325    7.3249    0.0000 C   0  0
   -3.3042    8.2533    0.0000 O   0  0
   -4.2657    6.6375    0.0000 N   0  0
   -5.4448    5.7103    0.0000 C   0  0  2  0  0  0
   -6.4271    4.5767    0.0000 C   0  0
   -7.1771    3.2776    0.0000 N   0  0
   -7.6677    1.8601    0.0000 C   0  0  2  0  0  0
   -9.1371    2.2196    0.0000 C   0  0
   -9.5580    3.6602    0.0000 C   0  0
  -10.8060    4.4939    0.0000 C   0  0
  -11.8820    3.9628    0.0000 O   0  0
  -10.7283    5.6914    0.0000 O   0  0
   -7.8812    0.3754    0.0000 C   0  0
   -9.0798    0.4325    0.0000 O   0  0
   -7.8098   -1.1229    0.0000 N   0  0
   -9.2588   -0.7027    0.0000 C   0  0
  -10.3444   -1.7378    0.0000 C   0  0
   -9.9907   -3.1955    0.0000 C   0  0
   -8.5515   -3.6181    0.0000 C   0  0
   -7.4561   -2.5806    0.0000 C   0  0  2  0  0  0
   -6.8330   -3.9451    0.0000 C   0  0
   -5.9629   -5.1669    0.0000 N   0  0
   -4.8773   -6.2020    0.0000 C   0  0  2  0  0  0
   -3.6154   -7.0130    0.0000 C   0  0
   -4.1653   -8.0796    0.0000 O   0  0
   -2.2229   -7.5705    0.0000 N   0  0
   -0.7500   -7.8544    0.0000 C   0  0  1  0  0  0
   -0.8967   -9.3600    0.0000 C   0  0
    0.3236  -10.2336    0.0000 C   0  0
    0.1781  -11.7274    0.0000 C   0  0
    1.3984  -12.6011    0.0000 N   0  0
    1.2529  -14.0948    0.0000 C   0  0
    0.1603  -14.5909    0.0000 N   0  0
    2.2286  -14.7934    0.0000 N   0  0
    0.7500   -7.8544    0.0000 C   0  0
    0.8641   -9.0489    0.0000 O   0  0
    2.2229   -7.5705    0.0000 N   0  0
    3.6155   -7.0130    0.0000 C   0  0  1  0  0  0
    4.0737   -7.9018    0.0000 C   0  0
    4.8773   -6.2020    0.0000 C   0  0
    5.6191   -7.1453    0.0000 O   0  0
    5.9629   -5.1669    0.0000 N   0  0
    6.8330   -3.9450    0.0000 C   0  0  1  0  0  0
    7.4561   -2.5806    0.0000 C   0  0
    7.8098   -1.1229    0.0000 N   0  0
    7.8812    0.3754    0.0000 C   0  0  1  0  0  0
    7.6677    1.8602    0.0000 C   0  0
    7.1771    3.2777    0.0000 N   0  0
    6.4271    4.5767    0.0000 C   0  0
    7.4046    5.2728    0.0000 O   0  0
    5.4448    5.7103    0.0000 C   0  0
    4.2254    6.5854    0.0000 C   0  0
    4.2657    6.6376    0.0000 C   0  0
    7.7440   -1.1192    0.0000 C   0  0
    7.3280   -2.5604    0.0000 N   0  0
    8.9232   -1.3414    0.0000 O   0  0
    8.5901   -2.9731    0.0000 O   0  0
    7.6991   -4.4450    0.0000 C   0  0
   -5.8147   -7.3893    0.0000 C   0  0
   -7.3000   -7.1738    0.0000 C   0  0
   -8.2299   -8.3476    0.0000 C   0  0
   -9.7251   -8.1168    0.0000 C   0  0
  -10.2752   -6.7245    0.0000 C   0  0
  -11.7561   -6.5050    0.0000 C   0  0
  -12.3062   -5.1127    0.0000 C   0  0
  -11.3755   -3.9398    0.0000 C   0  0
   -9.8946   -4.1593    0.0000 C   0  0
   -9.3445   -5.5516    0.0000 C   0  0
   -7.8636   -5.7711    0.0000 C   0  0
   -7.8722   -4.5451    0.0000 O   0  0
   -7.4046    5.2727    0.0000 O   0  0
   -6.4866    6.8071    0.0000 C   0  0
   -6.0619    8.2466    0.0000 C   0  0
   -6.9801    9.4166    0.0000 C   0  0
   -6.1293   10.6519    0.0000 N   0  0
   -4.6915   10.2245    0.0000 C   0  0
   -4.6537    8.7250    0.0000 N   0  0
    1.6824    8.7294    0.0000 O   0  0
    1.5321    8.5490    0.0000 O   0  0
   -3.6619    8.1279    0.0000 C   0  0
   -4.8607    8.1833    0.0000 O   0  0
   -2.8528    9.3919    0.0000 N   0  0
   -3.5420   10.7251    0.0000 C   0  0  2  0  0  0
   -5.0411   10.7975    0.0000 C   0  0
   -5.5909   11.8641    0.0000 O   0  0
   -5.6901    9.7882    0.0000 O   0  0
   -2.7328   11.9891    0.0000 C   0  0
   -3.4220   13.3223    0.0000 C   0  0
   -2.6128   14.5863    0.0000 C   0  0
   -3.3020   15.9196    0.0000 C   0  0
   -2.6550   16.9302    0.0000 N   0  0
   -8.1371    0.8793    0.0000 O   0  0
   -8.3814   -0.3800    0.0000 C   0  0
   -8.8270    1.0531    0.0000 C   0  0
  -10.2908    1.3847    0.0000 C   0  0
  -10.7364    2.8179    0.0000 N   0  0
  -12.2001    3.1495    0.0000 C   0  0
  -12.5564    4.2953    0.0000 N   0  0
  -13.0146    2.2682    0.0000 N   0  0
   -3.1643   -7.6130    0.0000 O   0  0
    1.9499   -8.2763    0.0000 O   0  0
    3.2303   -8.1972    0.0000 C   0  0
    4.5519   -8.9083    0.0000 C   0  0
    4.6073  -10.4189    0.0000 C   0  0
    5.9263  -11.1269    0.0000 C   0  0
    7.1993  -10.3385    0.0000 C   0  0
    7.1531   -8.8422    0.0000 C   0  0
    5.8244   -8.1187    0.0000 C   0  0
    8.5183  -11.0465    0.0000 C   0  0
    8.5645  -12.5429    0.0000 C   0  0
    7.2916  -13.3312    0.0000 C   0  0
    5.9725  -12.6232    0.0000 C   0  0
    7.8117   -0.6221    0.0000 H   0  0
   -7.6470   -3.5622    0.0000 H   0  0
  1  2  2  0
  2  3  1  0
  3  4  2  0
  4  5  1  0
  5  6  2  0
  6  1  1  0
  7  1  1  0
  8  7  1  1
  8  9  1  0
  9 10  2  0
  9 11  1  0
 11 12  1  0
 12 13  1  0
 13 14  1  0
 14 15  1  0
 15 16  1  1
 16 17  1  0
 17 18  1  0
 18 19  1  0
 19 20  1  0
 20 21  2  0
 20 22  1  0
 15 23  1  0
 23 24  1  0
 24 25  1  0
 25 26  1  1
 26 27  1  0
 27 28  1  0
 28 29  1  0
 29 30  1  0
 30 31  2  0
 30 32  1  0
 25 33  1  0
 33 34  2  0
 33 35  1  0
 36 35  1  0
 37 36  1  0
 38 37  1  0
 39 38  1  0
 39 40  1  1
 40 41  1  0
 41 42  1  0
 42 43  1  0
 43 44  1  0
 44 45  1  0
 44 46  2  0
 47 39  1  0
 47 48  2  0
 49 47  1  0
 50 49  1  0
 50 51  1  0
 52 51  1  0
 53 52  1  0
 54 53  1  0
 55 54  1  0
 56 55  2  0
 57 56  1  0
 58 57  1  0
 58 59  1  0
 59 60  1  6
 60 61  2  0
 61 62  1  0
 62 63  2  0
 63 64  1  0
 64 65  2  0
 65 60  1  0
 59 66  1  0
 66 67  2  0
 68 66  1  0
 69 68  1  0
 70 69  1  0
 71 70  1  0
 72 71  1  0
 72 73  1  1
 73 74  1  0
 74 75  1  0
 75 76  1  0
 75 77  2  0
 72 78  1  0
 78 79  2  0
 80 78  1  0
 81 80  1  0
 82 81  1  0
 83 82  1  0
 84 83  1  0
 85 84  1  0
 85 86  1  0
 87 86  1  0
 88 87  1  0
 88 89  1  0
 89 90  2  0
 89 91  1  0
 91 92  1  0
 92 93  1  6
 93 94  1  0
 94 95  1  0
 95 96  1  0
 96 97  1  0
 97 98  1  0
 97 99  2  0
 92100  1  0
100101  2  0
100102  1  0
102103  1  0
103104  1  6
103105  1  0
105106  2  0
105107  1  0
107108  1  0
108109  1  0
109110  1  0
110111  1  0
111112  1  0
112113  1  0
114113  1  0
114115  2  0
116114  1  0
117116  1  0
 54117  2  0
116118  2  0
118 56  1  0
111119  1  0
119120  1  0
120  8  1  0
119121  2  0
109122  2  0
108123  1  1
 88124  1  6
124125  1  0
126125  1  0
127126  2  0
128127  1  0
129128  2  0
130129  1  0
131130  2  0
132131  1  0
133132  2  0
134133  1  0
125134  2  0
128133  1  0
 86135  2  0
 85 80  1  0
 70136  2  0
 69137  1  6
137138  1  0
138139  2  0
139140  1  0
140141  2  0
141142  1  0
142138  1  0
 57143  2  0
 53144  2  0
 50145  1  6
145146  2  0
145147  1  0
148147  1  6
148149  1  0
149150  2  0
149151  1  0
148152  1  0
152153  1  0
153154  1  0
154155  1  0
155156  1  0
 37157  2  0
 36158  1  1
158159  1  0
159160  1  0
160161  1  0
161162  1  0
162163  2  0
162164  1  0
 23165  2  0
 13166  2  0
 12167  1  1
167168  1  0
168169  2  0
169170  1  0
171170  1  0
171172  1  0
172173  2  0
173168  1  0
174171  2  0
175174  1  0
176175  2  0
177176  1  0
170177  2  0
111178  1  1
 85179  1  6
M  END