
  SciTegic11081110012D

 23 25  0  0  0  0            999 V2000
   15.5390    2.0104    0.0000 C   0  0
   14.8245    1.5979    0.0000 C   0  0
   14.8245    0.7729    0.0000 N   0  0
   15.5390    0.3604    0.0000 C   0  0
   16.2534    0.7729    0.0000 C   0  0
   16.2534    1.5979    0.0000 C   0  0
   14.1100    0.3604    0.0000 C   0  0
   13.3956    0.7729    0.0000 C   0  0
   12.6811    0.3604    0.0000 C   0  0
   11.9666    0.7729    0.0000 O   0  0
   11.2521    0.3604    0.0000 C   0  0
   10.5377    0.7729    0.0000 C   0  0
    9.8232    0.3604    0.0000 C   0  0
    9.8232   -0.4646    0.0000 C   0  0
   10.5377   -0.8771    0.0000 N   0  0
   11.2521   -0.4646    0.0000 C   0  0
    9.1087   -0.8771    0.0000 C   0  0
    8.3943   -0.4646    0.0000 N   0  0
    8.3943    0.3604    0.0000 C   0  0
    7.6798    0.7729    0.0000 C   0  0
    6.9653    0.3604    0.0000 C   0  0
    6.9653   -0.4646    0.0000 C   0  0
    7.6798   -0.8771    0.0000 C   0  0
  1  2  1  0
  1  6  1  0
  2  3  1  0
  3  4  1  0
  4  5  1  0
  5  6  1  0
  3  7  1  0
  7  8  1  0
  8  9  1  0
  9 10  1  0
 10 11  1  0
 11 12  2  0
 12 13  1  0
 13 14  2  0
 14 15  1  0
 15 16  2  0
 16 11  1  0
 14 17  1  0
 17 18  1  0
 18 19  1  0
 18 23  1  0
 19 20  1  0
 20 21  1  0
 21 22  1  0
 22 23  1  0
M  END