
          11280715472D 1   1.00000     0.00000     0

 24 26  0     0  0            999 V2000
   -0.2833    0.0000    0.0000 C   0  0  0  0  0  0           0  0  0
   -0.2833   -0.8250    0.0000 C   0  0  0  0  0  0           0  0  0
    0.4292    0.4125    0.0000 O   0  0  0  0  0  0           0  0  0
    0.4292   -1.2375    0.0000 C   0  0  0  0  0  0           0  0  0
    1.1500    0.0000    0.0000 C   0  0  0  0  0  0           0  0  0
   -0.9958    0.4125    0.0000 C   0  0  0  0  0  0           0  0  0
    1.1500   -0.8250    0.0000 C   0  0  0  0  0  0           0  0  0
   -0.9958   -1.2375    0.0000 C   0  0  0  0  0  0           0  0  0
   -1.7083    0.0000    0.0000 C   0  0  0  0  0  0           0  0  0
   -1.7083   -0.8250    0.0000 C   0  0  0  0  0  0           0  0  0
   -0.9958    1.2375    0.0000 C   0  0  3  0  0  0           0  0  0
    0.4292   -2.0625    0.0000 O   0  0  0  0  0  0           0  0  0
    1.8667    0.4125    0.0000 C   0  0  0  0  0  0           0  0  0
   -0.1708    1.2375    0.0000 C   0  0  0  0  0  0           0  0  0
   -0.9958   -2.0625    0.0000 O   0  0  0  0  0  0           0  0  0
    0.2417    1.9583    0.0000 C   0  0  0  0  0  0           0  0  0
   -2.4333    0.4125    0.0000 O   0  0  0  0  0  0           0  0  0
   -1.8208    1.2375    0.0000 C   0  0  0  0  0  0           0  0  0
   -0.9958    2.0625    0.0000 C   0  0  0  0  0  0           0  0  0
    1.8667    1.2375    0.0000 C   0  0  0  0  0  0           0  0  0
    2.5792    0.0000    0.0000 C   0  0  0  0  0  0           0  0  0
    3.3000    0.4125    0.0000 C   0  0  0  0  0  0           0  0  0
    2.5792    1.6583    0.0000 C   0  0  0  0  0  0           0  0  0
    3.3000    1.2458    0.0000 C   0  0  0  0  0  0           0  0  0
  2  1  1  0     0  0
  3  1  1  0     0  0
  4  2  1  0     0  0
  5  3  1  0     0  0
  6  1  2  0     0  0
  7  5  2  0     0  0
  8  2  2  0     0  0
  9  6  1  0     0  0
 10  9  2  0     0  0
 11  6  1  0     0  0
 12  4  2  0     0  0
 13  5  1  0     0  0
 14 11  1  0     0  0
 15  8  1  0     0  0
 16 14  2  0     0  0
 17  9  1  0     0  0
 18 11  1  0     0  0
 19 11  1  0     0  0
 20 13  2  0     0  0
 21 13  1  0     0  0
 22 21  2  0     0  0
 23 20  1  0     0  0
 24 22  1  0     0  0
 10  8  1  0     0  0
  7  4  1  0     0  0
 23 24  2  0     0  0
M  END