
          11280715472D 1   1.00000     0.00000     0

 25 27  0     0  0            999 V2000
    4.4042   -1.8167    0.0000 N   0  0  3  0  0  0           0  0  0
    8.7125   -0.9250    0.0000 C   0  0  0  0  0  0           0  0  0
    5.8375   -0.9792    0.0000 N   0  0  3  0  0  0           0  0  0
    3.6917   -2.2292    0.0000 C   0  0  0  0  0  0           0  0  0
    5.1167   -2.2167    0.0000 C   0  0  0  0  0  0           0  0  0
    4.4042   -0.9792    0.0000 C   0  0  0  0  0  0           0  0  0
    8.7292   -1.7542    0.0000 O   0  0  0  0  0  0           0  0  0
   10.8167    0.3375    0.0000 N   0  0  0  0  0  0           0  0  0
    9.4167   -0.5042    0.0000 C   0  0  0  0  0  0           0  0  0
    7.9875   -0.5167    0.0000 N   0  0  0  0  0  0           0  0  0
    2.9750   -1.8250    0.0000 C   0  0  0  0  0  0           0  0  0
    3.7000   -3.0542    0.0000 C   0  0  0  0  0  0           0  0  0
    5.1167   -0.5625    0.0000 C   0  0  0  0  0  0           0  0  0
    5.8375   -1.8167    0.0000 C   0  0  0  0  0  0           0  0  0
    2.2542   -3.0667    0.0000 C   0  0  0  0  0  0           0  0  0
    2.9875   -3.4792    0.0000 C   0  0  0  0  0  0           0  0  0
    2.2542   -2.2417    0.0000 C   0  0  0  0  0  0           0  0  0
    7.2750   -0.9500    0.0000 C   0  0  0  0  0  0           0  0  0
    6.5667   -0.5542    0.0000 C   0  0  0  0  0  0           0  0  0
    1.5500   -3.4792    0.0000 O   0  0  0  0  0  0           0  0  0
   10.1000    0.7375    0.0000 C   0  0  0  0  0  0           0  0  0
   10.8292   -0.4792    0.0000 C   0  0  0  0  0  0           0  0  0
    9.4000    0.3125    0.0000 C   0  0  0  0  0  0           0  0  0
   10.1292   -0.9042    0.0000 C   0  0  0  0  0  0           0  0  0
    1.5542   -4.3042    0.0000 C   0  0  0  0  0  0           0  0  0
  2 10  1  0     0  0
  3 13  1  0     0  0
  4  1  1  0     0  0
  5  1  1  0     0  0
  6  1  1  0     0  0
  7  2  2  0     0  0
  8 22  2  0     0  0
  9  2  1  0     0  0
 10 18  1  0     0  0
 11  4  2  0     0  0
 12  4  1  0     0  0
 13  6  1  0     0  0
 14  5  1  0     0  0
 15 16  1  0     0  0
 16 12  2  0     0  0
 17 11  1  0     0  0
 18 19  1  0     0  0
 19  3  1  0     0  0
 20 15  1  0     0  0
 21 23  2  0     0  0
 22 24  1  0     0  0
 23  9  1  0     0  0
 24  9  2  0     0  0
 25 20  1  0     0  0
  3 14  1  0     0  0
 15 17  2  0     0  0
  8 21  1  0     0  0
M  END