
  SciTegic09261414462D

 22 25  0  0  0  0            999 V2000
    9.3658   -4.5446    0.0000 N   0  0
    9.3658   -5.3696    0.0000 C   0  0
   10.0803   -5.7821    0.0000 N   0  0
   10.0803   -6.6071    0.0000 C   0  0
    9.3658   -7.0196    0.0000 C   0  0
    8.6514   -6.6071    0.0000 C   0  0
    8.6514   -5.7821    0.0000 N   0  0
    6.4916   -8.6247    0.0000 N   0  0
    7.0437   -8.0116    0.0000 C   0  0  2  0  0  0
    6.6312   -7.2971    0.0000 C   0  0  2  0  0  0
    5.8242   -7.4687    0.0000 C   0  0
    5.7380   -8.2891    0.0000 C   0  0
    7.9369   -7.0196    0.0000 N   0  0
    7.8506   -7.8401    0.0000 C   0  0
    7.1832   -6.6840    0.0000 C   0  0
   10.7948   -7.0196    0.0000 C   0  0
   11.5484   -6.6840    0.0000 C   0  0
   12.1005   -7.2971    0.0000 C   0  0
   11.6880   -8.0116    0.0000 C   0  0
   10.8810   -7.8401    0.0000 C   0  0
    7.4562   -8.7261    0.0000 H   0  0
    6.2187   -6.5827    0.0000 H   0  0
  2  3  1  0
  3  4  2  0
  4  5  1  0
  5  6  2  0
  6  7  1  0
  2  7  2  0
  1  2  1  0
  8  9  1  0
  9 10  1  0
 10 11  1  0
 11 12  1  0
  8 12  1  0
 13 14  1  0
 13 15  1  0
  9 14  1  0
 10 15  1  0
  6 13  1  0
 16 17  1  0
 17 18  1  0
 18 19  1  0
 19 20  1  0
 16 20  1  0
  4 16  1  0
  9 21  1  1
 10 22  1  1
M  END