
          02060813472D 1   1.00000     0.00000     0

 49 51  0     1  0            999 V2000
   -0.0066  -19.7070    0.0000 C   0  0  2  0  0  0           0  0  0
    0.7067  -18.4699    0.0000 O   0  0  0  0  0  0           0  0  0
    0.7067  -19.2960    0.0000 C   0  0  0  0  0  0           0  0  0
   -0.0066  -20.5331    0.0000 C   0  0  0  0  0  0           0  0  0
   -0.7190  -21.7702    0.0000 C   0  0  0  0  0  0           0  0  0
   -0.7217  -20.9441    0.0000 C   0  0  0  0  0  0           0  0  0
   -1.4372  -20.5331    0.0000 C   0  0  0  0  0  0           0  0  0
   -2.1461  -20.9488    0.0000 C   0  0  0  0  0  0           0  0  0
   -2.1434  -21.7708    0.0000 C   0  0  0  0  0  0           0  0  0
   -1.4329  -22.1836    0.0000 C   0  0  0  0  0  0           0  0  0
    1.4220  -19.7070    0.0000 N   0  0  3  0  0  0           0  0  0
   -0.7181  -18.4720    0.0000 C   0  0  0  0  0  0           0  0  0
   -1.4335  -18.0611    0.0000 C   0  0  0  0  0  0           0  0  0
    1.4220  -20.5331    0.0000 C   0  0  0  0  0  0           0  0  0
    2.1352  -20.9441    0.0000 C   0  0  0  0  0  0           0  0  0
    2.1352  -21.7702    0.0000 C   0  0  0  0  0  0           0  0  0
    3.5602  -18.4643    0.0000 C   0  0  0  0  0  0           0  0  0
    2.8512  -18.0541    0.0000 C   0  0  0  0  0  0           0  0  0
    2.1374  -18.4674    0.0000 N   0  0  0  0  0  0           0  0  0
    2.1352  -19.2960    0.0000 C   0  0  0  0  0  0           0  0  0
    2.8478  -19.7022    0.0000 C   0  0  0  0  0  0           0  0  0
    3.5645  -19.2886    0.0000 N   0  0  0  0  0  0           0  0  0
    2.8478  -20.5282    0.0000 O   0  0  0  0  0  0           0  0  0
    3.5602  -16.8162    0.0000 C   0  0  2  0  0  0           0  0  0
    4.9908  -16.8162    0.0000 O   0  0  0  0  0  0           0  0  0
    4.2755  -17.2271    0.0000 C   0  0  0  0  0  0           0  0  0
    2.8512  -17.2271    0.0000 C   0  0  0  0  0  0           0  0  0
    1.4178  -17.2297    0.0000 C   0  0  0  0  0  0           0  0  0
    2.1358  -16.8162    0.0000 C   0  0  0  0  0  0           0  0  0
    2.1358  -15.9900    0.0000 C   0  0  0  0  0  0           0  0  0
    1.4184  -15.5776    0.0000 C   0  0  0  0  0  0           0  0  0
    0.7046  -15.9909    0.0000 C   0  0  0  0  0  0           0  0  0
    0.7074  -16.8170    0.0000 C   0  0  0  0  0  0           0  0  0
    4.2755  -18.0533    0.0000 N   0  0  3  0  0  0           0  0  0
    4.2748  -15.5788    0.0000 C   0  0  0  0  0  0           0  0  0
    4.2748  -14.7527    0.0000 C   0  0  0  0  0  0           0  0  0
    4.9902  -14.3417    0.0000 C   0  0  0  0  0  0           0  0  0
    4.9908  -18.4643    0.0000 C   0  0  0  0  0  0           0  0  0
    5.7041  -18.0533    0.0000 C   0  0  0  0  0  0           0  0  0
    6.4194  -18.4643    0.0000 C   0  0  0  0  0  0           0  0  0
    1.4178  -18.0517    0.0000 C   0  0  0  0  0  0           0  0  0
    2.8512  -15.5791    0.0000 C   0  0  0  0  0  0           0  0  0
   -0.0059  -22.1812    0.0000 C   0  0  0  0  0  0           0  0  0
   -1.4372  -19.7070    0.0000 C   0  0  0  0  0  0           0  0  0
   -2.8579  -22.1847    0.0000 O   0  0  0  0  0  0           0  0  0
   -0.7208  -19.2981    0.0000 N   0  0  0  0  0  0           0  0  0
   -0.0059  -15.5826    0.0000 O   0  0  0  0  0  0           0  0  0
    3.5617  -15.9902    0.0000 N   0  0  0  0  0  0           0  0  0
   -1.4346  -17.2349    0.0000 C   0  0  0  0  0  0           0  0  0
  1  4  1  6     0  0
  4  6  1  0     0  0
  5  6  2  0     0  0
  6  7  1  0     0  0
  7  8  2  0     0  0
  8  9  1  0     0  0
  9 10  2  0     0  0
 10  5  1  0     0  0
 12 13  1  0     0  0
 11 14  1  0     0  0
 14 15  1  0     0  0
 15 16  1  0     0  0
 17 18  2  0     0  0
 18 19  1  0     0  0
 19 20  2  0     0  0
 20 21  1  0     0  0
 21 22  1  0     0  0
 22 17  1  0     0  0
 21 23  2  0     0  0
 20 11  1  0     0  0
 26 34  1  0     0  0
 24 26  1  0     0  0
 26 25  2  0     0  0
 24 27  1  6     0  0
 27 29  1  0     0  0
 28 29  2  0     0  0
 29 30  1  0     0  0
 30 31  2  0     0  0
 31 32  1  0     0  0
 32 33  2  0     0  0
 33 28  1  0     0  0
 35 36  1  0     0  0
 36 37  2  0     0  0
 34 38  1  0     0  0
 38 39  1  0     0  0
 39 40  1  0     0  0
 17 34  1  0     0  0
 28 41  1  0     0  0
 30 42  1  0     0  0
  5 43  1  0     0  0
  7 44  1  0     0  0
  3 11  1  0     0  0
  1  3  1  0     0  0
  3  2  2  0     0  0
  1 46  1  0     0  0
 46 12  1  0     0  0
  9 45  1  0     0  0
 32 47  1  0     0  0
 24 48  1  0     0  0
 48 35  1  0     0  0
 13 49  2  0     0  0
M  END