
  CDK    9/16/09,9:49

 19 21  0  0  0  0  0  0  0  0999 V2000
    4.6319   -9.9000    0.0000 C   0  0  0  0  0  0  0  0  0  0  0  0
    4.6307  -10.7273    0.0000 C   0  0  0  0  0  0  0  0  0  0  0  0
    5.3456  -11.1402    0.0000 N   0  0  0  0  0  0  0  0  0  0  0  0
    6.0620  -10.7269    0.0000 C   0  0  0  0  0  0  0  0  0  0  0  0
    6.0591   -9.8963    0.0000 C   0  0  0  0  0  0  0  0  0  0  0  0
    5.3438   -9.4872    0.0000 C   0  0  0  0  0  0  0  0  0  0  0  0
    6.7721   -9.4811    0.0000 C   0  0  0  0  0  0  0  0  0  0  0  0
    7.4833   -9.0625    0.0000 N   0  0  0  0  0  0  0  0  0  0  0  0
    6.7771  -11.1382    0.0000 N   0  0  0  0  0  0  0  0  0  0  0  0
    5.3354   -8.6613    0.0000 C   0  0  0  0  0  0  0  0  0  0  0  0
    6.0014   -8.1743    0.0000 O   0  0  0  0  0  0  0  0  0  0  0  0
    5.7441   -7.3905    0.0000 C   0  0  0  0  0  0  0  0  0  0  0  0
    4.9190   -7.3929    0.0000 C   0  0  0  0  0  0  0  0  0  0  0  0
    4.6666   -8.1783    0.0000 C   0  0  0  0  0  0  0  0  0  0  0  0
    3.9179  -11.1395    0.0000 C   0  0  0  0  0  0  0  0  0  0  0  0
    3.1657  -10.8077    0.0000 C   0  0  0  0  0  0  0  0  0  0  0  0
    2.6151  -11.4201    0.0000 C   0  0  0  0  0  0  0  0  0  0  0  0
    3.0273  -12.1330    0.0000 C   0  0  0  0  0  0  0  0  0  0  0  0
    3.8326  -11.9611    0.0000 O   0  0  0  0  0  0  0  0  0  0  0  0
 10 11  1  0  0  0  0 
  4  5  1  0  0  0  0 
  2  3  1  0  0  0  0 
  5  6  2  0  0  0  0 
  6  1  1  0  0  0  0 
  1  2  2  0  0  0  0 
 11 12  1  0  0  0  0 
 12 13  2  0  0  0  0 
 13 14  1  0  0  0  0 
 14 10  2  0  0  0  0 
  6 10  1  0  0  0  0 
  5  7  1  0  0  0  0 
  2 15  1  0  0  0  0 
 15 16  2  0  0  0  0 
  3  4  2  0  0  0  0 
  7  8  3  0  0  0  0 
  4  9  1  0  0  0  0 
 16 17  1  0  0  0  0 
 17 18  2  0  0  0  0 
 18 19  1  0  0  0  0 
 19 15  1  0  0  0  0 
M  END