
  CDK    9/16/09,10:7

 18 19  0  0  0  0  0  0  0  0999 V2000
   -3.7507  -20.6806    0.0000 C   0  0  0  0  0  0  0  0  0  0  0  0
   -4.1735  -21.3947    0.0000 C   0  0  0  0  0  0  0  0  0  0  0  0
   -3.7682  -22.1146    0.0000 C   0  0  0  0  0  0  0  0  0  0  0  0
   -2.9362  -22.1241    0.0000 C   0  0  0  0  0  0  0  0  0  0  0  0
   -2.5155  -21.4048    0.0000 C   0  0  0  0  0  0  0  0  0  0  0  0
   -2.9275  -20.6857    0.0000 C   0  0  0  0  0  0  0  0  0  0  0  0
   -5.0008  -21.3857    0.0000 N   0  0  0  0  0  0  0  0  0  0  0  0
   -1.6881  -21.4084    0.0000 N   0  0  0  0  0  0  0  0  0  0  0  0
   -1.2777  -22.1267    0.0000 S   0  0  0  0  0  0  0  0  0  0  0  0
   -0.8687  -22.8383    0.0000 C   0  0  0  0  0  0  0  0  0  0  0  0
   -1.9955  -22.5382    0.0000 O   0  0  0  0  0  0  0  0  0  0  0  0
   -0.5567  -21.7211    0.0000 O   0  0  0  0  0  0  0  0  0  0  0  0
   -1.2833  -23.5478    0.0000 C   0  0  0  0  0  0  0  0  0  0  0  0
   -0.8750  -24.2589    0.0000 C   0  0  0  0  0  0  0  0  0  0  0  0
   -0.0534  -24.2608    0.0000 C   0  0  0  0  0  0  0  0  0  0  0  0
    0.3582  -23.5458    0.0000 C   0  0  0  0  0  0  0  0  0  0  0  0
   -0.0525  -22.8378    0.0000 C   0  0  0  0  0  0  0  0  0  0  0  0
    0.3599  -24.9775    0.0000 Cl  0  0  0  0  0  0  0  0  0  0  0  0
  8  9  1  0  0  0  0 
  4  5  1  0  0  0  0 
  9 10  1  0  0  0  0 
  2  3  1  0  0  0  0 
  9 11  2  0  0  0  0 
  5  6  2  0  0  0  0 
  9 12  2  0  0  0  0 
  6  1  1  0  0  0  0 
 10 13  2  0  0  0  0 
  1  2  2  0  0  0  0 
 13 14  1  0  0  0  0 
  2  7  1  0  0  0  0 
 14 15  2  0  0  0  0 
  3  4  2  0  0  0  0 
 15 16  1  0  0  0  0 
  5  8  1  0  0  0  0 
 16 17  2  0  0  0  0 
 17 10  1  0  0  0  0 
 15 18  1  0  0  0  0 
M  END