
  SciTegic08041117222D

 28 28  0  0  0  0            999 V2000
    7.3518   -9.1649    0.0000 C   0  0
    8.0649   -9.5715    0.0000 C   0  0
    8.7781   -9.1649    0.0000 C   0  0
    6.6351   -9.5759    0.0000 C   0  0
    5.8800   -9.2429    0.0000 N   0  0
    5.3271   -9.8542    0.0000 C   0  0
    5.7430  -10.5691    0.0000 N   0  0
    6.5504  -10.3972    0.0000 C   0  0
    9.4883   -9.5776    0.0000 O   0  0
   10.2051   -9.1690    0.0000 C   0  0
   10.9194   -9.5818    0.0000 N   0  0
   10.2074   -8.3434    0.0000 O   0  0
   11.6362   -9.1732    0.0000 C   0  0
   12.3506   -9.5859    0.0000 C   0  0
   13.0673   -9.1773    0.0000 C   0  0
   13.7764   -9.5931    0.0000 C   0  0
   14.4927   -9.1851    0.0000 C   0  0
   14.4956   -8.3586    0.0000 C   0  0
   13.7761   -7.9419    0.0000 C   0  0
   13.0628   -8.3563    0.0000 C   0  0
   10.2875  -10.5355    0.0000 O   0  0
   10.7000  -11.2500    0.0000 C   0  0
   11.5249  -11.2500    0.0000 O   0  0
   10.2875  -11.9645    0.0000 C   0  0
    9.4625  -11.9645    0.0000 C   0  0
    9.0500  -11.2500    0.0000 C   0  0
    8.2250  -11.2500    0.0000 O   0  0
    9.4625  -10.5355    0.0000 O   0  0
  9 10  1  0
  2  3  1  0
 10 11  1  0
  7  8  1  0
 10 12  2  0
 11 13  1  0
  4  5  1  0
 13 14  1  0
  6  7  1  0
 14 15  1  0
  8  4  2  0
 15 16  2  0
  1  4  1  0
 16 17  1  0
  1  2  1  0
 17 18  1  0
  3  9  1  0
 18 19  1  0
  5  6  2  0
 19 20  1  0
 20 15  1  0
 21 22  1  0
 22 23  2  0
 22 24  1  0
 24 25  2  0
 25 26  1  0
 26 27  2  0
 26 28  1  0
M  END