
  SciTegic11161115462D

 46 51  0  0  0  0            999 V2000
   10.8862  -15.2495    0.0000 C   0  0
   10.8844  -13.5965    0.0000 C   0  0
   10.1714  -14.8367    0.0000 C   0  0
   10.1726  -14.0077    0.0000 C   0  0
    9.3846  -13.7504    0.0000 N   0  0
    8.8963  -14.4203    0.0000 C   0  0
    9.3826  -15.0916    0.0000 N   0  0
   11.5998  -14.0057    0.0000 C   0  0
   11.5986  -14.8387    0.0000 C   0  0
   12.3154  -15.2540    0.0000 C   0  0
   13.0381  -14.8408    0.0000 C   0  0
   13.0393  -14.0077    0.0000 C   0  0
   12.3178  -13.5878    0.0000 O   0  0
   12.3131  -16.0790    0.0000 O   0  0
   13.7548  -13.5970    0.0000 C   0  0
    8.0698  -14.4177    0.0000 N   0  0
   14.4668  -14.0155    0.0000 C   0  0
   15.1818  -13.6055    0.0000 C   0  0
   15.1843  -12.7796    0.0000 C   0  0
   14.4658  -12.3655    0.0000 C   0  0
   13.7537  -12.7779    0.0000 C   0  0
   15.8992  -12.3679    0.0000 C   0  0
   16.6132  -12.7812    0.0000 N   0  0
   15.9001  -11.5429    0.0000 O   0  0
    9.1309  -12.9654    0.0000 C   0  0
    7.6550  -15.1308    0.0000 C   0  0
   17.3281  -12.3695    0.0000 C   0  0  2  0  0  0
   18.0422  -12.7828    0.0000 C   0  0
   18.7571  -12.3711    0.0000 N   0  0
   18.0412  -13.6078    0.0000 O   0  0
   17.3291  -11.5445    0.0000 C   0  0
   18.0440  -11.1328    0.0000 C   0  0
    6.8300  -15.1282    0.0000 C   0  0
   18.7533  -11.5492    0.0000 C   0  0
   19.4677  -11.1382    0.0000 C   0  0
   19.4691  -10.3123    0.0000 C   0  0
   18.7500   -9.8992    0.0000 C   0  0
   18.0385  -10.3126    0.0000 C   0  0
    9.6839  -12.3531    0.0000 C   0  0
   10.4879  -12.5287    0.0000 C   0  0
   11.0406  -11.9172    0.0000 C   0  0
   10.7870  -11.1313    0.0000 C   0  0
    9.9756  -10.9602    0.0000 C   0  0
    9.4264  -11.5730    0.0000 C   0  0
    6.4198  -14.4124    0.0000 C   0  0
    6.4152  -15.8413    0.0000 C   0  0
 22 19  1  0
  8  2  2  0
 22 23  1  0
  2  4  1  0
 22 24  2  0
  8 13  1  0
  5 25  1  0
  9 10  1  0
 16 26  1  0
 10 11  1  0
 27 23  1  1
 11 12  2  0
 27 28  1  0
 12 13  1  0
 28 29  1  0
  4  5  1  0
 28 30  2  0
 10 14  2  0
 27 31  1  0
  5  6  1  0
 31 32  1  0
 12 15  1  0
 26 33  1  0
  6  7  2  0
 32 34  2  0
  6 16  1  0
 34 35  1  0
  7  3  1  0
 35 36  2  0
 15 17  2  0
 36 37  1  0
  8  9  1  0
 37 38  2  0
 38 32  1  0
 17 18  1  0
 25 39  1  0
  3  4  2  0
 39 40  2  0
 18 19  2  0
 40 41  1  0
  3  1  1  0
 41 42  2  0
 19 20  1  0
 42 43  1  0
  1  9  2  0
 43 44  2  0
 44 39  1  0
 20 21  2  0
 33 45  1  0
 21 15  1  0
 33 46  1  0
M  END