
  SciTegic12171313052D

 40 44  0  0  0  0            999 V2000
   23.1841   -3.6395    0.0000 C   0  0
   23.8966   -4.0520    0.0000 C   0  0
   24.6062   -3.6435    0.0000 C   0  0
   24.6094   -2.8208    0.0000 N   0  0
   23.8969   -2.4083    0.0000 C   0  0
   23.1812   -2.8185    0.0000 C   0  0
   25.3250   -2.4102    0.0000 C   0  0
   26.0384   -2.8245    0.0000 C   0  0
   26.0342   -3.6487    0.0000 C   0  0
   26.7435   -4.0629    0.0000 C   0  0
   27.4615   -3.6558    0.0000 N   0  0
   27.4656   -2.8298    0.0000 C   0  0
   26.7517   -2.4110    0.0000 C   0  0
   22.5030   -4.1051    0.0000 N   0  0
   21.6902   -5.1639    0.0000 N   0  0
   22.4818   -4.9316    0.0000 C   0  0
   21.2247   -4.4828    0.0000 C   0  0
   21.7294   -3.8304    0.0000 C   0  0
   21.4166   -3.0693    0.0000 C   0  0
   20.5994   -2.9592    0.0000 C   0  0
   20.0959   -3.6165    0.0000 C   0  0
   20.4114   -4.3751    0.0000 C   0  0
   28.1733   -4.0728    0.0000 C   0  0
   28.8904   -3.6649    0.0000 C   0  0
   29.6004   -4.0865    0.0000 C   0  0
   30.3170   -3.6792    0.0000 C   0  0
   30.3227   -2.8533    0.0000 N   0  0
   29.6058   -2.4364    0.0000 C   0  0
   28.8922   -2.8461    0.0000 C   0  0
   23.1358   -5.4344    0.0000 O   0  0
   25.3271   -1.5852    0.0000 O   0  0
   21.4129   -5.9409    0.0000 C   0  0
   20.6013   -6.0892    0.0000 C   0  0
   20.0671   -5.4606    0.0000 C   0  0
   19.2555   -5.6089    0.0000 C   0  0
   18.7213   -4.9802    0.0000 F   0  0
   18.9782   -6.3859    0.0000 F   0  0
   18.4300   -5.6020    0.0000 F   0  0
   19.2779   -3.5097    0.0000 F   0  0
   31.0286   -4.0966    0.0000 N   0  0
  1  2  1  0
  1  6  1  0
  2  3  1  0
  3  4  1  0
  4  5  1  0
  5  6  1  0
  4  7  1  0
  7  8  1  0
  8  9  1  0
  8 13  1  0
  9 10  1  0
 10 11  1  0
 11 12  1  0
 12 13  1  0
  1 14  1  0
 14 18  1  0
 17 15  1  0
 15 16  1  0
 16 14  1  0
 17 18  2  0
 18 19  1  0
 19 20  2  0
 20 21  1  0
 21 22  2  0
 22 17  1  0
 11 23  1  0
 23 24  1  0
 24 25  2  0
 25 26  1  0
 26 27  2  0
 27 28  1  0
 28 29  2  0
 29 24  1  0
 16 30  2  0
  7 31  2  0
 15 32  1  0
 32 33  1  0
 33 34  1  0
 34 35  1  0
 35 36  1  0
 35 37  1  0
 35 38  1  0
 21 39  1  0
 26 40  1  0
M  END