
          11280715062D 1   1.00000     0.00000     0

 27 30  0     0  0            999 V2000
    4.6417   -1.7667    0.0000 C   0  0  0  0  0  0           0  0  0
    4.1167   -2.0500    0.0000 C   0  0  0  0  0  0           0  0  0
    4.0917   -2.6542    0.0000 C   0  0  0  0  0  0           0  0  0
    7.5292   -1.6042    0.0000 C   0  0  0  0  0  0           0  0  0
    6.1792   -2.7167    0.0000 N   0  0  3  0  0  0           0  0  0
    5.1417   -2.6875    0.0000 C   0  0  3  0  0  0           0  0  0
    5.1542   -2.0792    0.0000 C   0  0  0  0  0  0           0  0  0
    4.6042   -2.9750    0.0000 C   0  0  0  0  0  0           0  0  0
    8.1375   -1.6125    0.0000 C   0  0  0  0  0  0           0  0  0
    7.2250   -2.1167    0.0000 C   0  0  3  0  0  0           0  0  0
    4.6625   -1.1667    0.0000 O   0  0  0  0  0  0           0  0  0
    7.2417   -1.0792    0.0000 O   0  0  0  0  0  0           0  0  0
    5.6500   -3.0042    0.0000 C   0  0  0  0  0  0           0  0  0
    8.4417   -1.0917    0.0000 C   0  0  0  0  0  0           0  0  0
    8.4292   -2.1417    0.0000 C   0  0  0  0  0  0           0  0  0
    7.2167   -2.7250    0.0000 C   0  0  0  0  0  0           0  0  0
    6.7042   -1.8167    0.0000 C   0  0  0  0  0  0           0  0  0
    6.7042   -3.0250    0.0000 C   0  0  0  0  0  0           0  0  0
    6.1792   -2.1167    0.0000 C   0  0  0  0  0  0           0  0  0
    9.3417   -1.6292    0.0000 C   0  0  0  0  0  0           0  0  0
    9.0292   -2.1500    0.0000 C   0  0  0  0  0  0           0  0  0
    9.0417   -1.1000    0.0000 C   0  0  0  0  0  0           0  0  0
    9.9417   -1.6250    0.0000 F   0  0  0  0  0  0           0  0  0
    3.5625   -2.9417    0.0000 C   0  0  0  0  0  0           0  0  0
    3.6000   -1.7292    0.0000 C   0  0  0  0  0  0           0  0  0
    3.0500   -2.6167    0.0000 C   0  0  0  0  0  0           0  0  0
    3.0667   -2.0125    0.0000 C   0  0  0  0  0  0           0  0  0
  2  1  1  0     0  0
  3  2  2  0     0  0
  4 10  1  0     0  0
  5 13  1  0     0  0
  6  7  1  0     0  0
  7  1  1  0     0  0
  8  6  1  0     0  0
  9  4  1  0     0  0
 10 17  1  0     0  0
 11  1  2  0     0  0
 12  4  2  0     0  0
 13  6  1  0     0  0
 14  9  1  0     0  0
 15  9  2  0     0  0
 16 18  1  0     0  0
 17 19  1  0     0  0
 18  5  1  0     0  0
 19  5  1  0     0  0
 20 21  2  0     0  0
 21 15  1  0     0  0
 22 14  2  0     0  0
 23 20  1  0     0  0
 24  3  1  0     0  0
 25  2  1  0     0  0
 26 27  1  0     0  0
 27 25  2  0     0  0
  3  8  1  0     0  0
 26 24  2  0     0  0
 16 10  1  0     0  0
 20 22  1  0     0  0
M  END