
          11280714452D 1   1.00000     0.00000     0

 32 35  0     0  0            999 V2000
    8.9917   -1.6417    0.0000 C   0  0  0  0  0  0           0  0  0
    8.2750   -2.0542    0.0000 C   0  0  0  0  0  0           0  0  0
    7.5625   -1.6417    0.0000 C   0  0  0  0  0  0           0  0  0
    9.7042   -2.0542    0.0000 C   0  0  0  0  0  0           0  0  0
    0.4250   -1.6500    0.0000 N   0  0  0  0  0  0           0  0  0
    6.8417   -2.0542    0.0000 C   0  0  0  0  0  0           0  0  0
    6.1292   -1.6417    0.0000 C   0  0  0  0  0  0           0  0  0
   -0.2833   -2.0625    0.0000 C   0  0  0  0  0  0           0  0  0
    5.4167   -2.0542    0.0000 C   0  0  0  0  0  0           0  0  0
   10.4167   -1.6417    0.0000 O   0  0  0  0  0  0           0  0  0
    1.1417   -2.0625    0.0000 C   0  0  0  0  0  0           0  0  0
    6.8417   -2.8792    0.0000 O   0  0  0  0  0  0           0  0  0
   -0.2875   -2.8875    0.0000 C   0  0  0  0  0  0           0  0  0
    8.2750   -2.8792    0.0000 O   0  0  0  0  0  0           0  0  0
    0.4292   -3.3000    0.0000 C   0  0  0  0  0  0           0  0  0
    2.5667   -2.0542    0.0000 O   0  0  0  0  0  0           0  0  0
    4.7042   -1.6417    0.0000 C   0  0  0  0  0  0           0  0  0
    9.7042   -2.8792    0.0000 O   0  0  0  0  0  0           0  0  0
    8.9917   -0.8167    0.0000 C   0  0  0  0  0  0           0  0  0
    3.2792   -1.6417    0.0000 C   0  0  0  0  0  0           0  0  0
    3.9917   -2.0542    0.0000 C   0  0  0  0  0  0           0  0  0
    1.8542   -1.6500    0.0000 C   0  0  0  0  0  0           0  0  0
    1.1417   -2.8792    0.0000 C   0  0  0  0  0  0           0  0  0
    7.5625   -0.8167    0.0000 C   0  0  0  0  0  0           0  0  0
    8.2750   -0.4042    0.0000 C   0  0  0  0  0  0           0  0  0
    3.9917   -0.4042    0.0000 C   0  0  0  0  0  0           0  0  0
   -0.9958   -1.6542    0.0000 C   0  0  0  0  0  0           0  0  0
    4.7042   -0.8167    0.0000 C   0  0  0  0  0  0           0  0  0
    3.2792   -0.8167    0.0000 C   0  0  0  0  0  0           0  0  0
   -0.9958   -3.3000    0.0000 C   0  0  0  0  0  0           0  0  0
   -1.7083   -2.0667    0.0000 C   0  0  0  0  0  0           0  0  0
   -1.7083   -2.8917    0.0000 C   0  0  0  0  0  0           0  0  0
  2  1  2  0     0  0
  3  2  1  0     0  0
  4  1  1  0     0  0
  5 11  2  0     0  0
  6  3  1  0     0  0
  7  6  1  0     0  0
  8  5  1  0     0  0
  9  7  2  0     0  0
 10  4  2  0     0  0
 11 22  1  0     0  0
 12  6  2  0     0  0
 13 15  1  0     0  0
 14  2  1  0     0  0
 15 23  2  0     0  0
 16 20  1  0     0  0
 17  9  1  0     0  0
 18  4  1  0     0  0
 19  1  1  0     0  0
 20 21  2  0     0  0
 21 17  1  0     0  0
 22 16  1  0     0  0
 23 11  1  0     0  0
 24 25  1  0     0  0
 25 19  2  0     0  0
 26 28  1  0     0  0
 27  8  2  0     0  0
 28 17  2  0     0  0
 29 26  2  0     0  0
 30 13  2  0     0  0
 31 27  1  0     0  0
 32 30  1  0     0  0
  3 24  2  0     0  0
 29 20  1  0     0  0
  8 13  1  0     0  0
 32 31  2  0     0  0
M  END