
  CDK    7/15/10,13:22

651731  0  0  0  0  0  0  0  0999 V2000
    5.1934   -9.8302    0.0000 O   0  0  0  0  0  0  0  0  0  0  0  0
    4.5470   -9.3150    0.0000 C   0  0  0  0  0  0  0  0  0  0  0  0
    4.5794   -8.4967    0.0000 C   0  0  0  0  0  0  0  0  0  0  0  0
    3.7625   -9.5291    0.0000 C   0  0  0  0  0  0  0  0  0  0  0  0
    3.7951   -8.2071    0.0000 C   0  0  0  0  0  0  0  0  0  0  0  0
    3.2920   -8.8427    0.0000 O   0  0  0  0  0  0  0  0  0  0  0  0
    3.4652  -10.3007    0.0000 C   0  0  0  0  0  0  0  0  0  0  0  0
    4.0980  -10.8336    0.0000 O   0  0  0  0  0  0  0  0  0  0  0  0
    3.5696   -7.4125    0.0000 N   0  0  0  0  0  0  0  0  0  0  0  0
    4.1398   -6.8196    0.0000 C   0  0  0  0  0  0  0  0  0  0  0  0
    3.9145   -6.0248    0.0000 N   0  0  0  0  0  0  0  0  0  0  0  0
    3.1094   -5.8347    0.0000 C   0  0  0  0  0  0  0  0  0  0  0  0
    2.5361   -6.4206    0.0000 C   0  0  0  0  0  0  0  0  0  0  0  0
    2.7615   -7.2154    0.0000 C   0  0  0  0  0  0  0  0  0  0  0  0
    4.9403   -7.0276    0.0000 O   0  0  0  0  0  0  0  0  0  0  0  0
    2.8836   -5.0289    0.0000 O   0  0  0  0  0  0  0  0  0  0  0  0
    1.7317   -6.2229    0.0000 C   0  0  0  0  0  0  0  0  0  0  0  0
    4.3482  -12.4673    0.0000 O   0  0  0  0  0  0  0  0  0  0  0  0
    4.2602  -11.6407    0.0000 P   0  0  0  0  0  0  0  0  0  0  0  0
    5.0743  -11.5174    0.0000 O   0  0  0  0  0  0  0  0  0  0  0  0
    3.4365  -11.7651    0.0000 O   0  0  0  0  0  0  0  0  0  0  0  0
    1.3912  -11.5413    0.0000 C   0  0  0  0  0  0  0  0  0  0  0  0
    0.7558  -11.0195    0.0000 N   0  0  0  0  0  0  0  0  0  0  0  0
    1.3505  -12.3768    0.0000 O   0  0  0  0  0  0  0  0  0  0  0  0
    2.1617  -11.3147    0.0000 C   0  0  0  0  0  0  0  0  0  0  0  0
    0.8800  -10.2238    0.0000 C   0  0  0  0  0  0  0  0  0  0  0  0
   -0.0031  -11.3166    0.0000 C   0  0  0  0  0  0  0  0  0  0  0  0
    2.1422  -12.6558    0.0000 C   0  0  0  0  0  0  0  0  0  0  0  0
    2.6397  -12.0059    0.0000 C   0  0  0  0  0  0  0  0  0  0  0  0
    2.6815  -10.6510    0.0000 O   0  0  0  0  0  0  0  0  0  0  0  0
    0.2448   -9.7016    0.0000 N   0  0  0  0  0  0  0  0  0  0  0  0
    1.6525   -9.9197    0.0000 O   0  0  0  0  0  0  0  0  0  0  0  0
   -0.6461  -10.8030    0.0000 C   0  0  0  0  0  0  0  0  0  0  0  0
    2.3726  -13.4491    0.0000 C   0  0  0  0  0  0  0  0  0  0  0  0
   -0.5067   -9.9944    0.0000 C   0  0  0  0  0  0  0  0  0  0  0  0
   -1.1539   -9.4695    0.0000 N   0  0  0  0  0  0  0  0  0  0  0  0
    1.8136  -14.0483    0.0000 O   0  0  0  0  0  0  0  0  0  0  0  0
    1.5806  -15.5464    0.0000 O   0  0  0  0  0  0  0  0  0  0  0  0
    2.0071  -14.8372    0.0000 P   0  0  0  0  0  0  0  0  0  0  0  0
    2.7277  -15.2456    0.0000 O   0  0  0  0  0  0  0  0  0  0  0  0
    1.2918  -14.4350    0.0000 O   0  0  0  0  0  0  0  0  0  0  0  0
    0.9203  -17.0568    0.0000 O   0  0  0  0  0  0  0  0  0  0  0  0
    0.1846  -16.6847    0.0000 C   0  0  0  0  0  0  0  0  0  0  0  0
    0.1355  -15.8483    0.0000 C   0  0  0  0  0  0  0  0  0  0  0  0
    0.7751  -15.3281    0.0000 C   0  0  0  0  0  0  0  0  0  0  0  0
    0.4751  -14.5591    0.0000 C   0  0  0  0  0  0  0  0  0  0  0  0
    0.9310  -13.8605    0.0000 O   0  0  0  0  0  0  0  0  0  0  0  0
   -0.3584  -14.6119    0.0000 C   0  0  0  0  0  0  0  0  0  0  0  0
   -0.5629  -15.4139    0.0000 O   0  0  0  0  0  0  0  0  0  0  0  0
   -0.9117  -13.9938    0.0000 N   0  0  0  0  0  0  0  0  0  0  0  0
   -0.6812  -13.1962    0.0000 C   0  0  0  0  0  0  0  0  0  0  0  0
   -1.3801  -12.7385    0.0000 N   0  0  0  0  0  0  0  0  0  0  0  0
   -2.0325  -13.2638    0.0000 C   0  0  0  0  0  0  0  0  0  0  0  0
   -2.8460  -13.1252    0.0000 C   0  0  0  0  0  0  0  0  0  0  0  0
   -3.1516  -12.3492    0.0000 N   0  0  0  0  0  0  0  0  0  0  0  0
   -3.3583  -13.7692    0.0000 N   0  0  0  0  0  0  0  0  0  0  0  0
   -3.0636  -14.5445    0.0000 C   0  0  0  0  0  0  0  0  0  0  0  0
   -2.2498  -14.6778    0.0000 N   0  0  0  0  0  0  0  0  0  0  0  0
   -1.7205  -14.0295    0.0000 C   0  0  0  0  0  0  0  0  0  0  0  0
   -2.3395  -18.0142    0.0000 C   0  0  0  0  0  0  0  0  0  0  0  0
   -2.0741  -18.7311    0.0000 N   0  0  0  0  0  0  0  0  0  0  0  0
   -3.2524  -18.0213    0.0000 C   0  0  0  0  0  0  0  0  0  0  0  0
   -1.9353  -17.2821    0.0000 N   0  0  0  0  0  0  0  0  0  0  0  0
   -1.3091  -18.9711    0.0000 C   0  0  0  0  0  0  0  0  0  0  0  0
   -2.7890  -19.2465    0.0000 C   0  0  0  0  0  0  0  0  0  0  0  0
   -3.4969  -18.7560    0.0000 N   0  0  0  0  0  0  0  0  0  0  0  0
   -3.6762  -17.3383    0.0000 C   0  0  0  0  0  0  0  0  0  0  0  0
   -2.3713  -16.5424    0.0000 C   0  0  0  0  0  0  0  0  0  0  0  0
   -1.0453  -19.7626    0.0000 O   0  0  0  0  0  0  0  0  0  0  0  0
   -0.6805  -18.5073    0.0000 C   0  0  0  0  0  0  0  0  0  0  0  0
   -3.2578  -16.5619    0.0000 N   0  0  0  0  0  0  0  0  0  0  0  0
   -4.4949  -17.3543    0.0000 O   0  0  0  0  0  0  0  0  0  0  0  0
   -1.9678  -15.8398    0.0000 N   0  0  0  0  0  0  0  0  0  0  0  0
   -0.2417  -19.7532    0.0000 C   0  0  0  0  0  0  0  0  0  0  0  0
   -0.0072  -18.9835    0.0000 C   0  0  0  0  0  0  0  0  0  0  0  0
   -0.7849  -17.6908    0.0000 O   0  0  0  0  0  0  0  0  0  0  0  0
    0.2518  -20.4019    0.0000 C   0  0  0  0  0  0  0  0  0  0  0  0
   -0.2060  -21.0789    0.0000 O   0  0  0  0  0  0  0  0  0  0  0  0
    0.7731  -18.7136    0.0000 O   0  0  0  0  0  0  0  0  0  0  0  0
    0.3939  -22.6304    0.0000 O   0  0  0  0  0  0  0  0  0  0  0  0
    0.0874  -21.8501    0.0000 P   0  0  0  0  0  0  0  0  0  0  0  0
    0.8706  -21.5504    0.0000 O   0  0  0  0  0  0  0  0  0  0  0  0
   -0.6829  -22.1568    0.0000 O   0  0  0  0  0  0  0  0  0  0  0  0
   -0.4281  -22.7266    0.0000 C   0  0  0  0  0  0  0  0  0  0  0  0
   -0.9829  -22.1240    0.0000 C   0  0  0  0  0  0  0  0  0  0  0  0
   -0.8329  -23.4318    0.0000 C   0  0  0  0  0  0  0  0  0  0  0  0
   -1.7427  -22.4724    0.0000 C   0  0  0  0  0  0  0  0  0  0  0  0
   -1.6505  -23.2777    0.0000 O   0  0  0  0  0  0  0  0  0  0  0  0
   -0.4988  -24.1883    0.0000 C   0  0  0  0  0  0  0  0  0  0  0  0
    0.3258  -24.1191    0.0000 O   0  0  0  0  0  0  0  0  0  0  0  0
   -2.4634  -22.0686    0.0000 N   0  0  0  0  0  0  0  0  0  0  0  0
   -2.4779  -21.2464    0.0000 C   0  0  0  0  0  0  0  0  0  0  0  0
   -3.1985  -20.8423    0.0000 N   0  0  0  0  0  0  0  0  0  0  0  0
   -3.9029  -21.2756    0.0000 C   0  0  0  0  0  0  0  0  0  0  0  0
   -3.8956  -22.0956    0.0000 C   0  0  0  0  0  0  0  0  0  0  0  0
   -3.1750  -22.4995    0.0000 C   0  0  0  0  0  0  0  0  0  0  0  0
   -4.6318  -20.8644    0.0000 O   0  0  0  0  0  0  0  0  0  0  0  0
   -4.6050  -22.5234    0.0000 C   0  0  0  0  0  0  0  0  0  0  0  0
   -1.9909  -20.9679    0.0000 C   0  0  0  0  0  0  0  0  0  0  0  0
    1.4177  -32.4206    0.0000 O   0  0  0  0  0  0  0  0  0  0  0  0
   -1.4317  -34.5976    0.0000 C   0  0  0  0  0  0  0  0  0  0  0  0
   -0.9102  -35.1564    0.0000 N   0  0  0  0  0  0  0  0  0  0  0  0
   -2.2714  -34.9565    0.0000 C   0  0  0  0  0  0  0  0  0  0  0  0
   -1.3413  -33.7662    0.0000 N   0  0  0  0  0  0  0  0  0  0  0  0
   -0.1119  -35.0826    0.0000 C   0  0  0  0  0  0  0  0  0  0  0  0
   -1.3709  -35.9078    0.0000 C   0  0  0  0  0  0  0  0  0  0  0  0
   -2.2130  -35.7287    0.0000 N   0  0  0  0  0  0  0  0  0  0  0  0
   -2.9259  -34.4899    0.0000 C   0  0  0  0  0  0  0  0  0  0  0  0
   -2.0291  -33.2523    0.0000 C   0  0  0  0  0  0  0  0  0  0  0  0
    0.4368  -35.7110    0.0000 O   0  0  0  0  0  0  0  0  0  0  0  0
    0.2890  -34.4121    0.0000 C   0  0  0  0  0  0  0  0  0  0  0  0
   -2.8394  -33.6123    0.0000 N   0  0  0  0  0  0  0  0  0  0  0  0
   -3.6749  -34.8207    0.0000 O   0  0  0  0  0  0  0  0  0  0  0  0
   -1.9283  -32.4483    0.0000 N   0  0  0  0  0  0  0  0  0  0  0  0
    1.1747  -35.3922    0.0000 C   0  0  0  0  0  0  0  0  0  0  0  0
    1.0939  -34.5915    0.0000 C   0  0  0  0  0  0  0  0  0  0  0  0
   -0.1224  -33.6992    0.0000 O   0  0  0  0  0  0  0  0  0  0  0  0
    1.8802  -35.8001    0.0000 C   0  0  0  0  0  0  0  0  0  0  0  0
    1.7194  -36.6013    0.0000 O   0  0  0  0  0  0  0  0  0  0  0  0
    1.7096  -34.0415    0.0000 O   0  0  0  0  0  0  0  0  0  0  0  0
    1.5421  -33.2324    0.0000 P   0  0  0  0  0  0  0  0  0  0  0  0
    0.7247  -33.3789    0.0000 O   0  0  0  0  0  0  0  0  0  0  0  0
    2.3551  -33.0890    0.0000 O   0  0  0  0  0  0  0  0  0  0  0  0
   -0.8999  -39.1972    0.0000 C   0  0  0  0  0  0  0  0  0  0  0  0
   -0.3024  -39.6739    0.0000 N   0  0  0  0  0  0  0  0  0  0  0  0
   -1.6781  -39.6747    0.0000 C   0  0  0  0  0  0  0  0  0  0  0  0
   -0.9317  -38.3616    0.0000 N   0  0  0  0  0  0  0  0  0  0  0  0
    0.4765  -39.4844    0.0000 C   0  0  0  0  0  0  0  0  0  0  0  0
   -0.6486  -40.4846    0.0000 C   0  0  0  0  0  0  0  0  0  0  0  0
   -1.5079  -40.4301    0.0000 N   0  0  0  0  0  0  0  0  0  0  0  0
   -2.3938  -39.3088    0.0000 C   0  0  0  0  0  0  0  0  0  0  0  0
   -1.6873  -37.9533    0.0000 C   0  0  0  0  0  0  0  0  0  0  0  0
    1.1112  -40.0261    0.0000 O   0  0  0  0  0  0  0  0  0  0  0  0
    0.7753  -38.7626    0.0000 C   0  0  0  0  0  0  0  0  0  0  0  0
   -2.4363  -38.4278    0.0000 N   0  0  0  0  0  0  0  0  0  0  0  0
   -3.0864  -39.7452    0.0000 O   0  0  0  0  0  0  0  0  0  0  0  0
   -1.7048  -37.1432    0.0000 N   0  0  0  0  0  0  0  0  0  0  0  0
    1.7946  -39.6029    0.0000 C   0  0  0  0  0  0  0  0  0  0  0  0
    1.5979  -38.8226    0.0000 C   0  0  0  0  0  0  0  0  0  0  0  0
    0.2643  -38.1173    0.0000 O   0  0  0  0  0  0  0  0  0  0  0  0
    2.5521  -39.9035    0.0000 C   0  0  0  0  0  0  0  0  0  0  0  0
    2.5097  -40.7198    0.0000 O   0  0  0  0  0  0  0  0  0  0  0  0
    2.1265  -38.1887    0.0000 O   0  0  0  0  0  0  0  0  0  0  0  0
    3.5990  -41.9762    0.0000 O   0  0  0  0  0  0  0  0  0  0  0  0
    3.0465  -41.3460    0.0000 P   0  0  0  0  0  0  0  0  0  0  0  0
    3.6819  -40.7988    0.0000 O   0  0  0  0  0  0  0  0  0  0  0  0
    2.4254  -41.8954    0.0000 O   0  0  0  0  0  0  0  0  0  0  0  0
    1.8429  -37.4127    0.0000 P   0  0  0  0  0  0  0  0  0  0  0  0
    1.0556  -37.6768    0.0000 O   0  0  0  0  0  0  0  0  0  0  0  0
    2.6263  -37.1522    0.0000 O   0  0  0  0  0  0  0  0  0  0  0  0
   -2.5237  -26.2984    0.0000 C   0  0  0  0  0  0  0  0  0  0  0  0
   -2.0021  -26.8572    0.0000 N   0  0  0  0  0  0  0  0  0  0  0  0
   -3.3633  -26.6574    0.0000 C   0  0  0  0  0  0  0  0  0  0  0  0
   -2.4334  -25.4670    0.0000 N   0  0  0  0  0  0  0  0  0  0  0  0
   -1.2040  -26.7834    0.0000 C   0  0  0  0  0  0  0  0  0  0  0  0
   -2.4628  -27.6088    0.0000 C   0  0  0  0  0  0  0  0  0  0  0  0
   -3.3051  -27.4295    0.0000 N   0  0  0  0  0  0  0  0  0  0  0  0
   -4.0178  -26.1909    0.0000 C   0  0  0  0  0  0  0  0  0  0  0  0
   -3.1212  -24.9531    0.0000 C   0  0  0  0  0  0  0  0  0  0  0  0
   -0.6551  -27.4120    0.0000 O   0  0  0  0  0  0  0  0  0  0  0  0
   -0.8031  -26.1131    0.0000 C   0  0  0  0  0  0  0  0  0  0  0  0
   -3.9313  -25.3131    0.0000 N   0  0  0  0  0  0  0  0  0  0  0  0
   -4.7668  -26.5217    0.0000 O   0  0  0  0  0  0  0  0  0  0  0  0
   -3.0203  -24.1491    0.0000 N   0  0  0  0  0  0  0  0  0  0  0  0
    0.0826  -27.0930    0.0000 C   0  0  0  0  0  0  0  0  0  0  0  0
    0.0020  -26.2925    0.0000 C   0  0  0  0  0  0  0  0  0  0  0  0
   -1.2145  -25.4000    0.0000 O   0  0  0  0  0  0  0  0  0  0  0  0
    0.7884  -27.5009    0.0000 C   0  0  0  0  0  0  0  0  0  0  0  0
    0.6273  -28.3022    0.0000 O   0  0  0  0  0  0  0  0  0  0  0  0
    0.6175  -25.7424    0.0000 O   0  0  0  0  0  0  0  0  0  0  0  0
    0.4502  -24.9332    0.0000 P   0  0  0  0  0  0  0  0  0  0  0  0
   -0.3674  -25.0797    0.0000 O   0  0  0  0  0  0  0  0  0  0  0  0
    1.2632  -24.7898    0.0000 O   0  0  0  0  0  0  0  0  0  0  0  0
   -1.9918  -30.8980    0.0000 C   0  0  0  0  0  0  0  0  0  0  0  0
   -1.3945  -31.3748    0.0000 N   0  0  0  0  0  0  0  0  0  0  0  0
   -2.7702  -31.3757    0.0000 C   0  0  0  0  0  0  0  0  0  0  0  0
   -2.0238  -30.0624    0.0000 N   0  0  0  0  0  0  0  0  0  0  0  0
   -0.6155  -31.1854    0.0000 C   0  0  0  0  0  0  0  0  0  0  0  0
   -1.7405  -32.1854    0.0000 C   0  0  0  0  0  0  0  0  0  0  0  0
   -2.5999  -32.1309    0.0000 N   0  0  0  0  0  0  0  0  0  0  0  0
   -3.4857  -31.0096    0.0000 C   0  0  0  0  0  0  0  0  0  0  0  0
   -2.7792  -29.6541    0.0000 C   0  0  0  0  0  0  0  0  0  0  0  0
    0.0191  -31.7269    0.0000 O   0  0  0  0  0  0  0  0  0  0  0  0
   -0.3168  -30.4635    0.0000 C   0  0  0  0  0  0  0  0  0  0  0  0
   -3.5282  -30.1287    0.0000 N   0  0  0  0  0  0  0  0  0  0  0  0
   -4.1785  -31.4460    0.0000 O   0  0  0  0  0  0  0  0  0  0  0  0
   -2.7967  -28.8441    0.0000 N   0  0  0  0  0  0  0  0  0  0  0  0
    0.7026  -31.3039    0.0000 C   0  0  0  0  0  0  0  0  0  0  0  0
    0.5058  -30.5237    0.0000 C   0  0  0  0  0  0  0  0  0  0  0  0
   -0.8277  -29.8181    0.0000 O   0  0  0  0  0  0  0  0  0  0  0  0
    1.4600  -31.6045    0.0000 C   0  0  0  0  0  0  0  0  0  0  0  0
    1.0346  -29.8896    0.0000 O   0  0  0  0  0  0  0  0  0  0  0  0
    0.7510  -29.1135    0.0000 P   0  0  0  0  0  0  0  0  0  0  0  0
   -0.0364  -29.3777    0.0000 O   0  0  0  0  0  0  0  0  0  0  0  0
    1.5344  -28.8531    0.0000 O   0  0  0  0  0  0  0  0  0  0  0  0
    2.8876  -42.3965    0.0000 C   0  0  0  0  0  0  0  0  0  0  0  0
    2.1376  -42.0672    0.0000 C   0  0  0  0  0  0  0  0  0  0  0  0
    2.8000  -43.2049    0.0000 C   0  0  0  0  0  0  0  0  0  0  0  0
    1.5813  -42.6913    0.0000 C   0  0  0  0  0  0  0  0  0  0  0  0
    1.9892  -43.3919    0.0000 O   0  0  0  0  0  0  0  0  0  0  0  0
    3.4096  -43.7635    0.0000 C   0  0  0  0  0  0  0  0  0  0  0  0
    4.1369  -43.3693    0.0000 O   0  0  0  0  0  0  0  0  0  0  0  0
    0.7593  -42.6107    0.0000 N   0  0  0  0  0  0  0  0  0  0  0  0
    0.4160  -41.8634    0.0000 C   0  0  0  0  0  0  0  0  0  0  0  0
   -0.4062  -41.7826    0.0000 N   0  0  0  0  0  0  0  0  0  0  0  0
   -0.8774  -42.4624    0.0000 C   0  0  0  0  0  0  0  0  0  0  0  0
   -0.5417  -43.2104    0.0000 C   0  0  0  0  0  0  0  0  0  0  0  0
    0.2805  -43.2908    0.0000 C   0  0  0  0  0  0  0  0  0  0  0  0
    0.9021  -41.1943    0.0000 O   0  0  0  0  0  0  0  0  0  0  0  0
   -1.7100  -42.3782    0.0000 O   0  0  0  0  0  0  0  0  0  0  0  0
   -1.0197  -43.8868    0.0000 C   0  0  0  0  0  0  0  0  0  0  0  0
    5.2599  -44.5740    0.0000 O   0  0  0  0  0  0  0  0  0  0  0  0
    4.6812  -43.9844    0.0000 P   0  0  0  0  0  0  0  0  0  0  0  0
    4.0730  -44.5502    0.0000 O   0  0  0  0  0  0  0  0  0  0  0  0
    5.2869  -43.4236    0.0000 O   0  0  0  0  0  0  0  0  0  0  0  0
    4.6972  -45.1795    0.0000 C   0  0  0  0  0  0  0  0  0  0  0  0
    3.8836  -45.0849    0.0000 C   0  0  0  0  0  0  0  0  0  0  0  0
    4.8509  -45.9780    0.0000 C   0  0  0  0  0  0  0  0  0  0  0  0
    3.5352  -45.8449    0.0000 C   0  0  0  0  0  0  0  0  0  0  0  0
    4.1308  -46.3947    0.0000 O   0  0  0  0  0  0  0  0  0  0  0  0
    5.5976  -46.3329    0.0000 C   0  0  0  0  0  0  0  0  0  0  0  0
    6.1773  -45.7426    0.0000 O   0  0  0  0  0  0  0  0  0  0  0  0
    2.7256  -46.0093    0.0000 N   0  0  0  0  0  0  0  0  0  0  0  0
    2.1781  -45.3958    0.0000 C   0  0  0  0  0  0  0  0  0  0  0  0
    1.3683  -45.5600    0.0000 N   0  0  0  0  0  0  0  0  0  0  0  0
    1.1175  -46.3482    0.0000 C   0  0  0  0  0  0  0  0  0  0  0  0
    1.6583  -46.9644    0.0000 C   0  0  0  0  0  0  0  0  0  0  0  0
    2.4678  -46.8001    0.0000 C   0  0  0  0  0  0  0  0  0  0  0  0
    2.4462  -44.6134    0.0000 O   0  0  0  0  0  0  0  0  0  0  0  0
    0.2969  -46.5122    0.0000 O   0  0  0  0  0  0  0  0  0  0  0  0
    1.3998  -47.7515    0.0000 C   0  0  0  0  0  0  0  0  0  0  0  0
    7.6043  -46.5645    0.0000 O   0  0  0  0  0  0  0  0  0  0  0  0
    6.8780  -46.1707    0.0000 P   0  0  0  0  0  0  0  0  0  0  0  0
    6.4629  -46.8901    0.0000 O   0  0  0  0  0  0  0  0  0  0  0  0
    7.2925  -45.4567    0.0000 O   0  0  0  0  0  0  0  0  0  0  0  0
    6.1900  -49.4237    0.0000 C   0  0  0  0  0  0  0  0  0  0  0  0
    6.9492  -49.3350    0.0000 N   0  0  0  0  0  0  0  0  0  0  0  0
    5.9812  -50.3128    0.0000 C   0  0  0  0  0  0  0  0  0  0  0  0
    5.5741  -48.8581    0.0000 N   0  0  0  0  0  0  0  0  0  0  0  0
    7.3630  -48.6484    0.0000 C   0  0  0  0  0  0  0  0  0  0  0  0
    7.2811  -50.1515    0.0000 C   0  0  0  0  0  0  0  0  0  0  0  0
    6.6374  -50.7236    0.0000 N   0  0  0  0  0  0  0  0  0  0  0  0
    5.2175  -50.5633    0.0000 C   0  0  0  0  0  0  0  0  0  0  0  0
    4.7522  -49.1073    0.0000 C   0  0  0  0  0  0  0  0  0  0  0  0
    8.1944  -48.5791    0.0000 O   0  0  0  0  0  0  0  0  0  0  0  0
    7.0608  -47.9282    0.0000 C   0  0  0  0  0  0  0  0  0  0  0  0
    4.5619  -49.9732    0.0000 N   0  0  0  0  0  0  0  0  0  0  0  0
    5.0399  -51.3625    0.0000 O   0  0  0  0  0  0  0  0  0  0  0  0
    4.1647  -48.5494    0.0000 N   0  0  0  0  0  0  0  0  0  0  0  0
    8.3750  -47.7959    0.0000 C   0  0  0  0  0  0  0  0  0  0  0  0
    7.6824  -47.3863    0.0000 C   0  0  0  0  0  0  0  0  0  0  0  0
    6.2426  -47.8367    0.0000 O   0  0  0  0  0  0  0  0  0  0  0  0
    9.1218  -47.4695    0.0000 C   0  0  0  0  0  0  0  0  0  0  0  0
    9.6717  -48.0742    0.0000 O   0  0  0  0  0  0  0  0  0  0  0  0
   10.2094  -51.7224    0.0000 C   0  0  0  0  0  0  0  0  0  0  0  0
   10.9475  -51.5237    0.0000 N   0  0  0  0  0  0  0  0  0  0  0  0
   10.1326  -52.6322    0.0000 C   0  0  0  0  0  0  0  0  0  0  0  0
    9.5175  -51.2526    0.0000 N   0  0  0  0  0  0  0  0  0  0  0  0
   11.2567  -50.7842    0.0000 C   0  0  0  0  0  0  0  0  0  0  0  0
   11.3950  -52.2830    0.0000 C   0  0  0  0  0  0  0  0  0  0  0  0
   10.8417  -52.9429    0.0000 N   0  0  0  0  0  0  0  0  0  0  0  0
    9.4135  -52.9915    0.0000 C   0  0  0  0  0  0  0  0  0  0  0  0
    8.7409  -51.6191    0.0000 C   0  0  0  0  0  0  0  0  0  0  0  0
   12.0690  -50.5942    0.0000 O   0  0  0  0  0  0  0  0  0  0  0  0
   10.8525  -50.1156    0.0000 C   0  0  0  0  0  0  0  0  0  0  0  0
    8.6789  -52.5035    0.0000 N   0  0  0  0  0  0  0  0  0  0  0  0
    9.3544  -53.8082    0.0000 O   0  0  0  0  0  0  0  0  0  0  0  0
    8.0781  -51.1529    0.0000 N   0  0  0  0  0  0  0  0  0  0  0  0
   12.1334  -49.7930    0.0000 C   0  0  0  0  0  0  0  0  0  0  0  0
   11.3885  -49.4889    0.0000 C   0  0  0  0  0  0  0  0  0  0  0  0
   10.0298  -50.1445    0.0000 O   0  0  0  0  0  0  0  0  0  0  0  0
   12.8246  -49.3612    0.0000 C   0  0  0  0  0  0  0  0  0  0  0  0
   13.4569  -49.8791    0.0000 O   0  0  0  0  0  0  0  0  0  0  0  0
   11.1914  -48.6871    0.0000 O   0  0  0  0  0  0  0  0  0  0  0  0
   14.8486  -48.9678    0.0000 O   0  0  0  0  0  0  0  0  0  0  0  0
   14.1495  -49.4304    0.0000 P   0  0  0  0  0  0  0  0  0  0  0  0
   13.6930  -48.7269    0.0000 O   0  0  0  0  0  0  0  0  0  0  0  0
   14.6101  -50.1197    0.0000 O   0  0  0  0  0  0  0  0  0  0  0  0
   10.3983  -48.4555    0.0000 P   0  0  0  0  0  0  0  0  0  0  0  0
   10.1442  -49.2463    0.0000 O   0  0  0  0  0  0  0  0  0  0  0  0
   10.6530  -47.6701    0.0000 O   0  0  0  0  0  0  0  0  0  0  0  0
   16.4203  -48.4537    0.0000 O   0  0  0  0  0  0  0  0  0  0  0  0
   16.6300  -49.2509    0.0000 C   0  0  0  0  0  0  0  0  0  0  0  0
   16.0369  -49.8427    0.0000 C   0  0  0  0  0  0  0  0  0  0  0  0
   15.2232  -49.7092    0.0000 C   0  0  0  0  0  0  0  0  0  0  0  0
   14.8469  -50.4440    0.0000 C   0  0  0  0  0  0  0  0  0  0  0  0
   14.0218  -50.5662    0.0000 O   0  0  0  0  0  0  0  0  0  0  0  0
   15.4395  -51.0325    0.0000 C   0  0  0  0  0  0  0  0  0  0  0  0
   16.1750  -50.6533    0.0000 O   0  0  0  0  0  0  0  0  0  0  0  0
   15.3439  -51.8565    0.0000 N   0  0  0  0  0  0  0  0  0  0  0  0
   14.5944  -52.2133    0.0000 C   0  0  0  0  0  0  0  0  0  0  0  0
   14.7155  -53.0399    0.0000 N   0  0  0  0  0  0  0  0  0  0  0  0
   15.5412  -53.1794    0.0000 C   0  0  0  0  0  0  0  0  0  0  0  0
   15.9775  -53.8802    0.0000 C   0  0  0  0  0  0  0  0  0  0  0  0
   15.5994  -54.6236    0.0000 N   0  0  0  0  0  0  0  0  0  0  0  0
   16.7991  -53.8362    0.0000 N   0  0  0  0  0  0  0  0  0  0  0  0
   17.1837  -53.1012    0.0000 C   0  0  0  0  0  0  0  0  0  0  0  0
   16.7434  -52.4041    0.0000 N   0  0  0  0  0  0  0  0  0  0  0  0
   15.9072  -52.4380    0.0000 C   0  0  0  0  0  0  0  0  0  0  0  0
   17.2895  -47.0513    0.0000 O   0  0  0  0  0  0  0  0  0  0  0  0
   16.8174  -47.7355    0.0000 P   0  0  0  0  0  0  0  0  0  0  0  0
   16.1196  -47.2981    0.0000 O   0  0  0  0  0  0  0  0  0  0  0  0
   17.5229  -48.1782    0.0000 O   0  0  0  0  0  0  0  0  0  0  0  0
   18.5638  -49.8197    0.0000 C   0  0  0  0  0  0  0  0  0  0  0  0
   18.4657  -50.6360    0.0000 N   0  0  0  0  0  0  0  0  0  0  0  0
   19.2897  -49.4046    0.0000 O   0  0  0  0  0  0  0  0  0  0  0  0
   17.9580  -49.2923    0.0000 C   0  0  0  0  0  0  0  0  0  0  0  0
   17.7281  -50.9596    0.0000 C   0  0  0  0  0  0  0  0  0  0  0  0
   19.1245  -51.1159    0.0000 C   0  0  0  0  0  0  0  0  0  0  0  0
   19.0989  -48.5870    0.0000 C   0  0  0  0  0  0  0  0  0  0  0  0
   18.2833  -48.5174    0.0000 C   0  0  0  0  0  0  0  0  0  0  0  0
   17.1189  -49.2111    0.0000 O   0  0  0  0  0  0  0  0  0  0  0  0
   17.6297  -51.7759    0.0000 N   0  0  0  0  0  0  0  0  0  0  0  0
   17.0561  -50.4718    0.0000 O   0  0  0  0  0  0  0  0  0  0  0  0
   19.0376  -51.9340    0.0000 C   0  0  0  0  0  0  0  0  0  0  0  0
   19.6435  -47.9659    0.0000 C   0  0  0  0  0  0  0  0  0  0  0  0
   18.2811  -52.2517    0.0000 C   0  0  0  0  0  0  0  0  0  0  0  0
   18.1868  -53.0798    0.0000 N   0  0  0  0  0  0  0  0  0  0  0  0
   20.4466  -48.1154    0.0000 O   0  0  0  0  0  0  0  0  0  0  0  0
   21.9471  -48.3322    0.0000 O   0  0  0  0  0  0  0  0  0  0  0  0
   21.2335  -47.9135    0.0000 P   0  0  0  0  0  0  0  0  0  0  0  0
   21.6340  -47.1886    0.0000 O   0  0  0  0  0  0  0  0  0  0  0  0
   20.8388  -48.6330    0.0000 O   0  0  0  0  0  0  0  0  0  0  0  0
   22.3228  -51.4996    0.0000 C   0  0  0  0  0  0  0  0  0  0  0  0
   22.9204  -51.0137    0.0000 N   0  0  0  0  0  0  0  0  0  0  0  0
   22.6368  -52.3589    0.0000 C   0  0  0  0  0  0  0  0  0  0  0  0
   21.5033  -51.3673    0.0000 N   0  0  0  0  0  0  0  0  0  0  0  0
   22.8910  -50.2171    0.0000 C   0  0  0  0  0  0  0  0  0  0  0  0
   23.6407  -51.5138    0.0000 C   0  0  0  0  0  0  0  0  0  0  0  0
   23.4108  -52.3417    0.0000 N   0  0  0  0  0  0  0  0  0  0  0  0
   22.1323  -52.9896    0.0000 C   0  0  0  0  0  0  0  0  0  0  0  0
   20.9541  -52.0268    0.0000 C   0  0  0  0  0  0  0  0  0  0  0  0
   23.5437  -49.7055    0.0000 O   0  0  0  0  0  0  0  0  0  0  0  0
   22.2431  -49.7742    0.0000 C   0  0  0  0  0  0  0  0  0  0  0  0
   21.2581  -52.8483    0.0000 N   0  0  0  0  0  0  0  0  0  0  0  0
   22.4237  -53.7544    0.0000 O   0  0  0  0  0  0  0  0  0  0  0  0
   20.1549  -51.8840    0.0000 N   0  0  0  0  0  0  0  0  0  0  0  0
   23.2759  -48.9424    0.0000 C   0  0  0  0  0  0  0  0  0  0  0  0
   22.4586  -48.9779    0.0000 C   0  0  0  0  0  0  0  0  0  0  0  0
   21.5009  -50.1434    0.0000 O   0  0  0  0  0  0  0  0  0  0  0  0
   23.7117  -48.2671    0.0000 C   0  0  0  0  0  0  0  0  0  0  0  0
   24.5088  -48.4640    0.0000 O   0  0  0  0  0  0  0  0  0  0  0  0
   25.7889  -47.4130    0.0000 O   0  0  0  0  0  0  0  0  0  0  0  0
   25.1438  -47.9416    0.0000 P   0  0  0  0  0  0  0  0  0  0  0  0
   24.6116  -47.3031    0.0000 O   0  0  0  0  0  0  0  0  0  0  0  0
   25.6803  -48.5787    0.0000 O   0  0  0  0  0  0  0  0  0  0  0  0
   26.5153  -50.5158    0.0000 C   0  0  0  0  0  0  0  0  0  0  0  0
   27.0505  -49.9643    0.0000 N   0  0  0  0  0  0  0  0  0  0  0  0
   26.9336  -51.3288    0.0000 C   0  0  0  0  0  0  0  0  0  0  0  0
   25.6905  -50.4672    0.0000 N   0  0  0  0  0  0  0  0  0  0  0  0
   26.9248  -49.1776    0.0000 C   0  0  0  0  0  0  0  0  0  0  0  0
   27.8249  -50.3796    0.0000 C   0  0  0  0  0  0  0  0  0  0  0  0
   27.6911  -51.2254    0.0000 N   0  0  0  0  0  0  0  0  0  0  0  0
   26.4978  -52.0163    0.0000 C   0  0  0  0  0  0  0  0  0  0  0  0
   25.2080  -51.1887    0.0000 C   0  0  0  0  0  0  0  0  0  0  0  0
   27.5261  -48.5873    0.0000 O   0  0  0  0  0  0  0  0  0  0  0  0
   26.2390  -48.8075    0.0000 C   0  0  0  0  0  0  0  0  0  0  0  0
   25.6135  -51.9824    0.0000 N   0  0  0  0  0  0  0  0  0  0  0  0
   26.8600  -52.7430    0.0000 O   0  0  0  0  0  0  0  0  0  0  0  0
   24.3968  -51.1400    0.0000 N   0  0  0  0  0  0  0  0  0  0  0  0
   27.1691  -47.8689    0.0000 C   0  0  0  0  0  0  0  0  0  0  0  0
   26.3658  -47.9950    0.0000 C   0  0  0  0  0  0  0  0  0  0  0  0
   25.5452  -49.2566    0.0000 O   0  0  0  0  0  0  0  0  0  0  0  0
   27.5317  -47.1413    0.0000 C   0  0  0  0  0  0  0  0  0  0  0  0
   28.3456  -47.2536    0.0000 O   0  0  0  0  0  0  0  0  0  0  0  0
   29.8927  -46.6837    0.0000 O   0  0  0  0  0  0  0  0  0  0  0  0
   29.1194  -46.9723    0.0000 P   0  0  0  0  0  0  0  0  0  0  0  0
   28.8332  -46.1915    0.0000 O   0  0  0  0  0  0  0  0  0  0  0  0
   29.4082  -47.7447    0.0000 O   0  0  0  0  0  0  0  0  0  0  0  0
   30.6702  -49.7805    0.0000 C   0  0  0  0  0  0  0  0  0  0  0  0
   31.1957  -49.2198    0.0000 N   0  0  0  0  0  0  0  0  0  0  0  0
   31.0858  -50.5876    0.0000 C   0  0  0  0  0  0  0  0  0  0  0  0
   29.8306  -49.7407    0.0000 N   0  0  0  0  0  0  0  0  0  0  0  0
   31.0591  -48.4281    0.0000 C   0  0  0  0  0  0  0  0  0  0  0  0
   31.9745  -49.6286    0.0000 C   0  0  0  0  0  0  0  0  0  0  0  0
   31.8412  -50.4709    0.0000 N   0  0  0  0  0  0  0  0  0  0  0  0
   30.6577  -51.2727    0.0000 C   0  0  0  0  0  0  0  0  0  0  0  0
   29.3707  -50.4663    0.0000 C   0  0  0  0  0  0  0  0  0  0  0  0
   31.6472  -47.8347    0.0000 O   0  0  0  0  0  0  0  0  0  0  0  0
   30.3641  -48.0773    0.0000 C   0  0  0  0  0  0  0  0  0  0  0  0
   29.7828  -51.2500    0.0000 N   0  0  0  0  0  0  0  0  0  0  0  0
   31.0368  -52.0029    0.0000 O   0  0  0  0  0  0  0  0  0  0  0  0
   28.5545  -50.4216    0.0000 N   0  0  0  0  0  0  0  0  0  0  0  0
   31.2848  -47.1253    0.0000 C   0  0  0  0  0  0  0  0  0  0  0  0
   30.4909  -47.2683    0.0000 C   0  0  0  0  0  0  0  0  0  0  0  0
   29.6812  -48.5312    0.0000 O   0  0  0  0  0  0  0  0  0  0  0  0
   31.6489  -46.3971    0.0000 C   0  0  0  0  0  0  0  0  0  0  0  0
   32.4499  -46.4958    0.0000 O   0  0  0  0  0  0  0  0  0  0  0  0
   33.1593  -45.0006    0.0000 O   0  0  0  0  0  0  0  0  0  0  0  0
   32.8098  -45.7450    0.0000 P   0  0  0  0  0  0  0  0  0  0  0  0
   32.0547  -45.3997    0.0000 O   0  0  0  0  0  0  0  0  0  0  0  0
   33.5620  -46.0938    0.0000 O   0  0  0  0  0  0  0  0  0  0  0  0
   34.5442  -43.8261    0.0000 C   0  0  0  0  0  0  0  0  0  0  0  0
   34.6022  -44.6550    0.0000 C   0  0  0  0  0  0  0  0  0  0  0  0
   33.9565  -45.1917    0.0000 C   0  0  0  0  0  0  0  0  0  0  0  0
   34.2775  -45.9534    0.0000 C   0  0  0  0  0  0  0  0  0  0  0  0
   33.8245  -46.6622    0.0000 O   0  0  0  0  0  0  0  0  0  0  0  0
   35.1075  -45.8959    0.0000 C   0  0  0  0  0  0  0  0  0  0  0  0
   35.3020  -45.0877    0.0000 O   0  0  0  0  0  0  0  0  0  0  0  0
   35.6757  -46.4986    0.0000 N   0  0  0  0  0  0  0  0  0  0  0  0
   35.4566  -47.2969    0.0000 C   0  0  0  0  0  0  0  0  0  0  0  0
   36.1658  -47.7460    0.0000 N   0  0  0  0  0  0  0  0  0  0  0  0
   36.8025  -47.2210    0.0000 C   0  0  0  0  0  0  0  0  0  0  0  0
   37.6163  -47.3438    0.0000 C   0  0  0  0  0  0  0  0  0  0  0  0
   37.9257  -48.1194    0.0000 N   0  0  0  0  0  0  0  0  0  0  0  0
   38.1217  -46.6916    0.0000 N   0  0  0  0  0  0  0  0  0  0  0  0
   37.8189  -45.9210    0.0000 C   0  0  0  0  0  0  0  0  0  0  0  0
   37.0052  -45.8120    0.0000 N   0  0  0  0  0  0  0  0  0  0  0  0
   36.4841  -46.4571    0.0000 C   0  0  0  0  0  0  0  0  0  0  0  0
   33.7991  -43.4675    0.0000 O   0  0  0  0  0  0  0  0  0  0  0  0
   34.6311  -42.0361    0.0000 O   0  0  0  0  0  0  0  0  0  0  0  0
   35.4498  -42.1007    0.0000 C   0  0  0  0  0  0  0  0  0  0  0  0
   35.8807  -42.8016    0.0000 C   0  0  0  0  0  0  0  0  0  0  0  0
   35.9801  -41.4809    0.0000 C   0  0  0  0  0  0  0  0  0  0  0  0
   36.6947  -42.5908    0.0000 C   0  0  0  0  0  0  0  0  0  0  0  0
   36.7525  -41.7879    0.0000 O   0  0  0  0  0  0  0  0  0  0  0  0
   35.7889  -40.6784    0.0000 C   0  0  0  0  0  0  0  0  0  0  0  0
   34.9703  -40.5978    0.0000 O   0  0  0  0  0  0  0  0  0  0  0  0
   37.3291  -43.1243    0.0000 N   0  0  0  0  0  0  0  0  0  0  0  0
   37.1830  -43.9349    0.0000 C   0  0  0  0  0  0  0  0  0  0  0  0
   37.8175  -44.4685    0.0000 N   0  0  0  0  0  0  0  0  0  0  0  0
   38.5933  -44.1742    0.0000 C   0  0  0  0  0  0  0  0  0  0  0  0
   38.7367  -43.3705    0.0000 C   0  0  0  0  0  0  0  0  0  0  0  0
   38.1020  -42.8369    0.0000 C   0  0  0  0  0  0  0  0  0  0  0  0
   36.4060  -44.2154    0.0000 O   0  0  0  0  0  0  0  0  0  0  0  0
   39.2315  -44.7070    0.0000 O   0  0  0  0  0  0  0  0  0  0  0  0
   39.5164  -43.0827    0.0000 C   0  0  0  0  0  0  0  0  0  0  0  0
   34.7303  -38.9695    0.0000 O   0  0  0  0  0  0  0  0  0  0  0  0
   34.8671  -39.7790    0.0000 P   0  0  0  0  0  0  0  0  0  0  0  0
   35.6845  -39.6565    0.0000 O   0  0  0  0  0  0  0  0  0  0  0  0
   34.0531  -39.8981    0.0000 O   0  0  0  0  0  0  0  0  0  0  0  0
   37.8835  -38.5088    0.0000 C   0  0  0  0  0  0  0  0  0  0  0  0
   37.3753  -37.9253    0.0000 N   0  0  0  0  0  0  0  0  0  0  0  0
   38.7330  -38.1681    0.0000 C   0  0  0  0  0  0  0  0  0  0  0  0
   37.7727  -39.3279    0.0000 N   0  0  0  0  0  0  0  0  0  0  0  0
   36.5792  -37.9721    0.0000 C   0  0  0  0  0  0  0  0  0  0  0  0
   37.8581  -37.1898    0.0000 C   0  0  0  0  0  0  0  0  0  0  0  0
   38.6897  -37.3980    0.0000 N   0  0  0  0  0  0  0  0  0  0  0  0
   39.3724  -38.6562    0.0000 C   0  0  0  0  0  0  0  0  0  0  0  0
   38.4328  -39.8639    0.0000 C   0  0  0  0  0  0  0  0  0  0  0  0
   36.0423  -37.3350    0.0000 O   0  0  0  0  0  0  0  0  0  0  0  0
   36.1502  -38.6331    0.0000 C   0  0  0  0  0  0  0  0  0  0  0  0
   39.2616  -39.5330    0.0000 N   0  0  0  0  0  0  0  0  0  0  0  0
   40.1258  -38.3492    0.0000 O   0  0  0  0  0  0  0  0  0  0  0  0
   38.3174  -40.6659    0.0000 N   0  0  0  0  0  0  0  0  0  0  0  0
   35.2945  -37.6281    0.0000 C   0  0  0  0  0  0  0  0  0  0  0  0
   35.3605  -38.4333    0.0000 C   0  0  0  0  0  0  0  0  0  0  0  0
   36.5481  -39.3658    0.0000 O   0  0  0  0  0  0  0  0  0  0  0  0
   34.6088  -37.2005    0.0000 C   0  0  0  0  0  0  0  0  0  0  0  0
   34.7890  -36.4073    0.0000 O   0  0  0  0  0  0  0  0  0  0  0  0
   34.6942  -34.7616    0.0000 O   0  0  0  0  0  0  0  0  0  0  0  0
   34.7474  -35.5871    0.0000 P   0  0  0  0  0  0  0  0  0  0  0  0
   33.9143  -35.6376    0.0000 O   0  0  0  0  0  0  0  0  0  0  0  0
   35.5752  -35.5328    0.0000 O   0  0  0  0  0  0  0  0  0  0  0  0
   37.7902  -33.9985    0.0000 C   0  0  0  0  0  0  0  0  0  0  0  0
   37.2343  -33.4637    0.0000 N   0  0  0  0  0  0  0  0  0  0  0  0
   38.6018  -33.5790    0.0000 C   0  0  0  0  0  0  0  0  0  0  0  0
   37.7530  -34.8238    0.0000 N   0  0  0  0  0  0  0  0  0  0  0  0
   36.4452  -33.5902    0.0000 C   0  0  0  0  0  0  0  0  0  0  0  0
   37.6431  -32.6936    0.0000 C   0  0  0  0  0  0  0  0  0  0  0  0
   38.4908  -32.8158    0.0000 N   0  0  0  0  0  0  0  0  0  0  0  0
   39.2881  -34.0023    0.0000 C   0  0  0  0  0  0  0  0  0  0  0  0
   38.4713  -35.3005    0.0000 C   0  0  0  0  0  0  0  0  0  0  0  0
   35.8511  -33.0071    0.0000 O   0  0  0  0  0  0  0  0  0  0  0  0
   36.0817  -34.2882    0.0000 C   0  0  0  0  0  0  0  0  0  0  0  0
   39.2565  -34.8914    0.0000 N   0  0  0  0  0  0  0  0  0  0  0  0
   40.0097  -33.6303    0.0000 O   0  0  0  0  0  0  0  0  0  0  0  0
   38.4335  -36.1125    0.0000 N   0  0  0  0  0  0  0  0  0  0  0  0
   35.1404  -33.3667    0.0000 C   0  0  0  0  0  0  0  0  0  0  0  0
   35.2704  -34.1654    0.0000 C   0  0  0  0  0  0  0  0  0  0  0  0
   36.5402  -34.9757    0.0000 O   0  0  0  0  0  0  0  0  0  0  0  0
   34.4106  -33.0073    0.0000 C   0  0  0  0  0  0  0  0  0  0  0  0
   34.5079  -32.1966    0.0000 O   0  0  0  0  0  0  0  0  0  0  0  0
   33.6890  -31.0175    0.0000 O   0  0  0  0  0  0  0  0  0  0  0  0
   33.7623  -31.8484    0.0000 P   0  0  0  0  0  0  0  0  0  0  0  0
   32.9381  -31.9250    0.0000 O   0  0  0  0  0  0  0  0  0  0  0  0
   34.5910  -31.7639    0.0000 O   0  0  0  0  0  0  0  0  0  0  0  0
   34.3517  -30.5308    0.0000 C   0  0  0  0  0  0  0  0  0  0  0  0
   35.1323  -30.7740    0.0000 C   0  0  0  0  0  0  0  0  0  0  0  0
   34.3416  -29.7114    0.0000 C   0  0  0  0  0  0  0  0  0  0  0  0
   35.6101  -30.0791    0.0000 C   0  0  0  0  0  0  0  0  0  0  0  0
   35.1338  -29.4419    0.0000 O   0  0  0  0  0  0  0  0  0  0  0  0
   33.6732  -29.2343    0.0000 C   0  0  0  0  0  0  0  0  0  0  0  0
   32.9992  -29.7095    0.0000 O   0  0  0  0  0  0  0  0  0  0  0  0
   36.4397  -30.0635    0.0000 N   0  0  0  0  0  0  0  0  0  0  0  0
   36.8616  -30.7718    0.0000 C   0  0  0  0  0  0  0  0  0  0  0  0
   37.6914  -30.7563    0.0000 N   0  0  0  0  0  0  0  0  0  0  0  0
   38.0908  -30.0296    0.0000 C   0  0  0  0  0  0  0  0  0  0  0  0
   37.6560  -29.3324    0.0000 C   0  0  0  0  0  0  0  0  0  0  0  0
   36.8390  -29.3368    0.0000 C   0  0  0  0  0  0  0  0  0  0  0  0
   36.4620  -31.4988    0.0000 O   0  0  0  0  0  0  0  0  0  0  0  0
   38.9202  -30.0129    0.0000 O   0  0  0  0  0  0  0  0  0  0  0  0
   38.0555  -28.6053    0.0000 C   0  0  0  0  0  0  0  0  0  0  0  0
   31.7448  -28.6447    0.0000 O   0  0  0  0  0  0  0  0  0  0  0  0
   32.3859  -29.1570    0.0000 P   0  0  0  0  0  0  0  0  0  0  0  0
   32.9237  -28.5308    0.0000 O   0  0  0  0  0  0  0  0  0  0  0  0
   31.8578  -29.7885    0.0000 O   0  0  0  0  0  0  0  0  0  0  0  0
   33.6574  -26.0908    0.0000 C   0  0  0  0  0  0  0  0  0  0  0  0
   32.8904  -26.0306    0.0000 N   0  0  0  0  0  0  0  0  0  0  0  0
   34.0161  -25.2446    0.0000 C   0  0  0  0  0  0  0  0  0  0  0  0
   34.1615  -26.7520    0.0000 N   0  0  0  0  0  0  0  0  0  0  0  0
   32.3641  -26.6296    0.0000 C   0  0  0  0  0  0  0  0  0  0  0  0
   32.7174  -25.1729    0.0000 C   0  0  0  0  0  0  0  0  0  0  0  0
   33.4510  -24.7278    0.0000 N   0  0  0  0  0  0  0  0  0  0  0  0
   34.8205  -25.1425    0.0000 C   0  0  0  0  0  0  0  0  0  0  0  0
   35.0130  -26.6570    0.0000 C   0  0  0  0  0  0  0  0  0  0  0  0
   31.5287  -26.5554    0.0000 O   0  0  0  0  0  0  0  0  0  0  0  0
   32.5283  -27.4039    0.0000 C   0  0  0  0  0  0  0  0  0  0  0  0
   35.3629  -25.8408    0.0000 N   0  0  0  0  0  0  0  0  0  0  0  0
   35.1491  -24.3941    0.0000 O   0  0  0  0  0  0  0  0  0  0  0  0
   35.5002  -27.3108    0.0000 N   0  0  0  0  0  0  0  0  0  0  0  0
   31.2124  -27.2858    0.0000 C   0  0  0  0  0  0  0  0  0  0  0  0
   31.8173  -27.8190    0.0000 C   0  0  0  0  0  0  0  0  0  0  0  0
   33.3154  -27.6403    0.0000 O   0  0  0  0  0  0  0  0  0  0  0  0
   30.4191  -27.4717    0.0000 C   0  0  0  0  0  0  0  0  0  0  0  0
   29.9799  -26.7869    0.0000 O   0  0  0  0  0  0  0  0  0  0  0  0
   29.0064  -25.4466    0.0000 O   0  0  0  0  0  0  0  0  0  0  0  0
   29.4942  -26.1182    0.0000 P   0  0  0  0  0  0  0  0  0  0  0  0
   28.8271  -26.6124    0.0000 O   0  0  0  0  0  0  0  0  0  0  0  0
   30.1631  -25.6281    0.0000 O   0  0  0  0  0  0  0  0  0  0  0  0
   30.0661  -23.6849    0.0000 C   0  0  0  0  0  0  0  0  0  0  0  0
   30.7979  -23.3094    0.0000 N   0  0  0  0  0  0  0  0  0  0  0  0
   29.3156  -23.2935    0.0000 O   0  0  0  0  0  0  0  0  0  0  0  0
   29.9510  -24.4793    0.0000 C   0  0  0  0  0  0  0  0  0  0  0  0
   31.4755  -23.7579    0.0000 C   0  0  0  0  0  0  0  0  0  0  0  0
   30.8493  -22.5002    0.0000 C   0  0  0  0  0  0  0  0  0  0  0  0
   28.7425  -23.8907    0.0000 C   0  0  0  0  0  0  0  0  0  0  0  0
   29.1341  -24.6221    0.0000 C   0  0  0  0  0  0  0  0  0  0  0  0
   30.3315  -25.2187    0.0000 O   0  0  0  0  0  0  0  0  0  0  0  0
   32.2215  -23.4012    0.0000 N   0  0  0  0  0  0  0  0  0  0  0  0
   31.4296  -24.5885    0.0000 O   0  0  0  0  0  0  0  0  0  0  0  0
   31.5800  -22.1314    0.0000 C   0  0  0  0  0  0  0  0  0  0  0  0
   27.9241  -23.7798    0.0000 C   0  0  0  0  0  0  0  0  0  0  0  0
   32.2642  -22.5882    0.0000 C   0  0  0  0  0  0  0  0  0  0  0  0
   33.0071  -22.2208    0.0000 N   0  0  0  0  0  0  0  0  0  0  0  0
   27.6162  -23.0169    0.0000 O   0  0  0  0  0  0  0  0  0  0  0  0
   26.1918  -22.1844    0.0000 O   0  0  0  0  0  0  0  0  0  0  0  0
   26.8880  -22.6386    0.0000 P   0  0  0  0  0  0  0  0  0  0  0  0
   26.4689  -23.3477    0.0000 O   0  0  0  0  0  0  0  0  0  0  0  0
   27.3123  -21.9219    0.0000 O   0  0  0  0  0  0  0  0  0  0  0  0
   28.7787  -20.4784    0.0000 C   0  0  0  0  0  0  0  0  0  0  0  0
   29.5846  -20.3161    0.0000 N   0  0  0  0  0  0  0  0  0  0  0  0
   28.1571  -19.9189    0.0000 O   0  0  0  0  0  0  0  0  0  0  0  0
   28.4673  -21.2189    0.0000 C   0  0  0  0  0  0  0  0  0  0  0  0
   30.1226  -20.9154    0.0000 C   0  0  0  0  0  0  0  0  0  0  0  0
   29.8341  -19.5403    0.0000 C   0  0  0  0  0  0  0  0  0  0  0  0
   27.4404  -20.3559    0.0000 C   0  0  0  0  0  0  0  0  0  0  0  0
   27.6294  -21.1523    0.0000 C   0  0  0  0  0  0  0  0  0  0  0  0
   28.6528  -22.0412    0.0000 O   0  0  0  0  0  0  0  0  0  0  0  0
   30.9290  -20.7534    0.0000 N   0  0  0  0  0  0  0  0  0  0  0  0
   29.8699  -21.7062    0.0000 O   0  0  0  0  0  0  0  0  0  0  0  0
   30.6385  -19.3667    0.0000 C   0  0  0  0  0  0  0  0  0  0  0  0
   26.6800  -20.0330    0.0000 C   0  0  0  0  0  0  0  0  0  0  0  0
   31.1771  -19.9857    0.0000 C   0  0  0  0  0  0  0  0  0  0  0  0
   31.9929  -19.8162    0.0000 N   0  0  0  0  0  0  0  0  0  0  0  0
   26.5690  -19.2211    0.0000 O   0  0  0  0  0  0  0  0  0  0  0  0
   25.5555  -18.0935    0.0000 O   0  0  0  0  0  0  0  0  0  0  0  0
   26.0971  -17.4691    0.0000 C   0  0  0  0  0  0  0  0  0  0  0  0
   26.9134  -17.5354    0.0000 C   0  0  0  0  0  0  0  0  0  0  0  0
   25.9159  -16.6764    0.0000 C   0  0  0  0  0  0  0  0  0  0  0  0
   27.2353  -16.7640    0.0000 C   0  0  0  0  0  0  0  0  0  0  0  0
   26.6211  -16.2350    0.0000 O   0  0  0  0  0  0  0  0  0  0  0  0
   25.1574  -16.3473    0.0000 C   0  0  0  0  0  0  0  0  0  0  0  0
   24.5986  -16.9574    0.0000 O   0  0  0  0  0  0  0  0  0  0  0  0
   28.0388  -16.5716    0.0000 N   0  0  0  0  0  0  0  0  0  0  0  0
   28.6073  -17.1660    0.0000 C   0  0  0  0  0  0  0  0  0  0  0  0
   29.4108  -16.9740    0.0000 N   0  0  0  0  0  0  0  0  0  0  0  0
   29.6343  -16.1776    0.0000 C   0  0  0  0  0  0  0  0  0  0  0  0
   29.0727  -15.5803    0.0000 C   0  0  0  0  0  0  0  0  0  0  0  0
   28.2692  -15.7724    0.0000 C   0  0  0  0  0  0  0  0  0  0  0  0
   28.3660  -17.9573    0.0000 O   0  0  0  0  0  0  0  0  0  0  0  0
   30.4487  -15.9852    0.0000 O   0  0  0  0  0  0  0  0  0  0  0  0
   29.3037  -14.7847    0.0000 C   0  0  0  0  0  0  0  0  0  0  0  0
   24.6475  -13.3720    0.0000 C   0  0  0  0  0  0  0  0  0  0  0  0
   23.8859  -13.4366    0.0000 N   0  0  0  0  0  0  0  0  0  0  0  0
   24.8841  -12.4900    0.0000 C   0  0  0  0  0  0  0  0  0  0  0  0
   25.2454  -13.9566    0.0000 N   0  0  0  0  0  0  0  0  0  0  0  0
   23.4507  -14.1098    0.0000 C   0  0  0  0  0  0  0  0  0  0  0  0
   23.5798  -12.6102    0.0000 C   0  0  0  0  0  0  0  0  0  0  0  0
   24.2411  -12.0587    0.0000 N   0  0  0  0  0  0  0  0  0  0  0  0
   25.6553  -12.2636    0.0000 C   0  0  0  0  0  0  0  0  0  0  0  0
   26.0746  -13.7335    0.0000 C   0  0  0  0  0  0  0  0  0  0  0  0
   22.6175  -14.1530    0.0000 O   0  0  0  0  0  0  0  0  0  0  0  0
   23.7302  -14.8394    0.0000 C   0  0  0  0  0  0  0  0  0  0  0  0
   26.2922  -12.8739    0.0000 N   0  0  0  0  0  0  0  0  0  0  0  0
   25.8581  -11.4704    0.0000 O   0  0  0  0  0  0  0  0  0  0  0  0
   26.6443  -14.3097    0.0000 N   0  0  0  0  0  0  0  0  0  0  0  0
   22.4122  -14.9301    0.0000 C   0  0  0  0  0  0  0  0  0  0  0  0
   23.0916  -15.3614    0.0000 C   0  0  0  0  0  0  0  0  0  0  0  0
   24.5450  -14.9565    0.0000 O   0  0  0  0  0  0  0  0  0  0  0  0
   21.6555  -15.2329    0.0000 C   0  0  0  0  0  0  0  0  0  0  0  0
   21.1251  -14.6112    0.0000 O   0  0  0  0  0  0  0  0  0  0  0  0
   23.1437  -16.1853    0.0000 O   0  0  0  0  0  0  0  0  0  0  0  0
   17.2078  -11.3767    0.0000 C   0  0  0  0  0  0  0  0  0  0  0  0
   16.5656  -11.9100    0.0000 O   0  0  0  0  0  0  0  0  0  0  0  0
   15.8635  -11.4542    0.0000 C   0  0  0  0  0  0  0  0  0  0  0  0
   15.0910  -11.7649    0.0000 O   0  0  0  0  0  0  0  0  0  0  0  0
   16.0633  -10.6567    0.0000 C   0  0  0  0  0  0  0  0  0  0  0  0
   15.6108   -9.9635    0.0000 C   0  0  0  0  0  0  0  0  0  0  0  0
   15.9824   -9.2230    0.0000 C   0  0  0  0  0  0  0  0  0  0  0  0
   16.8111   -9.1683    0.0000 C   0  0  0  0  0  0  0  0  0  0  0  0
   17.2729   -9.8538    0.0000 C   0  0  0  0  0  0  0  0  0  0  0  0
   16.9037  -10.5989    0.0000 C   0  0  0  0  0  0  0  0  0  0  0  0
   17.7854  -10.7883    0.0000 C   0  0  0  0  0  0  0  0  0  0  0  0
   17.5671   -9.9852    0.0000 C   0  0  0  0  0  0  0  0  0  0  0  0
   18.1447   -9.3968    0.0000 C   0  0  0  0  0  0  0  0  0  0  0  0
   18.9477   -9.6106    0.0000 C   0  0  0  0  0  0  0  0  0  0  0  0
   19.5320   -9.0144    0.0000 O   0  0  0  0  0  0  0  0  0  0  0  0
   19.1681  -10.4064    0.0000 C   0  0  0  0  0  0  0  0  0  0  0  0
   18.5927  -10.9922    0.0000 C   0  0  0  0  0  0  0  0  0  0  0  0
   18.8130  -11.7880    0.0000 O   0  0  0  0  0  0  0  0  0  0  0  0
   18.2288  -12.3840    0.0000 C   0  0  0  0  0  0  0  0  0  0  0  0
   18.4519  -13.1869    0.0000 C   0  0  0  0  0  0  0  0  0  0  0  0
   17.8746  -13.7801    0.0000 C   0  0  0  0  0  0  0  0  0  0  0  0
   18.0880  -14.5788    0.0000 O   0  0  0  0  0  0  0  0  0  0  0  0
   17.0673  -13.5762    0.0000 C   0  0  0  0  0  0  0  0  0  0  0  0
   16.8439  -12.7687    0.0000 C   0  0  0  0  0  0  0  0  0  0  0  0
   17.4285  -12.1773    0.0000 C   0  0  0  0  0  0  0  0  0  0  0  0
   17.7924  -15.3482    0.0000 C   0  0  0  0  0  0  0  0  0  0  0  0
   18.3171  -16.0014    0.0000 C   0  0  0  0  0  0  0  0  0  0  0  0
   19.1405  -15.9578    0.0000 C   0  0  0  0  0  0  0  0  0  0  0  0
   19.5940  -15.2618    0.0000 O   0  0  0  0  0  0  0  0  0  0  0  0
   19.4341  -16.7294    0.0000 C   0  0  0  0  0  0  0  0  0  0  0  0
   20.2408  -16.9412    0.0000 O   0  0  0  0  0  0  0  0  0  0  0  0
   18.7806  -17.2494    0.0000 C   0  0  0  0  0  0  0  0  0  0  0  0
   18.0909  -16.7920    0.0000 O   0  0  0  0  0  0  0  0  0  0  0  0
   18.7854  -18.0790    0.0000 N   0  0  0  0  0  0  0  0  0  0  0  0
   19.4913  -18.5156    0.0000 C   0  0  0  0  0  0  0  0  0  0  0  0
   19.2804  -19.3240    0.0000 N   0  0  0  0  0  0  0  0  0  0  0  0
   18.4443  -19.3724    0.0000 C   0  0  0  0  0  0  0  0  0  0  0  0
   17.9341  -20.0210    0.0000 C   0  0  0  0  0  0  0  0  0  0  0  0
   18.2284  -20.8015    0.0000 N   0  0  0  0  0  0  0  0  0  0  0  0
   17.1222  -19.8872    0.0000 N   0  0  0  0  0  0  0  0  0  0  0  0
   16.8205  -19.1147    0.0000 C   0  0  0  0  0  0  0  0  0  0  0  0
   17.3344  -18.4699    0.0000 N   0  0  0  0  0  0  0  0  0  0  0  0
   18.1618  -18.5953    0.0000 C   0  0  0  0  0  0  0  0  0  0  0  0
   20.3640  -14.9303    0.0000 P   0  0  0  0  0  0  0  0  0  0  0  0
   20.6886  -15.7036    0.0000 O   0  0  0  0  0  0  0  0  0  0  0  0
   20.0326  -14.1703    0.0000 O   0  0  0  0  0  0  0  0  0  0  0  0
   23.8833  -16.5536    0.0000 P   0  0  0  0  0  0  0  0  0  0  0  0
   24.2733  -15.8203    0.0000 O   0  0  0  0  0  0  0  0  0  0  0  0
   23.4938  -17.2816    0.0000 O   0  0  0  0  0  0  0  0  0  0  0  0
   25.8355  -18.8723    0.0000 P   0  0  0  0  0  0  0  0  0  0  0  0
   25.0635  -19.1725    0.0000 O   0  0  0  0  0  0  0  0  0  0  0  0
   26.5994  -18.5723    0.0000 O   0  0  0  0  0  0  0  0  0  0  0  0
   34.1619  -42.7234    0.0000 P   0  0  0  0  0  0  0  0  0  0  0  0
   33.4435  -42.3054    0.0000 O   0  0  0  0  0  0  0  0  0  0  0  0
   34.8803  -43.1246    0.0000 O   0  0  0  0  0  0  0  0  0  0  0  0
    0.9314  -17.8927    0.0000 P   0  0  0  0  0  0  0  0  0  0  0  0
    1.7641  -17.9669    0.0000 O   0  0  0  0  0  0  0  0  0  0  0  0
    0.0987  -17.8189    0.0000 O   0  0  0  0  0  0  0  0  0  0  0  0
 61 65  1  0  0  0  0 
148149  2  0  0  0  0 
 62 66  1  0  0  0  0 
148150  1  0  0  0  0 
 62 67  1  0  0  0  0 
 63 68  2  0  0  0  0 
304305  1  1  0  0  0 
304306  1  0  0  0  0 
307304  1  0  0  0  0 
305308  1  0  0  0  0 
305309  1  0  0  0  0 
306310  1  0  0  0  0 
307311  1  0  0  0  0 
307312  1  6  0  0  0 
308313  1  0  0  0  0 
308314  2  0  0  0  0 
309315  2  0  0  0  0 
310316  1  1  0  0  0 
311303  1  6  0  0  0 
313317  2  0  0  0  0 
317318  1  0  0  0  0 
311310  1  0  0  0  0 
315317  1  0  0  0  0 
 64 69  1  0  0  0  0 
316319  1  0  0  0  0 
 70 64  1  0  0  0  0 
 67 71  1  0  0  0  0 
320321  1  0  0  0  0 
321319  1  0  0  0  0 
 67 72  2  0  0  0  0 
321322  2  0  0  0  0 
 68 73  1  0  0  0  0 
321323  1  0  0  0  0 
 69 74  1  0  0  0  0 
 70 75  1  0  0  0  0 
 70 76  1  6  0  0  0 
 74 77  1  1  0  0  0 
 77 78  1  0  0  0  0 
 65 66  2  0  0  0  0 
 68 71  1  0  0  0  0 
 75 74  1  0  0  0  0 
  2  3  1  0  0  0  0 
 75 79  1  6  0  0  0 
 18 19  1  0  0  0  0 
 38 39  1  0  0  0  0 
151152  1  0  0  0  0 
151153  2  0  0  0  0 
151154  1  0  0  0  0 
155152  1  1  0  0  0 
152156  1  0  0  0  0 
153157  1  0  0  0  0 
153158  1  0  0  0  0 
324325  1  0  0  0  0 
324326  2  0  0  0  0 
324327  1  0  0  0  0 
328325  1  1  0  0  0 
325329  1  0  0  0  0 
326330  1  0  0  0  0 
326331  1  0  0  0  0 
327332  2  0  0  0  0 
328333  1  0  0  0  0 
334328  1  0  0  0  0 
331335  1  0  0  0  0 
331336  2  0  0  0  0 
332337  1  0  0  0  0 
333338  1  0  0  0  0 
334339  1  0  0  0  0 
334340  1  6  0  0  0 
338341  1  1  0  0  0 
341342  1  0  0  0  0 
329330  2  0  0  0  0 
332335  1  0  0  0  0 
339338  1  0  0  0  0 
339320  1  6  0  0  0 
154159  2  0  0  0  0 
155160  1  0  0  0  0 
161155  1  0  0  0  0 
158162  1  0  0  0  0 
343344  1  0  0  0  0 
344342  1  0  0  0  0 
344345  1  0  0  0  0 
344346  2  0  0  0  0 
158163  2  0  0  0  0 
159164  1  0  0  0  0 
160165  1  0  0  0  0 
161166  1  0  0  0  0 
161167  1  6  0  0  0 
165168  1  1  0  0  0 
168169  1  0  0  0  0 
156157  2  0  0  0  0 
159162  1  0  0  0  0 
166165  1  0  0  0  0 
 39 37  1  0  0  0  0 
166170  1  6  0  0  0 
 19  8  1  0  0  0  0 
170171  1  0  0  0  0 
171 90  1  0  0  0  0 
 80 81  1  0  0  0  0 
171172  2  0  0  0  0 
 81 78  1  0  0  0  0 
171173  1  0  0  0  0 
347348  1  0  0  0  0 
347349  2  0  0  0  0 
347350  1  0  0  0  0 
351348  1  1  0  0  0 
348352  1  0  0  0  0 
349353  1  0  0  0  0 
349354  1  0  0  0  0 
350355  2  0  0  0  0 
351356  1  0  0  0  0 
357351  1  0  0  0  0 
354358  1  0  0  0  0 
354359  2  0  0  0  0 
355360  1  0  0  0  0 
356361  1  0  0  0  0 
357362  1  0  0  0  0 
357363  1  6  0  0  0 
361364  1  1  0  0  0 
364365  1  0  0  0  0 
352353  2  0  0  0  0 
355358  1  0  0  0  0 
362361  1  0  0  0  0 
362343  1  6  0  0  0 
 81 82  1  0  0  0  0 
 81 83  2  0  0  0  0 
 39 40  2  0  0  0  0 
  2  4  1  0  0  0  0 
366367  1  0  0  0  0 
367365  1  0  0  0  0 
367368  1  0  0  0  0 
367369  2  0  0  0  0 
 39 41  1  0  0  0  0 
 19 20  2  0  0  0  0 
  3  5  1  0  0  0  0 
 19 21  1  0  0  0  0 
  4  6  1  0  0  0  0 
  5  6  1  0  0  0  0 
  2  1  1  6  0  0  0 
  7  8  1  0  0  0  0 
  4  7  1  1  0  0  0 
  9 10  1  0  0  0  0 
 10 11  1  0  0  0  0 
 11 12  1  0  0  0  0 
 12 13  1  0  0  0  0 
 84 85  1  0  0  0  0 
174175  1  0  0  0  0 
174176  2  0  0  0  0 
174177  1  0  0  0  0 
178175  1  1  0  0  0 
175179  1  0  0  0  0 
370371  1  0  0  0  0 
370372  2  0  0  0  0 
370373  1  0  0  0  0 
374371  1  1  0  0  0 
371375  1  0  0  0  0 
372376  1  0  0  0  0 
372377  1  0  0  0  0 
373378  2  0  0  0  0 
374379  1  0  0  0  0 
380374  1  0  0  0  0 
377381  1  0  0  0  0 
377382  2  0  0  0  0 
378383  1  0  0  0  0 
379384  1  0  0  0  0 
380385  1  0  0  0  0 
380386  1  6  0  0  0 
384387  1  1  0  0  0 
387388  1  0  0  0  0 
375376  2  0  0  0  0 
378381  1  0  0  0  0 
385384  1  0  0  0  0 
385366  1  6  0  0  0 
176180  1  0  0  0  0 
176181  1  0  0  0  0 
177182  2  0  0  0  0 
178183  1  0  0  0  0 
389390  1  0  0  0  0 
390388  1  0  0  0  0 
390391  1  0  0  0  0 
390392  2  0  0  0  0 
184178  1  0  0  0  0 
181185  1  0  0  0  0 
181186  2  0  0  0  0 
182187  1  0  0  0  0 
183188  1  0  0  0  0 
184189  1  0  0  0  0 
184190  1  6  0  0  0 
188191  1  1  0  0  0 
191100  1  0  0  0  0 
179180  2  0  0  0  0 
182185  1  0  0  0  0 
189188  1  0  0  0  0 
 84 86  1  0  0  0  0 
189192  1  6  0  0  0 
 85 87  1  0  0  0  0 
192193  1  0  0  0  0 
193169  1  0  0  0  0 
394393  1  1  0  0  0 
394395  1  0  0  0  0 
395389  1  6  0  0  0 
395396  1  0  0  0  0 
396397  1  6  0  0  0 
396398  1  0  0  0  0 
398399  1  0  0  0  0 
394399  1  0  0  0  0 
398400  1  1  0  0  0 
400401  1  0  0  0  0 
401402  2  0  0  0  0 
402403  1  0  0  0  0 
403404  1  0  0  0  0 
404405  1  0  0  0  0 
404406  2  0  0  0  0 
406407  1  0  0  0  0 
407408  2  0  0  0  0 
408409  1  0  0  0  0 
403409  2  0  0  0  0 
400409  1  0  0  0  0 
 86 88  1  0  0  0  0 
393410  1  0  0  0  0 
193194  2  0  0  0  0 
 87 88  1  0  0  0  0 
193195  1  0  0  0  0 
 84 80  1  6  0  0  0 
 89 90  1  0  0  0  0 
 86 89  1  1  0  0  0 
 91 92  1  0  0  0  0 
 92 93  1  0  0  0  0 
 93 94  1  0  0  0  0 
 94 95  1  0  0  0  0 
 95 96  2  0  0  0  0 
 96 91  1  0  0  0  0 
 87 91  1  1  0  0  0 
 92 99  2  0  0  0  0 
 94 97  2  0  0  0  0 
 95 98  1  0  0  0  0 
 13 14  2  0  0  0  0 
412413  1  0  0  0  0 
412414  1  0  0  0  0 
413415  1  0  0  0  0 
414416  1  0  0  0  0 
415416  1  0  0  0  0 
412411  1  6  0  0  0 
417418  1  0  0  0  0 
414417  1  1  0  0  0 
419420  1  0  0  0  0 
420421  1  0  0  0  0 
421422  1  0  0  0  0 
422423  1  0  0  0  0 
423424  2  0  0  0  0 
424419  1  0  0  0  0 
415419  1  1  0  0  0 
420425  2  0  0  0  0 
422426  2  0  0  0  0 
423427  1  0  0  0  0 
 14  9  1  0  0  0  0 
  5  9  1  1  0  0  0 
428429  1  0  0  0  0 
429418  1  0  0  0  0 
196197  1  0  0  0  0 
429430  2  0  0  0  0 
196198  1  0  0  0  0 
429431  1  0  0  0  0 
197199  1  0  0  0  0 
198200  1  0  0  0  0 
199200  1  0  0  0  0 
196144  1  6  0  0  0 
201202  1  0  0  0  0 
198201  1  1  0  0  0 
203204  1  0  0  0  0 
204205  1  0  0  0  0 
205206  1  0  0  0  0 
206207  1  0  0  0  0 
207208  2  0  0  0  0 
208203  1  0  0  0  0 
199203  1  1  0  0  0 
204209  2  0  0  0  0 
206210  2  0  0  0  0 
207211  1  0  0  0  0 
 10 15  2  0  0  0  0 
 12 16  2  0  0  0  0 
212213  1  0  0  0  0 
432433  1  0  0  0  0 
432434  2  0  0  0  0 
432435  1  0  0  0  0 
436433  1  1  0  0  0 
433437  1  0  0  0  0 
434438  1  0  0  0  0 
434439  1  0  0  0  0 
435440  2  0  0  0  0 
436441  1  0  0  0  0 
442436  1  0  0  0  0 
439443  1  0  0  0  0 
439444  2  0  0  0  0 
440445  1  0  0  0  0 
441446  1  0  0  0  0 
442447  1  0  0  0  0 
442448  1  6  0  0  0 
446449  1  1  0  0  0 
449450  1  0  0  0  0 
437438  2  0  0  0  0 
440443  1  0  0  0  0 
447446  1  0  0  0  0 
447428  1  6  0  0  0 
213202  1  0  0  0  0 
 13 17  1  0  0  0  0 
213214  2  0  0  0  0 
 42 43  1  0  0  0  0 
451452  1  0  0  0  0 
452450  1  0  0  0  0 
452453  1  0  0  0  0 
452454  2  0  0  0  0 
213215  1  0  0  0  0 
 44 43  1  1  0  0  0 
 44 45  1  0  0  0  0 
 45 38  1  6  0  0  0 
 45 46  1  0  0  0  0 
 46 47  1  6  0  0  0 
 46 48  1  0  0  0  0 
 48 49  1  0  0  0  0 
 44 49  1  0  0  0  0 
 48 50  1  1  0  0  0 
 50 51  1  0  0  0  0 
 51 52  2  0  0  0  0 
 52 53  1  0  0  0  0 
 53 54  1  0  0  0  0 
 54 55  1  0  0  0  0 
101102  1  0  0  0  0 
101103  2  0  0  0  0 
216217  1  0  0  0  0 
216218  1  0  0  0  0 
455456  1  0  0  0  0 
455457  2  0  0  0  0 
455458  1  0  0  0  0 
459456  1  1  0  0  0 
456460  1  0  0  0  0 
457461  1  0  0  0  0 
457462  1  0  0  0  0 
458463  2  0  0  0  0 
459464  1  0  0  0  0 
465459  1  0  0  0  0 
462466  1  0  0  0  0 
462467  2  0  0  0  0 
463468  1  0  0  0  0 
464469  1  0  0  0  0 
465470  1  0  0  0  0 
465471  1  6  0  0  0 
469472  1  1  0  0  0 
472473  1  0  0  0  0 
460461  2  0  0  0  0 
463466  1  0  0  0  0 
470469  1  0  0  0  0 
470451  1  6  0  0  0 
217219  1  0  0  0  0 
218220  1  0  0  0  0 
219220  1  0  0  0  0 
216212  1  6  0  0  0 
474475  1  0  0  0  0 
475473  1  0  0  0  0 
475476  1  0  0  0  0 
475477  2  0  0  0  0 
221222  1  0  0  0  0 
218221  1  1  0  0  0 
223224  1  0  0  0  0 
224225  1  0  0  0  0 
225226  1  0  0  0  0 
226227  1  0  0  0  0 
227228  2  0  0  0  0 
228223  1  0  0  0  0 
219223  1  1  0  0  0 
224229  2  0  0  0  0 
226230  2  0  0  0  0 
227231  1  0  0  0  0 
101104  1  0  0  0  0 
105102  1  1  0  0  0 
232233  1  0  0  0  0 
233222  1  0  0  0  0 
478479  1  0  0  0  0 
478480  1  0  0  0  0 
479481  1  0  0  0  0 
480482  1  0  0  0  0 
481482  1  0  0  0  0 
478474  1  6  0  0  0 
483484  1  0  0  0  0 
480483  1  1  0  0  0 
485486  1  0  0  0  0 
486487  1  0  0  0  0 
487488  1  0  0  0  0 
488489  1  0  0  0  0 
489490  2  0  0  0  0 
490485  1  0  0  0  0 
481485  1  1  0  0  0 
486491  2  0  0  0  0 
488492  2  0  0  0  0 
489493  1  0  0  0  0 
102106  1  0  0  0  0 
233234  2  0  0  0  0 
494495  1  0  0  0  0 
495484  1  0  0  0  0 
103107  1  0  0  0  0 
495496  2  0  0  0  0 
233235  1  0  0  0  0 
495497  1  0  0  0  0 
103108  1  0  0  0  0 
104109  2  0  0  0  0 
105110  1  0  0  0  0 
111105  1  0  0  0  0 
108112  1  0  0  0  0 
108113  2  0  0  0  0 
109114  1  0  0  0  0 
110115  1  0  0  0  0 
111116  1  0  0  0  0 
111117  1  6  0  0  0 
115118  1  1  0  0  0 
118119  1  0  0  0  0 
106107  2  0  0  0  0 
109112  1  0  0  0  0 
116115  1  0  0  0  0 
 54 56  2  0  0  0  0 
116120  1  6  0  0  0 
 56 57  1  0  0  0  0 
120121  1  0  0  0  0 
498499  1  0  0  0  0 
498500  2  0  0  0  0 
498501  1  0  0  0  0 
502499  1  1  0  0  0 
499503  1  0  0  0  0 
500504  1  0  0  0  0 
500505  1  0  0  0  0 
501506  2  0  0  0  0 
502507  1  0  0  0  0 
508502  1  0  0  0  0 
505509  1  0  0  0  0 
505510  2  0  0  0  0 
506511  1  0  0  0  0 
507512  1  0  0  0  0 
508513  1  0  0  0  0 
508514  1  6  0  0  0 
512515  1  1  0  0  0 
515516  1  0  0  0  0 
503504  2  0  0  0  0 
506509  1  0  0  0  0 
513512  1  0  0  0  0 
513494  1  6  0  0  0 
236237  1  0  0  0  0 
236238  2  0  0  0  0 
236239  1  0  0  0  0 
240237  1  1  0  0  0 
517518  1  0  0  0  0 
518516  1  0  0  0  0 
518519  1  0  0  0  0 
518520  2  0  0  0  0 
237241  1  0  0  0  0 
238242  1  0  0  0  0 
238243  1  0  0  0  0 
239244  2  0  0  0  0 
240245  1  0  0  0  0 
246240  1  0  0  0  0 
243247  1  0  0  0  0 
243248  2  0  0  0  0 
244249  1  0  0  0  0 
245250  1  0  0  0  0 
246251  1  0  0  0  0 
246252  1  6  0  0  0 
250253  1  1  0  0  0 
253254  1  0  0  0  0 
241242  2  0  0  0  0 
521522  1  1  0  0  0 
521523  1  0  0  0  0 
524521  1  0  0  0  0 
522525  1  0  0  0  0 
522526  1  0  0  0  0 
523527  1  0  0  0  0 
524528  1  0  0  0  0 
524529  1  6  0  0  0 
525530  1  0  0  0  0 
525531  2  0  0  0  0 
526532  2  0  0  0  0 
527533  1  1  0  0  0 
528517  1  6  0  0  0 
530534  2  0  0  0  0 
534535  1  0  0  0  0 
528527  1  0  0  0  0 
532534  1  0  0  0  0 
244247  1  0  0  0  0 
533536  1  0  0  0  0 
251250  1  0  0  0  0 
251232  1  6  0  0  0 
537538  1  0  0  0  0 
538536  1  0  0  0  0 
121100  1  0  0  0  0 
538539  2  0  0  0  0 
 57 58  2  0  0  0  0 
538540  1  0  0  0  0 
121122  2  0  0  0  0 
 58 59  1  0  0  0  0 
121123  1  0  0  0  0 
 53 59  2  0  0  0  0 
 50 59  1  0  0  0  0 
 22 23  1  1  0  0  0 
 22 24  1  0  0  0  0 
 25 22  1  0  0  0  0 
 23 26  1  0  0  0  0 
 23 27  1  0  0  0  0 
 24 28  1  0  0  0  0 
 25 29  1  0  0  0  0 
 25 30  1  6  0  0  0 
 26 31  1  0  0  0  0 
 26 32  2  0  0  0  0 
541542  1  1  0  0  0 
541543  1  0  0  0  0 
544541  1  0  0  0  0 
542545  1  0  0  0  0 
542546  1  0  0  0  0 
543547  1  0  0  0  0 
544548  1  0  0  0  0 
544549  1  6  0  0  0 
545550  1  0  0  0  0 
545551  2  0  0  0  0 
546552  2  0  0  0  0 
547553  1  1  0  0  0 
548540  1  6  0  0  0 
550554  2  0  0  0  0 
554555  1  0  0  0  0 
548547  1  0  0  0  0 
552554  1  0  0  0  0 
 27 33  2  0  0  0  0 
553556  1  0  0  0  0 
 28 34  1  1  0  0  0 
255256  1  0  0  0  0 
255257  2  0  0  0  0 
255258  1  0  0  0  0 
259256  1  1  0  0  0 
256260  1  0  0  0  0 
257261  1  0  0  0  0 
257262  1  0  0  0  0 
258263  2  0  0  0  0 
259264  1  0  0  0  0 
265259  1  0  0  0  0 
262266  1  0  0  0  0 
262267  2  0  0  0  0 
263268  1  0  0  0  0 
264269  1  0  0  0  0 
265270  1  0  0  0  0 
265271  1  6  0  0  0 
558559  1  0  0  0  0 
558560  1  0  0  0  0 
559561  1  0  0  0  0 
560562  1  0  0  0  0 
561562  1  0  0  0  0 
558557  1  6  0  0  0 
563564  1  0  0  0  0 
560563  1  1  0  0  0 
565566  1  0  0  0  0 
566567  1  0  0  0  0 
567568  1  0  0  0  0 
568569  1  0  0  0  0 
569570  2  0  0  0  0 
570565  1  0  0  0  0 
561565  1  1  0  0  0 
566571  2  0  0  0  0 
568572  2  0  0  0  0 
569573  1  0  0  0  0 
269272  1  1  0  0  0 
272273  1  0  0  0  0 
260261  2  0  0  0  0 
263266  1  0  0  0  0 
270269  1  0  0  0  0 
 29 21  1  6  0  0  0 
270274  1  6  0  0  0 
 31 35  2  0  0  0  0 
 35 36  1  0  0  0  0 
 29 28  1  0  0  0  0 
 33 35  1  0  0  0  0 
275276  1  0  0  0  0 
276273  1  0  0  0  0 
276277  1  0  0  0  0 
276278  2  0  0  0  0 
124125  1  0  0  0  0 
274279  1  0  0  0  0 
279254  1  0  0  0  0 
124126  2  0  0  0  0 
574575  1  0  0  0  0 
574576  2  0  0  0  0 
574577  1  0  0  0  0 
578575  1  1  0  0  0 
575579  1  0  0  0  0 
576580  1  0  0  0  0 
576581  1  0  0  0  0 
577582  2  0  0  0  0 
578583  1  0  0  0  0 
584578  1  0  0  0  0 
581585  1  0  0  0  0 
581586  2  0  0  0  0 
582587  1  0  0  0  0 
583588  1  0  0  0  0 
584589  1  0  0  0  0 
584590  1  6  0  0  0 
588591  1  1  0  0  0 
591592  1  0  0  0  0 
579580  2  0  0  0  0 
582585  1  0  0  0  0 
589588  1  0  0  0  0 
279280  2  0  0  0  0 
589593  1  6  0  0  0 
124127  1  0  0  0  0 
279281  1  0  0  0  0 
128125  1  1  0  0  0 
125129  1  0  0  0  0 
126130  1  0  0  0  0 
126131  1  0  0  0  0 
127132  2  0  0  0  0 
128133  1  0  0  0  0 
134128  1  0  0  0  0 
131135  1  0  0  0  0 
131136  2  0  0  0  0 
132137  1  0  0  0  0 
133138  1  0  0  0  0 
134139  1  0  0  0  0 
134140  1  6  0  0  0 
138141  1  1  0  0  0 
141142  1  0  0  0  0 
129130  2  0  0  0  0 
132135  1  0  0  0  0 
139138  1  0  0  0  0 
282283  1  0  0  0  0 
284283  1  1  0  0  0 
284285  1  0  0  0  0 
285275  1  6  0  0  0 
285286  1  0  0  0  0 
594595  1  0  0  0  0 
595596  1  0  0  0  0 
596597  2  0  0  0  0 
596598  1  0  0  0  0 
598599  1  0  0  0  0 
599600  2  0  0  0  0 
600601  1  0  0  0  0 
601602  2  0  0  0  0 
602603  1  0  0  0  0 
598603  2  0  0  0  0 
594603  1  0  0  0  0 
594604  1  0  0  0  0 
604605  1  0  0  0  0 
605606  2  0  0  0  0 
606607  1  0  0  0  0 
607608  1  0  0  0  0 
607609  2  0  0  0  0 
609610  1  0  0  0  0 
604610  2  0  0  0  0 
610611  1  0  0  0  0 
611612  1  0  0  0  0 
612613  1  0  0  0  0 
613614  2  0  0  0  0 
614615  1  0  0  0  0 
614616  1  0  0  0  0 
616617  2  0  0  0  0 
617618  1  0  0  0  0 
594618  1  0  0  0  0 
612618  2  0  0  0  0 
286287  1  6  0  0  0 
286288  1  0  0  0  0 
288289  1  0  0  0  0 
284289  1  0  0  0  0 
288290  1  1  0  0  0 
290291  1  0  0  0  0 
291292  2  0  0  0  0 
292293  1  0  0  0  0 
293294  1  0  0  0  0 
294295  1  0  0  0  0 
294296  2  0  0  0  0 
296297  1  0  0  0  0 
297298  2  0  0  0  0 
298299  1  0  0  0  0 
293299  2  0  0  0  0 
290299  1  0  0  0  0 
139143  1  6  0  0  0 
300301  1  0  0  0  0 
301282  1  0  0  0  0 
 34 37  1  0  0  0  0 
615619  1  0  0  0  0 
620619  1  6  0  0  0 
620621  1  0  0  0  0 
621622  1  1  0  0  0 
621623  1  0  0  0  0 
623624  1  1  0  0  0 
623625  1  0  0  0  0 
625626  1  0  0  0  0 
620626  1  0  0  0  0 
625627  1  6  0  0  0 
627628  1  0  0  0  0 
628629  2  0  0  0  0 
629630  1  0  0  0  0 
630631  1  0  0  0  0 
631632  1  0  0  0  0 
631633  2  0  0  0  0 
633634  1  0  0  0  0 
634635  2  0  0  0  0 
635636  1  0  0  0  0 
630636  2  0  0  0  0 
627636  1  0  0  0  0 
622637  1  0  0  0  0 
637592  1  0  0  0  0 
637638  1  0  0  0  0 
637639  2  0  0  0  0 
301302  2  0  0  0  0 
593640  1  0  0  0  0 
640564  1  0  0  0  0 
 60 61  1  0  0  0  0 
640641  2  0  0  0  0 
301303  1  0  0  0  0 
640642  1  0  0  0  0 
 60 62  2  0  0  0  0 
557643  1  0  0  0  0 
643556  1  0  0  0  0 
 60 63  1  0  0  0  0 
643644  2  0  0  0  0 
144145  1  0  0  0  0 
643645  1  0  0  0  0 
145142  1  0  0  0  0 
411646  1  0  0  0  0 
646410  1  0  0  0  0 
145146  1  0  0  0  0 
646647  1  0  0  0  0 
145147  2  0  0  0  0 
646648  2  0  0  0  0 
 64 61  1  1  0  0  0 
 79649  1  0  0  0  0 
649 42  1  0  0  0  0 
143148  1  0  0  0  0 
649650  1  0  0  0  0 
148119  1  0  0  0  0 
649651  2  0  0  0  0 
M  END