
          11290712382D 1   1.00000     0.00000     0

 24 26  0     0  0            999 V2000
   -0.0806  -19.2291    0.0000 C   0  0  0  0  0  0           0  0  0
   -0.0818  -20.0565    0.0000 C   0  0  0  0  0  0           0  0  0
    0.6331  -20.4694    0.0000 C   0  0  0  0  0  0           0  0  0
    1.3495  -20.0560    0.0000 C   0  0  0  0  0  0           0  0  0
    1.3466  -19.2255    0.0000 C   0  0  0  0  0  0           0  0  0
    0.6313  -18.8164    0.0000 C   0  0  0  0  0  0           0  0  0
    2.0646  -20.4674    0.0000 C   0  0  0  0  0  0           0  0  0
    2.0659  -21.2924    0.0000 C   0  0  0  0  0  0           0  0  0
    1.3508  -21.7044    0.0000 C   0  0  0  0  0  0           0  0  0
    1.3517  -22.5287    0.0000 C   0  0  0  0  0  0           0  0  0
    2.0674  -22.9409    0.0000 C   0  0  0  0  0  0           0  0  0
    2.7836  -22.5228    0.0000 C   0  0  0  0  0  0           0  0  0
    2.7791  -21.7000    0.0000 C   0  0  0  0  0  0           0  0  0
    2.7784  -20.0538    0.0000 C   0  0  0  0  0  0           0  0  0
    3.4936  -20.4652    0.0000 C   0  0  0  0  0  0           0  0  0
    4.2074  -20.0515    0.0000 N   0  0  0  0  0  0           0  0  0
    4.9225  -20.4629    0.0000 C   0  0  0  0  0  0           0  0  0
    5.6363  -20.0493    0.0000 C   0  0  3  0  0  0           0  0  0
    4.9238  -21.2879    0.0000 O   0  0  0  0  0  0           0  0  0
    0.6303  -17.9971    0.0000 O   0  0  0  0  0  0           0  0  0
   -0.0854  -17.5868    0.0000 C   0  0  0  0  0  0           0  0  0
    6.4290  -20.2638    0.0000 C   0  0  0  0  0  0           0  0  0
    6.6413  -19.4666    0.0000 C   0  0  0  0  0  0           0  0  0
    5.8440  -19.2543    0.0000 C   0  0  0  0  0  0           0  0  0
 11 12  1  0     0  0
  6  1  1  0     0  0
 12 13  2  0     0  0
 13  8  1  0     0  0
  1  2  2  0     0  0
  7 14  2  0     0  0
  4  7  1  0     0  0
 14 15  1  0     0  0
  3  4  2  0     0  0
 15 16  1  0     0  0
  7  8  1  0     0  0
 16 17  1  0     0  0
 17 18  1  0     0  0
  8  9  2  0     0  0
 17 19  2  0     0  0
  4  5  1  0     0  0
  9 10  1  0     0  0
 20 21  1  0     0  0
  6 20  1  0     0  0
 18 22  1  0     0  0
  2  3  1  0     0  0
 10 11  2  0     0  0
  5  6  2  0     0  0
 22 23  1  0     0  0
 23 24  1  0     0  0
 24 18  1  0     0  0
M  END