
          03140815512D 1   1.00000     0.00000     0

 19 20  0     0  0            999 V2000
    4.6744    2.6763    0.0000 C   0  0  0  0  0  0           0  0  0
    4.6744    1.8469    0.0000 C   0  0  0  0  0  0           0  0  0
    5.3887    1.4344    0.0000 N   0  0  3  0  0  0           0  0  0
    6.1077    1.8469    0.0000 C   0  0  0  0  0  0           0  0  0
    6.1077    2.6763    0.0000 C   0  0  0  0  0  0           0  0  0
    5.3887    3.0933    0.0000 C   0  0  0  0  0  0           0  0  0
    5.3876    0.6095    0.0000 S   0  0  3  0  0  0           0  0  0
    5.3801   -0.2108    0.0000 N   0  0  0  0  0  0           0  0  0
    6.2125    0.6051    0.0000 O   0  0  0  0  0  0           0  0  0
    4.5627    0.6092    0.0000 O   0  0  0  0  0  0           0  0  0
    4.6619   -0.6167    0.0000 C   0  0  0  0  0  0           0  0  0
    3.9546   -0.1949    0.0000 C   0  0  0  0  0  0           0  0  0
    3.2370   -0.6002    0.0000 C   0  0  0  0  0  0           0  0  0
    3.2289   -1.4258    0.0000 C   0  0  0  0  0  0           0  0  0
    3.9446   -1.8448    0.0000 C   0  0  0  0  0  0           0  0  0
    4.6593   -1.4371    0.0000 C   0  0  0  0  0  0           0  0  0
    3.9400   -2.6696    0.0000 C   0  0  0  0  0  0           0  0  0
    3.2232   -3.0780    0.0000 C   0  0  0  0  0  0           0  0  0
    4.6520   -3.0861    0.0000 O   0  0  0  0  0  0           0  0  0
  2  3  1  0     0  0
  7 10  2  0     0  0
  3  4  1  0     0  0
  8 11  1  0     0  0
  4  5  1  0     0  0
 11 12  2  0     0  0
  5  6  1  0     0  0
 12 13  1  0     0  0
 13 14  2  0     0  0
  3  7  1  0     0  0
 14 15  1  0     0  0
  1  2  1  0     0  0
 15 16  2  0     0  0
 16 11  1  0     0  0
  7  8  1  0     0  0
 15 17  1  0     0  0
  1  6  1  0     0  0
 17 18  1  0     0  0
  7  9  2  0     0  0
 17 19  2  0     0  0
M  END