
          11280715122D 1   1.00000     0.00000     0

 18 19  0     0  0            999 V2000
    5.0500   -5.2167    0.0000 N   0  0  0  0  0  0           0  0  0
    5.5667   -6.1167    0.0000 N   0  0  0  0  0  0           0  0  0
    6.0917   -5.2167    0.0000 N   0  0  0  0  0  0           0  0  0
    6.0917   -5.8167    0.0000 C   0  0  0  0  0  0           0  0  0
    5.0500   -5.8167    0.0000 C   0  0  0  0  0  0           0  0  0
    5.5667   -4.9167    0.0000 C   0  0  0  0  0  0           0  0  0
    7.1292   -7.6292    0.0000 N   0  0  3  0  0  0           0  0  0
    6.6125   -6.1250    0.0000 S   0  0  0  0  0  0           0  0  0
    4.5292   -6.1292    0.0000 S   0  0  0  0  0  0           0  0  0
    5.5667   -4.3167    0.0000 N   0  0  0  0  0  0           0  0  0
    7.1292   -8.8292    0.0000 O   0  0  0  0  0  0           0  0  0
    6.6125   -6.7292    0.0000 C   0  0  0  0  0  0           0  0  0
    7.1292   -7.0292    0.0000 C   0  0  0  0  0  0           0  0  0
    6.6042   -7.9292    0.0000 C   0  0  0  0  0  0           0  0  0
    7.6500   -7.9292    0.0000 C   0  0  0  0  0  0           0  0  0
    7.6500   -8.5292    0.0000 C   0  0  0  0  0  0           0  0  0
    6.6042   -8.5375    0.0000 C   0  0  0  0  0  0           0  0  0
    4.0000   -5.8292    0.0000 C   0  0  0  0  0  0           0  0  0
  2  5  1  0     0  0
  3  6  2  0     0  0
  4  3  1  0     0  0
  5  1  2  0     0  0
  6  1  1  0     0  0
  7 13  1  0     0  0
  8  4  1  0     0  0
  9  5  1  0     0  0
 10  6  1  0     0  0
 11 16  1  0     0  0
 12  8  1  0     0  0
 13 12  1  0     0  0
 14  7  1  0     0  0
 15  7  1  0     0  0
 16 15  1  0     0  0
 17 14  1  0     0  0
 18  9  1  0     0  0
  4  2  2  0     0  0
 11 17  1  0     0  0
M  END