
  SciTegic04091511462D

 53 56  0  0  1  0            999 V2000
    4.2718   -3.4035    0.0000 N   0  0
    4.8878   -3.9522    0.0000 C   0  0
    5.2222   -2.3365    0.0000 C   0  0
    4.4390   -2.5956    0.0000 C   0  0  2  0  0  0
    5.3366   -5.3089    0.0000 N   0  0
    5.8383   -2.8852    0.0000 N   0  0
    7.5192   -5.3394    0.0000 N   0  0
    9.0857   -4.8211    0.0000 N   0  0
    8.0208   -2.9157    0.0000 N   0  0
    6.1199   -5.0497    0.0000 C   0  0
    8.1352   -5.8881    0.0000 C   0  0
    3.5595   -3.8198    0.0000 C   0  0
    4.7206   -4.7601    0.0000 C   0  0  2  0  0  0
    8.4696   -4.2724    0.0000 C   0  0
    7.2376   -3.1749    0.0000 C   0  0
    3.7353   -4.6258    0.0000 C   0  0
    6.7359   -5.5985    0.0000 C   0  0  2  0  0  0
    8.9184   -5.6290    0.0000 C   0  0  2  0  0  0
    8.6368   -3.4645    0.0000 C   0  0  2  0  0  0
    6.6215   -2.6261    0.0000 C   0  0  2  0  0  0
   10.3705   -2.1383    0.0000 C   0  0
    5.6711   -3.6931    0.0000 O   0  0
    5.3894   -1.5286    0.0000 O   0  0
    3.8229   -2.0469    0.0000 C   0  0
    6.2871   -4.2419    0.0000 O   0  0
    7.9680   -6.6960    0.0000 O   0  0
    7.0703   -3.9827    0.0000 O   0  0
    7.6864   -4.5315    0.0000 O   0  0
    6.5687   -6.4064    0.0000 C   0  0
    9.5345   -6.1777    0.0000 C   0  0
   10.5378   -1.3305    0.0000 O   0  0
    9.4201   -3.2053    0.0000 C   0  0
    9.5873   -2.3975    0.0000 C   0  0
   10.9866   -2.6871    0.0000 N   0  0
    6.7887   -1.8182    0.0000 C   0  0
    5.7854   -6.6655    0.0000 C   0  0
   10.3177   -5.9186    0.0000 C   0  0
    7.7392   -0.7512    0.0000 S   0  0
    3.0397   -2.3060    0.0000 C   0  0
    7.5720   -1.5591    0.0000 C   0  0
    8.5224   -0.4921    0.0000 C   0  0
    5.1694   -6.1167    0.0000 C   0  0
    5.6182   -7.4734    0.0000 C   0  0
   10.9338   -6.4673    0.0000 C   0  0
   10.4849   -5.1107    0.0000 C   0  0
    2.8725   -3.1139    0.0000 C   0  0
    2.4237   -1.7572    0.0000 C   0  0
    4.8350   -7.7325    0.0000 C   0  0
   11.7170   -6.2082    0.0000 C   0  0
   11.2682   -4.8516    0.0000 C   0  0
    4.3862   -6.3759    0.0000 C   0  0
    4.2190   -7.1837    0.0000 C   0  0
   11.8842   -5.4003    0.0000 C   0  0
  2  1  1  0
  3  4  1  0
  4  1  1  0
 13  5  1  6
  6  3  1  0
  7 17  1  0
  8 14  1  0
  9 15  1  0
 10  5  1  0
 11  7  1  0
 12  1  1  0
 13  2  1  0
 14 19  1  0
 15 20  1  0
 16 12  2  0
 17 10  1  0
 18 11  1  0
 19  9  1  0
 20  6  1  0
 21 33  1  0
 22  2  2  0
 23  3  2  0
  4 24  1  1
 25 10  2  0
 26 11  2  0
 27 15  2  0
 28 14  2  0
 17 29  1  1
 18 30  1  1
 31 21  2  0
 19 32  1  1
 33 32  1  0
 34 21  1  0
 20 35  1  1
 36 29  1  0
 37 30  1  0
 38 40  1  0
 39 24  1  0
 40 35  1  0
 41 38  1  0
 42 36  2  0
 43 36  1  0
 44 37  2  0
 45 37  1  0
 46 39  1  0
 47 39  1  0
 48 43  2  0
 49 44  1  0
 50 45  2  0
 51 42  1  0
 52 48  1  0
 53 50  1  0
 16 13  1  0
  8 18  1  0
 51 52  2  0
 53 49  2  0
M  END