
  SciTegic02011310442D

 32 35  0  0  0  0            999 V2000
   11.0580  -26.0191    0.0000 C   0  0
   11.7744  -25.6058    0.0000 C   0  0
   11.7715  -24.7753    0.0000 C   0  0
   11.0561  -24.3661    0.0000 C   0  0
   10.3431  -25.6062    0.0000 C   0  0
   10.3398  -24.7819    0.0000 C   0  0
    9.5548  -24.5303    0.0000 O   0  0
    9.0730  -25.1993    0.0000 C   0  0
    9.5602  -25.8640    0.0000 C   0  0
    8.2480  -25.2026    0.0000 C   0  0
   12.4844  -24.3600    0.0000 C   0  0
   13.2004  -24.7699    0.0000 N   0  0
   12.4813  -23.5350    0.0000 O   0  0
   13.9134  -24.3547    0.0000 C   0  0
   14.6278  -24.7679    0.0000 N   0  0
   15.3401  -24.3534    0.0000 C   0  0
   15.3375  -23.5276    0.0000 C   0  0
   14.6165  -23.1179    0.0000 N   0  0
   13.9070  -23.5348    0.0000 C   0  0
   16.0499  -23.1114    0.0000 C   0  0
   11.0578  -26.8441    0.0000 O   0  0
   11.7721  -27.2568    0.0000 C   0  0
   11.7678  -28.0800    0.0000 C   0  0
   12.4812  -28.4926    0.0000 N   0  0
   13.1968  -28.0802    0.0000 C   0  0
   13.1944  -27.2510    0.0000 N   0  0
   12.4803  -26.8421    0.0000 C   0  0
   13.9117  -28.4919    0.0000 C   0  0
   13.9126  -29.3169    0.0000 O   0  0
   14.6257  -28.0786    0.0000 N   0  0
   15.3406  -28.4904    0.0000 C   0  0
   14.6249  -27.2537    0.0000 C   0  0
  5  1  1  0
  1  2  2  0
  2  3  1  0
  3  4  2  0
  4  6  1  0
  5  6  2  0
  6  7  1  0
  7  8  1  0
  8  9  2  0
  9  5  1  0
  8 10  1  0
  3 11  1  0
 11 12  1  0
 11 13  2  0
 12 14  1  0
 14 15  2  0
 15 16  1  0
 16 17  2  0
 17 18  1  0
 18 19  2  0
 19 14  1  0
 17 20  1  0
  1 21  1  0
 21 22  1  0
 22 23  2  0
 23 24  1  0
 24 25  2  0
 25 26  1  0
 26 27  2  0
 27 22  1  0
 25 28  1  0
 28 29  2  0
 28 30  1  0
 30 31  1  0
 30 32  1  0
M  END