
          11280714442D 1   1.00000     0.00000     0

 26 27  0     0  0            999 V2000
    4.9250   -1.8792    0.0000 C   0  0  0  0  0  0           0  0  0
    4.5167   -1.1625    0.0000 O   0  0  0  0  0  0           0  0  0
    5.7500   -1.8792    0.0000 C   0  0  3  0  0  0           0  0  0
    3.6917   -1.1542    0.0000 C   0  0  0  0  0  0           0  0  0
    9.8625   -4.7417    0.0000 C   0  0  0  0  0  0           0  0  0
    4.5125   -2.5917    0.0000 O   0  0  0  0  0  0           0  0  0
    9.4500   -5.4625    0.0000 C   0  0  0  0  0  0           0  0  0
    9.4500   -4.0292    0.0000 C   0  0  0  0  0  0           0  0  0
    3.2750   -1.8667    0.0000 C   0  0  0  0  0  0           0  0  0
    8.6250   -5.4542    0.0000 C   0  0  0  0  0  0           0  0  0
    8.6292   -4.0292    0.0000 C   0  0  0  0  0  0           0  0  0
    6.1667   -1.1667    0.0000 O   0  0  0  0  0  0           0  0  0
    8.2125   -4.7417    0.0000 C   0  0  0  0  0  0           0  0  0
    6.9875   -2.6000    0.0000 N   0  0  0  0  0  0           0  0  0
   10.6875   -4.7417    0.0000 O   0  0  0  0  0  0           0  0  0
    9.8625   -6.1792    0.0000 O   0  0  0  0  0  0           0  0  0
    6.1625   -2.5917    0.0000 C   0  0  0  0  0  0           0  0  0
    3.2792   -0.4417    0.0000 C   0  0  0  0  0  0           0  0  0
    3.6875   -2.5875    0.0000 C   0  0  0  0  0  0           0  0  0
    2.4417   -1.8667    0.0000 C   0  0  0  0  0  0           0  0  0
    7.3917   -3.3125    0.0000 C   0  0  0  0  0  0           0  0  0
    8.2167   -3.3167    0.0000 C   0  0  0  0  0  0           0  0  0
   11.1000   -5.4542    0.0000 C   0  0  0  0  0  0           0  0  0
    9.4417   -6.8917    0.0000 C   0  0  0  0  0  0           0  0  0
    2.4542   -0.4375    0.0000 C   0  0  0  0  0  0           0  0  0
    2.0375   -1.1500    0.0000 C   0  0  0  0  0  0           0  0  0
  2  1  1  0     0  0
  3  1  1  0     0  0
  4  2  1  0     0  0
  5  8  2  0     0  0
  6  1  2  0     0  0
  7 10  2  0     0  0
  8 11  1  0     0  0
  9  4  2  0     0  0
 10 13  1  0     0  0
 11 22  1  0     0  0
 12  3  1  0     0  0
 13 11  2  0     0  0
 14 17  1  0     0  0
 15  5  1  0     0  0
 16  7  1  0     0  0
 17  3  1  0     0  0
 18  4  1  0     0  0
 19  9  1  0     0  0
 20  9  1  0     0  0
 21 14  1  0     0  0
 22 21  1  0     0  0
 23 15  1  0     0  0
 24 16  1  0     0  0
 25 18  2  0     0  0
 26 25  1  0     0  0
 26 20  2  0     0  0
  5  7  1  0     0  0
M  END