
          11280715262D 1   1.00000     0.00000     0

 22 24  0     0  0            999 V2000
    5.7917    0.3833    0.0000 C   0  0  3  0  0  0           0  0  0
    4.3542   -0.4375    0.0000 C   0  0  0  0  0  0           0  0  0
    0.0292   -0.5000    0.0000 N   0  0  0  0  0  0           0  0  0
    5.7917   -0.4417    0.0000 C   0  0  3  0  0  0           0  0  0
    5.0667   -0.8500    0.0000 N   0  0  0  0  0  0           0  0  0
    5.3792    1.0958    0.0000 C   0  0  0  0  0  0           0  0  0
    6.2042    1.0958    0.0000 C   0  0  0  0  0  0           0  0  0
   -0.1083   -1.8167    0.0000 N   0  0  0  0  0  0           0  0  0
   -0.5208   -1.1042    0.0000 C   0  0  0  0  0  0           0  0  0
    0.7792   -0.8375    0.0000 C   0  0  0  0  0  0           0  0  0
    0.6917   -1.6542    0.0000 C   0  0  0  0  0  0           0  0  0
    4.3542    0.3875    0.0000 O   0  0  0  0  0  0           0  0  0
    6.5042   -0.8542    0.0000 C   0  0  0  0  0  0           0  0  0
    3.6417   -0.8417    0.0000 O   0  0  0  0  0  0           0  0  0
    1.5042   -0.4292    0.0000 C   0  0  0  0  0  0           0  0  0
    6.4917   -1.6792    0.0000 C   0  0  0  0  0  0           0  0  0
    7.2042   -0.4417    0.0000 C   0  0  0  0  0  0           0  0  0
    2.9292   -0.4292    0.0000 C   0  0  0  0  0  0           0  0  0
    2.2167   -0.8417    0.0000 C   0  0  0  0  0  0           0  0  0
    7.9167   -0.8542    0.0000 C   0  0  0  0  0  0           0  0  0
    7.2042   -2.0917    0.0000 C   0  0  0  0  0  0           0  0  0
    7.9167   -1.6792    0.0000 C   0  0  0  0  0  0           0  0  0
  2  5  1  0     0  0
  3 10  1  0     0  0
  4  1  1  0     0  0
  5  4  1  0     0  0
  6  1  1  0     0  0
  7  1  1  0     0  0
  8 11  1  0     0  0
  9  3  2  0     0  0
 10 15  1  0     0  0
 11 10  2  0     0  0
 12  2  2  0     0  0
 13  4  1  0     0  0
 14  2  1  0     0  0
 15 19  1  0     0  0
 16 13  2  0     0  0
 17 13  1  0     0  0
 18 14  1  0     0  0
 19 18  1  0     0  0
 20 17  2  0     0  0
 21 16  1  0     0  0
 22 20  1  0     0  0
  7  6  1  0     0  0
 22 21  2  0     0  0
  8  9  1  0     0  0
M  END