
          11280715262D 1   1.00000     0.00000     0

 16 16  0     0  0            999 V2000
    1.8417   -1.8917    0.0000 N   0  0  0  0  0  0           0  0  0
    1.7042   -3.2125    0.0000 N   0  0  0  0  0  0           0  0  0
    1.2917   -2.5000    0.0000 C   0  0  0  0  0  0           0  0  0
    2.5917   -2.2292    0.0000 C   0  0  0  0  0  0           0  0  0
    2.5042   -3.0500    0.0000 C   0  0  0  0  0  0           0  0  0
    8.3167   -2.2500    0.0000 C   0  0  3  0  0  0           0  0  0
    5.4542   -2.2375    0.0000 O   0  0  0  0  0  0           0  0  0
    3.3167   -1.8250    0.0000 C   0  0  0  0  0  0           0  0  0
    7.6042   -1.8375    0.0000 C   0  0  0  0  0  0           0  0  0
    8.3042   -3.0750    0.0000 C   0  0  0  0  0  0           0  0  0
    9.0292   -1.8375    0.0000 C   0  0  0  0  0  0           0  0  0
    9.0292   -2.6625    0.0000 C   0  0  0  0  0  0           0  0  0
    6.1667   -1.8292    0.0000 C   0  0  0  0  0  0           0  0  0
    4.7417   -1.8250    0.0000 C   0  0  0  0  0  0           0  0  0
    4.0292   -2.2375    0.0000 C   0  0  0  0  0  0           0  0  0
    6.8792   -2.2417    0.0000 C   0  0  0  0  0  0           0  0  0
  2  3  1  0     0  0
  3  1  2  0     0  0
  4  1  1  0     0  0
  5  4  2  0     0  0
  6  9  1  0     0  0
  7 14  1  0     0  0
  8  4  1  0     0  0
  9 16  1  0     0  0
 10  6  1  0     0  0
 11  6  1  0     0  0
 12  6  1  0     0  0
 13  7  1  0     0  0
 14 15  1  0     0  0
 15  8  1  0     0  0
 16 13  1  0     0  0
  5  2  1  0     0  0
M  END