
  SciTegic03161210572D

 39 41  0  0  0  0            999 V2000
   22.9690  -19.2323    0.0000 F   0  0
   23.3851  -19.9480    0.0000 C   0  0
   23.7968  -19.2298    0.0000 F   0  0
   23.0771  -21.0715    0.0000 F   0  0
   22.6694  -20.3600    0.0000 C   0  0
   22.2570  -21.0689    0.0000 F   0  0
   21.5417  -19.2323    0.0000 F   0  0
   21.9578  -19.9480    0.0000 C   0  0
   22.3696  -19.2298    0.0000 F   0  0
   21.6499  -21.0715    0.0000 F   0  0
   21.2421  -20.3600    0.0000 C   0  0
   20.8298  -21.0689    0.0000 F   0  0
   20.1145  -19.2323    0.0000 F   0  0
   20.5305  -19.9480    0.0000 C   0  0
   20.9424  -19.2298    0.0000 F   0  0
   20.2227  -21.0715    0.0000 F   0  0
   19.8149  -20.3600    0.0000 C   0  0
   19.4026  -21.0689    0.0000 F   0  0
   18.3918  -20.3642    0.0000 N   0  0
   19.1053  -19.9522    0.0000 C   0  0
   19.1053  -19.1283    0.0000 O   0  0
   24.0998  -20.3642    0.0000 C   0  0
   24.8134  -19.9522    0.0000 N   0  0
   24.0998  -21.1881    0.0000 O   0  0
   25.5269  -20.3642    0.0000 O   0  0
   17.6783  -19.9522    0.0000 C   0  0
   17.6833  -19.1272    0.0000 C   0  0
   16.9706  -18.7154    0.0000 C   0  0
   16.9720  -20.3637    0.0000 C   0  0
   16.2587  -19.9555    0.0000 C   0  0
   16.2576  -19.1282    0.0000 C   0  0
   15.5418  -18.7174    0.0000 C   0  0
   15.5482  -20.3702    0.0000 C   0  0
   14.8318  -19.9631    0.0000 C   0  0
   14.8300  -19.1348    0.0000 C   0  0
   14.1128  -18.7240    0.0000 C   0  0
   13.3970  -19.1404    0.0000 C   0  0
   13.4029  -19.9719    0.0000 C   0  0
   14.1205  -20.3790    0.0000 C   0  0
 11  8  1  0
  8  5  1  0
  5  2  1  0
 14 13  1  0
  2 22  1  0
 15 14  1  0
 22 23  1  0
  9  8  1  0
 22 24  2  0
  5  4  1  0
 23 25  1  0
  6  5  1  0
 19 26  1  0
 17 16  1  0
 26 27  2  0
 18 17  1  0
 27 28  1  0
 28 31  2  0
 30 29  2  0
 29 26  1  0
 11 10  1  0
 12 11  1  0
 30 31  1  0
  2  1  1  0
 31 32  1  0
 32 35  2  0
  3  2  1  0
 34 33  2  0
 33 30  1  0
 19 20  1  0
 20 17  1  0
 34 35  1  0
  8  7  1  0
 35 36  1  0
 20 21  2  0
 36 37  2  0
 17 14  1  0
 37 38  1  0
 14 11  1  0
 38 39  2  0
 39 34  1  0
M  END