
          11280715152D 1   1.00000     0.00000     0

 17 18  0     0  0            999 V2000
    0.3417   -2.2792    0.0000 N   0  0  3  0  0  0           0  0  0
    0.6417   -3.0542    0.0000 C   0  0  0  0  0  0           0  0  0
   -0.4833   -2.3292    0.0000 C   0  0  0  0  0  0           0  0  0
    2.4417   -1.6667    0.0000 C   0  0  0  0  0  0           0  0  0
    1.6167   -1.6292    0.0000 C   0  0  0  0  0  0           0  0  0
    3.7125   -1.0167    0.0000 N   0  0  3  0  0  0           0  0  0
    0.7917   -1.5917    0.0000 C   0  0  3  0  0  0           0  0  0
    0.0042   -3.5750    0.0000 C   0  0  0  0  0  0           0  0  0
   -0.6875   -3.1250    0.0000 C   0  0  0  0  0  0           0  0  0
   -1.0083   -1.6917    0.0000 O   0  0  0  0  0  0           0  0  0
    1.4417   -3.2625    0.0000 O   0  0  0  0  0  0           0  0  0
    3.2667   -1.7125    0.0000 C   0  0  0  0  0  0           0  0  0
    3.4125   -0.2542    0.0000 C   0  0  0  0  0  0           0  0  0
    4.5292   -0.9792    0.0000 C   0  0  0  0  0  0           0  0  0
    0.4167   -0.8542    0.0000 C   0  0  0  0  0  0           0  0  0
    4.0542    0.2708    0.0000 C   0  0  0  0  0  0           0  0  0
    4.7417   -0.1792    0.0000 C   0  0  0  0  0  0           0  0  0
  2  1  1  0     0  0
  3  1  1  0     0  0
  4  5  3  0     0  0
  5  7  1  0     0  0
  6 12  1  0     0  0
  7  1  1  0     0  0
  8  2  1  0     0  0
  9  3  1  0     0  0
 10  3  2  0     0  0
 11  2  2  0     0  0
 12  4  1  0     0  0
 13  6  1  0     0  0
 14  6  1  0     0  0
 15  7  1  0     0  0
 16 13  1  0     0  0
 17 14  1  0     0  0
  9  8  1  0     0  0
 17 16  1  0     0  0
M  END