
          02060813482D 1   1.00000     0.00000     0

 44 47  0     0  0            999 V2000
    6.2111  -14.4041    0.0000 C   0  0  0  0  0  0           0  0  0
    6.2099  -15.2315    0.0000 C   0  0  0  0  0  0           0  0  0
    6.9247  -15.6444    0.0000 C   0  0  0  0  0  0           0  0  0
    7.6412  -15.2310    0.0000 C   0  0  0  0  0  0           0  0  0
    7.6383  -14.4005    0.0000 C   0  0  0  0  0  0           0  0  0
    6.9229  -13.9914    0.0000 C   0  0  0  0  0  0           0  0  0
    5.4951  -15.6434    0.0000 Cl  0  0  0  0  0  0           0  0  0
    6.9205  -13.1664    0.0000 C   0  0  0  0  0  0           0  0  0
    7.6337  -12.7517    0.0000 N   0  0  3  0  0  0           0  0  0
    7.6312  -11.9267    0.0000 C   0  0  0  0  0  0           0  0  0
    8.3445  -11.5121    0.0000 C   0  0  3  0  0  0           0  0  0
    6.9155  -11.5164    0.0000 O   0  0  0  0  0  0           0  0  0
    8.3512  -13.9853    0.0000 O   0  0  0  0  0  0           0  0  0
    8.3563  -15.6424    0.0000 C   0  0  0  0  0  0           0  0  0
    8.3527  -16.4678    0.0000 C   0  0  0  0  0  0           0  0  0
    9.0670  -16.8791    0.0000 C   0  0  0  0  0  0           0  0  0
    9.7818  -16.4654    0.0000 C   0  0  0  0  0  0           0  0  0
    9.7778  -15.6361    0.0000 C   0  0  0  0  0  0           0  0  0
    9.0630  -15.2285    0.0000 N   0  0  0  0  0  0           0  0  0
   10.4902  -15.2200    0.0000 O   0  0  0  0  0  0           0  0  0
   10.4974  -16.8758    0.0000 C   0  0  0  0  0  0           0  0  0
   11.2083  -17.2875    0.0000 N   0  0  0  0  0  0           0  0  0
    9.0679  -17.7041    0.0000 C   0  0  0  0  0  0           0  0  0
    8.3544  -18.1124    0.0000 C   0  0  0  0  0  0           0  0  0
    8.3550  -18.9366    0.0000 C   0  0  0  0  0  0           0  0  0
    9.0704  -19.3492    0.0000 C   0  0  0  0  0  0           0  0  0
    9.7868  -18.9315    0.0000 C   0  0  0  0  0  0           0  0  0
    9.7827  -18.1086    0.0000 C   0  0  0  0  0  0           0  0  0
    7.6406  -17.6988    0.0000 Cl  0  0  0  0  0  0           0  0  0
   10.5032  -19.3407    0.0000 C   0  0  3  0  0  0           0  0  0
   11.2125  -19.7500    0.0000 F   0  0  0  0  0  0           0  0  0
   10.9139  -18.6252    0.0000 F   0  0  0  0  0  0           0  0  0
   10.0977  -20.0591    0.0000 F   0  0  0  0  0  0           0  0  0
    8.3494  -13.1621    0.0000 C   0  0  0  0  0  0           0  0  0
    9.0549  -11.9253    0.0000 C   0  0  0  0  0  0           0  0  0
    9.7660  -11.5141    0.0000 C   0  0  0  0  0  0           0  0  0
    9.7678  -10.6888    0.0000 N   0  0  3  0  0  0           0  0  0
    9.0523  -10.2762    0.0000 C   0  0  0  0  0  0           0  0  0
    8.3349  -10.6890    0.0000 C   0  0  0  0  0  0           0  0  0
   10.4826  -10.2769    0.0000 C   0  0  0  0  0  0           0  0  0
   11.1968  -10.6899    0.0000 C   0  0  0  0  0  0           0  0  0
   11.9115  -10.2780    0.0000 C   0  0  0  0  0  0           0  0  0
   12.6257  -10.6911    0.0000 C   0  0  0  0  0  0           0  0  0
   13.3405  -10.2791    0.0000 C   0  0  0  0  0  0           0  0  0
  2  3  1  0     0  0
 21 22  3  0     0  0
 10 11  1  0     0  0
 16 23  1  0     0  0
  5  6  2  0     0  0
 23 24  2  0     0  0
 10 12  2  0     0  0
 24 25  1  0     0  0
  6  1  1  0     0  0
 25 26  2  0     0  0
  5 13  1  0     0  0
 26 27  1  0     0  0
  1  2  2  0     0  0
 27 28  2  0     0  0
 28 23  1  0     0  0
  4 14  1  0     0  0
 24 29  1  0     0  0
  2  7  1  0     0  0
 27 30  1  0     0  0
 14 15  2  0     0  0
 30 31  1  0     0  0
  3  4  2  0     0  0
 30 32  1  0     0  0
 15 16  1  0     0  0
 30 33  1  0     0  0
  6  8  1  0     0  0
  9 34  1  0     0  0
 11 35  1  0     0  0
 16 17  2  0     0  0
 17 18  1  0     0  0
  8  9  1  0     0  0
 18 19  1  0     0  0
 11 39  1  0     0  0
 35 36  1  0     0  0
 36 37  1  0     0  0
 37 38  1  0     0  0
 38 39  1  0     0  0
 19 14  1  0     0  0
 37 40  1  0     0  0
  4  5  1  0     0  0
 40 41  1  0     0  0
 18 20  2  0     0  0
 41 42  1  0     0  0
  9 10  1  0     0  0
 42 43  1  0     0  0
 17 21  1  0     0  0
 43 44  1  0     0  0
M  END