
          11280714442D 1   1.00000     0.00000     0

 21 21  0     0  0            999 V2000
    1.8542   -4.0625    0.0000 C   0  0  0  0  0  0           0  0  0
    2.5542   -3.6167    0.0000 C   0  0  0  0  0  0           0  0  0
    3.2792   -4.0000    0.0000 O   0  0  0  0  0  0           0  0  0
    1.1250   -3.6792    0.0000 C   0  0  0  0  0  0           0  0  0
    2.5167   -2.7917    0.0000 O   0  0  0  0  0  0           0  0  0
    6.1417   -3.8667    0.0000 N   0  0  0  0  0  0           0  0  0
    4.7125   -3.9292    0.0000 C   0  0  3  0  0  0           0  0  0
    3.9792   -3.5542    0.0000 C   0  0  0  0  0  0           0  0  0
    5.4042   -3.4875    0.0000 C   0  0  0  0  0  0           0  0  0
    1.9000   -4.8792    0.0000 C   0  0  0  0  0  0           0  0  0
    1.0875   -2.8542    0.0000 O   0  0  0  0  0  0           0  0  0
    4.7500   -4.7542    0.0000 O   0  0  0  0  0  0           0  0  0
    6.8375   -3.4250    0.0000 C   0  0  3  0  0  0           0  0  0
    0.4292   -4.1292    0.0000 C   0  0  0  0  0  0           0  0  0
    1.7792   -2.4125    0.0000 C   0  0  0  0  0  0           0  0  0
    1.7417   -1.5875    0.0000 C   0  0  0  0  0  0           0  0  0
    6.8000   -2.6000    0.0000 C   0  0  0  0  0  0           0  0  0
    7.5667   -3.8042    0.0000 C   0  0  0  0  0  0           0  0  0
    1.2042   -5.3292    0.0000 C   0  0  0  0  0  0           0  0  0
    2.4417   -1.1417    0.0000 C   0  0  0  0  0  0           0  0  0
    0.4667   -4.9500    0.0000 C   0  0  0  0  0  0           0  0  0
  2  1  1  0     0  0
  3  2  1  0     0  0
  4  1  2  0     0  0
  5  2  2  0     0  0
  6  9  1  0     0  0
  7  8  1  0     0  0
  8  3  1  0     0  0
  9  7  1  0     0  0
 10  1  1  0     0  0
 11  4  1  0     0  0
 12  7  1  0     0  0
 13  6  1  0     0  0
 14  4  1  0     0  0
 15 11  1  0     0  0
 16 15  1  0     0  0
 17 13  1  0     0  0
 18 13  1  0     0  0
 19 10  2  0     0  0
 20 16  1  0     0  0
 21 19  1  0     0  0
 21 14  2  0     0  0
M  END