
          11280715192D 1   1.00000     0.00000     0

 38 39  0     1  0            999 V2000
   10.8750   -5.4292    0.0000 C   0  0  0  0  0  0           0  0  0
    0.1542   -2.5417    0.0000 C   0  0  0  0  0  0           0  0  0
    0.8667   -2.9542    0.0000 C   0  0  0  0  0  0           0  0  0
   10.1542   -5.0167    0.0000 C   0  0  0  0  0  0           0  0  0
   10.8667   -6.2542    0.0000 C   0  0  0  0  0  0           0  0  0
   11.5792   -5.0167    0.0000 C   0  0  0  0  0  0           0  0  0
    0.1542   -1.7125    0.0000 C   0  0  0  0  0  0           0  0  0
   -0.5583   -2.9500    0.0000 C   0  0  0  0  0  0           0  0  0
    9.4417   -3.7792    0.0000 C   0  0  0  0  0  0           0  0  0
    1.5792   -4.1917    0.0000 C   0  0  0  0  0  0           0  0  0
    0.8667   -3.7792    0.0000 C   0  0  1  0  0  0           0  0  0
   10.1542   -4.1917    0.0000 C   0  0  2  0  0  0           0  0  0
   12.2917   -5.4292    0.0000 C   0  0  0  0  0  0           0  0  0
   -0.5583   -1.3000    0.0000 C   0  0  0  0  0  0           0  0  0
   -1.2708   -2.5417    0.0000 C   0  0  0  0  0  0           0  0  0
   11.5792   -6.6667    0.0000 C   0  0  0  0  0  0           0  0  0
   12.3000   -6.2542    0.0000 C   0  0  0  0  0  0           0  0  0
   -1.2750   -1.7125    0.0000 C   0  0  0  0  0  0           0  0  0
    9.4417   -2.9542    0.0000 O   0  0  0  0  0  0           0  0  0
    1.5792   -5.0167    0.0000 O   0  0  0  0  0  0           0  0  0
    8.7250   -4.1917    0.0000 N   0  0  0  0  0  0           0  0  0
    2.2917   -3.7792    0.0000 N   0  0  0  0  0  0           0  0  0
    0.1542   -4.1917    0.0000 N   0  0  0  0  0  0           0  0  0
   10.8750   -3.7792    0.0000 N   0  0  0  0  0  0           0  0  0
   13.0042   -6.6667    0.0000 O   0  0  0  0  0  0           0  0  0
   -1.9958   -1.3042    0.0000 O   0  0  0  0  0  0           0  0  0
   10.1542   -6.6667    0.0000 C   0  0  0  0  0  0           0  0  0
   11.5792   -4.1917    0.0000 C   0  0  0  0  0  0           0  0  0
    0.8667   -1.3042    0.0000 C   0  0  0  0  0  0           0  0  0
   -0.5250   -3.5875    0.0000 C   0  0  0  0  0  0           0  0  0
    3.0042   -4.1917    0.0000 C   0  0  0  0  0  0           0  0  0
    8.0125   -3.7792    0.0000 C   0  0  0  0  0  0           0  0  0
    7.2917   -4.1917    0.0000 C   0  0  0  0  0  0           0  0  0
    3.7250   -3.7792    0.0000 C   0  0  0  0  0  0           0  0  0
    5.8667   -4.1917    0.0000 C   0  0  0  0  0  0           0  0  0
    6.5792   -3.7792    0.0000 C   0  0  0  0  0  0           0  0  0
    4.4375   -4.1917    0.0000 C   0  0  0  0  0  0           0  0  0
    5.1542   -3.7792    0.0000 C   0  0  0  0  0  0           0  0  0
  2  3  1  0     0  0
 11  3  1  1     0  0
  4  1  1  0     0  0
  5  1  2  0     0  0
  6  1  1  0     0  0
  7  2  2  0     0  0
  8  2  1  0     0  0
  9 12  1  0     0  0
 10 22  1  0     0  0
 11 10  1  0     0  0
 12  4  1  6     0  0
 13  6  2  0     0  0
 14  7  1  0     0  0
 15  8  2  0     0  0
 16  5  1  0     0  0
 17 13  1  0     0  0
 18 15  1  0     0  0
 19  9  2  0     0  0
 20 10  2  0     0  0
 21  9  1  0     0  0
 22 31  1  0     0  0
 23 11  1  0     0  0
 24 12  1  0     0  0
 25 17  1  0     0  0
 26 18  1  0     0  0
 27  5  1  0     0  0
 28  6  1  0     0  0
 29  7  1  0     0  0
 30  8  1  0     0  0
 31 34  1  0     0  0
 32 21  1  0     0  0
 33 32  1  0     0  0
 34 37  1  0     0  0
 35 36  1  0     0  0
 36 33  1  0     0  0
 37 38  1  0     0  0
 38 35  1  0     0  0
 16 17  2  0     0  0
 14 18  2  0     0  0
M  END