
  SciTegic05171617292D

 17 18  0  0  0  0            999 V2000
    3.6378   -0.9001    0.0000 O   0  0
    2.5988   -1.5004    0.0000 S   0  0
    3.6383   -2.0999    0.0000 O   0  0
    2.5997   -3.0012    0.0000 O   0  0
    3.8995   -3.7516    0.0000 C   0  0
    4.0404   -5.2322    0.0000 C   0  0
    5.5083   -5.5410    0.0000 S   0  0
    4.7904   -6.5027    0.0000 O   0  0
    6.7037   -5.6463    0.0000 O   0  0
    6.2556   -4.2405    0.0000 C   0  0
    5.2496   -3.1278    0.0000 C   0  0
    1.2990   -0.7500    0.0000 C   0  0
    1.2990    0.7500    0.0000 C   0  0
    0.0000    1.5000    0.0000 C   0  0
   -1.2990    0.7500    0.0000 C   0  0
   -1.2990   -0.7500    0.0000 C   0  0
    0.0000   -1.5000    0.0000 C   0  0
  1  2  2  0
  2  3  2  0
  2  4  1  0
  4  5  1  0
  5  6  1  0
  6  7  1  0
  7  8  2  0
  7  9  2  0
  7 10  1  0
 10 11  2  0
  5 11  1  0
  2 12  1  0
 12 13  2  0
 13 14  1  0
 14 15  2  0
 15 16  1  0
 16 17  2  0
 12 17  1  0
M  END