
  SciTegic04301217312D

 26 28  0  0  0  0            999 V2000
    9.6397    1.1052    0.0000 C   0  0  1  0  0  0
   10.4790    1.0789    0.0000 C   0  0  2  0  0  0
   10.8741    0.3547    0.0000 C   0  0  2  0  0  0
   10.4332   -0.3341    0.0000 C   0  0
    9.5951   -0.3132    0.0000 C   0  0  2  0  0  0
   10.1807    0.0390    0.0000 C   0  0
   10.2033    0.7162    0.0000 C   0  0
    9.1975    0.4101    0.0000 N   0  0
    8.3660    0.4347    0.0000 C   0  0
   10.9235    1.7756    0.0000 C   0  0
   11.7627    1.7491    0.0000 O   0  0
   10.5247    2.4986    0.0000 O   0  0
   12.2072    2.4457    0.0000 C   0  0
   11.7183    0.3259    0.0000 C   0  0
   12.1099   -0.3999    0.0000 C   0  0
   12.9494   -0.4291    0.0000 C   0  0
   13.3973    0.2679    0.0000 C   0  0
   12.9997    0.9955    0.0000 C   0  0
   12.1575    1.0210    0.0000 C   0  0
   14.2385    0.2401    0.0000 C   0  0
    7.9912    1.1170    0.0000 C   0  0
    7.1972    1.1404    0.0000 C   0  0
    9.1327    1.6911    0.0000 H   0  0
    9.0547   -0.8684    0.0000 H   0  0
    6.8298    1.8225    0.0000 C   0  0
    6.0553    1.8454    0.0000 F   0  0
  3  4  1  0
 11 13  1  0
  4  5  1  0
  3 14  1  1
  5  6  1  0
 14 15  2  0
  6  7  1  0
 15 16  1  0
  1  7  1  0
 16 17  2  0
  1  8  1  0
 17 18  1  0
  5  8  1  0
 18 19  2  0
 19 14  1  0
  8  9  1  0
 17 20  1  0
  9 21  1  0
  2 10  1  1
 21 22  2  0
  1  2  1  0
  1 23  1  6
 10 11  1  0
  5 24  1  6
  2  3  1  0
 22 25  1  0
 10 12  2  0
 25 26  1  0
M  END