
  SciTegic02131210002D

 30 32  0  0  0  0            999 V2000
   -0.3417  -21.6000    0.0000 O   0  0
    0.0750  -20.8875    0.0000 S   0  0
   -0.7504  -20.8829    0.0000 O   0  0
   -2.7667  -17.5875    0.0000 C   0  0
   -2.7667  -18.4125    0.0000 C   0  0
   -2.0546  -18.8208    0.0000 N   0  0
   -1.3426  -18.4125    0.0000 C   0  0
   -1.3426  -17.5875    0.0000 N   0  0
   -2.0546  -17.1708    0.0000 C   0  0
   -0.6306  -18.8250    0.0000 C   0  0
   -0.6331  -19.6511    0.0000 C   0  0
    0.0799  -20.0645    0.0000 C   0  0
    0.7959  -19.6530    0.0000 C   0  0
    0.7945  -18.8237    0.0000 C   0  0
    0.0809  -18.4140    0.0000 C   0  0
    0.7920  -21.3034    0.0000 N   0  0
    0.7881  -22.1256    0.0000 C   0  0
    1.4976  -22.5394    0.0000 C   0  0
    2.2153  -22.1318    0.0000 N   0  0
    2.2189  -21.3059    0.0000 C   0  0
    1.5048  -20.8875    0.0000 C   0  0
   -2.0546  -16.3458    0.0000 O   0  0
   -3.4805  -18.8260    0.0000 C   0  0
   -3.4793  -19.6510    0.0000 C   0  0
    0.0798  -17.5890    0.0000 O   0  0
    0.7937  -17.1756    0.0000 C   0  0
    1.5087  -17.5872    0.0000 C   0  0
    2.2227  -17.1737    0.0000 C   0  0
    2.9274  -22.5484    0.0000 C   0  0
   -3.4823  -17.1771    0.0000 Cl  0  0
  7 10  1  0
 12  2  1  0
  6  7  2  0
  2 16  1  0
 16 17  1  0
  7  8  1  0
  8  9  1  0
  3  2  2  0
  4  5  2  0
 10 11  2  0
 16 21  1  0
 17 18  1  0
 18 19  1  0
 19 20  1  0
 20 21  1  0
  9 22  2  0
 11 12  1  0
  5 23  1  0
  2  1  2  0
 23 24  1  0
 12 13  2  0
 15 25  1  0
  4  9  1  0
 25 26  1  0
 13 14  1  0
 26 27  1  0
  5  6  1  0
 27 28  1  0
 14 15  2  0
 19 29  1  0
 15 10  1  0
  4 30  1  0
M  END