
  CDK    6/4/10,11:42

 33 34  0  0  0  0  0  0  0  0999 V2000
   -0.1505   -8.3902    0.0000 C   0  0  0  0  0  0  0  0  0  0  0  0
   -0.8659   -8.7982    0.0000 C   0  0  0  0  0  0  0  0  0  0  0  0
   -0.8664   -9.6224    0.0000 C   0  0  0  0  0  0  0  0  0  0  0  0
   -0.1515  -10.0359    0.0000 C   0  0  0  0  0  0  0  0  0  0  0  0
    0.5654   -9.6192    0.0000 C   0  0  0  0  0  0  0  0  0  0  0  0
    0.5624   -8.7963    0.0000 C   0  0  0  0  0  0  0  0  0  0  0  0
    1.2812  -10.0293    0.0000 C   0  0  0  0  0  0  0  0  0  0  0  0
    1.9943   -9.6145    0.0000 C   0  0  0  0  0  0  0  0  0  0  0  0
    2.7102  -10.0246    0.0000 C   0  0  0  0  0  0  0  0  0  0  0  0
    3.4233   -9.6098    0.0000 N   0  0  0  0  0  0  0  0  0  0  0  0
    2.7129  -10.8496    0.0000 O   0  0  0  0  0  0  0  0  0  0  0  0
   -0.1506  -10.8609    0.0000 C   0  0  0  0  0  0  0  0  0  0  0  0
    0.5643  -11.2726    0.0000 C   0  0  0  0  0  0  0  0  0  0  0  0
    0.5652  -12.0976    0.0000 C   0  0  0  0  0  0  0  0  0  0  0  0
    1.2801  -12.5094    0.0000 O   0  0  0  0  0  0  0  0  0  0  0  0
   -0.1488  -12.5109    0.0000 O   0  0  0  0  0  0  0  0  0  0  0  0
   -0.8639   -6.3250    0.0000 C   0  0  0  0  0  0  0  0  0  0  0  0
   -0.8651   -7.1523    0.0000 C   0  0  0  0  0  0  0  0  0  0  0  0
   -0.1503   -7.5652    0.0000 C   0  0  0  0  0  0  0  0  0  0  0  0
    0.5662   -7.1519    0.0000 C   0  0  0  0  0  0  0  0  0  0  0  0
    0.5633   -6.3213    0.0000 C   0  0  0  0  0  0  0  0  0  0  0  0
   -0.1521   -5.9122    0.0000 C   0  0  0  0  0  0  0  0  0  0  0  0
    1.2762   -5.9061    0.0000 O   0  0  0  0  0  0  0  0  0  0  0  0
    1.9922   -6.3159    0.0000 C   0  0  0  0  0  0  0  0  0  0  0  0
    2.7052   -5.9008    0.0000 C   0  0  0  0  0  0  0  0  0  0  0  0
    3.4212   -6.3106    0.0000 C   0  0  0  0  0  0  0  0  0  0  0  0
    4.1341   -5.8954    0.0000 C   0  0  0  0  0  0  0  0  0  0  0  0
    3.4243   -7.1356    0.0000 C   0  0  0  0  0  0  0  0  0  0  0  0
   -1.5785   -5.9126    0.0000 O   0  0  0  0  0  0  0  0  0  0  0  0
   -2.2929   -6.3253    0.0000 C   0  0  0  0  0  0  0  0  0  0  0  0
   -3.0074   -5.9130    0.0000 C   0  0  0  0  0  0  0  0  0  0  0  0
   -3.7218   -6.3256    0.0000 C   0  0  0  0  0  0  0  0  0  0  0  0
   -4.4364   -5.9133    0.0000 N   0  0  0  0  0  0  0  0  0  0  0  0
  7  8  1  0  0  0  0 
 17 18  2  0  0  0  0 
  8  9  1  0  0  0  0 
 18 19  1  0  0  0  0 
  4  5  1  0  0  0  0 
 19 20  2  0  0  0  0 
  9 10  1  0  0  0  0 
 20 21  1  0  0  0  0 
  2  3  1  0  0  0  0 
 21 22  2  0  0  0  0 
 22 17  1  0  0  0  0 
 19  1  1  0  0  0  0 
  9 11  2  0  0  0  0 
 21 23  1  0  0  0  0 
  5  6  2  0  0  0  0 
 23 24  1  0  0  0  0 
  4 12  1  0  0  0  0 
 24 25  1  0  0  0  0 
  6  1  1  0  0  0  0 
 25 26  1  0  0  0  0 
 12 13  1  0  0  0  0 
 26 27  1  0  0  0  0 
  1  2  2  0  0  0  0 
 26 28  1  0  0  0  0 
 13 14  1  0  0  0  0 
 17 29  1  0  0  0  0 
  5  7  1  0  0  0  0 
 29 30  1  0  0  0  0 
 14 15  2  0  0  0  0 
 30 31  1  0  0  0  0 
  3  4  2  0  0  0  0 
 31 32  1  0  0  0  0 
 14 16  1  0  0  0  0 
 32 33  1  0  0  0  0 
M  END