
  SciTegic01161211222D

 30 32  0  0  0  0            999 V2000
   -5.5660    1.5449    0.0000 C   0  0
   -5.5671    0.7177    0.0000 C   0  0
   -4.8528    0.3049    0.0000 C   0  0
   -4.8545    1.9576    0.0000 C   0  0
   -4.1396    1.5483    0.0000 C   0  0
   -4.1365    0.7156    0.0000 C   0  0
   -3.4177    0.3044    0.0000 O   0  0
   -2.6976    0.7212    0.0000 C   0  0
   -2.7007    1.5539    0.0000 C   0  0  1  0  0  0
   -3.4242    1.9698    0.0000 O   0  0
   -1.9875    1.9684    0.0000 C   0  0
   -1.2719    1.5580    0.0000 N   0  0
   -0.5587    1.9726    0.0000 C   0  0
    0.1570    1.5621    0.0000 C   0  0
    0.8702    1.9767    0.0000 O   0  0
    1.5859    1.5662    0.0000 C   0  0
    1.5832    0.7423    0.0000 C   0  0
    2.2980    0.3319    0.0000 C   0  0
    3.0123    0.7466    0.0000 C   0  0
    0.8686    0.3301    0.0000 O   0  0
    0.8683   -0.4949    0.0000 C   0  0
    2.2919    1.9824    0.0000 C   0  0
    3.0052    1.5727    0.0000 C   0  0
    3.7174    1.9892    0.0000 C   0  0
    4.4336    1.5762    0.0000 C   0  0
    5.1453    1.9919    0.0000 C   0  0
    5.1413    2.8178    0.0000 C   0  0
    4.4195    3.2262    0.0000 C   0  0
    3.7109    2.8081    0.0000 C   0  0
   -1.3775    2.4788    0.0000 Cl  0  0
 13 14  1  0
  2  3  1  0
 14 15  1  0
  3  6  2  0
 15 16  1  0
 16 17  2  0
  5  4  2  0
 17 18  1  0
  5 10  1  0
 18 19  2  0
 19 23  1  0
 22 16  1  0
  6  7  1  0
 17 20  1  0
  7  8  1  0
 20 21  1  0
 22 23  2  0
  8  9  1  0
  9 10  1  0
  4  1  1  0
 23 24  1  0
  9 11  1  1
 24 25  2  0
  5  6  1  0
 25 26  1  0
 11 12  1  0
 26 27  2  0
  1  2  2  0
 27 28  1  0
 12 13  1  0
 28 29  2  0
 29 24  1  0
M  END