
  SciTegic03291108562D

 24 26  0  0  0  0            999 V2000
   -1.5542   -2.2613    0.0000 O   0  0
   -0.1252   -2.2613    0.0000 O   0  0
   -5.1265    3.1012    0.0000 O   0  0
   -0.8397    0.6262    0.0000 N   0  0
   -4.4120    1.8637    0.0000 N   0  0
   -0.1252   -0.6113    0.0000 C   0  0
   -0.1252    0.2137    0.0000 C   0  0
   -0.8397   -1.0238    0.0000 C   0  0
   -1.5542    0.2137    0.0000 C   0  0
   -1.5542   -0.6113    0.0000 C   0  0
   -2.2686    0.6262    0.0000 C   0  0
    0.5893    0.6262    0.0000 C   0  0
    0.5893   -1.0238    0.0000 C   0  0
   -0.8397   -1.8488    0.0000 C   0  0
    1.3037    0.2137    0.0000 C   0  0
    1.3037   -0.6113    0.0000 C   0  0
   -2.9831    0.2137    0.0000 C   0  0
   -2.2686    1.4512    0.0000 C   0  0
   -3.6976    1.4512    0.0000 C   0  0
   -3.6976    0.6262    0.0000 C   0  0
   -2.9831    1.8637    0.0000 C   0  0
    2.0182    0.6262    0.0000 C   0  0
   -4.4120    2.6887    0.0000 C   0  0
   -3.6976    3.1012    0.0000 C   0  0
  1 14  2  0
  2 14  1  0
  3 23  2  0
  4  7  2  0
  4  9  1  0
  5 19  1  0
  5 23  1  0
  6  7  1  0
  6  8  2  0
  6 13  1  0
  7 12  1  0
  8 10  1  0
  8 14  1  0
  9 10  2  0
  9 11  1  0
 11 17  2  0
 11 18  1  0
 12 15  2  0
 13 16  2  0
 15 16  1  0
 15 22  1  0
 17 20  1  0
 18 21  2  0
 19 20  2  0
 19 21  1  0
 23 24  1  0
M  END