
  SciTegic07111214002D

 31 33  0  0  0  0            999 V2000
   -1.9583    1.3000    0.0000 N   0  0
   -0.8750    2.0917    0.0000 C   0  0
   -1.1292    1.3000    0.0000 N   0  0
   -1.5417    2.5750    0.0000 C   0  0
   -2.2167    2.0917    0.0000 C   0  0
   -0.1542    2.4958    0.0000 C   0  0
   -2.4458    0.6333    0.0000 C   0  0
    0.5542    2.0750    0.0000 N   0  0
   -2.0375   -0.0792    0.0000 C   0  0
    1.2750    2.4792    0.0000 N   0  0
   -2.9333    2.5000    0.0000 C   0  0
   -3.2708    0.6417    0.0000 C   0  0
   -2.4542   -0.7917    0.0000 C   0  0
   -0.1458    3.3208    0.0000 O   0  0
   -3.6417    2.0875    0.0000 C   0  0
   -2.9292    3.3250    0.0000 C   0  0
   -3.2833   -0.7875    0.0000 C   0  0
   -1.5417    3.4000    0.0000 C   0  0
   -1.2125   -0.0833    0.0000 Cl  0  0
   -3.6875   -0.0667    0.0000 C   0  0
   -4.3583    3.3250    0.0000 C   0  0
   -3.6417    3.7375    0.0000 C   0  0
   -4.3542    2.4958    0.0000 C   0  0
   -3.7000   -1.4958    0.0000 Cl  0  0
   -5.0708    3.7375    0.0000 Cl  0  0
    1.2833    3.3000    0.0000 C   0  0
    1.9875    2.0542    0.0000 C   0  0
    2.7042    2.4583    0.0000 C   0  0
    2.0042    3.7042    0.0000 C   0  0
    2.7167    3.2833    0.0000 C   0  0
    2.8563    0.7188    0.0000 Cl  0  0
  2  3  2  0
  3  1  1  0
  4  5  2  0
  5  1  1  0
  6  2  1  0
  7  1  1  0
  8  6  1  0
  9  7  1  0
 10  8  1  0
 11  5  1  0
 12  7  2  0
 13  9  2  0
 14  6  2  0
 15 11  1  0
 16 11  2  0
 17 13  1  0
 18  4  1  0
 19  9  1  0
 20 12  1  0
 21 22  2  0
 22 16  1  0
 23 15  2  0
 24 17  1  0
 25 21  1  0
 26 10  1  0
 27 10  1  0
 28 27  1  0
 29 26  1  0
 30 29  1  0
  4  2  1  0
 17 20  2  0
 23 21  1  0
 30 28  1  0
M  END