
          11280715342D 1   1.00000     0.00000     0

 16 15  0     0  0            999 V2000
    4.5792   -7.0250    0.0000 N   0  0  3  0  0  0           0  0  0
    4.5792   -7.8500    0.0000 C   0  0  0  0  0  0           0  0  0
    3.8667   -6.6125    0.0000 C   0  0  0  0  0  0           0  0  0
    6.7250   -7.4375    0.0000 C   0  0  0  0  0  0           0  0  0
    6.0042   -7.0250    0.0000 C   0  0  0  0  0  0           0  0  0
    8.1542   -7.4375    0.0000 N   0  3  3  0  0  0           0  0  0
    5.2917   -6.6125    0.0000 C   0  0  3  0  0  0           0  0  0
    3.8667   -8.2625    0.0000 O   0  0  0  0  0  0           0  0  0
    3.8667   -5.7875    0.0000 O   0  0  0  0  0  0           0  0  0
    7.4375   -7.8500    0.0000 C   0  0  0  0  0  0           0  0  0
    5.2917   -8.2625    0.0000 C   0  0  0  0  0  0           0  0  0
    3.1542   -7.0250    0.0000 C   0  0  0  0  0  0           0  0  0
    8.9042   -7.7667    0.0000 C   0  0  0  0  0  0           0  0  0
    8.2417   -6.6042    0.0000 C   0  0  0  0  0  0           0  0  0
    8.8667   -7.0167    0.0000 C   0  0  0  0  0  0           0  0  0
    5.2917   -5.7875    0.0000 C   0  0  0  0  0  0           0  0  0
  2  1  1  0     0  0
  3  1  1  0     0  0
  4  5  3  0     0  0
  5  7  1  0     0  0
  6 10  1  0     0  0
  7  1  1  0     0  0
  8  2  2  0     0  0
  9  3  2  0     0  0
 10  4  1  0     0  0
 11  2  1  0     0  0
 12  3  1  0     0  0
 13  6  1  0     0  0
 14  6  1  0     0  0
 15  6  1  0     0  0
 16  7  1  0     0  0
M  CHG  1   6   1
M  END