
  SciTegic02011310422D

 22 25  0  0  0  0            999 V2000
    6.9424  -16.6495    0.0000 C   0  0
    7.6607  -17.0575    0.0000 C   0  0
    8.3719  -16.6394    0.0000 C   0  0
    8.3647  -15.8134    0.0000 C   0  0
    7.6464  -15.4053    0.0000 C   0  0
    6.9352  -15.8234    0.0000 C   0  0
   10.5226  -17.8564    0.0000 C   0  0
   10.5175  -17.0339    0.0000 C   0  0
    9.7993  -16.6258    0.0000 C   0  0
    9.0880  -17.0439    0.0000 C   0  0
    9.0952  -17.8700    0.0000 C   0  0
    9.8115  -18.2745    0.0000 N   0  0
   11.3117  -18.1075    0.0000 N   0  0
   11.3032  -16.7719    0.0000 C   0  0
   11.7910  -17.4341    0.0000 C   0  0
   11.7236  -16.0624    0.0000 C   0  0
   12.5479  -16.0716    0.0000 C   0  0
   12.9689  -15.3620    0.0000 C   0  0
   12.5655  -14.6433    0.0000 C   0  0
   11.7412  -14.6341    0.0000 C   0  0
   11.3202  -15.3436    0.0000 C   0  0
    6.2312  -17.0708    0.0000 N   0  0
  1  2  1  0
  2  3  2  0
  3  4  1  0
  4  5  2  0
  5  6  1  0
  1  6  2  0
  7  8  1  0
  8  9  2  0
  9 10  1  0
 10 11  2  0
 11 12  1  0
  7 12  2  0
 14 15  2  0
 13 15  1  0
  7 13  1  0
  8 14  1  0
 16 17  1  0
 17 18  2  0
 18 19  1  0
 19 20  2  0
 20 21  1  0
 16 21  2  0
 14 16  1  0
  3 10  1  0
  1 22  1  0
M  END