
          11280715052D 1   1.00000     0.00000     0

 48 52  0     0  0            999 V2000
    2.9667   -1.4875    0.0000 S   0  0  3  0  0  0           0  0  0
    3.6875   -2.7167    0.0000 C   0  0  0  0  0  0           0  0  0
    3.6875   -1.8917    0.0000 N   0  0  0  0  0  0           0  0  0
    4.4042   -3.1250    0.0000 C   0  0  0  0  0  0           0  0  0
    2.9792   -3.1292    0.0000 N   0  0  0  0  0  0           0  0  0
    3.6917   -4.3667    0.0000 N   0  0  0  0  0  0           0  0  0
    2.9792   -3.9542    0.0000 C   0  0  0  0  0  0           0  0  0
    4.4125   -3.9500    0.0000 C   0  0  0  0  0  0           0  0  0
    5.1167   -2.7042    0.0000 O   0  0  0  0  0  0           0  0  0
    8.7000   -3.9167    0.0000 N   0  0  0  0  0  0           0  0  0
    2.2667   -4.3750    0.0000 C   0  0  0  0  0  0           0  0  0
    7.9875   -4.3375    0.0000 C   0  0  0  0  0  0           0  0  0
    2.2542   -1.9042    0.0000 C   0  0  0  0  0  0           0  0  0
    5.1042   -1.8792    0.0000 C   0  0  0  0  0  0           0  0  0
    3.5542   -0.9000    0.0000 O   0  0  0  0  0  0           0  0  0
    2.3792   -0.9000    0.0000 O   0  0  0  0  0  0           0  0  0
    9.4167   -4.3167    0.0000 C   0  0  0  0  0  0           0  0  0
    2.2667   -5.1917    0.0000 N   0  0  0  0  0  0           0  0  0
    1.5542   -3.9542    0.0000 N   0  0  0  0  0  0           0  0  0
   10.1167   -3.9042    0.0000 N   0  0  0  0  0  0           0  0  0
    0.1125   -3.1417    0.0000 C   0  0  3  0  0  0           0  0  0
    0.8292   -2.7292    0.0000 C   0  0  0  0  0  0           0  0  0
    7.9917   -5.1625    0.0000 O   0  0  0  0  0  0           0  0  0
    5.8167   -1.4667    0.0000 C   0  0  0  0  0  0           0  0  0
    2.2542   -2.7292    0.0000 C   0  0  0  0  0  0           0  0  0
    1.5417   -1.4917    0.0000 C   0  0  0  0  0  0           0  0  0
    1.5417   -3.1417    0.0000 C   0  0  0  0  0  0           0  0  0
    0.8292   -1.9042    0.0000 C   0  0  0  0  0  0           0  0  0
    5.1292   -4.3542    0.0000 O   0  0  0  0  0  0           0  0  0
    7.2667   -3.9292    0.0000 O   0  0  0  0  0  0           0  0  0
    6.5375   -1.8750    0.0000 O   0  0  0  0  0  0           0  0  0
    0.8417   -5.2000    0.0000 C   0  0  0  0  0  0           0  0  0
    1.5625   -5.6042    0.0000 C   0  0  0  0  0  0           0  0  0
    0.8417   -4.3667    0.0000 C   0  0  0  0  0  0           0  0  0
    4.3917   -1.4792    0.0000 C   0  0  0  0  0  0           0  0  0
   10.8292   -4.3042    0.0000 C   0  0  0  0  0  0           0  0  0
   -0.6000   -2.7292    0.0000 C   0  0  0  0  0  0           0  0  0
    0.1125   -3.9667    0.0000 C   0  0  0  0  0  0           0  0  0
   -0.6083   -3.5500    0.0000 C   0  0  0  0  0  0           0  0  0
    9.4167   -5.1500    0.0000 C   0  0  0  0  0  0           0  0  0
    5.8125   -0.6417    0.0000 C   0  0  0  0  0  0           0  0  0
    5.8417   -3.9375    0.0000 C   0  0  0  0  0  0           0  0  0
    6.5542   -4.3417    0.0000 C   0  0  0  0  0  0           0  0  0
    6.5417   -2.7000    0.0000 C   0  0  0  0  0  0           0  0  0
   10.8417   -5.1375    0.0000 C   0  0  0  0  0  0           0  0  0
    4.3792   -0.6542    0.0000 C   0  0  0  0  0  0           0  0  0
   10.1292   -5.5542    0.0000 C   0  0  0  0  0  0           0  0  0
    5.0917   -0.2292    0.0000 C   0  0  0  0  0  0           0  0  0
  2  3  1  0     0  0
  3  1  1  0     0  0
  4  2  1  0     0  0
  5  2  2  0     0  0
  6  7  2  0     0  0
  7  5  1  0     0  0
  8  4  2  0     0  0
  9  4  1  0     0  0
 10 12  1  0     0  0
 11  7  1  0     0  0
 12 30  1  0     0  0
 13  1  1  0     0  0
 14  9  1  0     0  0
 15  1  2  0     0  0
 16  1  2  0     0  0
 17 10  1  0     0  0
 18 11  1  0     0  0
 19 11  2  0     0  0
 20 17  1  0     0  0
 21 22  1  0     0  0
 22 28  2  0     0  0
 23 12  2  0     0  0
 24 14  2  0     0  0
 25 13  1  0     0  0
 26 13  2  0     0  0
 27 25  2  0     0  0
 28 26  1  0     0  0
 29  8  1  0     0  0
 30 43  1  0     0  0
 31 24  1  0     0  0
 32 34  2  0     0  0
 33 18  2  0     0  0
 34 19  1  0     0  0
 35 14  1  0     0  0
 36 20  2  0     0  0
 37 21  1  0     0  0
 38 21  1  0     0  0
 39 21  1  0     0  0
 40 17  2  0     0  0
 41 24  1  0     0  0
 42 29  1  0     0  0
 43 42  1  0     0  0
 44 31  1  0     0  0
 45 47  2  0     0  0
 46 35  2  0     0  0
 47 40  1  0     0  0
 48 46  1  0     0  0
 27 22  1  0     0  0
  8  6  1  0     0  0
 32 33  1  0     0  0
 48 41  2  0     0  0
 45 36  1  0     0  0
M  END