
          11280715092D 1   1.00000     0.00000     0

 14 15  0     0  0            999 V2000
   -0.0083    2.6083    0.0000 C   0  0  3  0  0  0           0  0  0
   -0.7208    2.1958    0.0000 C   0  0  0  0  0  0           0  0  0
    0.7042    2.1958    0.0000 C   0  0  0  0  0  0           0  0  0
    0.7042    3.0208    0.0000 C   0  0  0  0  0  0           0  0  0
   -1.4458    2.6083    0.0000 N   0  0  0  0  0  0           0  0  0
   -0.7208    1.3708    0.0000 O   0  0  0  0  0  0           0  0  0
   -2.1625    2.1875    0.0000 C   0  0  0  0  0  0           0  0  0
   -3.5958    1.3583    0.0000 C   0  0  0  0  0  0           0  0  0
   -0.0083    3.4375    0.0000 C   0  0  0  0  0  0           0  0  0
   -2.8833    2.6000    0.0000 C   0  0  0  0  0  0           0  0  0
   -2.1625    1.3583    0.0000 C   0  0  0  0  0  0           0  0  0
   -3.5958    2.1875    0.0000 C   0  0  0  0  0  0           0  0  0
   -2.8833    0.9458    0.0000 C   0  0  0  0  0  0           0  0  0
   -4.3125    0.9333    0.0000 O   0  0  0  0  0  0           0  0  0
  2  1  1  0     0  0
  3  1  1  0     0  0
  4  1  1  0     0  0
  5  2  1  0     0  0
  6  2  2  0     0  0
  7  5  1  0     0  0
  8 13  1  0     0  0
  9  1  1  0     0  0
 10  7  2  0     0  0
 11  7  1  0     0  0
 12 10  1  0     0  0
 13 11  2  0     0  0
 14  8  1  0     0  0
  3  4  1  0     0  0
  8 12  2  0     0  0
M  END