
  SciTegic02271514582D

 34 38  0  0  0  0            999 V2000
    4.3404   -3.2605    0.0000 C   0  0
    4.3393   -4.0800    0.0000 C   0  0
    5.0473   -4.4890    0.0000 C   0  0
    5.0455   -2.8516    0.0000 C   0  0
    5.7542   -3.2569    0.0000 C   0  0
    5.7549   -4.0759    0.0000 C   0  0
    6.4635   -4.4830    0.0000 N   0  0
    7.1717   -4.0721    0.0000 C   0  0
    7.1670   -3.2500    0.0000 C   0  0
    6.4579   -2.8466    0.0000 C   0  0
    3.6326   -2.8520    0.0000 C   0  0
    3.6324   -2.0349    0.0000 C   0  0
    2.9250   -3.2608    0.0000 C   0  0
    2.9221   -2.4433    0.0000 O   0  0
    4.2992   -1.5556    0.0000 N   0  0
    4.0465   -0.7784    0.0000 C   0  0
    3.2293   -0.7786    0.0000 N   0  0
    2.9771   -1.5559    0.0000 C   0  0
    2.2173   -2.8507    0.0000 C   0  0
    1.5102   -3.2587    0.0000 C   0  0
    1.5099   -4.0768    0.0000 C   0  0
    2.2227   -4.4851    0.0000 C   0  0
    2.9269   -4.0746    0.0000 C   0  0
    0.8029   -4.4865    0.0000 Cl  0  0
    5.0758   -1.8100    0.0000 C   0  0
    6.4535   -2.0295    0.0000 Cl  0  0
    7.8722   -2.8371    0.0000 C   0  0
    8.5824   -3.2414    0.0000 C   0  0
    7.8810   -4.4780    0.0000 Cl  0  0
    8.5827   -4.0581    0.0000 C   0  0
    9.2921   -4.4624    0.0000 C   0  0
    9.9983   -4.0494    0.0000 C   0  0
    9.9906   -3.2280    0.0000 C   0  0
    9.2807   -2.8275    0.0000 C   0  0
  1  2  2  0
  2  3  1  0
  3  6  2  0
  5  4  2  0
  4  1  1  0
  5  6  1  0
  6  7  1  0
  7  8  2  0
  8  9  1  0
  9 10  2  0
 10  5  1  0
  1 11  1  0
 11 12  1  0
 11 13  1  0
 11 14  1  0
 12 15  1  0
 15 16  1  0
 16 17  2  0
 17 18  1  0
 18 12  2  0
 13 19  2  0
 19 20  1  0
 20 21  2  0
 21 22  1  0
 22 23  2  0
 23 13  1  0
 21 24  1  0
 15 25  1  0
 10 26  1  0
  9 27  1  0
 27 28  1  0
  8 29  1  0
 28 30  2  0
 30 31  1  0
 31 32  2  0
 32 33  1  0
 33 34  2  0
 34 28  1  0
M  END