
  CDK    9/16/09,9:48

 28 32  0  0  0  0  0  0  0  0999 V2000
   12.6116  -11.1486    0.0000 O   0  0  0  0  0  0  0  0  0  0  0  0
   11.8226  -11.4063    0.0000 C   0  0  0  0  0  0  0  0  0  0  0  0
   11.8265  -12.2344    0.0000 C   0  0  0  0  0  0  0  0  0  0  0  0
   12.6153  -12.4872    0.0000 C   0  0  0  0  0  0  0  0  0  0  0  0
   13.0999  -11.8156    0.0000 C   0  0  0  0  0  0  0  0  0  0  0  0
   11.1561  -10.9261    0.0000 C   0  0  0  0  0  0  0  0  0  0  0  0
   11.2413  -10.1053    0.0000 C   0  0  0  0  0  0  0  0  0  0  0  0
   10.5739   -9.6231    0.0000 C   0  0  0  0  0  0  0  0  0  0  0  0
    9.8211   -9.9605    0.0000 N   0  0  0  0  0  0  0  0  0  0  0  0
    9.7397  -10.7849    0.0000 C   0  0  0  0  0  0  0  0  0  0  0  0
   10.4079  -11.2634    0.0000 C   0  0  0  0  0  0  0  0  0  0  0  0
   11.1627  -12.7221    0.0000 C   0  0  0  0  0  0  0  0  0  0  0  0
   10.4080  -12.3884    0.0000 C   0  0  0  0  0  0  0  0  0  0  0  0
    9.7438  -12.8749    0.0000 C   0  0  0  0  0  0  0  0  0  0  0  0
   11.2534  -13.5378    0.0000 C   0  0  0  0  0  0  0  0  0  0  0  0
   10.5924  -14.0264    0.0000 C   0  0  0  0  0  0  0  0  0  0  0  0
    9.8284  -13.6949    0.0000 C   0  0  0  0  0  0  0  0  0  0  0  0
    9.2771  -14.3192    0.0000 C   0  0  0  0  0  0  0  0  0  0  0  0
    9.7004  -15.0364    0.0000 C   0  0  0  0  0  0  0  0  0  0  0  0
   10.5132  -14.8554    0.0000 C   0  0  0  0  0  0  0  0  0  0  0  0
    8.4566  -14.2408    0.0000 N   0  0  0  0  0  0  0  0  0  0  0  0
    7.9787  -14.9122    0.0000 O   0  0  0  0  0  0  0  0  0  0  0  0
   13.9224  -11.8131    0.0000 C   0  0  0  0  0  0  0  0  0  0  0  0
   14.3356  -12.5273    0.0000 C   0  0  0  0  0  0  0  0  0  0  0  0
   15.1562  -12.5265    0.0000 C   0  0  0  0  0  0  0  0  0  0  0  0
   15.5696  -11.8132    0.0000 N   0  0  0  0  0  0  0  0  0  0  0  0
   15.1565  -11.0991    0.0000 C   0  0  0  0  0  0  0  0  0  0  0  0
   14.3296  -11.0982    0.0000 C   0  0  0  0  0  0  0  0  0  0  0  0
 13 14  1  0  0  0  0 
 14 17  2  0  0  0  0 
  1  2  1  0  0  0  0 
 16 15  2  0  0  0  0 
 15 12  1  0  0  0  0 
  3 12  1  0  0  0  0 
 16 17  1  0  0  0  0 
  7  8  1  0  0  0  0 
  3  4  1  0  0  0  0 
  8  9  2  0  0  0  0 
  4  5  2  0  0  0  0 
  9 10  1  0  0  0  0 
 17 18  1  0  0  0  0 
 18 19  1  0  0  0  0 
 19 20  1  0  0  0  0 
 20 16  1  0  0  0  0 
  5  1  1  0  0  0  0 
 18 21  2  0  0  0  0 
 10 11  2  0  0  0  0 
 21 22  1  0  0  0  0 
 23 24  1  0  0  0  0 
 11  6  1  0  0  0  0 
  2  6  1  0  0  0  0 
  2  3  2  0  0  0  0 
 12 13  2  0  0  0  0 
  6  7  2  0  0  0  0 
 23 28  1  0  0  0  0 
 24 25  1  0  0  0  0 
 25 26  1  0  0  0  0 
 26 27  1  0  0  0  0 
 27 28  1  0  0  0  0 
  5 23  1  0  0  0  0 
M  END