
          11280715262D 1   1.00000     0.00000     0

 32 35  0     0  0            999 V2000
    6.6542   -2.4667    0.0000 N   0  3  0  0  0  0           0  0  0
    0.9917    2.5333    0.0000 C   0  0  0  0  0  0           0  0  0
    1.6417    2.0333    0.0000 N   0  0  3  0  0  0           0  0  0
    6.6542   -1.6500    0.0000 C   0  0  0  0  0  0           0  0  0
    5.9375   -1.2417    0.0000 C   0  0  0  0  0  0           0  0  0
    1.2667    3.3000    0.0000 O   0  0  0  0  0  0           0  0  0
    5.9417   -2.8792    0.0000 O   0  5  0  0  0  0           0  0  0
    5.9375   -0.4167    0.0000 C   0  0  0  0  0  0           0  0  0
    7.3667   -2.8750    0.0000 O   0  0  0  0  0  0           0  0  0
    1.6417    1.2083    0.0000 C   0  0  3  0  0  0           0  0  0
    0.2000    2.2958    0.0000 O   0  0  0  0  0  0           0  0  0
    5.2167   -0.0042    0.0000 C   0  0  0  0  0  0           0  0  0
   -1.9250   -0.0292    0.0000 N   0  0  0  0  0  0           0  0  0
    2.3625    0.8000    0.0000 C   0  0  0  0  0  0           0  0  0
    5.2125    0.8208    0.0000 C   0  0  0  0  0  0           0  0  0
    4.5042   -0.4250    0.0000 C   0  0  0  0  0  0           0  0  0
    3.0750    1.2125    0.0000 O   0  0  0  0  0  0           0  0  0
    0.9292    0.7958    0.0000 C   0  0  0  0  0  0           0  0  0
    3.7917    0.8083    0.0000 C   0  0  0  0  0  0           0  0  0
    2.3167    2.4875    0.0000 C   0  0  0  0  0  0           0  0  0
    2.0917    3.2750    0.0000 C   0  0  0  0  0  0           0  0  0
    0.2167    1.2000    0.0000 C   0  0  0  0  0  0           0  0  0
    3.7917   -0.0167    0.0000 C   0  0  0  0  0  0           0  0  0
    4.4917    1.2208    0.0000 C   0  0  0  0  0  0           0  0  0
   -0.4958    0.7875    0.0000 C   0  0  0  0  0  0           0  0  0
    7.3667   -1.2292    0.0000 C   0  0  0  0  0  0           0  0  0
    6.6417   -0.0042    0.0000 C   0  0  0  0  0  0           0  0  0
    7.3542   -0.4042    0.0000 C   0  0  0  0  0  0           0  0  0
   -1.9250    0.7875    0.0000 C   0  0  0  0  0  0           0  0  0
   -1.2125   -0.4500    0.0000 C   0  0  0  0  0  0           0  0  0
   -1.2125    1.1958    0.0000 C   0  0  0  0  0  0           0  0  0
   -0.4958   -0.0292    0.0000 C   0  0  0  0  0  0           0  0  0
  2  3  1  0     0  0
  3 10  1  0     0  0
  4  1  1  0     0  0
  5  4  1  0     0  0
  6  2  1  0     0  0
  7  1  1  0     0  0
  8  5  2  0     0  0
  9  1  2  0     0  0
 10 14  1  0     0  0
 11  2  2  0     0  0
 12  8  1  0     0  0
 13 30  1  0     0  0
 14 17  1  0     0  0
 15 12  1  0     0  0
 16 12  2  0     0  0
 17 19  1  0     0  0
 18 10  1  0     0  0
 19 23  2  0     0  0
 20  3  1  0     0  0
 21 20  1  0     0  0
 22 18  1  0     0  0
 23 16  1  0     0  0
 24 15  2  0     0  0
 25 22  1  0     0  0
 26  4  2  0     0  0
 27 28  2  0     0  0
 28 26  1  0     0  0
 29 31  1  0     0  0
 30 32  2  0     0  0
 31 25  2  0     0  0
 32 25  1  0     0  0
 27  8  1  0     0  0
 24 19  1  0     0  0
 21  6  1  0     0  0
 29 13  2  0     0  0
M  CHG  2   1   1   7  -1
M  END