
          11280715232D 1   1.00000     0.00000     0

 30 34  0     0  0            999 V2000
    2.9167   -3.4667    0.0000 C   0  0  0  0  0  0           0  0  0
    2.9167   -4.2167    0.0000 C   0  0  0  0  0  0           0  0  0
    2.2667   -4.5917    0.0000 N   0  0  0  0  0  0           0  0  0
    3.5667   -3.0917    0.0000 C   0  0  0  0  0  0           0  0  0
    1.6167   -3.4667    0.0000 C   0  0  0  0  0  0           0  0  0
    1.6167   -4.2167    0.0000 C   0  0  0  0  0  0           0  0  0
    7.4625   -3.1250    0.0000 C   0  0  0  0  0  0           0  0  0
    5.5042   -4.2292    0.0000 N   0  0  3  0  0  0           0  0  0
    3.5542   -4.5917    0.0000 C   0  0  0  0  0  0           0  0  0
    4.2125   -3.4667    0.0000 C   0  0  0  0  0  0           0  0  0
    4.2125   -4.2167    0.0000 C   0  0  3  0  0  0           0  0  0
    8.1125   -3.5042    0.0000 C   0  0  0  0  0  0           0  0  0
    3.5667   -2.3417    0.0000 O   0  0  0  0  0  0           0  0  0
    6.8125   -3.4917    0.0000 C   0  0  3  0  0  0           0  0  0
    7.4667   -2.3750    0.0000 O   0  0  0  0  0  0           0  0  0
    4.8542   -4.6000    0.0000 C   0  0  0  0  0  0           0  0  0
    8.1042   -4.2500    0.0000 C   0  0  0  0  0  0           0  0  0
    8.7625   -3.1292    0.0000 C   0  0  0  0  0  0           0  0  0
    6.8042   -4.2417    0.0000 C   0  0  0  0  0  0           0  0  0
    6.1625   -3.1125    0.0000 C   0  0  0  0  0  0           0  0  0
    6.1542   -4.6042    0.0000 C   0  0  0  0  0  0           0  0  0
    5.5042   -3.4792    0.0000 C   0  0  0  0  0  0           0  0  0
    9.4042   -4.2542    0.0000 C   0  0  0  0  0  0           0  0  0
    9.4125   -3.5125    0.0000 C   0  0  0  0  0  0           0  0  0
    8.7500   -4.6292    0.0000 C   0  0  0  0  0  0           0  0  0
   10.0500   -4.6292    0.0000 F   0  0  0  0  0  0           0  0  0
    0.9750   -3.0917    0.0000 C   0  0  0  0  0  0           0  0  0
    0.9750   -4.5875    0.0000 C   0  0  0  0  0  0           0  0  0
    0.3250   -3.4625    0.0000 C   0  0  0  0  0  0           0  0  0
    0.3292   -4.2167    0.0000 C   0  0  0  0  0  0           0  0  0
  2  1  2  0     0  0
  3  2  1  0     0  0
  4  1  1  0     0  0
  5  1  1  0     0  0
  6  5  2  0     0  0
  7 14  1  0     0  0
  8 16  1  0     0  0
  9  2  1  0     0  0
 10  4  1  0     0  0
 11 10  1  0     0  0
 12  7  1  0     0  0
 13  4  2  0     0  0
 14 20  1  0     0  0
 15  7  2  0     0  0
 16 11  1  0     0  0
 17 12  1  0     0  0
 18 12  2  0     0  0
 19 21  1  0     0  0
 20 22  1  0     0  0
 21  8  1  0     0  0
 22  8  1  0     0  0
 23 24  2  0     0  0
 24 18  1  0     0  0
 25 17  2  0     0  0
 26 23  1  0     0  0
 27  5  1  0     0  0
 28  6  1  0     0  0
 29 27  2  0     0  0
 30 29  1  0     0  0
  3  6  1  0     0  0
 11  9  1  0     0  0
 28 30  2  0     0  0
 14 19  1  0     0  0
 23 25  1  0     0  0
M  END