
          11280715082D 1   1.00000     0.00000     0

 31 34  0     0  0            999 V2000
    0.4542   -0.5125    0.0000 C   0  0  0  0  0  0           0  0  0
    2.0167   -0.2167    0.0000 C   0  0  0  0  0  0           0  0  0
    1.4917   -0.5125    0.0000 C   0  0  0  0  0  0           0  0  0
    2.5417   -0.5167    0.0000 C   0  0  0  0  0  0           0  0  0
    0.4542   -1.1042    0.0000 C   0  0  0  0  0  0           0  0  0
    0.9792   -0.2042    0.0000 C   0  0  0  0  0  0           0  0  0
    2.0167    0.3833    0.0000 C   0  0  0  0  0  0           0  0  0
   -0.0583   -0.2042    0.0000 C   0  0  3  0  0  0           0  0  0
    5.1250   -1.4375    0.0000 C   0  0  0  0  0  0           0  0  0
   -0.0708   -1.4125    0.0000 C   0  0  3  0  0  0           0  0  0
    4.6042   -1.1375    0.0000 C   0  0  0  0  0  0           0  0  0
    3.0542   -0.2167    0.0000 C   0  0  0  0  0  0           0  0  0
    0.9792   -1.4125    0.0000 C   0  0  0  0  0  0           0  0  0
    4.0917   -1.4292    0.0000 C   0  0  0  0  0  0           0  0  0
    3.5750   -0.5292    0.0000 C   0  0  0  0  0  0           0  0  0
    3.5667   -1.1292    0.0000 C   0  0  0  0  0  0           0  0  0
    1.5000   -1.1167    0.0000 C   0  0  0  0  0  0           0  0  0
    2.5375   -1.1250    0.0000 C   0  0  0  0  0  0           0  0  0
   -0.5833   -0.5000    0.0000 C   0  0  0  0  0  0           0  0  0
    5.1292   -2.0375    0.0000 O   0  0  0  0  0  0           0  0  0
   -0.5875   -1.1000    0.0000 C   0  0  0  0  0  0           0  0  0
    4.6167   -0.5292    0.0000 C   0  0  0  0  0  0           0  0  0
    3.0542   -1.4292    0.0000 C   0  0  0  0  0  0           0  0  0
    4.0917   -0.2292    0.0000 C   0  0  0  0  0  0           0  0  0
    2.5417    0.6833    0.0000 F   0  0  0  0  0  0           0  0  0
    1.5042    0.6833    0.0000 F   0  0  0  0  0  0           0  0  0
    5.6500   -1.1375    0.0000 O   0  0  0  0  0  0           0  0  0
    0.3667    0.2208    0.0000 C   0  0  0  0  0  0           0  0  0
   -0.5833    0.1083    0.0000 C   0  0  0  0  0  0           0  0  0
    0.4500   -1.7042    0.0000 C   0  0  0  0  0  0           0  0  0
   -0.5875   -1.7042    0.0000 C   0  0  0  0  0  0           0  0  0
  2  3  1  0     0  0
  3  6  2  0     0  0
  4  2  1  0     0  0
  5  1  2  0     0  0
  6  1  1  0     0  0
  7  2  2  0     0  0
  8  1  1  0     0  0
  9 11  1  0     0  0
 10  5  1  0     0  0
 11 14  2  0     0  0
 12  4  1  0     0  0
 13  5  1  0     0  0
 14 16  1  0     0  0
 15 12  2  0     0  0
 16 23  2  0     0  0
 17  3  1  0     0  0
 18  4  2  0     0  0
 19  8  1  0     0  0
 20  9  2  0     0  0
 21 19  1  0     0  0
 22 24  2  0     0  0
 23 18  1  0     0  0
 24 15  1  0     0  0
 25  7  1  0     0  0
 26  7  1  0     0  0
 27  9  1  0     0  0
 28  8  1  0     0  0
 29  8  1  0     0  0
 30 10  1  0     0  0
 31 10  1  0     0  0
 21 10  1  0     0  0
 13 17  2  0     0  0
 16 15  1  0     0  0
 11 22  1  0     0  0
M  END