
  SciTegic09081514162D

 22 24  0  0  0  0            999 V2000
    6.3875    3.7758    0.0000 O   0  0
    5.5870    4.6698    0.0000 S   0  0
    5.2132    3.5296    0.0000 O   0  0
   -2.3155    0.7475    0.0000 C   0  0
   -2.3155   -0.7475    0.0000 C   0  0
   -1.0028   -1.5132    0.0000 C   0  0
   -1.0028    1.5132    0.0000 C   0  0
    0.2917    0.7475    0.0000 C   0  0
    0.2917   -0.7475    0.0000 C   0  0
    1.7138   -1.2033    0.0000 N   0  0
    2.5889    0.0182    0.0000 C   0  0
    1.7138    1.2033    0.0000 C   0  0
    2.1812    2.6271    0.0000 C   0  0
    3.6500    2.9355    0.0000 C   0  0
    4.1182    4.3614    0.0000 N   0  0
    6.0553    6.0958    0.0000 C   0  0
    7.4764    6.5340    0.0000 C   0  0
    7.4811    8.0340    0.0000 C   0  0
    6.0560    8.5020    0.0000 C   0  0
    5.1705    7.2912    0.0000 S   0  0
    5.6887    9.6444    0.0000 Cl  0  0
    8.4541    8.7363    0.0000 Br  0  0
  2  1  2  0
  3  2  2  0
  4  5  2  0
  5  6  1  0
  6  9  2  0
  8  7  2  0
  7  4  1  0
  8  9  1  0
  9 10  1  0
 10 11  1  0
 11 12  2  0
 12  8  1  0
 12 13  1  0
 13 14  1  0
 14 15  1  0
 15  2  1  0
  2 16  1  0
 16 17  2  0
 17 18  1  0
 18 19  2  0
 19 20  1  0
 20 16  1  0
 19 21  1  0
 18 22  1  0
M  END