
          11280715162D 1   1.00000     0.00000     0

 47 51  0     0  0            999 V2000
    5.2625   -0.3000    0.0000 C   0  0  0  0  0  0           0  0  0
   -0.4583   -0.4667    0.0000 N   0  0  3  0  0  0           0  0  0
    5.7792   -0.6042    0.0000 N   0  0  0  0  0  0           0  0  0
   -0.9708   -0.1542    0.0000 C   0  0  0  0  0  0           0  0  0
    0.5667   -1.1000    0.0000 N   0  0  3  0  0  0           0  0  0
    6.3042   -0.3167    0.0000 C   0  0  0  0  0  0           0  0  0
    4.7375   -0.5917    0.0000 C   0  0  0  0  0  0           0  0  0
    3.1625   -1.4542    0.0000 O   0  0  0  0  0  0           0  0  0
    8.8792   -1.2667    0.0000 C   0  0  0  0  0  0           0  0  0
    5.2750    0.3000    0.0000 O   0  0  0  0  0  0           0  0  0
    2.6500   -1.1417    0.0000 C   0  0  3  0  0  0           0  0  0
   -0.4708   -1.0750    0.0000 C   0  0  0  0  0  0           0  0  0
    0.0667   -0.1792    0.0000 C   0  0  0  0  0  0           0  0  0
   -0.9583    0.4375    0.0000 C   0  0  0  0  0  0           0  0  0
    6.8167   -0.6292    0.0000 C   0  0  0  0  0  0           0  0  0
    8.9000   -0.6667    0.0000 O   0  0  0  0  0  0           0  0  0
    4.2167   -0.2792    0.0000 C   0  0  0  0  0  0           0  0  0
    4.7250   -1.1917    0.0000 C   0  0  0  0  0  0           0  0  0
    2.6625   -0.5417    0.0000 C   0  0  0  0  0  0           0  0  0
    0.0417   -1.3917    0.0000 C   0  0  0  0  0  0           0  0  0
    0.5792   -0.4917    0.0000 C   0  0  0  0  0  0           0  0  0
    3.6875   -1.1667    0.0000 C   0  0  0  0  0  0           0  0  0
    9.4000   -1.5792    0.0000 O   0  0  0  0  0  0           0  0  0
    3.7000   -0.5667    0.0000 C   0  0  0  0  0  0           0  0  0
    4.2000   -1.4792    0.0000 C   0  0  0  0  0  0           0  0  0
   -0.4208    0.7208    0.0000 O   0  0  0  0  0  0           0  0  0
    6.8042   -1.2292    0.0000 O   0  0  0  0  0  0           0  0  0
    1.0792   -1.4125    0.0000 C   0  0  0  0  0  0           0  0  0
    1.6042   -1.1167    0.0000 C   0  0  0  0  0  0           0  0  0
   -1.4958   -0.4500    0.0000 C   0  0  0  0  0  0           0  0  0
    2.1167   -1.4292    0.0000 C   0  0  0  0  0  0           0  0  0
    6.3125    0.2833    0.0000 C   0  0  0  0  0  0           0  0  0
    8.3542   -1.5542    0.0000 C   0  0  0  0  0  0           0  0  0
   -1.4625    0.7500    0.0000 C   0  0  0  0  0  0           0  0  0
    7.3417   -0.3375    0.0000 C   0  0  0  0  0  0           0  0  0
    3.1875   -0.2542    0.0000 C   0  0  0  0  0  0           0  0  0
    2.1500   -0.2375    0.0000 C   0  0  0  0  0  0           0  0  0
    7.3167   -1.5375    0.0000 C   0  0  0  0  0  0           0  0  0
   -0.4083    1.3208    0.0000 C   0  0  0  0  0  0           0  0  0
    7.8417   -1.2500    0.0000 C   0  0  0  0  0  0           0  0  0
   -2.0083   -0.1375    0.0000 C   0  0  0  0  0  0           0  0  0
    6.8375    0.5750    0.0000 C   0  0  0  0  0  0           0  0  0
    7.3542    0.2625    0.0000 C   0  0  0  0  0  0           0  0  0
    3.2000    0.3458    0.0000 C   0  0  0  0  0  0           0  0  0
    2.1542    0.3625    0.0000 C   0  0  0  0  0  0           0  0  0
   -1.9958    0.4625    0.0000 C   0  0  0  0  0  0           0  0  0
    2.6875    0.6583    0.0000 C   0  0  0  0  0  0           0  0  0
  2 13  1  0     0  0
  3  1  1  0     0  0
  4  2  1  0     0  0
  5 28  1  0     0  0
  6  3  1  0     0  0
  7  1  1  0     0  0
  8 22  1  0     0  0
  9 33  1  0     0  0
 10  1  2  0     0  0
 11  8  1  0     0  0
 12 20  1  0     0  0
 13 21  1  0     0  0
 14  4  2  0     0  0
 15  6  2  0     0  0
 16  9  2  0     0  0
 17  7  1  0     0  0
 18  7  2  0     0  0
 19 11  1  0     0  0
 20  5  1  0     0  0
 21  5  1  0     0  0
 22 25  2  0     0  0
 23  9  1  0     0  0
 24 17  2  0     0  0
 25 18  1  0     0  0
 26 14  1  0     0  0
 27 15  1  0     0  0
 28 29  1  0     0  0
 29 31  1  0     0  0
 30  4  1  0     0  0
 31 11  1  0     0  0
 32  6  1  0     0  0
 33 40  1  0     0  0
 34 14  1  0     0  0
 35 15  1  0     0  0
 36 19  2  0     0  0
 37 19  1  0     0  0
 38 27  1  0     0  0
 39 26  1  0     0  0
 40 38  1  0     0  0
 41 30  2  0     0  0
 42 32  2  0     0  0
 43 42  1  0     0  0
 44 36  1  0     0  0
 45 37  2  0     0  0
 46 41  1  0     0  0
 47 45  1  0     0  0
 24 22  1  0     0  0
 35 43  2  0     0  0
 44 47  2  0     0  0
 12  2  1  0     0  0
 34 46  2  0     0  0
M  END