
          11280715342D 1   1.00000     0.00000     0

 19 19  0     0  0            999 V2000
    3.6417   -8.6500    0.0000 N   0  0  3  0  0  0           0  0  0
    2.9292   -8.2375    0.0000 S   0  0  3  0  0  0           0  0  0
    3.6417   -9.4750    0.0000 S   0  0  3  0  0  0           0  0  0
    5.7875   -9.0625    0.0000 C   0  0  0  0  0  0           0  0  0
    5.0667   -8.6500    0.0000 C   0  0  0  0  0  0           0  0  0
    2.9292   -7.4125    0.0000 O   0  0  0  0  0  0           0  0  0
    2.2167   -8.6500    0.0000 O   0  0  0  0  0  0           0  0  0
    2.9292   -9.8875    0.0000 O   0  0  0  0  0  0           0  0  0
    4.3542   -9.8875    0.0000 O   0  0  0  0  0  0           0  0  0
    4.3542   -8.2375    0.0000 C   0  0  3  0  0  0           0  0  0
    7.2167   -9.0625    0.0000 N   0  0  3  0  0  0           0  0  0
    2.2125   -7.8250    0.0000 C   0  0  0  0  0  0           0  0  0
    3.6417  -10.2917    0.0000 C   0  0  0  0  0  0           0  0  0
    6.5000   -9.4750    0.0000 C   0  0  0  0  0  0           0  0  0
    7.3042   -8.2417    0.0000 C   0  0  0  0  0  0           0  0  0
    7.9667   -9.3917    0.0000 C   0  0  0  0  0  0           0  0  0
    4.3542   -7.4125    0.0000 C   0  0  0  0  0  0           0  0  0
    8.1042   -8.0667    0.0000 C   0  0  0  0  0  0           0  0  0
    8.5167   -8.7667    0.0000 C   0  0  0  0  0  0           0  0  0
  2  1  1  0     0  0
  3  1  1  0     0  0
  4  5  3  0     0  0
  5 10  1  0     0  0
  6  2  2  0     0  0
  7  2  2  0     0  0
  8  3  2  0     0  0
  9  3  2  0     0  0
 10  1  1  0     0  0
 11 14  1  0     0  0
 12  2  1  0     0  0
 13  3  1  0     0  0
 14  4  1  0     0  0
 15 11  1  0     0  0
 16 11  1  0     0  0
 17 10  1  0     0  0
 18 15  1  0     0  0
 19 16  1  0     0  0
 19 18  1  0     0  0
M  END