
          11280715312D 1   1.00000     0.00000     0

 33 36  0     0  0            999 V2000
    6.1167   -4.0667    0.0000 C   0  0  0  0  0  0           0  0  0
    6.1125   -3.4667    0.0000 C   0  0  0  0  0  0           0  0  0
    5.5917   -4.3667    0.0000 N   0  0  3  0  0  0           0  0  0
    5.0792   -3.4667    0.0000 N   0  0  3  0  0  0           0  0  0
    5.0792   -4.0667    0.0000 C   0  0  0  0  0  0           0  0  0
    6.6875   -4.2542    0.0000 N   0  0  0  0  0  0           0  0  0
    5.5917   -3.1667    0.0000 C   0  0  0  0  0  0           0  0  0
    6.6792   -3.2792    0.0000 N   0  0  0  0  0  0           0  0  0
    7.0417   -3.7667    0.0000 C   0  0  0  0  0  0           0  0  0
    2.9917   -7.0542    0.0000 S   0  0  3  0  0  0           0  0  0
    3.5125   -6.7625    0.0000 C   0  0  0  0  0  0           0  0  0
    4.5542   -4.3667    0.0000 O   0  0  0  0  0  0           0  0  0
    2.4750   -6.7542    0.0000 O   0  0  0  0  0  0           0  0  0
    2.9875   -7.6542    0.0000 O   0  0  0  0  0  0           0  0  0
    5.5917   -2.5667    0.0000 O   0  0  0  0  0  0           0  0  0
    2.4667   -7.3542    0.0000 F   0  0  0  0  0  0           0  0  0
    7.6417   -3.7625    0.0000 C   0  0  3  0  0  0           0  0  0
    5.5917   -4.9667    0.0000 C   0  0  0  0  0  0           0  0  0
    4.5542   -3.1667    0.0000 C   0  0  0  0  0  0           0  0  0
    3.5167   -6.1625    0.0000 C   0  0  0  0  0  0           0  0  0
    4.0292   -7.0625    0.0000 C   0  0  0  0  0  0           0  0  0
    4.0375   -5.8625    0.0000 C   0  0  0  0  0  0           0  0  0
    4.5542   -6.7667    0.0000 C   0  0  0  0  0  0           0  0  0
    4.5542   -6.1667    0.0000 C   0  0  0  0  0  0           0  0  0
    5.0750   -5.2667    0.0000 C   0  0  0  0  0  0           0  0  0
    5.0750   -5.8667    0.0000 C   0  0  0  0  0  0           0  0  0
    7.9417   -4.2792    0.0000 C   0  0  0  0  0  0           0  0  0
    7.9292   -3.2417    0.0000 C   0  0  0  0  0  0           0  0  0
    4.5542   -2.5667    0.0000 C   0  0  0  0  0  0           0  0  0
    4.0292   -2.2750    0.0000 C   0  0  0  0  0  0           0  0  0
    8.5375   -3.2375    0.0000 C   0  0  0  0  0  0           0  0  0
    8.5417   -4.2750    0.0000 C   0  0  0  0  0  0           0  0  0
    8.8375   -3.7542    0.0000 C   0  0  0  0  0  0           0  0  0
  2  1  2  0     0  0
  3  1  1  0     0  0
  4  5  1  0     0  0
  5  3  1  0     0  0
  6  1  1  0     0  0
  7  2  1  0     0  0
  8  2  1  0     0  0
  9  6  1  0     0  0
 10 11  1  0     0  0
 11 21  1  0     0  0
 12  5  2  0     0  0
 13 10  2  0     0  0
 14 10  2  0     0  0
 15  7  2  0     0  0
 16 10  1  0     0  0
 17  9  1  0     0  0
 18  3  1  0     0  0
 19  4  1  0     0  0
 20 22  1  0     0  0
 21 23  2  0     0  0
 22 24  2  0     0  0
 23 24  1  0     0  0
 24 26  1  0     0  0
 25 18  1  0     0  0
 26 25  1  0     0  0
 27 17  1  0     0  0
 28 17  1  0     0  0
 29 19  1  0     0  0
 30 29  1  0     0  0
 31 28  1  0     0  0
 32 27  1  0     0  0
 33 31  1  0     0  0
  8  9  2  0     0  0
  4  7  1  0     0  0
 33 32  1  0     0  0
 11 20  2  0     0  0
M  END