
          11280715492D 1   1.00000     0.00000     0

 48 51  0     1  0            999 V2000
   -3.4348    1.6667    0.0000 C   0  0  0  0  0  0           0  0  0
   -3.4359    0.8393    0.0000 C   0  0  0  0  0  0           0  0  0
   -2.7211    0.4265    0.0000 C   0  0  0  0  0  0           0  0  0
   -2.0047    0.8398    0.0000 C   0  0  0  0  0  0           0  0  0
   -2.0075    1.6703    0.0000 C   0  0  0  0  0  0           0  0  0
   -2.7229    2.0795    0.0000 C   0  0  0  0  0  0           0  0  0
   -4.1507    0.4274    0.0000 O   0  0  0  0  0  0           0  0  0
   -1.2946    2.0855    0.0000 C   0  0  0  0  0  0           0  0  0
   -0.5786    1.6757    0.0000 C   0  0  1  0  0  0           0  0  0
    0.1343    2.0909    0.0000 C   0  0  0  0  0  0           0  0  0
    0.1312    2.9159    0.0000 O   0  0  0  0  0  0           0  0  0
   -2.7254    2.9045    0.0000 C   0  0  0  0  0  0           0  0  0
   -1.2895    0.4284    0.0000 C   0  0  0  0  0  0           0  0  0
    0.8503    1.6811    0.0000 N   0  0  3  0  0  0           0  0  0
    0.8511    0.8530    0.0000 C   0  0  0  0  0  0           0  0  0
    1.5608    2.0952    0.0000 C   0  0  3  0  0  0           0  0  0
    2.2772    1.6809    0.0000 C   0  0  0  0  0  0           0  0  0
   -0.5778    0.8514    0.0000 N   0  0  0  0  0  0           0  0  0
    2.2766    0.8560    0.0000 C   0  0  0  0  0  0           0  0  0
    1.5617    0.4461    0.0000 C   0  0  0  0  0  0           0  0  0
    1.5602   -0.3762    0.0000 C   0  0  0  0  0  0           0  0  0
    2.2729   -0.7894    0.0000 C   0  0  0  0  0  0           0  0  0
    2.9886   -0.3745    0.0000 C   0  0  0  0  0  0           0  0  0
    2.9865    0.4464    0.0000 C   0  0  0  0  0  0           0  0  0
    1.5593    2.9202    0.0000 C   0  0  0  0  0  0           0  0  0
    2.2730    3.3340    0.0000 N   0  0  0  0  0  0           0  0  0
    0.8441    3.3315    0.0000 O   0  0  0  0  0  0           0  0  0
    2.9882    2.9227    0.0000 C   0  0  0  0  0  0           0  0  0
    3.7020    3.3365    0.0000 C   0  0  0  0  0  0           0  0  0
    4.4172    2.9252    0.0000 C   0  0  0  0  0  0           0  0  0
    4.4186    2.1002    0.0000 C   0  0  0  0  0  0           0  0  0
    5.1338    1.6890    0.0000 C   0  0  0  0  0  0           0  0  0
    5.1353    0.8640    0.0000 C   0  0  0  0  0  0           0  0  0
    5.8505    0.4528    0.0000 N   0  0  0  0  0  0           0  0  0
    5.8519   -0.3722    0.0000 C   0  0  0  0  0  0           0  0  0
    6.5671   -0.7835    0.0000 C   0  0  1  0  0  0           0  0  0
    5.1382   -0.7860    0.0000 O   0  0  0  0  0  0           0  0  0
    6.5686   -1.6085    0.0000 N   0  0  0  0  0  0           0  0  0
    7.2809   -0.3697    0.0000 C   0  0  0  0  0  0           0  0  0
    7.9961   -0.7810    0.0000 C   0  0  0  0  0  0           0  0  0
    7.9945   -1.6053    0.0000 C   0  0  0  0  0  0           0  0  0
    8.7089   -2.0164    0.0000 C   0  0  0  0  0  0           0  0  0
    9.4236   -1.6026    0.0000 C   0  0  0  0  0  0           0  0  0
    9.4195   -0.7733    0.0000 C   0  0  0  0  0  0           0  0  0
    8.7045   -0.3659    0.0000 C   0  0  0  0  0  0           0  0  0
   10.1393   -2.0129    0.0000 O   0  0  0  0  0  0           0  0  0
    8.6996    0.4591    0.0000 C   0  0  0  0  0  0           0  0  0
    7.2799   -2.0176    0.0000 C   0  0  0  0  0  0           0  0  0
 10 11  2  0     0  0
 23 24  2  0     0  0
 24 19  1  0     0  0
  5  6  2  0     0  0
 16 25  1  0     0  0
  6 12  1  0     0  0
 25 26  1  0     0  0
  6  1  1  0     0  0
 25 27  2  0     0  0
  4 13  1  0     0  0
 26 28  1  0     0  0
  1  2  2  0     0  0
 28 29  1  0     0  0
 10 14  1  0     0  0
 29 30  1  0     0  0
 14 15  1  0     0  0
 30 31  1  0     0  0
  2  7  1  0     0  0
 31 32  1  0     0  0
  3  4  2  0     0  0
 32 33  1  0     0  0
 14 16  1  0     0  0
 33 34  1  0     0  0
 15 20  1  0     0  0
 34 35  1  0     0  0
 17 16  1  0     0  0
 35 36  1  0     0  0
  5  8  1  0     0  0
 35 37  2  0     0  0
 17 19  1  0     0  0
 36 38  1  0     0  0
 36 39  1  6     0  0
  9  8  1  1     0  0
 39 40  1  0     0  0
  4  5  1  0     0  0
 40 41  2  0     0  0
 19 20  2  0     0  0
 41 42  1  0     0  0
  9 10  1  0     0  0
 42 43  2  0     0  0
 20 21  1  0     0  0
 43 44  1  0     0  0
  9 18  1  0     0  0
 44 45  2  0     0  0
 45 40  1  0     0  0
 21 22  2  0     0  0
 43 46  1  0     0  0
  2  3  1  0     0  0
 45 47  1  0     0  0
 22 23  1  0     0  0
 41 48  1  0     0  0
M  END