
  SciTegic12011114592D

 23 25  0  0  0  0            999 V2000
    1.4323   -2.2658    0.0000 N   0  0
    2.1457   -1.8513    0.0000 C   0  0
    2.1434   -1.0264    0.0000 C   0  0
    1.4278   -0.6158    0.0000 C   0  0
    0.7145   -1.0303    0.0000 C   0  0
   -0.0011   -0.6197    0.0000 C   0  0
   -0.7145   -1.0342    0.0000 C   0  0
   -0.7122   -1.8592    0.0000 C   0  0
    0.0034   -2.2697    0.0000 C   0  0
    0.7167   -1.8553    0.0000 C   0  0
    2.8613   -2.2619    0.0000 N   0  0
   -1.4301   -0.6236    0.0000 C   0  0
   -1.4323    0.2014    0.0000 C   0  0
   -2.1479    0.6119    0.0000 C   0  0
   -2.8613    0.1974    0.0000 C   0  0
   -2.8590   -0.6276    0.0000 C   0  0
   -2.1434   -1.0381    0.0000 C   0  0
   -0.7190    0.6158    0.0000 C   0  0
   -0.0057    1.0303    0.0000 C   0  0
    0.7077    1.4447    0.0000 C   0  0
    1.4222    1.0322    0.0000 C   0  0
    1.4210    1.8592    0.0000 C   0  0
    0.7077    2.2697    0.0000 C   0  0
  1  2  2  0
  2  3  1  0
  3  4  2  0
  4  5  1  0
  5  6  2  0
  6  7  1  0
  7  8  2  0
  8  9  1  0
  9 10  2  0
  1 10  1  0
  5 10  1  0
  2 11  1  0
 12 13  1  0
 13 14  2  0
 14 15  1  0
 15 16  2  0
 16 17  1  0
 12 17  2  0
 18 19  3  0
 19 20  1  0
 20 21  1  0
 20 22  1  0
 20 23  1  0
 13 18  1  0
  7 12  1  0
M  END