
  SciTegic12011114592D

 42 47  0  0  0  0            999 V2000
   -0.9421  -16.2122    0.0000 N   0  0
   -0.2269  -15.8024    0.0000 C   0  0
   -0.2240  -14.9766    0.0000 N   0  0
   -0.9423  -14.5621    0.0000 C   0  0
   -0.9428  -13.7371    0.0000 N   0  0
   -0.2282  -13.3241    0.0000 C   0  0
    0.4862  -16.2174    0.0000 S   0  0
    1.2020  -15.8073    0.0000 C   0  0
    1.9109  -16.2254    0.0000 C   0  0
    2.6263  -15.8160    0.0000 C   0  0
    2.6295  -14.9901    0.0000 C   0  0
    1.9115  -14.5753    0.0000 C   0  0
    1.1990  -14.9871    0.0000 C   0  0
    3.3449  -14.5791    0.0000 N   0  0
    0.5575  -13.5722    0.0000 C   0  0
    1.0366  -12.9006    0.0000 C   0  0
    0.5459  -12.2374    0.0000 N   0  0
   -0.2365  -12.4991    0.0000 N   0  0
    1.8616  -12.8934    0.0000 C   0  0
   -2.4289  -14.7230    0.0000 C   0  0
   -2.9099  -15.3841    0.0000 C   0  0
   -2.4297  -16.0459    0.0000 C   0  0
   -1.6520  -15.7938    0.0000 N   0  0
   -1.6514  -14.9761    0.0000 C   0  0
    4.0585  -14.9931    0.0000 C   0  0
    4.7738  -14.5821    0.0000 C   0  0
    5.4874  -14.9965    0.0000 N   0  0
    4.0568  -15.8181    0.0000 O   0  0
    5.4787  -15.8170    0.0000 C   0  0
    6.2606  -16.0804    0.0000 C   0  0  1  0  0  0
    6.7527  -15.4182    0.0000 C   0  0  2  0  0  0
    6.2750  -14.7456    0.0000 C   0  0
    7.5777  -15.4271    0.0000 O   0  0
    6.5070  -16.8677    0.0000 O   0  0
    7.3321  -16.8662    0.0000 C   0  0
    7.7429  -17.5804    0.0000 C   0  0
    8.5671  -17.5798    0.0000 C   0  0
    8.9796  -16.8644    0.0000 C   0  0
    8.5619  -16.1480    0.0000 C   0  0
    7.7390  -16.1521    0.0000 C   0  0
    8.9711  -15.4316    0.0000 F   0  0
    8.9801  -18.2940    0.0000 F   0  0
 23 24  1  0
  8  9  2  0
  4 24  1  0
 21 22  2  0
  9 10  1  0
  1  2  2  0
 10 11  2  0
 20 21  1  0
 22 23  1  0
 24 20  2  0
  4  5  1  0
 14 25  1  0
 11 12  1  0
 25 26  1  0
 23  1  1  0
 26 27  1  0
 12 13  2  0
 25 28  2  0
 27 29  1  0
 13  8  1  0
  5  6  1  0
 11 14  1  0
 17 18  1  0
 29 30  1  0
 30 31  1  0
 31 32  1  0
 32 27  1  0
  2  3  1  0
 31 33  1  6
 15 16  2  0
 30 34  1  1
  2  7  1  0
 34 35  1  0
 35 36  2  0
  7  8  1  0
 36 37  1  0
  6 15  1  0
 37 38  2  0
 16 17  1  0
 38 39  1  0
 18  6  2  0
 39 40  2  0
 40 35  1  0
  3  4  2  0
 39 41  1  0
 16 19  1  0
 37 42  1  0
M  END