
          11280715332D 1   1.00000     0.00000     0

 34 38  0     0  0            999 V2000
    3.1792   -6.5042    0.0000 N   0  0  3  0  0  0           0  0  0
    8.4542   -5.0792    0.0000 N   0  0  3  0  0  0           0  0  0
    4.6042   -6.5167    0.0000 C   0  0  3  0  0  0           0  0  0
    3.1750   -5.6875    0.0000 C   0  0  0  0  0  0           0  0  0
    7.7417   -5.5000    0.0000 C   0  0  3  0  0  0           0  0  0
    6.7417   -6.0875    0.0000 N   0  0  3  0  0  0           0  0  0
    3.8917   -6.9250    0.0000 C   0  0  0  0  0  0           0  0  0
    4.6000   -7.3417    0.0000 C   0  0  0  0  0  0           0  0  0
   10.5917   -3.8292    0.0000 C   0  0  0  0  0  0           0  0  0
    2.4667   -6.9250    0.0000 C   0  0  0  0  0  0           0  0  0
    6.9500   -5.2917    0.0000 C   0  0  0  0  0  0           0  0  0
    7.5417   -6.2917    0.0000 C   0  0  0  0  0  0           0  0  0
    5.3000   -8.5792    0.0000 C   0  0  0  0  0  0           0  0  0
    5.3042   -7.7542    0.0000 C   0  0  0  0  0  0           0  0  0
    1.7542   -6.5125    0.0000 C   0  0  3  0  0  0           0  0  0
    1.3417   -5.8042    0.0000 C   0  0  0  0  0  0           0  0  0
    0.9292   -6.5167    0.0000 C   0  0  0  0  0  0           0  0  0
    4.5792   -8.9875    0.0000 C   0  0  0  0  0  0           0  0  0
    9.8792   -4.2500    0.0000 C   0  0  3  0  0  0           0  0  0
    8.4417   -4.2542    0.0000 C   0  0  0  0  0  0           0  0  0
    9.1667   -5.4875    0.0000 C   0  0  0  0  0  0           0  0  0
    4.6042   -5.6875    0.0000 C   0  0  0  0  0  0           0  0  0
    3.8917   -5.2750    0.0000 C   0  0  0  0  0  0           0  0  0
    2.4667   -5.2667    0.0000 O   0  0  0  0  0  0           0  0  0
    5.3167   -6.1000    0.0000 C   0  0  0  0  0  0           0  0  0
   10.5792   -3.0042    0.0000 O   0  0  0  0  0  0           0  0  0
    3.8792   -7.7417    0.0000 C   0  0  0  0  0  0           0  0  0
    3.8667   -8.5667    0.0000 C   0  0  0  0  0  0           0  0  0
    6.0292   -6.5042    0.0000 C   0  0  0  0  0  0           0  0  0
    9.1542   -3.8417    0.0000 C   0  0  0  0  0  0           0  0  0
    9.8792   -5.0750    0.0000 C   0  0  0  0  0  0           0  0  0
    6.0125   -8.9917    0.0000 Cl  0  0  0  0  0  0           0  0  0
   11.3042   -4.2417    0.0000 O   0  0  0  0  0  0           0  0  0
    4.5750   -9.8125    0.0000 Cl  0  0  0  0  0  0           0  0  0
  2  5  1  0     0  0
  3  7  1  0     0  0
  4  1  1  0     0  0
  5 12  1  0     0  0
  6 29  1  0     0  0
  7  1  1  0     0  0
  8  3  1  0     0  0
  9 19  1  0     0  0
 10  1  1  0     0  0
 11  6  1  0     0  0
 12  6  1  0     0  0
 13 14  2  0     0  0
 14  8  1  0     0  0
 15 10  1  0     0  0
 16 15  1  0     0  0
 17 15  1  0     0  0
 18 28  2  0     0  0
 19 31  1  0     0  0
 20  2  1  0     0  0
 21  2  1  0     0  0
 22  3  1  0     0  0
 23  4  1  0     0  0
 24  4  2  0     0  0
 25  3  1  0     0  0
 26  9  2  0     0  0
 27  8  2  0     0  0
 28 27  1  0     0  0
 29 25  1  0     0  0
 30 20  1  0     0  0
 31 21  1  0     0  0
 32 13  1  0     0  0
 33  9  1  0     0  0
 34 18  1  0     0  0
 22 23  1  0     0  0
 17 16  1  0     0  0
 11  5  1  0     0  0
 13 18  1  0     0  0
 30 19  1  0     0  0
M  END