
  SciTegic12211612532D

 28 30  0  0  0  0            999 V2000
   -1.2929   -5.8566    0.0000 O   0  0
   -2.3295   -5.2521    0.0000 S   0  0
   -3.3711   -5.8478    0.0000 O   0  0
   -2.3155    0.7475    0.0000 C   0  0
   -2.3155   -0.7475    0.0000 C   0  0
   -1.0028   -1.5132    0.0000 N   0  0
   -1.0028    1.5132    0.0000 C   0  0
    0.2917    0.7475    0.0000 C   0  0
    0.2917   -0.7475    0.0000 N   0  0
    1.7138   -1.2033    0.0000 C   0  0
    2.5889    0.0182    0.0000 N   0  0
    1.7138    1.2033    0.0000 N   0  0
   -3.6168   -1.4950    0.0000 C   0  0
   -3.6203   -2.9951    0.0000 C   0  0
   -4.9210   -3.7422    0.0000 C   0  0
   -6.2184   -2.9893    0.0000 C   0  0
   -6.2150   -1.4893    0.0000 C   0  0
   -4.9143   -0.7422    0.0000 C   0  0
   -7.2590   -3.5870    0.0000 C   0  0
   -2.3239   -3.7513    0.0000 N   0  0
   -2.3346   -6.4521    0.0000 C   0  0
   -0.9971    3.0138    0.0000 N   0  0
   -2.2935    3.7700    0.0000 C   0  0
   -3.3352    3.1743    0.0000 O   0  0
   -2.2878    5.2708    0.0000 O   0  0
   -3.5842    6.0270    0.0000 C   0  0
   -3.5796    7.2269    0.0000 C   0  0
    2.0907   -2.3426    0.0000 C   0  0
  2  1  2  0
  3  2  2  0
  4  5  1  0
  5  6  2  0
  6  9  1  0
  8  7  1  0
  7  4  2  0
  8  9  1  0
  9 10  1  0
 10 11  2  0
 11 12  1  0
 12  8  2  0
 13 14  2  0
 14 15  1  0
 15 16  2  0
 16 17  1  0
 17 18  2  0
 18 13  1  0
  5 13  1  0
 16 19  1  0
 14 20  1  0
 20  2  1  0
  2 21  1  0
  7 22  1  0
 22 23  1  0
 23 24  2  0
 23 25  1  0
 25 26  1  0
 26 27  1  0
 10 28  1  0
M  END