
          05080814042D 1   1.00000     0.00000     0

 36 40  0     1  0            999 V2000
    8.9718   -5.0233    0.0000 C   0  0  0  0  0  0           0  0  0
    8.2612   -5.4382    0.0000 C   0  0  0  0  0  0           0  0  0
    8.2682   -6.2644    0.0000 C   0  0  0  0  0  0           0  0  0
    8.9819   -6.6679    0.0000 C   0  0  0  0  0  0           0  0  0
    9.6850   -5.4305    0.0000 C   0  0  0  0  0  0           0  0  0
    9.6911   -6.2581    0.0000 C   0  0  0  0  0  0           0  0  0
   10.4069   -6.6645    0.0000 C   0  0  0  0  0  0           0  0  0
   10.3948   -5.0092    0.0000 C   0  0  0  0  0  0           0  0  0
   11.1152   -5.4201    0.0000 C   0  0  2  0  0  0           0  0  0
   11.1197   -6.2496    0.0000 C   0  0  2  0  0  0           0  0  0
   11.8364   -6.6582    0.0000 N   0  0  3  0  0  0           0  0  0
   12.5532   -6.2417    0.0000 C   0  0  0  0  0  0           0  0  0
   12.5486   -5.4122    0.0000 C   0  0  1  0  0  0           0  0  0
   11.8273   -4.9991    0.0000 C   0  0  0  0  0  0           0  0  0
   11.1073   -4.5913    0.0000 H   0  0  0  0  0  0           0  0  0
   11.1115   -7.0744    0.0000 H   0  0  0  0  0  0           0  0  0
   13.2612   -4.9965    0.0000 C   0  0  0  0  0  0           0  0  0
   13.9774   -5.4058    0.0000 N   0  0  3  0  0  0           0  0  0
   13.2575   -4.1716    0.0000 O   0  0  0  0  0  0           0  0  0
   13.9751   -6.2339    0.0000 C   0  0  0  0  0  0           0  0  0
   14.6873   -6.6431    0.0000 C   0  0  0  0  0  0           0  0  0
   15.4022   -6.2309    0.0000 N   0  0  3  0  0  0           0  0  0
   15.4005   -5.4051    0.0000 C   0  0  0  0  0  0           0  0  0
   14.6838   -4.9913    0.0000 C   0  0  0  0  0  0           0  0  0
    8.9679   -4.1984    0.0000 O   0  0  0  0  0  0           0  0  0
    8.2515   -3.7895    0.0000 C   0  0  0  0  0  0           0  0  0
   11.8397   -7.4831    0.0000 C   0  0  0  0  0  0           0  0  0
   16.1169   -6.6430    0.0000 C   0  0  0  0  0  0           0  0  0
   16.1130   -7.4670    0.0000 C   0  0  0  0  0  0           0  0  0
   16.8269   -7.8790    0.0000 C   0  0  0  0  0  0           0  0  0
   17.5419   -7.4659    0.0000 C   0  0  0  0  0  0           0  0  0
   17.5387   -6.6368    0.0000 C   0  0  0  0  0  0           0  0  0
   16.8243   -6.2286    0.0000 C   0  0  0  0  0  0           0  0  0
   16.8194   -5.4034    0.0000 N   0  3  0  0  0  0           0  0  0
   16.1027   -4.9947    0.0000 O   0  0  0  0  0  0           0  0  0
   17.5315   -4.9871    0.0000 O   0  5  0  0  0  0           0  0  0
 13 17  1  1     0  0
  7 10  1  0     0  0
 17 18  1  0     0  0
  9  8  1  0     0  0
 17 19  2  0     0  0
 18 20  1  0     0  0
  9 10  1  0     0  0
  3  4  2  0     0  0
  4  6  1  0     0  0
  5  6  2  0     0  0
  1  2  2  0     0  0
 18 24  1  0     0  0
 20 21  1  0     0  0
 21 22  1  0     0  0
 22 23  1  0     0  0
 23 24  1  0     0  0
  5  1  1  0     0  0
  1 25  1  0     0  0
  2  3  1  0     0  0
 25 26  1  0     0  0
  9 14  1  0     0  0
 11 27  1  0     0  0
 10 11  1  0     0  0
 22 28  1  0     0  0
 11 12  1  0     0  0
 28 29  2  0     0  0
 12 13  1  0     0  0
 29 30  1  0     0  0
 13 14  1  0     0  0
 30 31  2  0     0  0
 31 32  1  0     0  0
  9 15  1  6     0  0
 32 33  2  0     0  0
 33 28  1  0     0  0
  5  8  1  0     0  0
 10 16  1  1     0  0
  6  7  1  0     0  0
 34 35  2  0     0  0
 34 36  1  0     0  0
 33 34  1  0     0  0
M  CHG  2  34   1  36  -1
M  END