
          01230816052D 1   1.00000     0.00000     0

 57 60  0     1  0            999 V2000
   -4.6515   -3.7999    0.0000 C   0  0  0  0  0  0           0  0  0
   -4.6526   -4.6273    0.0000 C   0  0  0  0  0  0           0  0  0
   -3.9378   -5.0402    0.0000 C   0  0  0  0  0  0           0  0  0
   -3.9396   -3.3872    0.0000 C   0  0  0  0  0  0           0  0  0
   -3.2242   -3.7963    0.0000 C   0  0  0  0  0  0           0  0  0
   -3.2235   -4.6231    0.0000 C   0  0  0  0  0  0           0  0  0
   -2.5082   -5.0341    0.0000 C   0  0  0  0  0  0           0  0  0
   -1.7931   -4.6193    0.0000 C   0  0  0  0  0  0           0  0  0
   -1.7979   -3.7894    0.0000 C   0  0  0  0  0  0           0  0  0
   -2.5138   -3.3821    0.0000 C   0  0  0  0  0  0           0  0  0
   -1.0860   -3.3725    0.0000 O   0  0  0  0  0  0           0  0  0
   -0.3690   -3.7807    0.0000 C   0  0  0  0  0  0           0  0  0
    0.3430   -3.3638    0.0000 C   0  0  0  0  0  0           0  0  0
    1.0599   -3.7720    0.0000 N   0  0  0  0  0  0           0  0  0
    0.3379   -2.5388    0.0000 O   0  0  0  0  0  0           0  0  0
    1.7719   -3.3551    0.0000 C   0  0  2  0  0  0           0  0  0
    2.4888   -3.7633    0.0000 C   0  0  0  0  0  0           0  0  0
    1.7669   -2.5301    0.0000 C   0  0  0  0  0  0           0  0  0
    2.4939   -4.5883    0.0000 O   0  0  0  0  0  0           0  0  0
    3.2008   -3.3464    0.0000 N   0  0  0  0  0  0           0  0  0
    2.4788   -2.1133    0.0000 C   0  0  0  0  0  0           0  0  0
    2.4738   -1.2883    0.0000 C   0  0  0  0  0  0           0  0  0
    3.1857   -0.8715    0.0000 C   0  0  0  0  0  0           0  0  0
    3.1807   -0.0465    0.0000 N   0  0  0  0  0  0           0  0  0
    3.9178   -3.7546    0.0000 C   0  0  2  0  0  0           0  0  0
    4.6297   -3.3377    0.0000 C   0  0  0  0  0  0           0  0  0
    3.9228   -4.5796    0.0000 C   0  0  3  0  0  0           0  0  0
    3.2108   -4.9964    0.0000 C   0  0  0  0  0  0           0  0  0
    4.6397   -4.9877    0.0000 C   0  0  0  0  0  0           0  0  0
    5.3467   -3.7459    0.0000 N   0  0  0  0  0  0           0  0  0
    4.6247   -2.5127    0.0000 O   0  0  0  0  0  0           0  0  0
    6.0586   -3.3290    0.0000 C   0  0  0  0  0  0           0  0  0
    6.7756   -3.7372    0.0000 C   0  0  0  0  0  0           0  0  0
    7.4875   -3.3203    0.0000 N   0  0  0  0  0  0           0  0  0
    6.7806   -4.5622    0.0000 O   0  0  0  0  0  0           0  0  0
    8.2045   -3.7285    0.0000 C   0  0  2  0  0  0           0  0  0
    8.9165   -3.3116    0.0000 C   0  0  0  0  0  0           0  0  0
    8.2095   -4.5535    0.0000 C   0  0  1  0  0  0           0  0  0
    9.6334   -3.7198    0.0000 N   0  0  3  0  0  0           0  0  0
    8.9114   -2.4867    0.0000 O   0  0  0  0  0  0           0  0  0
    7.4976   -4.9703    0.0000 C   0  0  0  0  0  0           0  0  0
    8.9265   -4.9616    0.0000 O   0  0  0  0  0  0           0  0  0
    9.7281   -4.5392    0.0000 C   0  0  0  0  0  0           0  0  0
   10.5361   -4.7058    0.0000 C   0  0  0  0  0  0           0  0  0
   10.9442   -3.9888    0.0000 C   0  0  0  0  0  0           0  0  0
   10.3884   -3.3791    0.0000 C   0  0  1  0  0  0           0  0  0
   10.5554   -2.5712    0.0000 C   0  0  0  0  0  0           0  0  0
   11.3386   -2.3119    0.0000 O   0  0  0  0  0  0           0  0  0
   11.9548   -2.8605    0.0000 C   0  0  0  0  0  0           0  0  0
   12.7380   -2.6011    0.0000 N   0  0  0  0  0  0           0  0  0
   11.7878   -3.6684    0.0000 O   0  0  0  0  0  0           0  0  0
   11.1833   -3.1625    0.0000 H   0  0  0  0  0  0           0  0  0
   13.3541   -3.1497    0.0000 C   0  0  3  0  0  0           0  0  0
   13.2768   -3.9711    0.0000 C   0  0  0  0  0  0           0  0  0
   14.0324   -4.3024    0.0000 C   0  0  0  0  0  0           0  0  0
   14.5810   -3.6862    0.0000 C   0  0  0  0  0  0           0  0  0
   14.1644   -2.9741    0.0000 C   0  0  0  0  0  0           0  0  0
  3  6  2  0     0  0
 27 29  1  0     0  0
 13 14  1  0     0  0
 26 30  1  0     0  0
  6  7  1  0     0  0
 26 31  2  0     0  0
 13 15  2  0     0  0
 30 32  1  0     0  0
  1  2  2  0     0  0
 32 33  1  0     0  0
 14 16  1  0     0  0
 33 34  1  0     0  0
  7  8  2  0     0  0
 33 35  2  0     0  0
 16 17  1  0     0  0
 36 34  1  6     0  0
  5  4  2  0     0  0
 36 37  1  0     0  0
 16 18  1  1     0  0
 36 38  1  0     0  0
  8  9  1  0     0  0
 37 39  1  0     0  0
 17 19  2  0     0  0
 37 40  2  0     0  0
  4  1  1  0     0  0
 38 41  1  0     0  0
 17 20  1  0     0  0
 38 42  1  6     0  0
 39 43  1  0     0  0
  9 10  2  0     0  0
 18 21  1  0     0  0
 10  5  1  0     0  0
 21 22  1  0     0  0
 43 44  1  0     0  0
 44 45  1  0     0  0
 45 46  1  0     0  0
 46 39  1  0     0  0
 46 47  1  0     0  0
 22 23  1  0     0  0
 47 48  1  0     0  0
  9 11  1  0     0  0
 48 49  1  0     0  0
 23 24  1  0     0  0
 49 50  1  0     0  0
  2  3  1  0     0  0
 49 51  2  0     0  0
 20 25  1  0     0  0
 46 52  1  1     0  0
 11 12  1  0     0  0
 50 53  1  0     0  0
 53 54  1  0     0  0
 25 26  1  0     0  0
  5  6  1  0     0  0
 25 27  1  6     0  0
 12 13  1  0     0  0
 54 55  1  0     0  0
 55 56  1  0     0  0
 56 57  1  0     0  0
 57 53  1  0     0  0
 27 28  1  0     0  0
M  END