
  SciTegic09261414462D

 21 23  0  0  0  0            999 V2000
   12.9658  -10.7136    0.0000 C   0  0
   15.0347  -11.1119    0.0000 S   0  0
   10.8357  -11.9375    0.0000 N   0  0
   13.7428  -10.4597    0.0000 N   0  0
   11.5471  -10.7136    0.0000 N   0  0
   12.2627  -11.9375    0.0000 N   0  0
   12.2627   -9.4856    0.0000 O   0  0
   11.5471  -11.5308    0.0000 C   0  0
   12.2627  -10.3029    0.0000 C   0  0
   12.9658  -11.5308    0.0000 C   0  0
   16.2668  -10.4086    0.0000 C   0  0
   13.7428  -11.7806    0.0000 N   0  0
   14.2174  -11.1160    0.0000 C   0  0
   15.4453  -10.4086    0.0000 C   0  0
   16.6725  -11.1197    0.0000 C   0  0
   17.4932  -11.1200    0.0000 C   0  0
   17.9047  -10.4081    0.0000 C   0  0
   17.4896   -9.6943    0.0000 C   0  0
   16.6703   -9.6975    0.0000 C   0  0
   18.7210  -10.4045    0.0000 C   0  0
   19.5382  -10.4034    0.0000 N   0  0
  8  3  1  0
 14 11  1  0
 13  2  1  0
  9  7  2  0
  4 13  1  0
  6  8  2  0
  5  9  1  0
 10  6  1  0
  4  1  1  0
 13 12  2  0
  8  5  1  0
  2 14  1  0
  9  1  1  0
 10  1  2  0
 12 10  1  0
 11 15  2  0
 15 16  1  0
 16 17  2  0
 17 18  1  0
 18 19  2  0
 19 11  1  0
 20 21  3  0
 17 20  1  0
M  END