
  SciTegic11111309142D

 51 55  0  0  1  0            999 V2000
   13.6739   -6.9740    0.0000 C   0  0
    9.2155  -14.3809    0.0000 C   0  0
    9.8286  -13.8289    0.0000 C   0  0
    9.4931  -13.0752    0.0000 C   0  0
    8.6726  -13.1615    0.0000 C   0  0
    8.5010  -13.9684    0.0000 C   0  0
   11.5305   -9.0365    0.0000 O   0  0
   10.8160   -9.4490    0.0000 C   0  0
   10.8160  -10.2740    0.0000 C   0  0
   11.5305  -10.6865    0.0000 C   0  0
   11.5305  -11.5115    0.0000 C   0  0
   10.8160  -11.9240    0.0000 C   0  0
   10.1015  -11.5115    0.0000 C   0  0
   10.1015  -10.6865    0.0000 C   0  0
   12.2449  -10.2740    0.0000 Cl  0  0
    9.3870  -10.2740    0.0000 Cl  0  0
    9.3870  -11.9240    0.0000 S   0  0
    8.9745  -11.2095    0.0000 O   0  0
    9.7995  -12.6384    0.0000 O   0  0
    7.8521  -13.0752    0.0000 C   0  0
    7.3672  -13.7427    0.0000 N   0  0
    7.5165  -12.3216    0.0000 O   0  0
    7.7027  -14.4964    0.0000 C   0  0
    7.2178  -15.1638    0.0000 C   0  0
    6.3973  -15.0776    0.0000 N   0  0
    6.0618  -14.3239    0.0000 C   0  0
    6.5467  -13.6564    0.0000 C   0  0
    5.9124  -15.7450    0.0000 C   0  0
    6.2480  -16.4987    0.0000 O   0  0
    5.0919  -15.6588    0.0000 C   0  0  2  0  0  0
    4.6070  -16.3262    0.0000 C   0  0
    3.7865  -16.2400    0.0000 C   0  0
    3.3016  -16.9074    0.0000 C   0  0
    2.4811  -16.8212    0.0000 C   0  0
   11.5305   -8.2115    0.0000 C   0  0
   11.5305   -6.5615    0.0000 C   0  0
   10.8160   -6.9740    0.0000 C   0  0
   10.8160   -7.7990    0.0000 C   0  0
   12.2449   -6.9740    0.0000 C   0  0
   12.2449   -7.7990    0.0000 C   0  0
   12.9594   -8.2115    0.0000 N   0  0
   13.6739   -7.7990    0.0000 C   0  0
   12.9594   -6.5615    0.0000 C   0  0
   14.3883   -8.2115    0.0000 C   0  0
   12.9594   -5.7365    0.0000 C   0  0
    4.7564  -14.9051    0.0000 N   0  3
    4.4208  -14.1514    0.0000 C   0  0
    4.0027  -15.2406    0.0000 C   0  0
    5.5100  -14.5695    0.0000 C   0  0
    1.9962  -17.4886    0.0000 N   0  0
    8.6726  -12.3365    0.0000 N   0  0
 17 18  2  0
 17 19  2  0
  5 20  1  0
 20 21  1  0
 20 22  2  0
 21 23  1  0
 21 27  1  0
 23 24  1  0
 24 25  1  0
 25 26  1  0
 26 27  1  0
 25 28  1  0
 28 29  2  0
 28 30  1  0
 30 31  1  0
 31 32  1  0
 32 33  1  0
 33 34  1  0
  7 35  1  0
 35 40  2  0
  2  3  1  0
 39 36  2  0
  3  4  1  0
 36 37  1  0
  4  5  1  0
 37 38  2  0
 38 35  1  0
  5  6  1  0
  6  2  1  0
 39 40  1  0
  7  8  1  0
 40 41  1  0
  8  9  1  0
 41 42  2  0
 42  1  1  0
  9 10  2  0
  1 43  2  0
 43 39  1  0
 10 11  1  0
 42 44  1  0
 11 12  2  0
 43 45  1  0
 12 13  1  0
 30 46  1  6
 13 14  2  0
 46 47  1  0
 14  9  1  0
 46 48  1  0
 10 15  1  0
 46 49  1  0
 14 16  1  0
 34 50  1  0
 13 17  1  0
 17 51  1  0
 51  5  1  0
M  CHG  1  46   1
M  END