
  SciTegic09171211542D

 19 20  0  0  0  0            999 V2000
   -1.2848  -24.3291    0.0000 C   0  0
   -1.2859  -25.1565    0.0000 C   0  0
   -0.5711  -25.5694    0.0000 C   0  0
   -0.5729  -23.9164    0.0000 C   0  0
    0.1425  -24.3255    0.0000 C   0  0
    0.1473  -25.1519    0.0000 C   0  0
    0.9348  -25.4028    0.0000 N   0  0
    1.4167  -24.7313    0.0000 C   0  0
    0.9270  -24.0656    0.0000 S   0  0
    2.2417  -24.7264    0.0000 C   0  0
   -1.9993  -23.9168    0.0000 N   0  0
   -1.9995  -23.0918    0.0000 C   0  0
   -2.7141  -22.6795    0.0000 C   0  0
   -1.2852  -22.6791    0.0000 O   0  0
   -3.4285  -23.0921    0.0000 C   0  0
   -4.1430  -22.6798    0.0000 N   0  0
   -4.8574  -23.0925    0.0000 C   0  0
   -5.5697  -22.6802    0.0000 N   0  0
   -4.8572  -23.9175    0.0000 O   0  0
  9  5  1  0
  4  1  1  0
  8 10  1  0
  5  6  1  0
  1 11  1  0
 11 12  1  0
  2  3  1  0
 12 13  1  0
  3  6  2  0
 12 14  2  0
  1  2  2  0
 13 15  1  0
  5  4  2  0
 15 16  1  0
  6  7  1  0
 16 17  1  0
  7  8  2  0
 17 18  1  0
  8  9  1  0
 17 19  2  0
M  END