
  SciTegic10311316212D

 27 30  0  0  0  0            999 V2000
   18.4432   -2.9303    0.0000 C   0  0
   18.4420   -3.7498    0.0000 C   0  0
   19.1501   -4.1588    0.0000 C   0  0
   19.8597   -3.7494    0.0000 C   0  0
   19.8569   -2.9267    0.0000 C   0  0
   19.1483   -2.5214    0.0000 C   0  0
   19.1400   -1.7033    0.0000 N   0  0
   19.7997   -1.2210    0.0000 C   0  0
   19.5448   -0.4446    0.0000 N   0  0
   18.7276   -0.4470    0.0000 N   0  0
   18.4775   -1.2250    0.0000 C   0  0
   20.5776   -1.4712    0.0000 S   0  0
   21.1833   -0.9226    0.0000 C   0  0
   21.9612   -1.1728    0.0000 C   0  0
   22.5669   -0.6241    0.0000 O   0  0
   22.1335   -1.9716    0.0000 O   0  0
   17.7006   -1.4839    0.0000 C   0  0
   19.1499   -4.9760    0.0000 Cl  0  0
   20.5681   -4.1568    0.0000 Cl  0  0
   17.0348   -1.0052    0.0000 C   0  0
   17.4537   -2.2621    0.0000 S   0  0
   16.6349   -2.2684    0.0000 C   0  0
   16.3773   -1.4903    0.0000 C   0  0
   15.5763   -1.3256    0.0000 C   0  0
   15.0319   -1.9382    0.0000 C   0  0
   15.2943   -2.7181    0.0000 C   0  0
   16.0947   -2.8790    0.0000 C   0  0
  1  2  2  0
  2  3  1  0
  3  4  2  0
  4  5  1  0
  5  6  2  0
  6  1  1  0
  7  8  1  0
  8  9  2  0
  9 10  1  0
 10 11  2  0
 11  7  1  0
  6  7  1  0
  8 12  1  0
 12 13  1  0
 13 14  1  0
 14 15  1  0
 14 16  2  0
 11 17  1  0
  3 18  1  0
  4 19  1  0
 17 20  2  0
 20 23  1  0
 22 21  1  0
 21 17  1  0
 22 23  2  0
 23 24  1  0
 24 25  2  0
 25 26  1  0
 26 27  2  0
 27 22  1  0
M  END