
          11290715122D 1   1.00000     0.00000     0

 42 46  0     0  0            999 V2000
    3.9211   -3.1877    0.0000 C   0  0  2  0  0  0           0  0  0
    3.1208   -2.9454    0.0000 N   0  0  0  0  0  0           0  0  0
    4.0387   -4.0032    0.0000 C   0  0  0  0  0  0           0  0  0
    2.5678   -3.5579    0.0000 C   0  0  0  0  0  0           0  0  0
    3.3472   -4.4468    0.0000 N   0  0  0  0  0  0           0  0  0
    1.8197   -3.1999    0.0000 C   0  0  1  0  0  0           0  0  0
    3.5938   -5.2408    0.0000 C   0  0  1  0  0  0           0  0  0
    1.1910   -3.7464    0.0000 N   0  0  0  0  0  0           0  0  0
    2.9681   -5.7807    0.0000 C   0  0  0  0  0  0           0  0  0
    1.4438   -4.5344    0.0000 C   0  0  0  0  0  0           0  0  0
    2.2216   -5.4252    0.0000 N   0  0  0  0  0  0           0  0  0
    0.7610   -4.9838    0.0000 C   0  0  0  0  0  0           0  0  0
    1.6773   -6.0401    0.0000 C   0  0  0  0  0  0           0  0  0
    0.8830   -5.8024    0.0000 C   0  0  0  0  0  0           0  0  0
    1.7542   -2.3773    0.0000 C   0  0  0  0  0  0           0  0  0
    2.4338   -1.9093    0.0000 C   0  0  0  0  0  0           0  0  0
    2.7275   -4.3675    0.0000 O   0  0  0  0  0  0           0  0  0
    4.5468   -2.6498    0.0000 C   0  0  0  0  0  0           0  0  0
    5.3255   -2.9226    0.0000 C   0  0  0  0  0  0           0  0  0
    4.7893   -4.3461    0.0000 O   0  0  0  0  0  0           0  0  0
    3.2075   -2.1849    0.0000 C   0  0  0  0  0  0           0  0  0
    3.7092   -1.5299    0.0000 N   0  0  0  0  0  0           0  0  0
    2.4502   -1.0854    0.0000 C   0  0  0  0  0  0           0  0  0
    3.2401   -0.8546    0.0000 C   0  0  0  0  0  0           0  0  0
    3.4337   -0.0567    0.0000 C   0  0  0  0  0  0           0  0  0
    2.8384    0.5111    0.0000 C   0  0  0  0  0  0           0  0  0
    2.0467    0.2755    0.0000 C   0  0  0  0  0  0           0  0  0
    1.8568   -0.5218    0.0000 C   0  0  0  0  0  0           0  0  0
    5.4762   -3.7337    0.0000 C   0  0  0  0  0  0           0  0  0
    6.2540   -4.0067    0.0000 C   0  0  0  0  0  0           0  0  0
    6.8807   -3.4685    0.0000 C   0  0  0  0  0  0           0  0  0
    6.7243   -2.6540    0.0000 C   0  0  0  0  0  0           0  0  0
    5.9466   -2.3848    0.0000 C   0  0  0  0  0  0           0  0  0
    4.4177   -5.2862    0.0000 C   0  0  0  0  0  0           0  0  0
    4.7905   -6.0223    0.0000 C   0  0  0  0  0  0           0  0  0
    4.3355   -6.7104    0.0000 C   0  0  0  0  0  0           0  0  0
    4.7075   -7.4460    0.0000 C   0  0  0  0  0  0           0  0  0
    5.5323   -7.4917    0.0000 C   0  0  0  0  0  0           0  0  0
    5.9836   -6.7958    0.0000 C   0  0  0  0  0  0           0  0  0
    5.6089   -6.0630    0.0000 C   0  0  0  0  0  0           0  0  0
    1.7290   -6.8636    0.0000 O   0  0  0  0  0  0           0  0  0
    2.2219   -4.8089    0.0000 O   0  0  0  0  0  0           0  0  0
  5  7  1  0     0  0
  6  8  1  0     0  0
 21 22  1  0     0  0
 22 24  1  0     0  0
 23 16  1  0     0  0
  7  9  1  0     0  0
  8 10  1  0     0  0
 23 24  2  0     0  0
  9 11  1  0     0  0
 24 25  1  0     0  0
 10 12  1  0     0  0
 25 26  2  0     0  0
 11 13  1  0     0  0
 26 27  1  0     0  0
 12 14  1  0     0  0
 27 28  2  0     0  0
 28 23  1  0     0  0
 13 14  1  0     0  0
 19 29  2  0     0  0
 29 30  1  0     0  0
  6 15  1  1     0  0
 30 31  2  0     0  0
  1  2  1  0     0  0
 31 32  1  0     0  0
 15 16  1  0     0  0
 32 33  2  0     0  0
 33 19  1  0     0  0
  1  3  1  0     0  0
  7 34  1  6     0  0
  4 17  2  0     0  0
 34 35  1  0     0  0
  2  4  1  0     0  0
 35 36  2  0     0  0
  1 18  1  1     0  0
 36 37  1  0     0  0
  3  5  1  0     0  0
 37 38  2  0     0  0
 18 19  1  0     0  0
 38 39  1  0     0  0
  4  6  1  0     0  0
 39 40  2  0     0  0
 40 35  1  0     0  0
  3 20  2  0     0  0
 13 41  2  0     0  0
 16 21  2  0     0  0
 10 42  2  0     0  0
M  END