
  SciTegic11201309402D

 25 28  0  0  1  0            999 V2000
   11.1841   -8.9904    0.0000 C   0  0
   11.1903   -7.6543    0.0000 C   0  0  2  0  0  0
   10.7049   -8.3203    0.0000 C   0  0
   11.9760   -7.9142    0.0000 C   0  0  1  0  0  0
   11.9700   -8.7393    0.0000 N   0  0
   12.7529   -9.0000    0.0000 C   0  0
   13.2428   -8.3360    0.0000 C   0  0
   12.7626   -7.6650    0.0000 C   0  0
   10.9380   -6.8688    0.0000 C   0  0
   10.1317   -6.6945    0.0000 N   0  0
    9.8794   -5.9090    0.0000 C   0  0
    9.0730   -5.7347    0.0000 N   0  0
   10.4335   -5.2978    0.0000 O   0  0
    7.7446   -5.8727    0.0000 C   0  0
    8.4577   -6.2875    0.0000 C   0  0
    7.9188   -5.0662    0.0000 C   0  0
    8.7384   -4.9835    0.0000 C   0  0
    9.0748   -4.2336    0.0000 C   0  0
    8.5928   -3.5660    0.0000 C   0  0
    7.7705   -3.6530    0.0000 C   0  0
    7.4378   -4.4030    0.0000 C   0  0
    8.5421   -7.1081    0.0000 O   0  0
    7.0250   -5.4583    0.0000 C   0  0
    7.5250   -6.6667    0.0000 C   0  0
   11.9823   -6.9142    0.0000 H   0  0
 10 11  1  0
  2  3  1  0
 11 12  1  0
  3  1  1  0
 11 13  2  0
 12 17  1  0
  5  6  1  0
  6  7  1  0
 16 14  1  0
 14 15  1  0
 15 12  1  0
  7  8  1  0
  4  8  1  0
 16 17  2  0
  4  5  1  0
 17 18  1  0
 18 19  2  0
  1  5  1  0
 19 20  1  0
  2  9  1  1
 20 21  2  0
 21 16  1  0
 15 22  2  0
  9 10  1  0
 14 23  1  0
  4  2  1  0
 14 24  1  0
  4 25  1  1
M  END