
  SciTegic10301317112D

 33 34  0  0  0  0            999 V2000
   -0.7833   -1.5875    0.0000 S   0  0
    2.5042   -1.5667    0.0000 C   0  0
    7.6042   -4.2250    0.0000 C   0  0  1  0  0  0
    8.0250   -4.9375    0.0000 C   0  0
    6.7792   -4.2292    0.0000 N   0  0
    0.0375   -1.5792    0.0000 C   0  0
    6.3000   -3.5625    0.0000 C   0  0
    2.9250   -2.2792    0.0000 N   0  0
   -0.7875   -2.4042    0.0000 O   0  0
   -0.7833   -0.7625    0.0000 O   0  0
    4.1667   -2.9875    0.0000 C   0  0
    1.6792   -1.5750    0.0000 C   0  0
   -1.6125   -1.5792    0.0000 N   0  0
    4.9917   -2.9792    0.0000 N   0  0
    8.0167   -3.5042    0.0000 C   0  0
    2.9167   -0.8542    0.0000 O   0  0
    7.6167   -5.6542    0.0000 O   0  0
    6.6292   -2.8042    0.0000 O   0  0
    3.7542   -3.7042    0.0000 O   0  0
    0.4417   -0.8667    0.0000 C   0  0
    0.4542   -2.2917    0.0000 C   0  0
    1.2750   -2.2917    0.0000 C   0  0
    1.2625   -0.8625    0.0000 C   0  0
    3.7500   -2.2750    0.0000 C   0  0
    5.4792   -3.6500    0.0000 C   0  0
    8.8417   -3.5000    0.0000 C   0  0
    8.8500   -4.9292    0.0000 O   0  0
   10.4875   -3.4917    0.0000 C   0  0
   11.3125   -3.4875    0.0000 N   0  0
    9.2417   -2.7875    0.0000 C   0  0
    9.2542   -4.2167    0.0000 C   0  0
   10.0792   -4.2125    0.0000 C   0  0
   10.0667   -2.7792    0.0000 C   0  0
  2 12  1  0
  3  5  1  0
  4  3  1  0
  5  7  1  0
  6  1  1  0
  7 25  1  0
  8  2  1  0
  9  1  2  0
 10  1  2  0
 11 24  1  0
 12 22  2  0
 13  1  1  0
 14 11  1  0
  3 15  1  1
 16  2  2  0
 17  4  2  0
 18  7  2  0
 19 11  2  0
 20  6  1  0
 21  6  2  0
 22 21  1  0
 23 20  2  0
 24  8  1  0
 25 14  1  0
 26 15  1  0
 27  4  1  0
 28 32  2  0
 29 28  1  0
 30 26  1  0
 31 26  2  0
 32 31  1  0
 33 30  2  0
 12 23  1  0
 28 33  1  0
M  END