
  Mrv0541 05211314572D          

 97 99  0  0  0  0            999 V2000
    8.0256    2.0342    0.0000 C   0  0  0  0  0  0  0  0  0  0  0  0
    7.3111    2.4467    0.0000 O   0  0  0  0  0  0  0  0  0  0  0  0
    6.5966    2.0342    0.0000 C   0  0  0  0  0  0  0  0  0  0  0  0
    5.8822    2.4467    0.0000 C   0  0  0  0  0  0  0  0  0  0  0  0
    5.1677    2.0342    0.0000 C   0  0  0  0  0  0  0  0  0  0  0  0
    5.1677    1.2092    0.0000 C   0  0  0  0  0  0  0  0  0  0  0  0
    5.8822    0.7967    0.0000 C   0  0  0  0  0  0  0  0  0  0  0  0
    6.5966    1.2092    0.0000 C   0  0  0  0  0  0  0  0  0  0  0  0
    7.3111    0.7967    0.0000 C   0  0  0  0  0  0  0  0  0  0  0  0
    7.3111   -0.0283    0.0000 N   0  0  0  0  0  0  0  0  0  0  0  0
    6.5966   -0.4408    0.0000 C   0  0  0  0  0  0  0  0  0  0  0  0
    5.8822   -0.0283    0.0000 C   0  0  0  0  0  0  0  0  0  0  0  0
    5.1677   -0.4408    0.0000 C   0  0  0  0  0  0  0  0  0  0  0  0
    4.4532   -0.0283    0.0000 C   0  0  0  0  0  0  0  0  0  0  0  0
    3.7387   -0.4408    0.0000 C   0  0  0  0  0  0  0  0  0  0  0  0
    3.0243   -0.0283    0.0000 C   0  0  0  0  0  0  0  0  0  0  0  0
    2.3098   -0.4408    0.0000 N   0  0  0  0  0  0  0  0  0  0  0  0
    2.3098   -1.2658    0.0000 C   0  0  0  0  0  0  0  0  0  0  0  0
    1.5953   -0.0283    0.0000 C   0  0  0  0  0  0  0  0  0  0  0  0
    0.8809   -0.4408    0.0000 C   0  0  0  0  0  0  0  0  0  0  0  0
    0.1664   -0.0283    0.0000 C   0  0  0  0  0  0  0  0  0  0  0  0
   -0.5481   -0.4408    0.0000 C   0  0  0  0  0  0  0  0  0  0  0  0
   -1.2626   -0.0283    0.0000 C   0  0  0  0  0  0  0  0  0  0  0  0
   -1.9770   -0.4408    0.0000 C   0  0  0  0  0  0  0  0  0  0  0  0
   -2.6915   -0.0283    0.0000 C   0  0  0  0  0  0  0  0  0  0  0  0
   -3.4060   -0.4408    0.0000 C   0  0  0  0  0  0  0  0  0  0  0  0
   -4.1204   -0.0283    0.0000 N   0  0  0  0  0  0  0  0  0  0  0  0
   -4.1204    0.7967    0.0000 C   0  0  0  0  0  0  0  0  0  0  0  0
   -4.8349   -0.4408    0.0000 C   0  0  0  0  0  0  0  0  0  0  0  0
   -5.5494   -0.0283    0.0000 C   0  0  0  0  0  0  0  0  0  0  0  0
   -6.2639   -0.4408    0.0000 C   0  0  0  0  0  0  0  0  0  0  0  0
   -6.9783   -0.0283    0.0000 C   0  0  0  0  0  0  0  0  0  0  0  0
   -7.6928   -0.4408    0.0000 C   0  0  0  0  0  0  0  0  0  0  0  0
   -8.4073   -0.0283    0.0000 C   0  0  0  0  0  0  0  0  0  0  0  0
   -9.1217   -0.4408    0.0000 N   0  0  0  0  0  0  0  0  0  0  0  0
   -9.8362   -0.0283    0.0000 C   0  0  0  0  0  0  0  0  0  0  0  0
  -10.5507   -0.4408    0.0000 C   0  0  0  0  0  0  0  0  0  0  0  0
  -10.5507   -1.2658    0.0000 O   0  0  0  0  0  0  0  0  0  0  0  0
  -11.2652   -0.0283    0.0000 N   0  0  0  0  0  0  0  0  0  0  0  0
  -11.9468   -0.4930    0.0000 C   0  0  0  0  0  0  0  0  0  0  0  0
  -11.7632   -1.2973    0.0000 C   0  0  0  0  0  0  0  0  0  0  0  0
  -12.3680   -1.8585    0.0000 C   0  0  0  0  0  0  0  0  0  0  0  0
  -13.1563   -1.6153    0.0000 C   0  0  0  0  0  0  0  0  0  0  0  0
  -13.3399   -0.8110    0.0000 C   0  0  0  0  0  0  0  0  0  0  0  0
  -12.7351   -0.2498    0.0000 C   0  0  0  0  0  0  0  0  0  0  0  0
  -13.0366    0.5182    0.0000 C   0  0  0  0  0  0  0  0  0  0  0  0
  -13.8592    0.5798    0.0000 O   0  0  0  0  0  0  0  0  0  0  0  0
  -12.6241    1.2326    0.0000 N   0  0  0  0  0  0  0  0  0  0  0  0
  -11.8083    1.3556    0.0000 C   0  0  0  0  0  0  0  0  0  0  0  0
  -11.6247    2.1599    0.0000 C   0  0  0  0  0  0  0  0  0  0  0  0
  -10.8363    2.4031    0.0000 C   0  0  0  0  0  0  0  0  0  0  0  0
  -10.2316    1.8419    0.0000 C   0  0  0  0  0  0  0  0  0  0  0  0
  -10.4152    1.0376    0.0000 N   0  0  0  0  0  0  0  0  0  0  0  0
  -11.2035    0.7944    0.0000 C   0  0  0  0  0  0  0  0  0  0  0  0
    8.0256   -0.4408    0.0000 C   0  0  0  0  0  0  0  0  0  0  0  0
    8.7400   -0.0283    0.0000 C   0  0  0  0  0  0  0  0  0  0  0  0
    8.7400    0.7967    0.0000 O   0  0  0  0  0  0  0  0  0  0  0  0
    9.4545   -0.4408    0.0000 N   0  0  0  0  0  0  0  0  0  0  0  0
   10.1362    0.0240    0.0000 C   0  0  0  0  0  0  0  0  0  0  0  0
    9.9526    0.8283    0.0000 C   0  0  0  0  0  0  0  0  0  0  0  0
   10.5573    1.3894    0.0000 C   0  0  0  0  0  0  0  0  0  0  0  0
   11.3457    1.1463    0.0000 C   0  0  0  0  0  0  0  0  0  0  0  0
   11.5293    0.3420    0.0000 C   0  0  0  0  0  0  0  0  0  0  0  0
   10.9245   -0.2192    0.0000 C   0  0  0  0  0  0  0  0  0  0  0  0
   11.2259   -0.9872    0.0000 C   0  0  0  0  0  0  0  0  0  0  0  0
   12.0486   -1.0488    0.0000 O   0  0  0  0  0  0  0  0  0  0  0  0
   10.8134   -1.7016    0.0000 N   0  0  0  0  0  0  0  0  0  0  0  0
    9.9976   -1.8246    0.0000 C   0  0  0  0  0  0  0  0  0  0  0  0
    9.8140   -2.6289    0.0000 C   0  0  0  0  0  0  0  0  0  0  0  0
    9.0257   -2.8721    0.0000 C   0  0  0  0  0  0  0  0  0  0  0  0
    8.4209   -2.3109    0.0000 C   0  0  0  0  0  0  0  0  0  0  0  0
    8.6045   -1.5066    0.0000 N   0  0  0  0  0  0  0  0  0  0  0  0
    9.3929   -1.2634    0.0000 C   0  0  0  0  0  0  0  0  0  0  0  0
   14.9950    1.0717    0.0000 O   0  0  0  0  0  0  0  0  0  0  0  0
   15.4075    0.3572    0.0000 C   0  0  0  0  0  0  0  0  0  0  0  0
   16.2325    0.3572    0.0000 O   0  0  0  0  0  0  0  0  0  0  0  0
   14.9950   -0.3572    0.0000 C   0  0  0  0  0  0  0  0  0  0  0  0
   15.4075   -1.0717    0.0000 O   0  0  0  0  0  0  0  0  0  0  0  0
   14.1700   -0.3572    0.0000 O   0  0  0  0  0  0  0  0  0  0  0  0
   19.1790    1.0717    0.0000 O   0  0  0  0  0  0  0  0  0  0  0  0
   19.5915    0.3572    0.0000 C   0  0  0  0  0  0  0  0  0  0  0  0
   20.4165    0.3572    0.0000 O   0  0  0  0  0  0  0  0  0  0  0  0
   19.1790   -0.3572    0.0000 C   0  0  0  0  0  0  0  0  0  0  0  0
   19.5915   -1.0717    0.0000 O   0  0  0  0  0  0  0  0  0  0  0  0
   18.3540   -0.3572    0.0000 O   0  0  0  0  0  0  0  0  0  0  0  0
   -0.2063   -4.5221    0.0000 O   0  0  0  0  0  0  0  0  0  0  0  0
    0.2062   -5.2365    0.0000 C   0  0  0  0  0  0  0  0  0  0  0  0
    1.0313   -5.2365    0.0000 O   0  0  0  0  0  0  0  0  0  0  0  0
   -0.2063   -5.9510    0.0000 C   0  0  0  0  0  0  0  0  0  0  0  0
    0.2063   -6.6655    0.0000 O   0  0  0  0  0  0  0  0  0  0  0  0
   -1.0313   -5.9510    0.0000 O   0  0  0  0  0  0  0  0  0  0  0  0
    3.9777   -4.5221    0.0000 O   0  0  0  0  0  0  0  0  0  0  0  0
    4.3902   -5.2365    0.0000 C   0  0  0  0  0  0  0  0  0  0  0  0
    5.2152   -5.2365    0.0000 O   0  0  0  0  0  0  0  0  0  0  0  0
    3.9777   -5.9510    0.0000 C   0  0  0  0  0  0  0  0  0  0  0  0
    4.3902   -6.6655    0.0000 O   0  0  0  0  0  0  0  0  0  0  0  0
    3.1527   -5.9510    0.0000 O   0  0  0  0  0  0  0  0  0  0  0  0
  1  2  1  0  0  0  0
  2  3  1  0  0  0  0
  3  4  2  0  0  0  0
  4  5  1  0  0  0  0
  5  6  2  0  0  0  0
  6  7  1  0  0  0  0
  7  8  2  0  0  0  0
  8  3  1  0  0  0  0
  8  9  1  0  0  0  0
  9 10  1  0  0  0  0
 10 11  1  0  0  0  0
 11 12  1  0  0  0  0
 12 13  1  0  0  0  0
 13 14  1  0  0  0  0
 14 15  1  0  0  0  0
 15 16  1  0  0  0  0
 16 17  1  0  0  0  0
 17 18  1  0  0  0  0
 17 19  1  0  0  0  0
 19 20  1  0  0  0  0
 20 21  1  0  0  0  0
 21 22  1  0  0  0  0
 22 23  1  0  0  0  0
 23 24  1  0  0  0  0
 24 25  1  0  0  0  0
 25 26  1  0  0  0  0
 26 27  1  0  0  0  0
 27 28  1  0  0  0  0
 27 29  1  0  0  0  0
 29 30  1  0  0  0  0
 30 31  1  0  0  0  0
 31 32  1  0  0  0  0
 32 33  1  0  0  0  0
 33 34  1  0  0  0  0
 34 35  1  0  0  0  0
 35 36  1  0  0  0  0
 36 37  1  0  0  0  0
 37 38  2  0  0  0  0
 37 39  1  0  0  0  0
 39 40  1  0  0  0  0
 40 41  2  0  0  0  0
 41 42  1  0  0  0  0
 42 43  2  0  0  0  0
 43 44  1  0  0  0  0
 44 45  2  0  0  0  0
 45 40  1  0  0  0  0
 45 46  1  0  0  0  0
 46 47  2  0  0  0  0
 46 48  1  0  0  0  0
 48 49  1  0  0  0  0
 49 50  2  0  0  0  0
 50 51  1  0  0  0  0
 51 52  2  0  0  0  0
 52 53  1  0  0  0  0
 53 54  2  0  0  0  0
 54 39  1  0  0  0  0
 54 49  1  0  0  0  0
 10 55  1  0  0  0  0
 55 56  1  0  0  0  0
 56 57  2  0  0  0  0
 56 58  1  0  0  0  0
 58 59  1  0  0  0  0
 59 60  2  0  0  0  0
 60 61  1  0  0  0  0
 61 62  2  0  0  0  0
 62 63  1  0  0  0  0
 63 64  2  0  0  0  0
 64 59  1  0  0  0  0
 64 65  1  0  0  0  0
 65 66  2  0  0  0  0
 65 67  1  0  0  0  0
 67 68  1  0  0  0  0
 68 69  2  0  0  0  0
 69 70  1  0  0  0  0
 70 71  2  0  0  0  0
 71 72  1  0  0  0  0
 72 73  2  0  0  0  0
 73 58  1  0  0  0  0
 73 68  1  0  0  0  0
 74 75  1  0  0  0  0
 75 76  2  0  0  0  0
 75 77  1  0  0  0  0
 77 78  2  0  0  0  0
 77 79  1  0  0  0  0
 80 81  1  0  0  0  0
 81 82  2  0  0  0  0
 81 83  1  0  0  0  0
 83 84  2  0  0  0  0
 83 85  1  0  0  0  0
 86 87  1  0  0  0  0
 87 88  2  0  0  0  0
 87 89  1  0  0  0  0
 89 90  2  0  0  0  0
 89 91  1  0  0  0  0
 92 93  1  0  0  0  0
 93 94  2  0  0  0  0
 93 95  1  0  0  0  0
 95 96  2  0  0  0  0
 95 97  1  0  0  0  0
M  END