
  SciTegic06051315212D

 18 18  0  0  0  0            999 V2000
   23.1771   -1.9687    0.0000 C   0  0
   23.1760   -2.7882    0.0000 C   0  0
   23.8840   -3.1972    0.0000 C   0  0
   24.5937   -2.7877    0.0000 C   0  0
   24.5908   -1.9651    0.0000 C   0  0
   23.8822   -1.5598    0.0000 C   0  0
   23.8798   -0.7426    0.0000 S   0  0
   24.5863   -0.3319    0.0000 N   0  0
   23.0836   -0.9493    0.0000 O   0  0
   23.4633   -0.0289    0.0000 O   0  0
   25.2970   -1.5538    0.0000 F   0  0
   22.4693   -1.5602    0.0000 F   0  0
   22.4679   -3.1962    0.0000 F   0  0
   25.3020   -3.1952    0.0000 F   0  0
   23.8838   -4.0143    0.0000 S   0  0
   23.1760   -4.4228    0.0000 C   0  0
   23.1758   -5.2400    0.0000 C   0  0
   22.4680   -5.6484    0.0000 O   0  0
  1  2  2  0
  2  3  1  0
  3  4  2  0
  4  5  1  0
  5  6  2  0
  6  1  1  0
  6  7  1  0
  7  8  1  0
  7  9  2  0
  7 10  2  0
  5 11  1  0
  1 12  1  0
  2 13  1  0
  4 14  1  0
  3 15  1  0
 15 16  1  0
 16 17  1  0
 17 18  1  0
M  END