
          11280714482D 1   1.00000     0.00000     0

 27 29  0     0  0            999 V2000
    4.0542   -6.8000    0.0000 C   0  0  3  0  0  0           0  0  0
    4.0667   -7.0042    0.0000 C   0  0  3  0  0  0           0  0  0
    4.3292   -5.6500    0.0000 N   0  3  3  0  0  0           0  0  0
    3.5375   -6.5750    0.0000 O   0  0  0  0  0  0           0  0  0
    4.6750   -6.7417    0.0000 C   0  0  3  0  0  0           0  0  0
    5.0000   -6.3292    0.0000 C   0  0  3  0  0  0           0  0  0
    7.2667   -8.4292    0.0000 C   0  0  0  0  0  0           0  0  0
    7.9917   -8.0542    0.0000 C   0  0  3  0  0  0           0  0  0
    6.1542   -6.3292    0.0000 C   0  0  0  0  0  0           0  0  0
    5.8542   -6.7417    0.0000 C   0  0  0  0  0  0           0  0  0
    6.5250   -7.4125    0.0000 C   0  0  3  0  0  0           0  0  0
    6.5250   -8.0375    0.0000 O   0  0  0  0  0  0           0  0  0
    7.2542   -9.2292    0.0000 O   0  0  0  0  0  0           0  0  0
    7.9917   -7.2542    0.0000 C   0  0  0  0  0  0           0  0  0
    5.8292   -3.7250    0.0000 Br  0  5  0  0  0  0           0  0  0
    3.8042   -5.0667    0.0000 C   0  0  0  0  0  0           0  0  0
    5.0167   -5.0667    0.0000 C   0  0  0  0  0  0           0  0  0
    8.6792   -8.4750    0.0000 C   0  0  0  0  0  0           0  0  0
    8.6792   -9.2792    0.0000 O   0  0  0  0  0  0           0  0  0
    7.3500   -6.8167    0.0000 C   0  0  0  0  0  0           0  0  0
    8.7417   -6.8917    0.0000 C   0  0  0  0  0  0           0  0  0
    3.8042   -4.3750    0.0000 C   0  0  0  0  0  0           0  0  0
    4.4042   -3.8917    0.0000 C   0  0  0  0  0  0           0  0  0
    4.4042   -3.1000    0.0000 C   0  0  0  0  0  0           0  0  0
    8.7417   -6.0417    0.0000 C   0  0  0  0  0  0           0  0  0
    7.3500   -5.9667    0.0000 C   0  0  0  0  0  0           0  0  0
    8.1042   -5.6250    0.0000 C   0  0  0  0  0  0           0  0  0
  2  1  1  0     0  0
  3  6  1  0     0  0
  4  1  1  0     0  0
  5  2  1  0     0  0
  6  1  1  0     0  0
  7 12  1  0     0  0
  8  7  1  0     0  0
  9  6  1  0     0  0
 10  5  1  0     0  0
 11  9  1  0     0  0
 12 11  1  0     0  0
 13  7  2  0     0  0
 14  8  1  0     0  0
 16  3  1  0     0  0
 17  3  1  0     0  0
 18  8  1  0     0  0
 19 18  1  0     0  0
 20 14  2  0     0  0
 21 14  1  0     0  0
 22 16  1  0     0  0
 23 22  1  0     0  0
 24 23  1  0     0  0
 25 21  2  0     0  0
 26 20  1  0     0  0
 27 26  2  0     0  0
  2  4  1  0     0  0
  3  5  1  0     0  0
 10 11  1  0     0  0
 25 27  1  0     0  0
M  CHG  2   3   1  15  -1
M  END