
  SciTegic12231509382D

 34 36  0  0  0  0            999 V2000
   19.8440  -19.9772    0.0000 C   0  0
   19.1281  -20.3897    0.0000 N   0  0
   18.4164  -19.9772    0.0000 C   0  0
   19.1281  -21.2147    0.0000 C   0  0
   18.4164  -21.6272    0.0000 O   0  0
   19.8440  -21.6272    0.0000 C   0  0
   19.8440  -22.4564    0.0000 C   0  0
   19.1281  -22.8689    0.0000 S   0  0
   19.1281  -23.6939    0.0000 C   0  0
   18.4164  -24.1064    0.0000 C   0  0
   18.4164  -24.9314    0.0000 C   0  0
   17.7006  -25.3439    0.0000 C   0  0
   16.9847  -24.9314    0.0000 C   0  0
   16.9847  -24.1064    0.0000 C   0  0
   17.7006  -23.6939    0.0000 C   0  0
   16.2730  -23.6939    0.0000 C   0  0
   15.5571  -24.1064    0.0000 C   0  0
   14.8413  -23.6939    0.0000 C   0  0
   14.1254  -24.1064    0.0000 N   0  0
   13.4137  -23.6939    0.0000 C   0  0
   13.4137  -22.8689    0.0000 C   0  0
   12.6978  -22.4564    0.0000 C   0  0
   11.9861  -22.8689    0.0000 C   0  0
   11.9861  -23.6939    0.0000 C   0  0
   12.6978  -24.1064    0.0000 C   0  0
   11.2703  -24.1064    0.0000 Cl  0  0
   14.1254  -22.4564    0.0000 C   0  0
   14.8413  -22.8689    0.0000 C   0  0
   19.8440  -24.1064    0.0000 S   0  0
   20.5598  -23.6939    0.0000 C   0  0
   20.5598  -22.8689    0.0000 C   0  0
   21.2715  -22.4564    0.0000 C   0  0
   21.2715  -21.6272    0.0000 O   0  0
   21.9874  -22.8689    0.0000 O   0  0
  1  2  1  0
  2  3  1  0
  2  4  1  0
  4  5  2  0
  4  6  1  0
  6  7  1  0
  7  8  1  0
  8  9  1  0
  9 10  1  0
 10 11  2  0
 11 12  1  0
 12 13  2  0
 13 14  1  0
 14 15  2  0
 10 15  1  0
 14 16  1  0
 16 17  2  0
 17 18  1  0
 18 19  2  0
 19 20  1  0
 20 21  2  0
 21 22  1  0
 22 23  2  0
 23 24  1  0
 24 25  2  0
 20 25  1  0
 24 26  1  0
 21 27  1  0
 27 28  2  0
 18 28  1  0
  9 29  1  0
 29 30  1  0
 30 31  1  0
 31 32  1  0
 32 33  2  0
 32 34  1  0
M  END