
          11280714442D 1   1.00000     0.00000     0

 21 22  0     0  0            999 V2000
   -4.2083    1.1958    0.0000 C   0  0  0  0  0  0           0  0  0
   -3.9083    0.6708    0.0000 C   0  0  0  0  0  0           0  0  0
   -3.6083    1.1875    0.0000 C   0  0  3  0  0  0           0  0  0
    2.1042    0.2958    0.0000 N   0  0  0  0  0  0           0  0  0
    0.0292    0.2875    0.0000 O   0  0  0  0  0  0           0  0  0
    1.0667    0.2958    0.0000 C   0  0  3  0  0  0           0  0  0
   -0.4958    0.5875    0.0000 C   0  0  0  0  0  0           0  0  0
    1.5875    0.5958    0.0000 C   0  0  0  0  0  0           0  0  0
   -2.5708    1.1875    0.0000 O   0  0  0  0  0  0           0  0  0
    0.5500    0.5958    0.0000 C   0  0  0  0  0  0           0  0  0
   -1.5333    1.1875    0.0000 C   0  0  0  0  0  0           0  0  0
   -0.4958    1.1958    0.0000 C   0  0  0  0  0  0           0  0  0
   -1.0125    0.2875    0.0000 C   0  0  0  0  0  0           0  0  0
   -1.0125    1.4958    0.0000 C   0  0  0  0  0  0           0  0  0
   -1.5333    0.5875    0.0000 C   0  0  0  0  0  0           0  0  0
    1.0667   -0.3042    0.0000 O   0  0  0  0  0  0           0  0  0
   -3.0875    1.4875    0.0000 C   0  0  0  0  0  0           0  0  0
    2.6292    0.5958    0.0000 C   0  0  3  0  0  0           0  0  0
   -2.0500    1.4875    0.0000 C   0  0  0  0  0  0           0  0  0
    3.1500    0.2958    0.0000 C   0  0  0  0  0  0           0  0  0
    2.6250    1.1958    0.0000 C   0  0  0  0  0  0           0  0  0
  2  1  1  0     0  0
  3  1  1  0     0  0
  4  8  1  0     0  0
  5  7  1  0     0  0
  6 10  1  0     0  0
  7 13  2  0     0  0
  8  6  1  0     0  0
  9 17  1  0     0  0
 10  5  1  0     0  0
 11 19  1  0     0  0
 12 14  2  0     0  0
 13 15  1  0     0  0
 14 11  1  0     0  0
 15 11  2  0     0  0
 16  6  1  0     0  0
 17  3  1  0     0  0
 18  4  1  0     0  0
 19  9  1  0     0  0
 20 18  1  0     0  0
 21 18  1  0     0  0
  2  3  1  0     0  0
 12  7  1  0     0  0
M  END