
          11280715212D 1   1.00000     0.00000     0

 54 57  0     0  0            999 V2000
   -1.2333   -2.3375    0.0000 N   0  0  3  0  0  0           0  0  0
   -1.2083   -1.5167    0.0000 C   0  0  0  0  0  0           0  0  0
   -2.6458   -1.1417    0.0000 C   0  0  0  0  0  0           0  0  0
   -1.8458   -0.9875    0.0000 C   0  0  0  0  0  0           0  0  0
   -1.8875   -2.8292    0.0000 C   0  0  0  0  0  0           0  0  0
   -3.0250   -1.8792    0.0000 N   0  0  0  0  0  0           0  0  0
   -2.6875   -2.6292    0.0000 C   0  0  0  0  0  0           0  0  0
   -0.4958   -2.7125    0.0000 C   0  0  0  0  0  0           0  0  0
   -1.6708   -3.6250    0.0000 N   0  0  0  0  0  0           0  0  0
   -3.1375   -0.4792    0.0000 O   0  0  0  0  0  0           0  0  0
   18.0542   -0.9625    0.0000 C   0  0  0  0  0  0           0  0  0
   -0.4583   -3.5375    0.0000 O   0  0  0  0  0  0           0  0  0
   18.0500   -0.1417    0.0000 C   0  0  0  0  0  0           0  0  0
   12.3417   -2.6292    0.0000 N   0  0  3  0  0  0           0  0  0
    5.9167   -2.2417    0.0000 N   0  0  3  0  0  0           0  0  0
   -1.6958   -0.1792    0.0000 C   0  0  0  0  0  0           0  0  0
   -0.4333   -1.2375    0.0000 C   0  0  0  0  0  0           0  0  0
    0.9167   -2.6750    0.0000 N   0  0  0  0  0  0           0  0  0
   17.3417   -2.2000    0.0000 N   0  0  0  0  0  0           0  0  0
    0.2000   -2.2667    0.0000 C   0  0  0  0  0  0           0  0  0
   17.3292    0.2708    0.0000 O   0  0  0  0  0  0           0  0  0
   17.3417   -1.3750    0.0000 C   0  0  0  0  0  0           0  0  0
   -3.2625   -3.2167    0.0000 C   0  0  0  0  0  0           0  0  0
   -2.2375   -4.2125    0.0000 C   0  0  0  0  0  0           0  0  0
   18.7667   -1.3750    0.0000 C   0  0  0  0  0  0           0  0  0
   18.7542    0.2750    0.0000 C   0  0  0  0  0  0           0  0  0
    5.2000   -2.6542    0.0000 C   0  0  0  0  0  0           0  0  0
   13.0542   -2.2167    0.0000 C   0  0  0  0  0  0           0  0  0
    6.6292   -2.6542    0.0000 C   0  0  0  0  0  0           0  0  0
   11.6292   -2.2250    0.0000 C   0  0  0  0  0  0           0  0  0
    1.6292   -2.2625    0.0000 C   0  0  0  0  0  0           0  0  0
   16.6292   -2.6167    0.0000 C   0  0  0  0  0  0           0  0  0
   12.3500   -3.4542    0.0000 C   0  0  0  0  0  0           0  0  0
    5.9125   -1.4167    0.0000 C   0  0  0  0  0  0           0  0  0
   17.3250    1.0958    0.0000 C   0  0  0  0  0  0           0  0  0
    7.3417   -2.2417    0.0000 C   0  0  0  0  0  0           0  0  0
   10.9167   -2.6375    0.0000 C   0  0  0  0  0  0           0  0  0
    4.4875   -2.2500    0.0000 C   0  0  0  0  0  0           0  0  0
   13.7750   -2.6292    0.0000 C   0  0  0  0  0  0           0  0  0
    2.3417   -2.6667    0.0000 C   0  0  0  0  0  0           0  0  0
   15.9167   -2.2042    0.0000 C   0  0  0  0  0  0           0  0  0
   -3.0375   -4.0042    0.0000 C   0  0  0  0  0  0           0  0  0
   -0.9250    0.1083    0.0000 C   0  0  0  0  0  0           0  0  0
   -0.2958   -0.4250    0.0000 C   0  0  0  0  0  0           0  0  0
    9.4875   -2.6417    0.0000 C   0  0  0  0  0  0           0  0  0
   10.2000   -2.2292    0.0000 C   0  0  0  0  0  0           0  0  0
   14.4875   -2.2125    0.0000 C   0  0  0  0  0  0           0  0  0
   15.2042   -2.6167    0.0000 C   0  0  0  0  0  0           0  0  0
    3.0542   -2.2542    0.0000 C   0  0  0  0  0  0           0  0  0
    3.7750   -2.6667    0.0000 C   0  0  0  0  0  0           0  0  0
    8.0542   -2.6500    0.0000 C   0  0  0  0  0  0           0  0  0
    8.7667   -2.2292    0.0000 C   0  0  0  0  0  0           0  0  0
   19.4792   -0.9542    0.0000 C   0  0  0  0  0  0           0  0  0
   19.4792   -0.1292    0.0000 C   0  0  0  0  0  0           0  0  0
  2  1  1  0     0  0
  3  4  1  0     0  0
  4  2  2  0     0  0
  5  1  1  0     0  0
  6  7  1  0     0  0
  7  5  2  0     0  0
  8  1  1  0     0  0
  9  5  1  0     0  0
 10  3  2  0     0  0
 11 22  1  0     0  0
 12  8  2  0     0  0
 13 11  1  0     0  0
 14 30  1  0     0  0
 15 27  1  0     0  0
 16  4  1  0     0  0
 17  2  1  0     0  0
 18 20  1  0     0  0
 19 32  1  0     0  0
 20  8  1  0     0  0
 21 13  1  0     0  0
 22 19  1  0     0  0
 23  7  1  0     0  0
 24  9  2  0     0  0
 25 11  2  0     0  0
 26 13  2  0     0  0
 27 38  1  0     0  0
 28 14  1  0     0  0
 29 15  1  0     0  0
 30 37  1  0     0  0
 31 18  1  0     0  0
 32 41  1  0     0  0
 33 14  1  0     0  0
 34 15  1  0     0  0
 35 21  1  0     0  0
 36 29  1  0     0  0
 37 46  1  0     0  0
 38 50  1  0     0  0
 39 28  1  0     0  0
 40 31  1  0     0  0
 41 48  1  0     0  0
 42 24  1  0     0  0
 43 44  1  0     0  0
 44 17  2  0     0  0
 45 52  1  0     0  0
 46 45  1  0     0  0
 47 39  1  0     0  0
 48 47  1  0     0  0
 49 40  1  0     0  0
 50 49  1  0     0  0
 51 36  1  0     0  0
 52 51  1  0     0  0
 53 25  1  0     0  0
 54 53  2  0     0  0
  6  3  1  0     0  0
 42 23  2  0     0  0
 16 43  2  0     0  0
 54 26  1  0     0  0
M  END