
  SciTegic06051313552D

 32 35  0  0  0  0            999 V2000
    2.6772  -25.5393    0.0000 C   0  0
    2.6760  -26.3588    0.0000 C   0  0
    3.3841  -26.7678    0.0000 C   0  0
    3.3823  -25.1304    0.0000 C   0  0
    4.8746  -25.2796    0.0000 C   0  0
    4.0909  -25.5357    0.0000 C   0  0
    4.0934  -26.3609    0.0000 C   0  0
    4.8798  -26.6122    0.0000 N   0  0
    5.3605  -25.9414    0.0000 N   0  0
    5.1367  -27.3879    0.0000 C   0  0
    4.7184  -28.0890    0.0000 C   0  0
    3.9036  -28.0745    0.0000 C   0  0
    3.4846  -28.7752    0.0000 C   0  0
    3.8828  -29.4899    0.0000 C   0  0
    4.7041  -29.4994    0.0000 C   0  0
    5.1194  -28.7980    0.0000 C   0  0
    5.1047  -30.2116    0.0000 C   0  0
    4.6882  -30.9147    0.0000 N   0  0
    5.0888  -31.6270    0.0000 C   0  0
    4.6723  -32.3300    0.0000 O   0  0
    5.9060  -31.6362    0.0000 C   0  0
    5.2963  -24.5796    0.0000 N   0  0
    6.1134  -24.5947    0.0000 S   0  0
    6.6000  -25.2512    0.0000 C   0  0
    6.0859  -23.7710    0.0000 O   0  0
    6.8948  -24.3516    0.0000 O   0  0
    6.3550  -26.0328    0.0000 C   0  0
    7.0212  -26.5075    0.0000 C   0  0
    7.6779  -26.0192    0.0000 C   0  0
    7.4153  -25.2444    0.0000 S   0  0
    8.4581  -26.2625    0.0000 Cl  0  0
    3.3798  -24.3132    0.0000 O   0  0
  1  2  2  0
  2  3  1  0
  3  7  2  0
  6  4  2  0
  4  1  1  0
  6  7  1  0
  5  6  1  0
  7  8  1  0
  8  9  1  0
  9  5  2  0
  8 10  1  0
 10 11  1  0
 11 12  2  0
 12 13  1  0
 13 14  2  0
 14 15  1  0
 15 16  2  0
 16 11  1  0
 15 17  1  0
 17 18  1  0
 18 19  1  0
 19 20  2  0
 19 21  1  0
  5 22  1  0
 22 23  1  0
 23 24  1  0
 23 25  2  0
 23 26  2  0
 27 28  1  0
 24 27  2  0
 28 29  2  0
 29 30  1  0
 30 24  1  0
 29 31  1  0
  4 32  1  0
M  END