
  SciTegic05221516342D

 27 28  0  0  0  0            999 V2000
   11.3221  -13.1093    0.0000 O   0  0
   10.6120  -15.1564    0.0000 C   0  0  2  0  0  0
   20.1716  -13.2587    0.0000 O   0  0
   18.4717  -13.0319    0.0000 C   0  0
   11.3174  -16.3896    0.0000 O   0  0
   14.1676  -13.1093    0.0000 C   0  0
   12.0366  -12.7009    0.0000 C   0  0
   12.7501  -13.9246    0.0000 O   0  0
   11.3221  -13.9302    0.0000 C   0  0  1  0  0  0
   12.0368  -15.1615    0.0000 C   0  0  1  0  0  0
   18.6071  -11.7126    0.0000 N   0  0
   12.7468  -13.1093    0.0000 C   0  0
   12.0404  -14.3381    0.0000 C   0  0  1  0  0  0
   10.6139  -14.3393    0.0000 O   0  0
    9.9000  -15.5621    0.0000 C   0  0
   17.7234  -12.7009    0.0000 N   0  0
   14.8780  -12.7009    0.0000 C   0  0
   19.0196  -12.4229    0.0000 C   0  0
   13.4572  -12.7009    0.0000 O   0  0
   12.7456  -15.5723    0.0000 O   0  0
   11.3205  -15.5687    0.0000 C   0  0  2  0  0  0
   15.5882  -13.1093    0.0000 O   0  0
   19.8361  -12.5092    0.0000 C   0  0
   17.8043  -11.8842    0.0000 N   0  0
   16.2986  -12.7009    0.0000 C   0  0
   17.0089  -13.1093    0.0000 C   0  0
    9.1946  -15.1495    0.0000 O   0  0
 24 16  1  0
 25 26  1  0
 16  4  1  0
 12 19  1  0
 19  6  1  0
 18 23  1  0
  6 17  1  0
  9  1  1  1
 18 11  1  0
 11 24  2  0
  9 13  1  0
 14  2  1  0
 13  8  1  6
 10 20  1  1
  2 15  1  1
 17 22  1  0
 10 13  1  0
 22 25  1  0
  4 18  2  0
 21 10  1  0
  9 14  1  0
  2 21  1  0
  1  7  1  0
 26 16  1  0
  7 12  1  0
 21  5  1  1
 23  3  1  0
 15 27  1  0
M  END