
  SciTegic06051315212D

 33 38  0  0  0  0            999 V2000
    4.2195  -15.2288    0.0000 C   0  0
    3.6451  -18.9778    0.0000 C   0  0
    7.4111  -17.5755    0.0000 C   0  0
    6.1380  -18.2002    0.0000 C   0  0
    5.7393  -16.1462    0.0000 N   0  0
    4.3540  -17.7453    0.0000 C   0  0
    1.5276  -20.1994    0.0000 C   0  0
    2.9441  -21.0162    0.0000 C   0  0
    1.5270  -21.0177    0.0000 O   0  0
    3.5613  -16.4827    0.0000 C   0  0
    6.9522  -18.2609    0.0000 C   0  0
    3.6433  -17.3400    0.0000 C   0  0
    5.7842  -17.4686    0.0000 C   0  0
    2.2377  -21.4264    0.0000 C   0  0
    4.2506  -16.0469    0.0000 C   0  0
    4.3568  -18.5681    0.0000 N   0  0
    4.9719  -16.4237    0.0000 C   0  0
    2.2328  -19.7916    0.0000 C   0  0
    2.9403  -17.7490    0.0000 C   0  0
    6.2447  -16.7881    0.0000 C   0  0
    5.0000  -17.2416    0.0000 N   0  0
    7.0548  -16.8466    0.0000 C   0  0
    2.9391  -20.2036    0.0000 C   0  0
    2.8362  -16.1063    0.0000 C   0  0
    2.9391  -18.5686    0.0000 N   0  0
    3.6449  -19.7951    0.0000 N   0  0
    2.8023  -15.2905    0.0000 C   0  0
    3.4974  -14.8494    0.0000 C   0  0
    3.4620  -14.0289    0.0000 C   0  0
    2.7323  -13.6484    0.0000 C   0  0
    2.0368  -14.0945    0.0000 C   0  0
    2.0756  -14.9135    0.0000 C   0  0
    7.3100  -18.9956    0.0000 O   0  0
  2 26  1  0
 21 13  1  0
 16  6  1  0
 20  5  1  0
 19 25  2  0
  6 12  2  0
 17 21  1  0
 11  3  1  0
 24 10  2  0
 23 26  1  0
  6 21  1  0
  8 23  1  0
  2 16  2  0
 14  8  1  0
  7  9  1  0
 15  1  2  0
 17 15  1  0
 10 15  1  0
  5 17  2  0
  3 22  2  0
 25  2  1  0
  1 28  1  0
 23 18  1  0
  9 14  1  0
 22 20  1  0
 18  7  1  0
 12 19  1  0
  4 11  2  0
 20 13  2  0
 27 24  1  0
 13  4  1  0
 27 28  1  0
 28 29  2  0
 29 30  1  0
 30 31  2  0
 31 32  1  0
 32 27  2  0
 11 33  1  0
M  END