
  SciTegic12231509382D

 33 36  0  0  0  0            999 V2000
   -2.3313    0.1732    0.0000 C   0  0
   -1.9188    0.8877    0.0000 C   0  0
   -1.0938    0.8877    0.0000 C   0  0
   -0.6813    1.6021    0.0000 C   0  0
    0.1437    1.6021    0.0000 N   0  0
    0.5562    0.8877    0.0000 C   0  0
    0.1437    0.1732    0.0000 C   0  0
    0.5562   -0.5413    0.0000 C   0  0
    0.1437   -1.2557    0.0000 C   0  0
   -0.6813   -1.2557    0.0000 C   0  0
   -1.0938   -0.5413    0.0000 C   0  0
   -0.6813    0.1732    0.0000 C   0  0
   -1.0938   -1.9702    0.0000 C   0  0
   -1.9188   -1.9702    0.0000 C   0  0
   -2.3313   -2.6847    0.0000 C   0  0
   -1.9188   -3.3991    0.0000 C   0  0
   -1.0938   -3.3991    0.0000 C   0  0
   -0.6813   -2.6847    0.0000 C   0  0
    0.1437   -2.6847    0.0000 C   0  0
    0.6286   -3.3521    0.0000 N   0  0
    1.4132   -3.0972    0.0000 N   0  0
    1.4132   -2.2722    0.0000 N   0  0
    0.6286   -2.0172    0.0000 N   0  0
    0.5562    2.3166    0.0000 C   0  0
    0.1437    3.0311    0.0000 N   0  0
    0.5562    3.7456    0.0000 C   0  0
    0.1437    4.4600    0.0000 C   0  0
    1.3812    3.7456    0.0000 N   0  0
    1.7937    3.0311    0.0000 C   0  0
    1.3812    2.3166    0.0000 C   0  0
    1.7937    1.6021    0.0000 C   0  0
    1.3812    0.8877    0.0000 O   0  0
    2.6187    1.6021    0.0000 O   0  0
  1  2  1  0
  2  3  1  0
  3  4  1  0
  4  5  1  0
  5  6  1  0
  6  7  1  0
  7  8  2  0
  8  9  1  0
  9 10  2  0
 10 11  1  0
 11 12  2  0
  7 12  1  0
 10 13  1  0
 13 14  2  0
 14 15  1  0
 15 16  2  0
 16 17  1  0
 17 18  2  0
 13 18  1  0
 18 19  1  0
 19 20  1  0
 20 21  2  0
 21 22  1  0
 22 23  1  0
 19 23  2  0
  5 24  1  0
 24 25  2  0
 25 26  1  0
 26 27  1  0
 26 28  2  0
 28 29  1  0
 29 30  2  0
 24 30  1  0
 30 31  1  0
 31 32  2  0
 31 33  1  0
M  END