
  SciTegic08161218152D

 33 33  0  0  0  0            999 V2000
   -0.9893    1.4913    0.0000 C   0  0  2  0  0  0
   -0.2748    1.0788    0.0000 C   0  0  1  0  0  0
   -0.2748    0.2538    0.0000 C   0  0  1  0  0  0
   -0.9893   -0.1587    0.0000 C   0  0  1  0  0  0
   -1.7037    0.2538    0.0000 C   0  0  1  0  0  0
   -1.7037    1.0788    0.0000 O   0  0
   -2.4182   -0.1587    0.0000 O   0  0
   -0.9893   -0.9837    0.0000 O   0  0
    0.4397   -0.1587    0.0000 O   0  0
    0.4397    1.4913    0.0000 O   0  0
   -0.9893    2.3163    0.0000 C   0  0
   -1.7037    2.7288    0.0000 O   0  0
   -3.1327    0.2538    0.0000 C   0  0
    1.1541    0.2538    0.0000 C   0  0
    1.8686   -0.1587    0.0000 C   0  0
    1.1541    1.0788    0.0000 O   0  0
    2.5831    0.2538    0.0000 C   0  0
    3.2976   -0.1587    0.0000 C   0  0
    3.2976   -0.9837    0.0000 C   0  0
    2.5831   -1.3962    0.0000 C   0  0
    1.8686   -0.9837    0.0000 C   0  0
   -1.7037   -1.3962    0.0000 S   0  0
   -2.1162   -0.6817    0.0000 O   0  0
   -1.2912   -2.1106    0.0000 O   0  0
   -2.4182   -1.8087    0.0000 O   0  0
    7.4888   -0.1021    0.0000 N   0  0
    8.3138   -0.1021    0.0000 C   0  0
    7.0763   -0.8165    0.0000 C   0  0
    7.0763    0.6124    0.0000 C   0  0
    6.2513   -0.8165    0.0000 C   0  0
    8.7263    0.6124    0.0000 C   0  0
    6.2513    0.6124    0.0000 C   0  0
    4.0120   -1.3962    0.0000 C   0  0
  5  7  1  6
 14 16  2  0
 15 17  2  0
  4  8  1  6
 17 18  1  0
  1  2  1  0
 18 19  2  0
  3  9  1  6
 19 20  1  0
  1  6  1  0
 20 21  2  0
 21 15  1  0
  2 10  1  6
  8 22  1  0
  2  3  1  0
 22 23  2  0
  1 11  1  6
 22 24  1  0
  3  4  1  0
 22 25  2  0
 11 12  1  0
  4  5  1  0
 26 27  1  0
  7 13  1  0
 26 28  1  0
  5  6  1  0
 26 29  1  0
  9 14  1  0
 28 30  1  0
 27 31  1  0
 14 15  1  0
 29 32  1  0
 19 33  1  0
M  END