
  SciTegic12171313022D

 11 11  0  0  0  0            999 V2000
   10.1691   -1.5357    0.0000 N   0  0
   10.1680   -2.3631    0.0000 C   0  0
   10.8828   -2.7760    0.0000 C   0  0
   11.5992   -2.3626    0.0000 C   0  0
   11.5964   -1.5321    0.0000 C   0  0
   10.8810   -1.1230    0.0000 C   0  0
    9.4532   -2.7750    0.0000 N   0  0
    9.4525   -3.6000    0.0000 C   0  0
    8.7377   -4.0120    0.0000 C   0  0
   10.1667   -4.0131    0.0000 O   0  0
   12.3093   -1.1169    0.0000 Cl  0  0
  1  2  2  0
  2  3  1  0
  3  4  2  0
  4  5  1  0
  5  6  2  0
  6  1  1  0
  2  7  1  0
  7  8  1  0
  8  9  1  0
  8 10  2  0
  5 11  1  0
M  END