
          11280715292D 1   1.00000     0.00000     0

 16 17  0     0  0            999 V2000
    4.2500    0.1958    0.0000 N   0  0  3  0  0  0           0  0  0
    3.4542   -0.0625    0.0000 C   0  0  0  0  0  0           0  0  0
    3.4542   -0.8917    0.0000 C   0  0  0  0  0  0           0  0  0
    4.7292   -0.4750    0.0000 C   0  0  0  0  0  0           0  0  0
    4.2417   -1.1500    0.0000 C   0  0  0  0  0  0           0  0  0
    2.7417    0.3500    0.0000 C   0  0  0  0  0  0           0  0  0
    2.7417   -1.3042    0.0000 C   0  0  0  0  0  0           0  0  0
    4.5042    0.9833    0.0000 C   0  0  0  0  0  0           0  0  0
    2.0292   -0.8917    0.0000 C   0  0  0  0  0  0           0  0  0
    2.0292   -0.0625    0.0000 C   0  0  0  0  0  0           0  0  0
    5.3125    1.1458    0.0000 C   0  0  0  0  0  0           0  0  0
    1.3125   -1.3042    0.0000 O   0  0  0  0  0  0           0  0  0
    5.5250    1.9458    0.0000 C   0  0  3  0  0  0           0  0  0
    0.6000   -0.8917    0.0000 C   0  0  0  0  0  0           0  0  0
    4.9375    2.5333    0.0000 C   0  0  0  0  0  0           0  0  0
    6.3167    2.1708    0.0000 C   0  0  0  0  0  0           0  0  0
  2  1  1  0     0  0
  3  2  1  0     0  0
  4  1  1  0     0  0
  5  4  2  0     0  0
  6  2  2  0     0  0
  7  3  2  0     0  0
  8  1  1  0     0  0
  9 10  2  0     0  0
 10  6  1  0     0  0
 11  8  1  0     0  0
 12  9  1  0     0  0
 13 11  1  0     0  0
 14 12  1  0     0  0
 15 13  1  0     0  0
 16 13  1  0     0  0
  3  5  1  0     0  0
  9  7  1  0     0  0
M  END