
          11280715072D 1   1.00000     0.00000     0

 26 28  0     0  0            999 V2000
    3.5042   -2.0125    0.0000 C   0  0  0  0  0  0           0  0  0
    3.5292   -2.8292    0.0000 C   0  0  0  0  0  0           0  0  0
    2.7792   -1.6125    0.0000 C   0  0  0  0  0  0           0  0  0
    2.0792   -2.0417    0.0000 C   0  0  0  0  0  0           0  0  0
    2.8292   -3.2625    0.0000 C   0  0  0  0  0  0           0  0  0
    2.1000   -2.8667    0.0000 C   0  0  0  0  0  0           0  0  0
    4.2125   -1.5792    0.0000 C   0  0  0  0  0  0           0  0  0
    4.9292   -1.9750    0.0000 C   0  0  0  0  0  0           0  0  0
    1.3167   -3.1417    0.0000 O   0  0  0  0  0  0           0  0  0
    1.2875   -1.8000    0.0000 C   0  0  0  0  0  0           0  0  0
    5.6375   -1.5417    0.0000 C   0  0  0  0  0  0           0  0  0
    0.8167   -2.4792    0.0000 C   0  0  0  0  0  0           0  0  0
    4.1917   -0.7542    0.0000 O   0  0  0  0  0  0           0  0  0
    4.2500   -3.2167    0.0000 O   0  0  0  0  0  0           0  0  0
    2.7667   -0.7875    0.0000 O   0  0  0  0  0  0           0  0  0
    2.8542   -4.0792    0.0000 O   0  0  0  0  0  0           0  0  0
    6.3625   -1.9375    0.0000 C   0  0  0  0  0  0           0  0  0
    7.0625   -1.5042    0.0000 C   0  0  0  0  0  0           0  0  0
    7.7875   -1.8917    0.0000 C   0  0  0  0  0  0           0  0  0
    8.4875   -1.4625    0.0000 O   0  0  0  0  0  0           0  0  0
    7.1042   -3.1542    0.0000 C   0  0  0  0  0  0           0  0  0
    6.3792   -2.7625    0.0000 C   0  0  0  0  0  0           0  0  0
    7.8125   -2.7250    0.0000 C   0  0  0  0  0  0           0  0  0
    2.0417   -0.3917    0.0000 C   0  0  0  0  0  0           0  0  0
    3.5792   -4.4792    0.0000 C   0  0  0  0  0  0           0  0  0
    8.4625   -0.6375    0.0000 C   0  0  0  0  0  0           0  0  0
  2  1  1  0     0  0
  3  1  2  0     0  0
  4  3  1  0     0  0
  5  2  2  0     0  0
  6  4  2  0     0  0
  7  1  1  0     0  0
  8  7  1  0     0  0
  9  6  1  0     0  0
 10  4  1  0     0  0
 11  8  2  0     0  0
 12 10  2  0     0  0
 13  7  2  0     0  0
 14  2  1  0     0  0
 15  3  1  0     0  0
 16  5  1  0     0  0
 17 11  1  0     0  0
 18 17  1  0     0  0
 19 18  2  0     0  0
 20 19  1  0     0  0
 21 22  1  0     0  0
 22 17  2  0     0  0
 23 21  2  0     0  0
 24 15  1  0     0  0
 25 16  1  0     0  0
 26 20  1  0     0  0
  5  6  1  0     0  0
  9 12  1  0     0  0
 23 19  1  0     0  0
M  END