
          11280715352D 1   1.00000     0.00000     0

 34 37  0     1  0            999 V2000
    4.4125   -5.3042    0.0000 C   0  0  0  0  0  0           0  0  0
    4.4667   -4.1292    0.0000 C   0  0  1  0  0  0           0  0  0
    4.9625   -4.4542    0.0000 C   0  0  2  0  0  0           0  0  0
    3.9500   -4.4000    0.0000 C   0  0  0  0  0  0           0  0  0
    5.4875   -4.1917    0.0000 N   0  0  3  0  0  0           0  0  0
    3.9167   -4.9792    0.0000 C   0  0  0  0  0  0           0  0  0
    4.9292   -5.0417    0.0000 C   0  0  0  0  0  0           0  0  0
    4.3750   -5.8917    0.0000 C   0  0  0  0  0  0           0  0  0
    3.3625   -5.8292    0.0000 N   0  0  0  0  0  0           0  0  0
    6.6125   -2.4917    0.0000 C   0  0  3  0  0  0           0  0  0
    6.0875   -2.7542    0.0000 C   0  0  0  0  0  0           0  0  0
    7.2000   -2.5292    0.0000 C   0  0  0  0  0  0           0  0  0
    6.9375   -2.0042    0.0000 C   0  0  0  0  0  0           0  0  0
    3.4000   -5.2500    0.0000 C   0  0  0  0  0  0           0  0  0
    5.5250   -3.6042    0.0000 C   0  0  0  0  0  0           0  0  0
    4.5000   -3.5417    0.0000 C   0  0  0  0  0  0           0  0  0
    8.4125   -5.0417    0.0000 C   0  0  0  0  0  0           0  0  0
    7.2042   -5.0292    0.0000 C   0  0  0  0  0  0           0  0  0
    8.1125   -4.5167    0.0000 C   0  0  0  0  0  0           0  0  0
    7.5125   -4.5167    0.0000 C   0  0  0  0  0  0           0  0  0
    5.0250   -3.2792    0.0000 C   0  0  1  0  0  0           0  0  0
    5.5917   -2.4292    0.0000 O   0  0  0  0  0  0           0  0  0
    6.0500   -3.3417    0.0000 O   0  0  0  0  0  0           0  0  0
    7.5125   -5.5542    0.0000 O   0  0  0  0  0  0           0  0  0
    9.0125   -5.0417    0.0000 O   0  0  0  0  0  0           0  0  0
    5.0625   -2.6917    0.0000 C   0  0  0  0  0  0           0  0  0
    3.4542   -4.0792    0.0000 C   0  0  0  0  0  0           0  0  0
    5.9792   -4.5167    0.0000 C   0  0  0  0  0  0           0  0  0
    8.1125   -5.5542    0.0000 O   0  0  0  0  0  0           0  0  0
    6.6042   -5.0292    0.0000 O   0  0  0  0  0  0           0  0  0
    2.9375   -4.3542    0.0000 C   0  0  0  0  0  0           0  0  0
    2.9042   -4.9417    0.0000 C   0  0  0  0  0  0           0  0  0
    5.4542   -4.7667    0.0000 H   0  0  0  0  0  0           0  0  0
    3.8000   -3.5667    0.0000 H   0  0  0  0  0  0           0  0  0
  2  3  1  0     0  0
  3  7  1  0     0  0
  4  6  2  0     0  0
  5  3  1  0     0  0
  6  1  1  0     0  0
  7  1  1  0     0  0
  8  1  2  0     0  0
  9  8  1  0     0  0
 10 11  1  0     0  0
 11 22  1  0     0  0
 12 10  1  0     0  0
 13 10  1  0     0  0
 14  6  1  0     0  0
 15  5  1  0     0  0
 16  2  1  0     0  0
 18 20  1  0     0  0
 19 17  1  0     0  0
 20 19  2  0     0  0
 21 15  1  0     0  0
 22 26  1  0     0  0
 23 11  2  0     0  0
 24 18  2  0     0  0
 25 17  2  0     0  0
 21 26  1  1     0  0
 27  4  1  0     0  0
 28  5  1  0     0  0
 29 17  1  0     0  0
 30 18  1  0     0  0
 31 27  2  0     0  0
 32 14  2  0     0  0
  3 33  1  1     0  0
  2 34  1  6     0  0
  2  4  1  0     0  0
  9 14  1  0     0  0
 32 31  1  0     0  0
 21 16  1  0     0  0
 13 12  1  0     0  0
M  END