
  CDK    9/16/09,10:0

 25 27  0  0  0  0  0  0  0  0999 V2000
    2.8437  -11.4004    0.0000 N   0  0  0  0  0  0  0  0  0  0  0  0
    3.2598  -10.6907    0.0000 C   0  0  0  0  0  0  0  0  0  0  0  0
    2.8518   -9.9779    0.0000 C   0  0  0  0  0  0  0  0  0  0  0  0
    2.0265   -9.9726    0.0000 C   0  0  0  0  0  0  0  0  0  0  0  0
    1.6110  -10.6863    0.0000 C   0  0  0  0  0  0  0  0  0  0  0  0
    2.0207  -11.4053    0.0000 C   0  0  0  0  0  0  0  0  0  0  0  0
   -3.3699   -8.9869    0.0000 C   0  0  0  0  0  0  0  0  0  0  0  0
   -3.3712   -9.8144    0.0000 C   0  0  0  0  0  0  0  0  0  0  0  0
   -2.6583  -10.2272    0.0000 C   0  0  0  0  0  0  0  0  0  0  0  0
   -1.9391   -9.8139    0.0000 C   0  0  0  0  0  0  0  0  0  0  0  0
   -1.9423   -8.9829    0.0000 C   0  0  0  0  0  0  0  0  0  0  0  0
   -2.6603   -8.5741    0.0000 C   0  0  0  0  0  0  0  0  0  0  0  0
   -1.2299   -8.5668    0.0000 C   0  0  0  0  0  0  0  0  0  0  0  0
   -0.5134   -8.9758    0.0000 C   0  0  0  0  0  0  0  0  0  0  0  0
   -0.4206   -9.7956    0.0000 C   0  0  0  0  0  0  0  0  0  0  0  0
    0.3872   -9.9631    0.0000 N   0  0  0  0  0  0  0  0  0  0  0  0
    0.7958   -9.2470    0.0000 C   0  0  0  0  0  0  0  0  0  0  0  0
    0.2411   -8.6365    0.0000 N   0  0  0  0  0  0  0  0  0  0  0  0
   -4.0862  -10.2258    0.0000 Cl  0  0  0  0  0  0  0  0  0  0  0  0
    0.4089   -7.8288    0.0000 C   0  0  0  0  0  0  0  0  0  0  0  0
    1.6206   -9.2545    0.0000 O   0  0  0  0  0  0  0  0  0  0  0  0
    3.2560  -12.1149    0.0000 C   0  0  0  0  0  0  0  0  0  0  0  0
    2.8433  -12.8292    0.0000 C   0  0  0  0  0  0  0  0  0  0  0  0
    4.0809  -12.1151    0.0000 C   0  0  0  0  0  0  0  0  0  0  0  0
   -1.2340   -7.7420    0.0000 O   0  0  0  0  0  0  0  0  0  0  0  0
  5  6  1  0  0  0  0 
 11 13  1  0  0  0  0 
  1  2  1  0  0  0  0 
 13 14  1  0  0  0  0 
 14 15  2  0  0  0  0 
  7  8  2  0  0  0  0 
  1  6  1  0  0  0  0 
  8  9  1  0  0  0  0 
 15 16  1  0  0  0  0 
 16 17  2  0  0  0  0 
 17 18  1  0  0  0  0 
 18 14  1  0  0  0  0 
  2  3  1  0  0  0  0 
  8 19  1  0  0  0  0 
  9 10  2  0  0  0  0 
 18 20  1  0  0  0  0 
  3  4  1  0  0  0  0 
 17 21  1  0  0  0  0 
 21  4  1  0  0  0  0 
 10 11  1  0  0  0  0 
  1 22  1  0  0  0  0 
  4  5  1  0  0  0  0 
 22 23  1  0  0  0  0 
 11 12  2  0  0  0  0 
 22 24  1  0  0  0  0 
 12  7  1  0  0  0  0 
 13 25  2  0  0  0  0 
M  END