
  SciTegic01161211242D

 43 46  0  0  0  0            999 V2000
    8.8708   -4.5250    0.0000 N   0  3
    3.8792   -4.9542    0.0000 C   0  0
    6.0208   -4.5292    0.0000 C   0  0
    0.3083   -6.2042    0.0000 C   0  0
    4.5917   -4.5375    0.0000 N   0  0
    5.3083   -4.9458    0.0000 C   0  0  1  0  0  0
    6.7375   -4.9375    0.0000 N   0  0
    3.1625   -4.5458    0.0000 N   0  0
   -0.4083   -5.7917    0.0000 O   0  0
    9.5792   -5.7625    0.0000 C   0  0
   10.3000   -4.5292    0.0000 C   0  0
    1.0208   -5.7917    0.0000 C   0  0
    8.8667   -5.3458    0.0000 C   0  0
    9.5875   -4.1167    0.0000 C   0  0
   10.7083   -5.2417    0.0000 C   0  0
   11.1250   -4.5292    0.0000 C   0  0
    9.9875   -6.4750    0.0000 C   0  0
   10.4083   -5.7625    0.0000 C   0  0
    8.1625   -4.9375    0.0000 C   0  0
    3.8833   -5.7792    0.0000 O   0  0
    6.0167   -3.7042    0.0000 O   0  0
    0.3042   -7.0292    0.0000 O   0  0
    5.3125   -5.7708    0.0000 C   0  0
    7.4500   -4.5250    0.0000 C   0  0  2  0  0  0
    1.7333   -6.2042    0.0000 C   0  0
    1.0208   -4.9625    0.0000 C   0  0
    2.4500   -4.9625    0.0000 C   0  0
    8.8708   -3.7000    0.0000 C   0  0
    6.0292   -6.1792    0.0000 C   0  0
    7.4583   -7.0000    0.0000 C   0  0
    2.4542   -5.7917    0.0000 C   0  0
    1.7333   -4.5500    0.0000 C   0  0
    6.7375   -5.7625    0.0000 C   0  0
    6.0292   -7.0042    0.0000 C   0  0
    6.7458   -7.4125    0.0000 C   0  0
    7.4542   -6.1708    0.0000 C   0  0
    8.1750   -7.4042    0.0000 O   0  0
   -1.1208   -6.2000    0.0000 C   0  0
    8.1542   -3.2875    0.0000 C   0  0
    7.4375   -3.7000    0.0000 C   0  0
   -1.1250   -7.0250    0.0000 C   0  0
   -1.8375   -5.7875    0.0000 C   0  0
   10.1667   -9.9917    0.0000 I   0  5
  2  5  1  0
  3  7  1  0
  4 12  1  0
  5  6  1  0
  6  3  1  0
 24  7  1  1
  8  2  1  0
  9  4  1  0
 10 13  1  0
 11 14  1  0
 12 25  1  0
 13  1  1  0
 14  1  1  0
 15 11  1  0
 16 11  1  0
 17 10  1  0
 18 10  1  0
 19  1  1  0
 20  2  2  0
 21  3  2  0
 22  4  2  0
  6 23  1  6
 24 19  1  0
 25 31  2  0
 26 32  1  0
 27  8  1  0
 28  1  1  0
 29 23  1  0
 30 36  1  0
 31 27  1  0
 32 27  2  0
 33 29  1  0
 34 29  2  0
 35 34  1  0
 36 33  2  0
 37 30  1  0
 38  9  1  0
 39 28  1  0
 40 39  1  0
 41 38  1  0
 42 38  1  0
 15 16  1  0
 17 18  1  0
 40 24  1  0
 30 35  2  0
 12 26  2  0
M  CHG  2   1   1  43  -1
M  END