
  SciTegic04091415222D

 37 41  0  0  0  0            999 V2000
   26.4303  -24.1195    0.0000 C   0  0
   27.1356  -23.7151    0.0000 C   0  0
   27.1356  -22.8979    0.0000 C   0  0
   26.4303  -22.4851    0.0000 C   0  0
   26.4303  -24.9367    0.0000 O   0  0
   26.4303  -21.6680    0.0000 O   0  0
   25.7250  -23.7151    0.0000 C   0  0
   25.7276  -22.8997    0.0000 C   0  0
   25.0238  -22.4916    0.0000 C   0  0
   24.3170  -22.8977    0.0000 C   0  0
   24.3185  -23.7162    0.0000 C   0  0
   25.0228  -24.1206    0.0000 N   0  0
   27.8427  -24.1247    0.0000 N   0  0
   28.5510  -23.7171    0.0000 C   0  0
   29.2581  -24.1267    0.0000 C   0  0
   29.9664  -23.7192    0.0000 C   0  0
   30.6738  -24.1305    0.0000 C   0  0
   31.3816  -23.7236    0.0000 C   0  0
   31.3832  -22.9056    0.0000 C   0  0
   30.6711  -22.4961    0.0000 C   0  0
   29.9662  -22.9053    0.0000 C   0  0
   32.0910  -22.4970    0.0000 O   0  0
   32.7986  -22.9057    0.0000 C   0  0
   33.5064  -22.4972    0.0000 C   0  0
   32.0885  -24.1336    0.0000 O   0  0
   32.0869  -24.9508    0.0000 C   0  0
   32.7938  -25.3607    0.0000 C   0  0
   32.7906  -26.1759    0.0000 C   0  0
   33.4967  -26.5858    0.0000 C   0  0
   34.2062  -26.1786    0.0000 C   0  0
   34.2051  -25.3571    0.0000 C   0  0
   33.4985  -24.9509    0.0000 C   0  0
   34.2095  -22.9083    0.0000 C   0  0
   34.9168  -22.5004    0.0000 C   0  0
   34.9173  -21.6824    0.0000 C   0  0
   34.2047  -21.2738    0.0000 C   0  0
   33.5003  -21.6840    0.0000 C   0  0
  8  4  1  0
  7  1  1  0
  1  2  1  0
  2  3  2  0
  3  4  1  0
  1  5  2  0
  4  6  2  0
  7  8  2  0
  8  9  1  0
  9 10  2  0
 10 11  1  0
 11 12  2  0
 12  7  1  0
  2 13  1  0
 13 14  1  0
 14 15  1  0
 15 16  1  0
 16 17  2  0
 17 18  1  0
 18 19  2  0
 19 20  1  0
 20 21  2  0
 21 16  1  0
 19 22  1  0
 22 23  1  0
 23 24  1  0
 18 25  1  0
 25 26  1  0
 26 27  1  0
 27 28  2  0
 28 29  1  0
 29 30  2  0
 30 31  1  0
 31 32  2  0
 32 27  1  0
 24 33  2  0
 33 34  1  0
 34 35  2  0
 35 36  1  0
 36 37  2  0
 37 24  1  0
M  END