
          05270816392D 1   1.00000     0.00000     0

 37 42  0     1  0            999 V2000
   -4.8324    2.4612    0.0000 C   0  0  0  0  0  0           0  0  0
   -4.8337    1.6382    0.0000 C   0  0  0  0  0  0           0  0  0
   -3.4091    2.4653    0.0000 C   0  0  0  0  0  0           0  0  0
   -4.1180    2.8741    0.0000 C   0  0  0  0  0  0           0  0  0
   -3.4059    1.6388    0.0000 C   0  0  0  0  0  0           0  0  0
   -4.1174    1.2243    0.0000 C   0  0  0  0  0  0           0  0  0
   -4.1187    0.4022    0.0000 C   0  0  0  0  0  0           0  0  0
   -3.4057   -0.0118    0.0000 C   0  0  0  0  0  0           0  0  0
   -5.4496    1.0862    0.0000 N   0  0  0  0  0  0           0  0  0
   -4.9031    0.1476    0.0000 C   0  0  0  0  0  0           0  0  0
   -2.6912    1.2266    0.0000 C   0  0  2  0  0  0           0  0  0
   -2.6904    0.3987    0.0000 C   0  0  2  0  0  0           0  0  0
   -1.9770   -0.0121    0.0000 N   0  0  3  0  0  0           0  0  0
   -1.2599    0.4003    0.0000 C   0  0  0  0  0  0           0  0  0
   -1.2608    1.2280    0.0000 C   0  0  1  0  0  0           0  0  0
   -1.9788    1.6435    0.0000 C   0  0  0  0  0  0           0  0  0
   -2.6996   -0.4216    0.0000 H   0  0  0  0  0  0           0  0  0
   -2.6996    2.0534    0.0000 H   0  0  0  0  0  0           0  0  0
   -0.5464    1.6406    0.0000 C   0  0  0  0  0  0           0  0  0
   -0.5464    2.4656    0.0000 O   0  0  0  0  0  0           0  0  0
    0.1682    1.2281    0.0000 N   0  0  3  0  0  0           0  0  0
    0.1630    0.3979    0.0000 C   0  0  0  0  0  0           0  0  0
    0.8734   -0.0145    0.0000 C   0  0  0  0  0  0           0  0  0
    1.5903    0.3945    0.0000 N   0  0  3  0  0  0           0  0  0
    1.5922    1.2203    0.0000 C   0  0  0  0  0  0           0  0  0
    0.8774    1.6373    0.0000 C   0  0  0  0  0  0           0  0  0
    2.3032   -0.0208    0.0000 C   0  0  0  0  0  0           0  0  0
    2.2951   -0.8446    0.0000 C   0  0  0  0  0  0           0  0  0
    3.0073   -1.2597    0.0000 C   0  0  0  0  0  0           0  0  0
    3.7242   -0.8499    0.0000 C   0  0  0  0  0  0           0  0  0
    3.7247   -0.0206    0.0000 C   0  0  0  0  0  0           0  0  0
    3.0120    0.3908    0.0000 N   0  0  0  0  0  0           0  0  0
   -5.1976   -0.6230    0.0000 Br  0  0  0  0  0  0           0  0  0
   -1.9773   -0.8371    0.0000 C   0  0  0  0  0  0           0  0  0
   -2.6919   -1.2494    0.0000 C   0  0  0  0  0  0           0  0  0
   -2.6922   -2.0744    0.0000 C   0  0  0  0  0  0           0  0  0
   -3.4068   -2.4866    0.0000 O   0  0  0  0  0  0           0  0  0
 12 17  1  1     0  0
  7  8  1  0     0  0
 11 18  1  6     0  0
  8 12  1  0     0  0
 15 19  1  1     0  0
  3  4  2  0     0  0
 19 20  2  0     0  0
  2  9  1  0     0  0
 19 21  1  0     0  0
 21 22  1  0     0  0
  4  1  1  0     0  0
  7 10  2  0     0  0
  9 10  1  0     0  0
 11 12  1  0     0  0
  5  6  2  0     0  0
 21 26  1  0     0  0
 22 23  1  0     0  0
 23 24  1  0     0  0
 24 25  1  0     0  0
 25 26  1  0     0  0
  2  6  1  0     0  0
 24 27  1  0     0  0
 27 28  2  0     0  0
  5  3  1  0     0  0
 28 29  1  0     0  0
  1  2  2  0     0  0
 29 30  2  0     0  0
  5 11  1  0     0  0
 30 31  1  0     0  0
 11 16  1  0     0  0
 31 32  2  0     0  0
 32 27  1  0     0  0
 12 13  1  0     0  0
 10 33  1  0     0  0
 13 14  1  0     0  0
 13 34  1  0     0  0
 14 15  1  0     0  0
 34 35  1  0     0  0
 15 16  1  0     0  0
 35 36  1  0     0  0
  6  7  1  0     0  0
 36 37  1  0     0  0
M  END