
          11280715252D 1   1.00000     0.00000     0

 14 15  0     0  0            999 V2000
    0.6542   -2.5542    0.0000 N   0  3  0  0  0  0           0  0  0
    4.7625   -2.5625    0.0000 N   0  0  3  0  0  0           0  0  0
   -0.1708   -2.5500    0.0000 N   0  5  0  0  0  0           0  0  0
    6.0292   -2.9667    0.0000 N   0  0  0  0  0  0           0  0  0
    5.2417   -3.2250    0.0000 C   0  0  0  0  0  0           0  0  0
    1.4792   -2.5500    0.0000 N   0  0  0  0  0  0           0  0  0
    3.9375   -2.5625    0.0000 C   0  0  0  0  0  0           0  0  0
    5.2500   -1.8917    0.0000 C   0  0  0  0  0  0           0  0  0
    6.0292   -2.1417    0.0000 C   0  0  0  0  0  0           0  0  0
    3.5250   -3.2667    0.0000 C   0  0  0  0  0  0           0  0  0
    3.5250   -1.8500    0.0000 C   0  0  0  0  0  0           0  0  0
    2.3042   -2.5542    0.0000 C   0  0  0  0  0  0           0  0  0
    2.7042   -3.2667    0.0000 C   0  0  0  0  0  0           0  0  0
    2.7125   -1.8500    0.0000 C   0  0  0  0  0  0           0  0  0
  2  7  1  0     0  0
  3  1  2  0     0  0
  4  5  2  0     0  0
  5  2  1  0     0  0
  6  1  2  0     0  0
  7 11  1  0     0  0
  8  2  1  0     0  0
  9  8  2  0     0  0
 10 13  1  0     0  0
 11 14  2  0     0  0
 12  6  1  0     0  0
 13 12  2  0     0  0
 14 12  1  0     0  0
 10  7  2  0     0  0
  4  9  1  0     0  0
M  CHG  2   1   1   3  -1
M  END