
  CDK    9/16/09,9:51

 28 31  0  0  0  0  0  0  0  0999 V2000
    3.2025   -5.1051    0.0000 C   0  0  0  0  0  0  0  0  0  0  0  0
    2.8063   -5.8351    0.0000 N   0  0  0  0  0  0  0  0  0  0  0  0
    3.2417   -6.5340    0.0000 C   0  0  0  0  0  0  0  0  0  0  0  0
    4.0707   -6.5144    0.0000 C   0  0  0  0  0  0  0  0  0  0  0  0
    4.4622   -5.7843    0.0000 N   0  0  0  0  0  0  0  0  0  0  0  0
    4.0295   -5.0741    0.0000 C   0  0  0  0  0  0  0  0  0  0  0  0
    5.2868   -5.7584    0.0000 C   0  0  0  0  0  0  0  0  0  0  0  0
    5.7213   -6.4624    0.0000 C   0  0  0  0  0  0  0  0  0  0  0  0
    5.4048   -7.2221    0.0000 C   0  0  0  0  0  0  0  0  0  0  0  0
    6.0320   -7.7595    0.0000 S   0  0  0  0  0  0  0  0  0  0  0  0
    6.7359   -7.3248    0.0000 C   0  0  0  0  0  0  0  0  0  0  0  0
    6.5402   -6.5255    0.0000 C   0  0  0  0  0  0  0  0  0  0  0  0
    7.0726   -5.8932    0.0000 C   0  0  0  0  0  0  0  0  0  0  0  0
    7.8828   -6.0421    0.0000 O   0  0  0  0  0  0  0  0  0  0  0  0
    6.7945   -5.1167    0.0000 C   0  0  0  0  0  0  0  0  0  0  0  0
    7.3306   -4.4927    0.0000 C   0  0  0  0  0  0  0  0  0  0  0  0
    7.0532   -3.7167    0.0000 C   0  0  0  0  0  0  0  0  0  0  0  0
    6.2376   -3.5671    0.0000 C   0  0  0  0  0  0  0  0  0  0  0  0
    5.7044   -4.2002    0.0000 C   0  0  0  0  0  0  0  0  0  0  0  0
    5.9850   -4.9734    0.0000 C   0  0  0  0  0  0  0  0  0  0  0  0
    5.9584   -2.7910    0.0000 Cl  0  0  0  0  0  0  0  0  0  0  0  0
    1.9819   -5.8572    0.0000 C   0  0  0  0  0  0  0  0  0  0  0  0
    7.4971   -7.6379    0.0000 N   0  0  0  0  0  0  0  0  0  0  0  0
    1.5536   -5.1516    0.0000 C   0  0  0  0  0  0  0  0  0  0  0  0
    0.7328   -5.1716    0.0000 C   0  0  0  0  0  0  0  0  0  0  0  0
    0.3359   -5.8949    0.0000 C   0  0  0  0  0  0  0  0  0  0  0  0
    0.7661   -6.5996    0.0000 C   0  0  0  0  0  0  0  0  0  0  0  0
    1.5932   -6.5810    0.0000 C   0  0  0  0  0  0  0  0  0  0  0  0
 15 16  2  0  0  0  0 
  7  8  1  0  0  0  0 
 16 17  1  0  0  0  0 
  8  9  2  0  0  0  0 
 17 18  2  0  0  0  0 
  1  6  1  0  0  0  0 
 18 19  1  0  0  0  0 
  2  3  1  0  0  0  0 
 19 20  2  0  0  0  0 
 20 15  1  0  0  0  0 
  3  4  1  0  0  0  0 
 18 21  1  0  0  0  0 
  4  5  1  0  0  0  0 
  2 22  1  0  0  0  0 
  9 10  1  0  0  0  0 
 11 23  1  0  0  0  0 
 10 11  1  0  0  0  0 
 11 12  2  0  0  0  0 
 12  8  1  0  0  0  0 
  5  6  1  0  0  0  0 
 12 13  1  0  0  0  0 
 22 24  1  0  0  0  0 
 13 14  2  0  0  0  0 
  5  7  1  0  0  0  0 
 13 15  1  0  0  0  0 
  1  2  1  0  0  0  0 
 22 28  1  0  0  0  0 
 24 25  1  0  0  0  0 
 25 26  1  0  0  0  0 
 26 27  1  0  0  0  0 
 27 28  1  0  0  0  0 
M  END