
  SciTegic04091414152D

 32 36  0  0  0  0            999 V2000
   15.1542   -5.6034    0.0000 C   0  0
   14.4377   -6.0010    0.0000 C   0  0  2  0  0  0
   14.4288   -6.8187    0.0000 C   0  0
   15.1538   -7.2191    0.0000 N   0  3
   15.8524   -6.8400    0.0000 C   0  0
   15.8630   -6.0120    0.0000 C   0  0
   14.6275   -6.2296    0.0000 C   0  0
   15.3706   -6.5690    0.0000 C   0  0
   13.7311   -5.5835    0.0000 O   0  0
   12.3820   -5.1310    0.0000 C   0  0
   11.8376   -5.7530    0.0000 C   0  0
   12.9292   -5.7499    0.0000 C   0  0
   11.6243   -4.8096    0.0000 C   0  0
   11.3978   -4.0190    0.0000 C   0  0
   11.8750   -3.3482    0.0000 C   0  0
   12.6931   -3.3142    0.0000 C   0  0
   13.2396   -3.9295    0.0000 C   0  0
   13.1005   -4.7413    0.0000 C   0  0
   11.0199   -5.6830    0.0000 C   0  0
   10.6973   -6.4416    0.0000 C   0  0
   11.3193   -6.9857    0.0000 C   0  0
   12.0236   -6.5608    0.0000 S   0  0
   12.6722   -6.5298    0.0000 O   0  0
   15.0452   -8.0331    0.0000 C   0  0
   15.6965   -8.5363    0.0000 C   0  0
   15.5879   -9.3503    0.0000 C   0  0
   16.2392   -9.8493    0.0000 C   0  0
   16.1253  -10.6625    0.0000 C   0  0
   16.7758  -11.1655    0.0000 C   0  0
   17.5366  -10.8504    0.0000 N   0  0
   17.6431  -10.0318    0.0000 C   0  0
   16.9916   -9.5366    0.0000 C   0  0
  1  2  1  0
  1  6  1  0
  2  3  1  0
  3  4  1  0
  4  5  1  0
  5  6  1  0
  1  7  1  0
  4  8  1  0
  7  8  1  0
  2  9  1  6
 11 10  1  0
 10 12  1  0
 13 14  1  0
 14 15  1  0
 15 16  1  0
 13 10  1  0
 16 17  1  0
 10 18  1  0
 17 18  1  0
 11 19  2  0
 19 20  1  0
 20 21  2  0
 21 22  1  0
 22 11  1  0
 12 23  2  0
 12  9  1  0
  4 24  1  0
 24 25  1  0
 25 26  1  0
 26 27  1  0
 27 28  2  0
 28 29  1  0
 29 30  2  0
 30 31  1  0
 31 32  2  0
 32 27  1  0
M  CHG  1   4   1
M  END