
  SciTegic11111309142D

 48 52  0  0  0  0            999 V2000
   -1.8933    2.3258    0.0000 C   0  0
   -0.9846   -4.6889    0.0000 C   0  0
   -0.1977   -4.9401    0.0000 C   0  0
    0.2841   -4.2716    0.0000 C   0  0
   -0.2015   -3.6094    0.0000 C   0  0
   -0.9846   -3.8639    0.0000 C   0  0
   -3.0158   -0.4293    0.0000 O   0  0
   -3.5010   -1.0971    0.0000 C   0  0
   -3.1982   -1.8651    0.0000 C   0  0
   -3.7000   -2.4773    0.0000 C   0  0
   -3.4193   -3.2114    0.0000 C   0  0
   -2.6422   -3.3152    0.0000 C   0  0
   -2.1804   -2.6808    0.0000 C   0  0
   -2.5029   -1.9582    0.0000 C   0  0
   -4.5149   -2.3451    0.0000 Cl  0  0
   -2.0086   -1.2971    0.0000 Cl  0  0
   -1.3594   -2.7671    0.0000 S   0  0
   -1.2731   -1.9461    0.0000 O   0  0
   -1.4456   -3.5881    0.0000 O   0  0
    0.5134   -3.1967    0.0000 C   0  0
    1.2276   -3.6090    0.0000 N   0  0
    0.5134   -2.3704    0.0000 O   0  0
    1.2276   -4.4361    0.0000 C   0  0
    1.9378   -4.8462    0.0000 C   0  0
    2.6486   -4.4358    0.0000 N   0  0
    2.6486   -3.6136    0.0000 C   0  0
    1.9380   -3.1989    0.0000 C   0  0
    3.3600   -4.8465    0.0000 C   0  0
    3.3600   -5.6676    0.0000 N   0  0
    4.0787   -4.4315    0.0000 N   0  0
   -3.3525    0.3270    0.0000 C   0  0
   -4.0240    1.8354    0.0000 C   0  0
   -4.5110    1.1605    0.0000 C   0  0
   -4.1722    0.4073    0.0000 C   0  0
   -3.1997    1.7483    0.0000 C   0  0
   -2.8675    0.9913    0.0000 C   0  0
   -2.0476    0.9016    0.0000 N   0  0
   -1.5589    1.5682    0.0000 C   0  0
   -2.7150    2.4125    0.0000 C   0  0
   -0.7356    1.4796    0.0000 C   0  0
   -3.0510    3.1693    0.0000 C   0  0
    4.7958   -4.8456    0.0000 C   0  0
    5.5128   -4.4315    0.0000 C   0  0
    6.2299   -4.8456    0.0000 C   0  0
    6.9470   -4.4315    0.0000 N   0  0
    7.6641   -4.8456    0.0000 C   0  0
    6.9470   -3.6035    0.0000 C   0  0
   -0.5393   -2.8567    0.0000 N   0  0
 17 19  2  0
  5 20  1  0
 20 21  1  0
 20 22  2  0
 21 23  1  0
 21 27  1  0
 23 24  1  0
 24 25  1  0
 25 26  1  0
 26 27  1  0
 25 28  1  0
 28 29  2  0
 28 30  1  0
  7 31  1  0
 31 36  2  0
  2  3  1  0
 35 32  2  0
  3  4  1  0
 32 33  1  0
  4  5  1  0
 33 34  2  0
 34 31  1  0
  5  6  1  0
  6  2  1  0
 35 36  1  0
  7  8  1  0
 36 37  1  0
  8  9  1  0
 37 38  2  0
 38  1  1  0
  9 10  2  0
  1 39  2  0
 39 35  1  0
 10 11  1  0
 38 40  1  0
 11 12  2  0
 39 41  1  0
 12 13  1  0
 30 42  1  0
 13 14  2  0
 42 43  1  0
 14  9  1  0
 43 44  1  0
 10 15  1  0
 44 45  1  0
 14 16  1  0
 45 46  1  0
 13 17  1  0
 45 47  1  0
 17 18  2  0
 17 48  1  0
 48  5  1  0
M  END