
          11280715162D 1   1.00000     0.00000     0

 15 15  0     0  0            999 V2000
    6.3250   -6.7375    0.0000 C   0  0  0  0  0  0           0  0  0
    5.9167   -6.0167    0.0000 C   0  0  0  0  0  0           0  0  0
    5.0875   -6.0167    0.0000 C   0  0  0  0  0  0           0  0  0
    5.9167   -7.4500    0.0000 C   0  0  0  0  0  0           0  0  0
    4.6750   -6.7375    0.0000 C   0  0  0  0  0  0           0  0  0
    7.1500   -6.7375    0.0000 C   0  0  0  0  0  0           0  0  0
    5.0917   -7.4500    0.0000 C   0  0  0  0  0  0           0  0  0
    6.3292   -5.3042    0.0000 O   0  0  0  0  0  0           0  0  0
    8.3875   -7.4542    0.0000 N   0  0  0  0  0  0           0  0  0
    4.6792   -8.1625    0.0000 O   0  0  0  0  0  0           0  0  0
    7.5625   -7.4542    0.0000 C   0  0  3  0  0  0           0  0  0
    4.6750   -5.3042    0.0000 C   0  0  0  0  0  0           0  0  0
    7.1542   -5.3125    0.0000 C   0  0  0  0  0  0           0  0  0
    3.8542   -8.1667    0.0000 C   0  0  0  0  0  0           0  0  0
    7.1417   -8.1667    0.0000 C   0  0  0  0  0  0           0  0  0
  2  1  2  0     0  0
  3  2  1  0     0  0
  4  1  1  0     0  0
  5  7  1  0     0  0
  6  1  1  0     0  0
  7  4  2  0     0  0
  8  2  1  0     0  0
  9 11  1  0     0  0
 10  7  1  0     0  0
 11  6  1  0     0  0
 12  3  1  0     0  0
 13  8  1  0     0  0
 14 10  1  0     0  0
 15 11  1  0     0  0
  3  5  2  0     0  0
M  END