
          11280714442D 1   1.00000     0.00000     0

 22 26  0     0  0            999 V2000
    0.8667   -0.0792    0.0000 C   0  0  0  0  0  0           0  0  0
    0.1625    0.3208    0.0000 C   0  0  0  0  0  0           0  0  0
   -0.5458   -0.9167    0.0000 C   0  0  0  0  0  0           0  0  0
   -0.5458   -0.0917    0.0000 C   0  0  0  0  0  0           0  0  0
    0.8750   -0.9000    0.0000 C   0  0  0  0  0  0           0  0  0
    0.1667   -1.3292    0.0000 C   0  0  0  0  0  0           0  0  0
   -1.2625   -1.3375    0.0000 C   0  0  0  0  0  0           0  0  0
    1.5792    0.3333    0.0000 C   0  0  0  0  0  0           0  0  0
    0.1542    1.1333    0.0000 C   0  0  0  0  0  0           0  0  0
   -1.2625    0.3208    0.0000 C   0  0  0  0  0  0           0  0  0
   -1.9750   -0.9250    0.0000 C   0  0  0  0  0  0           0  0  0
    1.5875   -1.3042    0.0000 C   0  0  0  0  0  0           0  0  0
   -1.9750   -0.0917    0.0000 C   0  0  0  0  0  0           0  0  0
    1.5750    1.1458    0.0000 C   0  0  0  0  0  0           0  0  0
    2.2917   -0.0667    0.0000 C   0  0  0  0  0  0           0  0  0
    0.8542    1.5500    0.0000 C   0  0  0  0  0  0           0  0  0
    2.2917   -0.8917    0.0000 C   0  0  0  0  0  0           0  0  0
   -1.2583   -2.1625    0.0000 O   0  0  0  0  0  0           0  0  0
   -2.6875   -1.3375    0.0000 O   0  0  0  0  0  0           0  0  0
    2.9875    1.1583    0.0000 C   0  0  0  0  0  0           0  0  0
    2.9917    0.3375    0.0000 C   0  0  0  0  0  0           0  0  0
    2.2792    1.5583    0.0000 C   0  0  0  0  0  0           0  0  0
  2  1  2  0     0  0
  3  6  1  0     0  0
  4  2  1  0     0  0
  5  1  1  0     0  0
  6  5  2  0     0  0
  7  3  2  0     0  0
  8  1  1  0     0  0
  9  2  1  0     0  0
 10  4  2  0     0  0
 11  7  1  0     0  0
 12  5  1  0     0  0
 13 10  1  0     0  0
 14  8  2  0     0  0
 15  8  1  0     0  0
 16 14  1  0     0  0
 17 15  1  0     0  0
 18  7  1  0     0  0
 19 11  1  0     0  0
 20 21  1  0     0  0
 21 15  2  0     0  0
 22 14  1  0     0  0
  4  3  1  0     0  0
 12 17  2  0     0  0
 20 22  2  0     0  0
  9 16  2  0     0  0
 13 11  2  0     0  0
M  END