
  SciTegic12171313052D

 38 42  0  0  0  0            999 V2000
   20.2371   -3.4779    0.0000 C   0  0
   20.9496   -3.8904    0.0000 C   0  0
   21.6591   -3.4819    0.0000 C   0  0
   21.6624   -2.6592    0.0000 N   0  0
   20.9499   -2.2467    0.0000 C   0  0
   20.2341   -2.6569    0.0000 C   0  0
   22.3779   -2.2485    0.0000 C   0  0
   23.0913   -2.6629    0.0000 C   0  0
   23.0871   -3.4870    0.0000 C   0  0
   23.7964   -3.9013    0.0000 C   0  0
   24.5144   -3.4941    0.0000 N   0  0
   24.5185   -2.6682    0.0000 C   0  0
   23.8046   -2.2493    0.0000 C   0  0
   19.5559   -3.9434    0.0000 N   0  0
   18.7431   -5.0023    0.0000 N   0  0
   19.5347   -4.7699    0.0000 C   0  0
   18.2776   -4.3211    0.0000 C   0  0
   18.7823   -3.6688    0.0000 C   0  0
   18.4696   -2.9076    0.0000 C   0  0
   17.6523   -2.7976    0.0000 C   0  0
   17.1488   -3.4548    0.0000 C   0  0
   17.4643   -4.2134    0.0000 C   0  0
   25.2262   -3.9112    0.0000 C   0  0
   25.9433   -3.5032    0.0000 C   0  0
   26.6533   -3.9248    0.0000 C   0  0
   27.3699   -3.5175    0.0000 C   0  0
   27.3756   -2.6917    0.0000 N   0  0
   26.6588   -2.2748    0.0000 C   0  0
   25.9451   -2.6844    0.0000 C   0  0
   20.1887   -5.2728    0.0000 O   0  0
   22.3800   -1.4235    0.0000 O   0  0
   28.0815   -3.9349    0.0000 N   0  0
   16.3350   -3.3481    0.0000 F   0  0
   18.4658   -5.7793    0.0000 C   0  0
   17.6542   -5.9276    0.0000 C   0  0
   17.3769   -6.7046    0.0000 F   0  0
   17.1200   -5.2989    0.0000 F   0  0
   16.8537   -6.1362    0.0000 F   0  0
  1  2  1  0
  1  6  1  0
  2  3  1  0
  3  4  1  0
  4  5  1  0
  5  6  1  0
  4  7  1  0
  7  8  1  0
  8  9  1  0
  8 13  1  0
  9 10  1  0
 10 11  1  0
 11 12  1  0
 12 13  1  0
  1 14  1  0
 14 18  1  0
 17 15  1  0
 15 16  1  0
 16 14  1  0
 17 18  2  0
 18 19  1  0
 19 20  2  0
 20 21  1  0
 21 22  2  0
 22 17  1  0
 11 23  1  0
 23 24  1  0
 24 25  2  0
 25 26  1  0
 26 27  2  0
 27 28  1  0
 28 29  2  0
 29 24  1  0
 16 30  2  0
  7 31  2  0
 26 32  1  0
 21 33  1  0
 15 34  1  0
 34 35  1  0
 35 36  1  0
 35 37  1  0
 35 38  1  0
M  END