
  -ISIS-  03291115432D

 28 27  0  0  1  0  0  0  0  0999 V2000
    5.5792   -3.8417    0.0000 C   0  0  1  0  0  0  0  0  0  0  0  0
    5.5792   -3.0167    0.0000 O   0  0  0  0  0  0  0  0  0  0  0  0
    6.2917   -2.6042    0.0000 P   0  0  3  0  0  0  0  0  0  0  0  0
    2.7292   -3.8417    0.0000 C   0  0  2  0  0  0  0  0  0  0  0  0
    3.4292   -2.6042    0.0000 C   0  0  0  0  0  0  0  0  0  0  0  0
    0.9792   -4.2542    0.0000 P   0  0  3  0  0  0  0  0  0  0  0  0
    2.7292   -3.0167    0.0000 C   0  0  0  0  0  0  0  0  0  0  0  0
    4.1417   -3.8417    0.0000 C   0  0  1  0  0  0  0  0  0  0  0  0
    4.8667   -4.2542    0.0000 O   0  0  0  0  0  0  0  0  0  0  0  0
    3.4292   -4.2542    0.0000 C   0  0  2  0  0  0  0  0  0  0  0  0
    6.2917   -4.2542    0.0000 C   0  0  0  0  0  0  0  0  0  0  0  0
    3.4292   -1.7792    0.0000 C   0  0  0  0  0  0  0  0  0  0  0  0
    2.0042   -4.2542    0.0000 O   0  0  0  0  0  0  0  0  0  0  0  0
    4.1417   -3.0167    0.0000 C   0  0  0  0  0  0  0  0  0  0  0  0
    6.7167   -3.3042    0.0000 O   0  0  0  0  0  0  0  0  0  0  0  0
    0.9792   -3.3917    0.0000 O   0  0  0  0  0  0  0  0  0  0  0  0
    2.7167   -1.3667    0.0000 O   0  5  0  0  0  0  0  0  0  0  0  0
    7.0042   -3.8417    0.0000 O   0  0  0  0  0  0  0  0  0  0  0  0
    4.1542   -1.3667    0.0000 O   0  0  0  0  0  0  0  0  0  0  0  0
    7.0042   -2.1917    0.0000 O   0  0  0  0  0  0  0  0  0  0  0  0
    5.8792   -1.8917    0.0000 O   0  0  0  0  0  0  0  0  0  0  0  0
    5.5667   -4.6667    0.0000 C   0  0  0  0  0  0  0  0  0  0  0  0
    0.9792   -5.2417    0.0000 O   0  0  0  0  0  0  0  0  0  0  0  0
    0.1042   -4.2542    0.0000 O   0  0  0  0  0  0  0  0  0  0  0  0
    3.4292   -5.0792    0.0000 O   0  0  0  0  0  0  0  0  0  0  0  0
    6.2917   -5.0792    0.0000 O   0  0  0  0  0  0  0  0  0  0  0  0
    4.8542   -5.0792    0.0000 F   0  0  0  0  0  0  0  0  0  0  0  0
   -1.2625   -3.4917    0.0000 Na  0  3  0  0  0  0  0  0  0  0  0  0
  1  2  1  1  0  0  0
  3  2  1  0  0  0  0
  4 10  1  0  0  0  0
  5 14  1  0  0  0  0
  6 13  1  0  0  0  0
  7  5  2  0  0  0  0
  8  9  1  1  0  0  0
  9  1  1  0  0  0  0
 10  8  1  0  0  0  0
  1 11  1  6  0  0  0
 12  5  1  0  0  0  0
  4 13  1  6  0  0  0
 14  8  1  0  0  0  0
 15  3  2  0  0  0  0
 16  6  2  0  0  0  0
 17 12  1  0  0  0  0
 18 11  2  0  0  0  0
 19 12  2  0  0  0  0
 20  3  1  0  0  0  0
 21  3  1  0  0  0  0
 22  1  1  0  0  0  0
 23  6  1  0  0  0  0
 24  6  1  0  0  0  0
 10 25  1  6  0  0  0
 26 11  1  0  0  0  0
 27 22  1  0  0  0  0
  4  7  1  0  0  0  0
M  CHG  2  17  -1  28   1
M  END