
  SciTegic01161211232D

 33 34  0  0  0  0            999 V2000
   -5.9662    3.1317    0.0000 C   0  0
   -4.9300    3.7369    0.0000 C   0  0
   -3.6267    2.9927    0.0000 C   0  0
   -3.6187    1.4919    0.0000 C   0  0
   -2.3155    0.7475    0.0000 C   0  0
   -2.3155   -0.7475    0.0000 C   0  0
   -1.0028   -1.5132    0.0000 C   0  0
    0.2917   -0.7475    0.0000 C   0  0
    1.7138   -1.2033    0.0000 O   0  0
    2.5889    0.0182    0.0000 C   0  0
    1.7138    1.2033    0.0000 O   0  0
    0.2917    0.7475    0.0000 C   0  0
   -1.0028    1.5132    0.0000 C   0  0
   -4.9380    5.2378    0.0000 N   0  0
   -6.2413    5.9820    0.0000 C   0  0
   -6.2494    7.4828    0.0000 C   0  0
   -5.2132    8.0880    0.0000 O   0  0
   -7.5527    8.2271    0.0000 C   0  0
   -7.5629    9.7271    0.0000 C   0  0
   -8.8670   10.4683    0.0000 C   0  0
  -10.1609    9.7095    0.0000 C   0  0
  -11.2042   10.3025    0.0000 O   0  0
  -10.1508    8.2095    0.0000 C   0  0
   -8.8467    7.4683    0.0000 C   0  0
  -11.4439    7.4477    0.0000 C   0  0
  -12.4882    8.0388    0.0000 O   0  0
  -11.4316    5.9469    0.0000 N   0  0
  -12.7247    5.1851    0.0000 C   0  0
  -12.7124    3.6843    0.0000 C   0  0
  -13.7463    3.0751    0.0000 C   0  0
  -12.7020    2.4843    0.0000 C   0  0
  -11.6681    3.0931    0.0000 C   0  0
    5.0889    4.4775    0.0000 Cl  0  0
  1  2  1  0
  2  3  1  0
  3  4  1  0
  4  5  1  0
  5  6  2  0
  6  7  1  0
  7  8  2  0
  8  9  1  0
  9 10  1  0
 10 11  1  0
 11 12  1  0
 12  8  1  0
 12 13  2  0
 13  5  1  0
  2 14  1  0
 14 15  1  0
 15 16  1  0
 16 17  1  0
 16 18  1  0
 18 19  2  0
 19 20  1  0
 20 21  2  0
 21 22  1  0
 21 23  1  0
 23 24  2  0
 24 18  1  0
 23 25  1  0
 25 26  2  0
 25 27  1  0
 27 28  1  0
 28 29  1  0
 29 30  1  0
 29 31  1  0
 29 32  1  0
M  END