
          11280714482D 1   1.00000     0.00000     0

 52 57  0     0  0            999 V2000
   10.1625    0.5458    0.0000 C   0  0  0  0  0  0           0  0  0
   10.8750    1.7833    0.0000 C   0  0  0  0  0  0           0  0  0
   10.8792    0.9583    0.0000 C   0  0  0  0  0  0           0  0  0
   10.1625   -0.2875    0.0000 C   0  0  0  0  0  0           0  0  0
   10.1625    2.1958    0.0000 O   0  0  0  0  0  0           0  0  0
    9.4417    1.7833    0.0000 C   0  0  0  0  0  0           0  0  0
    9.4417    0.9583    0.0000 C   0  0  0  0  0  0           0  0  0
   10.8750   -0.7000    0.0000 C   0  0  0  0  0  0           0  0  0
   11.5875    2.1958    0.0000 C   0  0  0  0  0  0           0  0  0
   11.5875    0.5458    0.0000 C   0  0  0  0  0  0           0  0  0
    9.4417   -0.7000    0.0000 C   0  0  0  0  0  0           0  0  0
   11.7000   -0.7000    0.0000 C   0  0  0  0  0  0           0  0  0
    2.2875   -1.5250    0.0000 N   0  0  3  0  0  0           0  0  0
    9.4417   -1.5292    0.0000 C   0  0  0  0  0  0           0  0  0
    8.7250   -1.9500    0.0000 C   0  0  0  0  0  0           0  0  0
    1.5667   -1.9375    0.0000 C   0  0  0  0  0  0           0  0  0
    8.7292    2.1958    0.0000 C   0  0  0  0  0  0           0  0  0
   12.3042    0.9583    0.0000 C   0  0  0  0  0  0           0  0  0
   12.3042    1.7833    0.0000 C   0  0  0  0  0  0           0  0  0
   10.8750   -1.5292    0.0000 C   0  0  0  0  0  0           0  0  0
    8.7292    0.5458    0.0000 C   0  0  0  0  0  0           0  0  0
    1.5667   -2.7667    0.0000 N   0  0  0  0  0  0           0  0  0
    2.2875   -0.6917    0.0000 C   0  0  0  0  0  0           0  0  0
   10.1625   -1.9417    0.0000 C   0  0  0  0  0  0           0  0  0
   12.1042    0.0208    0.0000 O   0  0  0  0  0  0           0  0  0
    8.7292   -2.7750    0.0000 O   0  0  0  0  0  0           0  0  0
    3.0042   -1.9375    0.0000 C   0  0  0  0  0  0           0  0  0
   13.0250    2.1958    0.0000 O   0  0  0  0  0  0           0  0  0
    8.0042   -1.5375    0.0000 N   0  0  0  0  0  0           0  0  0
    8.0167    1.7833    0.0000 C   0  0  0  0  0  0           0  0  0
    1.5750   -0.2792    0.0000 C   0  0  0  0  0  0           0  0  0
    4.4292   -1.9375    0.0000 N   0  0  3  0  0  0           0  0  0
    8.0167    0.9583    0.0000 C   0  0  0  0  0  0           0  0  0
   12.1125   -1.4125    0.0000 O   0  0  0  0  0  0           0  0  0
    3.7167   -1.5250    0.0000 C   0  0  0  0  0  0           0  0  0
    0.1542    0.5625    0.0000 C   0  0  0  0  0  0           0  0  0
    1.5875    0.5458    0.0000 C   0  0  0  0  0  0           0  0  0
    0.8417   -0.6792    0.0000 C   0  0  0  0  0  0           0  0  0
    0.8792    0.9708    0.0000 C   0  0  0  0  0  0           0  0  0
    0.1417   -0.2625    0.0000 C   0  0  0  0  0  0           0  0  0
    7.2917    2.1958    0.0000 O   0  0  0  0  0  0           0  0  0
   -0.5625    0.9875    0.0000 O   0  0  0  0  0  0           0  0  0
    0.8542   -1.5250    0.0000 C   0  0  0  0  0  0           0  0  0
    0.8542   -3.1792    0.0000 C   0  0  0  0  0  0           0  0  0
    7.2917   -1.9500    0.0000 C   0  0  0  0  0  0           0  0  0
    5.1500   -1.5292    0.0000 C   0  0  0  0  0  0           0  0  0
    4.4250   -2.7667    0.0000 C   0  0  0  0  0  0           0  0  0
   -1.2875    0.5833    0.0000 C   0  0  0  0  0  0           0  0  0
    5.8625   -1.9417    0.0000 C   0  0  0  0  0  0           0  0  0
    6.5792   -1.5375    0.0000 C   0  0  0  0  0  0           0  0  0
    0.1375   -1.9375    0.0000 C   0  0  0  0  0  0           0  0  0
    0.1375   -2.7667    0.0000 C   0  0  0  0  0  0           0  0  0
  2  3  1  0     0  0
  3  1  2  0     0  0
  4  1  1  0     0  0
  5  6  1  0     0  0
  6  7  2  0     0  0
  7  1  1  0     0  0
  8  4  2  0     0  0
  9  2  2  0     0  0
 10  3  1  0     0  0
 11  4  1  0     0  0
 12  8  1  0     0  0
 13 27  1  0     0  0
 14 11  2  0     0  0
 15 14  1  0     0  0
 16 13  1  0     0  0
 17  6  1  0     0  0
 18 10  2  0     0  0
 19 18  1  0     0  0
 20  8  1  0     0  0
 21  7  1  0     0  0
 22 16  2  0     0  0
 23 13  1  0     0  0
 24 14  1  0     0  0
 25 12  2  0     0  0
 26 15  2  0     0  0
 27 35  1  0     0  0
 28 19  2  0     0  0
 29 15  1  0     0  0
 30 33  1  0     0  0
 31 23  1  0     0  0
 32 46  1  0     0  0
 33 21  2  0     0  0
 34 12  1  0     0  0
 35 32  1  0     0  0
 36 40  2  0     0  0
 37 31  1  0     0  0
 38 31  2  0     0  0
 39 37  2  0     0  0
 40 38  1  0     0  0
 41 30  1  0     0  0
 42 36  1  0     0  0
 43 16  1  0     0  0
 44 22  1  0     0  0
 45 29  1  0     0  0
 46 49  1  0     0  0
 47 32  1  0     0  0
 48 42  1  0     0  0
 49 50  1  0     0  0
 50 45  1  0     0  0
 51 43  2  0     0  0
 52 51  1  0     0  0
  2  5  1  0     0  0
 17 30  2  0     0  0
 24 20  2  0     0  0
 19  9  1  0     0  0
 36 39  1  0     0  0
 44 52  2  0     0  0
M  END