
  SciTegic01161211252D

 31 35  0  0  0  0            999 V2000
    7.8497  -27.0324    0.0000 C   0  0
    7.8484  -27.8600    0.0000 C   0  0
    8.5614  -28.2729    0.0000 C   0  0
    8.5594  -26.6196    0.0000 C   0  0
    7.1348  -26.6205    0.0000 F   0  0
    8.5555  -25.7946    0.0000 C   0  0
    9.2775  -27.0284    0.0000 C   0  0
    9.2780  -27.8600    0.0000 C   0  0
   10.0692  -28.1165    0.0000 N   0  0
   10.5576  -27.4434    0.0000 C   0  0
   10.0683  -26.7710    0.0000 N   0  0
   11.3826  -27.4429    0.0000 C   0  0
   11.7909  -28.1584    0.0000 C   0  0
   12.6151  -28.1582    0.0000 C   0  0
   13.0279  -27.4429    0.0000 C   0  0
   12.6105  -26.7263    0.0000 C   0  0
   11.7877  -26.7301    0.0000 C   0  0
   11.3711  -26.0179    0.0000 C   0  0
   13.8529  -27.4412    0.0000 O   0  0
   14.2669  -28.1549    0.0000 C   0  0
   15.0919  -28.1532    0.0000 C   0  0
   15.5058  -28.8668    0.0000 C   0  0
   16.3308  -28.8652    0.0000 N   0  0
   16.7412  -29.5774    0.0000 C   0  0
   17.5648  -28.1488    0.0000 C   0  0
   16.7371  -28.1469    0.0000 C   0  0
   17.9775  -28.8643    0.0000 C   0  0
   17.5658  -29.5751    0.0000 C   0  0
   18.1147  -30.1864    0.0000 N   0  0
   18.8656  -29.8533    0.0000 C   0  0
   18.7808  -29.0362    0.0000 N   0  0
 14 15  2  0
  3  8  2  0
 15 16  1  0
  1  2  2  0
 16 17  2  0
 17 12  1  0
  7  4  2  0
 17 18  1  0
  4  1  1  0
 15 19  1  0
 19 20  1  0
  8  9  1  0
 20 21  1  0
  9 10  1  0
 21 22  1  0
 10 11  2  0
 22 23  1  0
 23 24  1  0
 11  7  1  0
  1  5  1  0
 10 12  1  0
 23 26  1  0
 24 28  1  0
 27 25  1  0
 25 26  1  0
 27 28  2  0
  2  3  1  0
 12 13  2  0
  4  6  1  0
 13 14  1  0
  7  8  1  0
 28 29  1  0
 29 30  1  0
 30 31  2  0
 31 27  1  0
M  END