
  SciTegic12231509382D

 34 36  0  0  0  0            999 V2000
  -16.8536  -14.1723    0.0000 C   0  0
  -17.5681  -14.5848    0.0000 C   0  0
  -17.5681  -15.4098    0.0000 C   0  0
  -16.8536  -15.8223    0.0000 C   0  0
  -16.1391  -15.4098    0.0000 C   0  0
  -16.1391  -14.5848    0.0000 C   0  0
  -15.4246  -15.8223    0.0000 F   0  0
  -18.2825  -14.1723    0.0000 C   0  0  2  0  0  0
  -18.2825  -13.3473    0.0000 N   0  0
  -18.9970  -12.9348    0.0000 C   0  0
  -19.7115  -13.3473    0.0000 C   0  0
  -19.7115  -14.1723    0.0000 N   0  0
  -18.9970  -14.5848    0.0000 C   0  0
  -17.5681  -12.9348    0.0000 C   0  0
  -17.5681  -12.1098    0.0000 N   0  0
  -16.8536  -13.3473    0.0000 O   0  0
  -16.8536  -11.6973    0.0000 C   0  0  2  0  0  0
  -16.8536  -10.8723    0.0000 C   0  0
  -16.1391  -12.1098    0.0000 C   0  0
  -16.1391  -12.9348    0.0000 C   0  0
  -15.4247  -13.3473    0.0000 C   0  0
  -14.7102  -12.9348    0.0000 C   0  0
  -14.7102  -12.1098    0.0000 C   0  0
  -15.4246  -11.6973    0.0000 C   0  0
  -13.9957  -11.6973    0.0000 C   0  0
  -13.9957  -10.8723    0.0000 F   0  0
  -13.2812  -12.1098    0.0000 F   0  0
  -13.2812  -11.2848    0.0000 F   0  0
  -15.4247  -14.1723    0.0000 C   0  0
  -14.7102  -14.5848    0.0000 F   0  0
  -14.7102  -13.7598    0.0000 F   0  0
  -15.7488  -14.8206    0.0000 F   0  0
  -18.2825  -15.8223    0.0000 C   0  0
  -18.2825  -11.6973    0.0000 C   0  0
  1  2  1  0
  1  6  2  0
  2  3  2  0
  3  4  1  0
  4  5  2  0
  5  6  1  0
  5  7  1  0
  8  2  1  1
  8  9  1  0
 13  8  1  0
  9 10  1  0
 10 11  1  0
 11 12  1  0
 12 13  1  0
  9 14  1  0
 14 15  1  0
 14 16  2  0
 15 17  1  0
 17 18  1  6
 17 19  1  0
 19 20  1  0
 19 24  2  0
 20 21  2  0
 21 22  1  0
 22 23  2  0
 23 24  1  0
 23 25  1  0
 25 26  1  0
 25 27  1  0
 25 28  1  0
 21 29  1  0
 29 30  1  0
 29 31  1  0
 29 32  1  0
  3 33  1  0
 15 34  1  0
M  END