
          11280715332D 1   1.00000     0.00000     0

 37 42  0     0  0            999 V2000
    8.3292   -1.6875    0.0000 N   0  0  3  0  0  0           0  0  0
    3.0542   -3.1167    0.0000 N   0  0  3  0  0  0           0  0  0
    7.6167   -2.1042    0.0000 C   0  0  3  0  0  0           0  0  0
    8.4292   -0.8667    0.0000 C   0  0  3  0  0  0           0  0  0
    9.0250   -2.1375    0.0000 C   0  0  3  0  0  0           0  0  0
    4.4792   -3.1250    0.0000 C   0  0  3  0  0  0           0  0  0
    3.0500   -2.2917    0.0000 C   0  0  0  0  0  0           0  0  0
    6.6167   -2.6917    0.0000 N   0  0  3  0  0  0           0  0  0
    3.7667   -3.5292    0.0000 C   0  0  0  0  0  0           0  0  0
    4.4750   -3.9500    0.0000 C   0  0  0  0  0  0           0  0  0
    9.1792   -0.5417    0.0000 C   0  0  0  0  0  0           0  0  0
    9.7542   -1.7667    0.0000 C   0  0  0  0  0  0           0  0  0
    7.4167   -2.9042    0.0000 C   0  0  0  0  0  0           0  0  0
    6.8250   -1.9000    0.0000 C   0  0  0  0  0  0           0  0  0
    5.1750   -5.1875    0.0000 C   0  0  0  0  0  0           0  0  0
    5.1792   -4.3625    0.0000 C   0  0  0  0  0  0           0  0  0
    2.3417   -3.5292    0.0000 C   0  0  0  0  0  0           0  0  0
    4.4542   -5.5917    0.0000 C   0  0  0  0  0  0           0  0  0
    9.8042   -0.9417    0.0000 C   0  0  3  0  0  0           0  0  0
    9.1917   -0.8292    0.0000 C   0  0  0  0  0  0           0  0  0
    9.6042   -1.5500    0.0000 C   0  0  0  0  0  0           0  0  0
    4.4792   -2.2917    0.0000 C   0  0  0  0  0  0           0  0  0
    3.7667   -1.8792    0.0000 C   0  0  0  0  0  0           0  0  0
    2.3292   -1.8875    0.0000 O   0  0  0  0  0  0           0  0  0
    5.1917   -2.7042    0.0000 C   0  0  0  0  0  0           0  0  0
    3.7542   -4.3500    0.0000 C   0  0  0  0  0  0           0  0  0
    3.7417   -5.1750    0.0000 C   0  0  0  0  0  0           0  0  0
    5.9042   -3.1125    0.0000 C   0  0  0  0  0  0           0  0  0
    5.8875   -5.6042    0.0000 Cl  0  0  0  0  0  0           0  0  0
    4.4500   -6.4167    0.0000 Cl  0  0  0  0  0  0           0  0  0
    1.6292   -3.1167    0.0000 C   0  0  0  0  0  0           0  0  0
   10.5375   -0.5667    0.0000 O   0  0  0  0  0  0           0  0  0
    0.9125   -3.5292    0.0000 C   0  0  0  0  0  0           0  0  0
    1.6292   -2.2917    0.0000 C   0  0  0  0  0  0           0  0  0
    0.2000   -3.1167    0.0000 C   0  0  0  0  0  0           0  0  0
    0.9125   -1.8792    0.0000 C   0  0  0  0  0  0           0  0  0
    0.2000   -2.2917    0.0000 C   0  0  0  0  0  0           0  0  0
  2  9  1  0     0  0
  3  1  1  0     0  0
  4  1  1  0     0  0
  5  1  1  0     0  0
  6 25  1  0     0  0
  7 23  1  0     0  0
  8 14  1  0     0  0
  9  6  1  0     0  0
 10  6  1  0     0  0
 11  4  1  0     0  0
 12  5  1  0     0  0
 13  3  1  0     0  0
 14  3  1  0     0  0
 15 16  2  0     0  0
 16 10  1  0     0  0
 17  2  1  0     0  0
 18 27  2  0     0  0
 19 12  1  0     0  0
 20  4  1  0     0  0
 21  5  1  0     0  0
 22  6  1  0     0  0
 23 22  1  0     0  0
 24  7  2  0     0  0
 25 28  1  0     0  0
 26 10  2  0     0  0
 27 26  1  0     0  0
 28  8  1  0     0  0
 29 15  1  0     0  0
 30 18  1  0     0  0
 31 17  1  0     0  0
 32 19  1  0     0  0
 33 31  2  0     0  0
 34 31  1  0     0  0
 35 33  1  0     0  0
 36 34  2  0     0  0
 37 36  1  0     0  0
 21 20  1  0     0  0
  8 13  1  0     0  0
 11 19  1  0     0  0
  2  7  1  0     0  0
 18 15  1  0     0  0
 35 37  2  0     0  0
M  END