
  SciTegic01031412312D

 68 74  0  0  0  0            999 V2000
    0.9017  -11.3203    0.0000 C   0  0  2  0  0  0
    1.6137  -11.7311    0.0000 C   0  0
    0.8948  -10.4938    0.0000 C   0  0
    2.3620  -10.4084    0.0000 C   0  0
    1.6095  -10.0788    0.0000 C   0  0
    2.9086   -9.7928    0.0000 N   0  0
    1.6887   -9.2579    0.0000 C   0  0
    2.5001   -9.0820    0.0000 C   0  0
    2.7452   -8.2988    0.0000 C   0  0
    2.1945   -7.6829    0.0000 C   0  0
    1.3887   -7.8608    0.0000 C   0  0
    1.1394   -8.6483    0.0000 C   0  0
    1.6465  -15.0916    0.0000 N   0  0
    0.9270  -15.4820    0.0000 C   0  0  2  0  0  0
    0.2453  -14.2393    0.0000 O   0  0
    0.2257  -15.0592    0.0000 C   0  0
    0.9074  -16.3055    0.0000 C   0  0
    0.1069  -17.5324    0.0000 N   0  0
   -0.6950  -17.7001    0.0000 C   0  0
   -1.1053  -16.9831    0.0000 N   0  0
   -0.5535  -16.3718    0.0000 C   0  0
    0.1923  -16.7153    0.0000 C   0  0
   -0.4922  -15.4497    0.0000 N   0  0
    1.6164  -12.6297    0.0000 N   0  0
    2.3483  -15.5313    0.0000 C   0  0
    3.0727  -15.1377    0.0000 C   0  0
    2.3239  -16.3541    0.0000 O   0  0
    3.7720  -15.5802    0.0000 C   0  0
    4.5020  -15.1921    0.0000 C   0  0
    4.5042  -14.3680    0.0000 C   0  0
    3.7987  -13.9346    0.0000 C   0  0
    3.0776  -14.3202    0.0000 C   0  0
    2.3982  -13.8910    0.0000 S   0  0
    2.6871  -12.8873    0.0000 C   0  0  2  0  0  0
    3.2914  -12.4347    0.0000 C   0  0
    4.2904  -12.6346    0.0000 N   0  0
    3.3261  -11.4350    0.0000 O   0  0
    5.2027  -15.6291    0.0000 N   0  3
    5.9296  -15.2404    0.0000 O   0  0
    5.1735  -16.4559    0.0000 O   0  5
   -1.2090  -15.0441    0.0000 C   0  0  2  0  0  0
   -1.9354  -13.8155    0.0000 O   0  0
   -1.2169  -14.2232    0.0000 C   0  0
   -1.9191  -15.4593    0.0000 C   0  0
   -2.6210  -14.2183    0.0000 C   0  0
   -2.6278  -15.0454    0.0000 C   0  0
   -3.3489  -15.4452    0.0000 C   0  0
   -4.0571  -15.0340    0.0000 C   0  0
   -1.9420  -10.4930    0.0000 N   0  0
   -2.6545  -10.0867    0.0000 C   0  0
   -3.3614  -10.5037    0.0000 N   0  0
   -2.6613   -9.2582    0.0000 N   0  0
   -0.5066  -13.8038    0.0000 N   0  0
   -0.5134  -12.9831    0.0000 C   0  0  2  0  0  0
    0.9157  -12.9702    0.0000 O   0  0
    0.2004  -12.5620    0.0000 C   0  0
   -1.2315  -12.5735    0.0000 C   0  0
   -1.2329  -11.7484    0.0000 C   0  0
   -1.9508  -11.3388    0.0000 C   0  0
    0.1905  -11.7409    0.0000 N   0  0
    2.3243  -11.3168    0.0000 O   0  0
    3.1645  -13.5225    0.0000 C   0  0
   -4.0593  -14.2102    0.0000 C   0  0
   -3.3313  -13.7944    0.0000 C   0  0
   -3.3284  -12.9579    0.0000 C   0  0
   -4.0528  -12.5364    0.0000 C   0  0
   -4.7816  -12.9572    0.0000 C   0  0
   -4.7808  -13.7923    0.0000 C   0  0
  6  4  1  0
  8  6  1  0
  7  8  2  0
  8  9  1  0
  9 10  2  0
 10 11  1  0
 11 12  2  0
 12  7  1  0
 16 23  1  0
 13 14  1  0
 14 16  1  0
 16 15  2  0
 14 17  1  1
 17 22  1  0
 18 19  1  0
 19 20  2  0
 20 21  1  0
 21 22  2  0
 22 18  1  0
 25 26  1  0
 25 13  1  0
 25 27  2  0
 26 28  2  0
 28 29  1  0
 29 30  2  0
 30 31  1  0
 31 32  2  0
 32 26  1  0
 32 33  1  0
 34 35  1  6
 35 36  1  0
 35 37  2  0
 38 39  2  0
 38 40  1  0
 29 38  1  0
 43 53  1  0
 56 60  1  0
 41 43  1  0
 43 42  2  0
 41 44  1  1
 44 46  1  0
 45 46  2  0
 46 47  1  0
 47 48  2  0
 48 63  1  0
 64 45  1  0
 49 50  1  0
 50 51  1  0
 50 52  2  0
 53 54  1  0
 54 56  1  0
 56 55  2  0
 54 57  1  1
 57 58  1  0
 58 59  1  0
 59 49  1  0
 41 23  1  0
 60  1  1  0
  2 61  2  0
 24  2  1  0
 34 24  1  0
 33 62  1  0
 34 62  1  0
  1  2  1  0
 63 64  1  0
  1  3  1  1
 64 65  2  0
  3  5  1  0
 65 66  1  0
  4  5  2  0
 66 67  2  0
  5  7  1  0
 67 68  1  0
 68 63  2  0
M  CHG  2  38   1  40  -1
M  END