
          11280715362D 1   1.00000     0.00000     0

 25 27  0     0  0            999 V2000
    4.5750   -6.6292    0.0000 C   0  0  0  0  0  0           0  0  0
    4.0542   -6.3292    0.0000 C   0  0  3  0  0  0           0  0  0
    4.5750   -7.2292    0.0000 C   0  0  0  0  0  0           0  0  0
    4.0542   -7.5292    0.0000 O   0  0  0  0  0  0           0  0  0
    3.5292   -7.2375    0.0000 C   0  0  3  0  0  0           0  0  0
    3.5292   -6.6292    0.0000 C   0  0  3  0  0  0           0  0  0
    5.0917   -6.3292    0.0000 C   0  0  0  0  0  0           0  0  0
    6.1417   -7.5167    0.0000 C   0  0  0  0  0  0           0  0  0
    9.2667   -7.4667    0.0000 N   0  0  0  0  0  0           0  0  0
    3.0042   -6.3292    0.0000 C   0  0  0  0  0  0           0  0  0
    6.6750   -7.8125    0.0000 C   0  0  0  0  0  0           0  0  0
    4.0542   -5.7250    0.0000 C   0  0  0  0  0  0           0  0  0
    3.0042   -5.7250    0.0000 C   0  0  0  0  0  0           0  0  0
    3.5417   -5.4250    0.0000 C   0  0  0  0  0  0           0  0  0
    8.7542   -7.7792    0.0000 C   0  0  0  0  0  0           0  0  0
    5.6167   -7.2292    0.0000 C   0  0  0  0  0  0           0  0  0
    5.0917   -7.5292    0.0000 C   0  0  0  0  0  0           0  0  0
    5.6167   -6.6292    0.0000 C   0  0  0  0  0  0           0  0  0
    5.0792   -5.7292    0.0000 O   0  0  0  0  0  0           0  0  0
    3.3292   -7.8042    0.0000 C   0  0  0  0  0  0           0  0  0
    2.9667   -7.0375    0.0000 C   0  0  0  0  0  0           0  0  0
    7.2042   -8.1042    0.0000 C   0  0  0  0  0  0           0  0  0
    8.2417   -8.0875    0.0000 C   0  0  0  0  0  0           0  0  0
    3.5542   -4.8250    0.0000 C   0  0  0  0  0  0           0  0  0
    7.7167   -7.7917    0.0000 C   0  0  0  0  0  0           0  0  0
  2  1  1  0     0  0
  3  1  1  0     0  0
  4  3  1  0     0  0
  5  4  1  0     0  0
  6  2  1  0     0  0
  7  1  2  0     0  0
  8 16  1  0     0  0
  9 15  3  0     0  0
 10  6  1  0     0  0
 11  8  3  0     0  0
 12  2  1  0     0  0
 13 14  2  0     0  0
 14 12  1  0     0  0
 15 23  1  0     0  0
 16 18  2  0     0  0
 17  3  2  0     0  0
 18  7  1  0     0  0
 19  7  1  0     0  0
 20  5  1  0     0  0
 21  5  1  0     0  0
 22 11  1  0     0  0
 23 25  1  0     0  0
 24 14  1  0     0  0
 25 22  1  0     0  0
 16 17  1  0     0  0
  5  6  1  0     0  0
 13 10  1  0     0  0
M  END