
  SciTegic09261414482D

 72 74  0  0  0  0            999 V2000
   22.0974   -7.6850    0.0000 S   0  0
   22.7954   -7.2815    0.0000 S   0  0
   18.5546   -7.0566    0.0000 O   0  0
   19.2937   -7.6850    0.0000 O   0  0
   17.2079   -3.7984    0.0000 O   0  0
   19.2937   -8.5001    0.0000 O   0  0
   22.7954  -12.1369    0.0000 O   0  0
   19.9940  -11.3280    0.0000 O   0  0
   25.5990  -11.3280    0.0000 O   0  0
   18.5957   -8.9015    0.0000 O   0  0
   24.8988   -8.5001    0.0000 O   0  0
   15.0682   -5.7792    0.0000 O   0  0
   19.9940   -6.4726    0.0000 N   0  0
   24.1984  -11.3280    0.0000 N   0  0
   19.3395   -6.0006    0.0000 C   0  0  1  0  0  0
   19.5887   -5.2256    0.0000 C   0  0
   20.3975   -5.2256    0.0000 C   0  0
   20.6510   -6.0006    0.0000 C   0  0
   18.5736   -6.2474    0.0000 C   0  0
   19.9940   -7.2815    0.0000 C   0  0
   20.6966   -7.6850    0.0000 C   0  0  2  0  0  0
   17.8866   -5.0248    0.0000 C   0  0  1  0  0  0
   18.6003   -4.6288    0.0000 C   0  0
   21.3971   -7.2815    0.0000 C   0  0
   18.5965   -3.8193    0.0000 C   0  0
   17.1951   -4.6035    0.0000 C   0  0
   19.9940   -8.9015    0.0000 C   0  0
   19.9940   -9.7102    0.0000 C   0  0  2  0  0  0
   23.5044  -12.2139    0.0000 C   0  0  2  0  0  0
   23.5044  -10.9268    0.0000 C   0  0  1  0  0  0
   19.2887   -3.4148    0.0000 C   0  0
   17.8880   -3.4214    0.0000 C   0  0
   21.3972  -11.3280    0.0000 C   0  0  2  0  0  0
   24.1984  -12.6238    0.0000 C   0  0
   19.2937  -10.1178    0.0000 C   0  0
   22.7954  -11.3280    0.0000 C   0  0
   20.6966  -10.9268    0.0000 C   0  0
   22.5835  -12.7460    0.0000 C   0  0
   21.3972  -12.1369    0.0000 C   0  0
   24.8988  -10.1178    0.0000 C   0  0  2  0  0  0
   24.8988  -10.9268    0.0000 C   0  0
   15.7939   -4.5823    0.0000 C   0  0
   24.1984  -13.4348    0.0000 C   0  0
   20.6969  -12.5445    0.0000 C   0  0
   25.5990   -9.7102    0.0000 C   0  0
   23.5044   -7.6850    0.0000 C   0  0
   23.5044   -8.5001    0.0000 C   0  0
   18.5957   -9.7102    0.0000 C   0  0
   24.1984   -8.9015    0.0000 C   0  0
   26.2994  -10.1178    0.0000 C   0  0
   15.0809   -4.9741    0.0000 C   0  0
   27.0062   -9.7102    0.0000 C   0  0
   26.2995  -10.9268    0.0000 C   0  0
   27.7002  -10.1178    0.0000 C   0  0
   27.0062  -11.3280    0.0000 C   0  0
   27.7002  -10.9268    0.0000 C   0  0
   28.4068  -11.3280    0.0000 O   0  0
   22.0974  -10.9268    0.0000 N   0  0
   20.6966   -8.5001    0.0000 N   0  0
   24.1984   -9.7102    0.0000 N   0  0
   16.4861   -5.0017    0.0000 N   0  0
   17.8931  -10.1178    0.0000 N   0  0
   17.8738   -5.8340    0.0000 N   0  0
   14.3894   -4.5592    0.0000 N   0  0
   20.6966  -10.1178    0.0000 N   0  0
   22.7901  -10.5113    0.0000 H   0  0
   19.9946  -12.1426    0.0000 C   0  0
   20.6999  -13.3534    0.0000 C   0  0
   23.7109   -6.8925    0.0000 C   0  0
   24.3176   -7.6849    0.0000 C   0  0
   23.2982   -6.1826    0.0000 C   0  0
   24.7262   -6.9772    0.0000 C   0  0
 10 48  2  0
 11 49  2  0
 12 51  2  0
 57 56  1  0
 13 15  1  0
 13 18  1  0
 13 20  1  0
 63 19  1  0
 22 63  1  6
 59 21  1  0
 59 27  1  0
 61 26  1  0
 61 42  1  0
 65 28  1  0
 65 37  1  0
 30 14  1  0
 14 41  1  0
 58 33  1  0
 58 36  1  0
 60 40  1  0
 60 49  1  0
 62 48  1  0
 64 51  1  0
 15 16  1  0
 15 19  1  6
 16 17  1  0
 17 18  1  0
 21 20  1  6
 21 24  1  0
 22 23  1  0
 22 26  1  0
 23 25  1  0
 25 31  1  0
 25 32  1  0
 27 28  1  0
 28 35  1  1
 29 30  1  0
 29 34  1  0
 29 38  1  6
 30 36  1  0
 33 37  1  0
 33 39  1  1
 34 43  1  0
 35 48  1  0
 39 44  1  0
 40 41  1  0
 40 45  1  1
 42 51  1  0
 45 50  1  0
 46 47  1  0
 47 49  1  0
 50 52  2  0
 50 53  1  0
 52 54  1  0
 53 55  2  0
 54 56  2  0
 55 56  1  0
  1  2  1  0
  1 24  1  0
  2 46  1  0
  3 19  2  0
  4 20  2  0
  5 26  2  0
  6 27  2  0
  7 36  2  0
  8 37  2  0
  9 41  2  0
 30 66  1  6
 44 67  1  0
 44 68  1  0
 46 69  1  0
 46 70  1  0
 69 71  1  0
 70 72  1  0
M  END