
  SciTegic05281310212D

 94 98  0  0  0  0            999 V2000
    3.6293  -13.8214    0.0000 C   0  0  2  0  0  0
   10.4710  -16.7131    0.0000 C   0  0  2  0  0  0
    5.6668  -15.0589    0.0000 C   0  0  1  0  0  0
   -0.1415  -12.2256    0.0000 C   0  0  2  0  0  0
    6.3668  -14.2506    0.0000 C   0  0  1  0  0  0
    0.5335  -12.4506    0.0000 C   0  0  1  0  0  0
    4.5543  -13.4881    0.0000 C   0  0  1  0  0  0
   11.3960  -16.3881    0.0000 C   0  0  1  0  0  0
    8.4585  -15.0589    0.0000 C   0  0  2  0  0  0
    1.8210  -12.8464    0.0000 C   0  0  2  0  0  0
    5.1835  -13.7131    0.0000 C   0  0  1  0  0  0
    2.5335  -14.8006    0.0000 S   0  0
    9.3668  -17.6256    0.0000 S   0  0
    4.3335  -15.1131    0.0000 S   0  0
   11.6043  -18.0089    0.0000 S   0  0
    3.2210  -13.1006    0.0000 C   0  0  1  0  0  0
   10.0668  -15.9881    0.0000 C   0  0  1  0  0  0
   -1.5665  -11.9131    0.0000 C   0  0  1  0  0  0
    1.4168  -12.1214    0.0000 O   0  0
    7.7543  -14.2506    0.0000 O   0  0
   -2.1540   -9.4589    0.0000 S   0  0
    4.5960  -11.2506    0.0000 S   0  0
   11.4418  -14.1506    0.0000 S   0  0
    1.1918  -12.6214    0.0000 C   0  0  2  0  0  0
    7.7585  -15.8506    0.0000 C   0  0  1  0  0  0
    0.2668  -12.9506    0.0000 C   0  0  1  0  0  0
    6.3710  -15.8506    0.0000 C   0  0  1  0  0  0
   -2.1915  -11.6881    0.0000 C   0  0  2  0  0  0
   -3.1165  -12.0214    0.0000 C   0  0  2  0  0  0
    5.8085  -14.2506    0.0000 O   0  0
   -0.9332  -12.4464    0.0000 O   0  0
    4.7793  -12.9881    0.0000 O   0  0
   -1.9665  -11.1881    0.0000 O   0  0
    3.8960  -13.3256    0.0000 C   0  0  1  0  0  0
   10.7418  -16.2214    0.0000 C   0  0  1  0  0  0
    9.5335  -15.0631    0.0000 O   0  0
    2.4460  -13.3756    0.0000 O   0  0
   12.0210  -16.6131    0.0000 C   0  0  2  0  0  0
   11.6210  -15.8881    0.0000 O   0  0
   -2.8457  -11.5256    0.0000 C   0  0  2  0  0  0
   -3.5207  -11.3006    0.0000 C   0  0  1  0  0  0
   10.1793  -17.4881    0.0000 O   0  0
    3.3335  -14.5881    0.0000 O   0  0
    4.5460  -14.3131    0.0000 O   0  0
   11.6085  -17.1839    0.0000 O   0  0
    6.6460  -14.7506    0.0000 C   0  0
    0.5335  -11.6256    0.0000 C   0  0
   10.7335  -15.3964    0.0000 C   0  0
    3.8960  -12.5006    0.0000 C   0  0
   -2.8540  -10.7006    0.0000 C   0  0
   -2.1415  -10.2839    0.0000 O   0  0
   11.4460  -14.9756    0.0000 O   0  0
    4.6043  -12.0756    0.0000 O   0  0
   11.5960  -18.8339    0.0000 O   0  0
    8.5668  -17.8381    0.0000 O   0  0
    1.7335  -15.0131    0.0000 O   0  0
    4.3293  -15.9381    0.0000 O   0  0
   -2.1540   -8.6339    0.0000 O   0  0
    4.5960  -10.4256    0.0000 O   0  0
   11.4335  -13.3256    0.0000 O   0  0
    5.1293  -15.3256    0.0000 O   0  0
    3.5335  -15.3256    0.0000 O   0  0
   12.4293  -18.0089    0.0000 O   0  0
   10.7710  -18.0089    0.0000 O   0  0
    2.5335  -15.6256    0.0000 O   0  0
    9.5793  -18.4214    0.0000 O   0  0
    9.1585  -16.8256    0.0000 O   0  0
    2.5335  -13.9756    0.0000 O   0  0
   -1.3207   -9.4589    0.0000 O   0  0
   -2.9707   -9.4589    0.0000 O   0  0
    5.4210  -11.2506    0.0000 O   0  0
    3.7710  -11.2506    0.0000 O   0  0
   12.2668  -14.1506    0.0000 O   0  0
   10.6168  -14.1506    0.0000 O   0  0
    1.2418  -11.2131    0.0000 O   0  0
    7.2085  -14.8131    0.0000 O   0  0
    6.1793  -15.0339    0.0000 O   0  0
   -0.1832  -11.2131    0.0000 O   0  0
    1.1835  -13.4464    0.0000 O   0  0
    8.0960  -16.6006    0.0000 O   0  0
   -2.1957  -12.5131    0.0000 O   0  0
   -0.0290  -13.7214    0.0000 O   0  0
   -3.4082  -12.7881    0.0000 O   0  0
   -4.1582  -10.7714    0.0000 O   0  0
   12.8210  -16.8256    0.0000 O   0  0
    7.6210  -17.2756    0.0000 C   0  0
   -2.9165  -12.9256    0.0000 C   0  0
    0.4710  -13.8506    0.0000 C   0  0
   -4.2207  -12.9256    0.0000 C   0  0
   -0.8415  -13.8506    0.0000 C   0  0
   -4.0290   -9.9589    0.0000 C   0  0
   13.3960  -16.2381    0.0000 C   0  0
    6.0332  -16.6033    0.0000 O   0  0
    5.2124  -16.6870    0.0000 C   0  0
  2 17  1  0
  3 30  1  1
  4 26  1  0
  5  3  1  0
  6 19  1  0
  7  1  1  0
  8  2  1  0
  9 25  1  0
 10 37  1  1
 11  7  1  0
 12 43  1  0
 13 42  1  0
 14 44  1  0
 15 45  1  0
 16  1  1  0
 17 36  1  6
 18 31  1  6
 19 10  1  0
 20  5  1  0
 21 51  1  0
 22 53  1  0
 23 52  1  0
 24 10  1  0
 25 27  1  0
 26 24  1  0
 27  3  1  0
 28 18  1  0
 29 28  1  0
 11 30  1  6
  4 31  1  6
 32 34  1  0
 33 18  1  0
 34 16  1  0
 35 17  1  0
  9 36  1  1
 16 37  1  6
 38 39  1  0
 39 35  1  0
 40 33  1  0
 41 40  1  0
  2 42  1  1
  1 43  1  1
  7 44  1  6
  8 45  1  6
  5 46  1  6
  6 47  1  1
 35 48  1  1
 34 49  1  1
 40 50  1  1
 51 50  1  0
 52 48  1  0
 53 49  1  0
 54 15  1  0
 55 13  1  0
 56 12  1  0
 57 14  1  0
 58 21  1  0
 59 22  1  0
 60 23  1  0
 61 14  2  0
 62 14  2  0
 63 15  2  0
 64 15  2  0
 65 12  2  0
 66 13  2  0
 67 13  2  0
 68 12  2  0
 69 21  2  0
 70 21  2  0
 71 22  2  0
 72 22  2  0
 73 23  2  0
 74 23  2  0
 75 47  1  0
 76 46  1  0
 77 46  2  0
 78 47  2  0
 24 79  1  6
 25 80  1  6
 28 81  1  6
 26 82  1  1
 29 83  1  1
 41 84  1  6
 38 85  1  6
 86 80  1  0
 87 81  1  0
 88 79  1  0
 89 83  1  0
 90 82  1  0
 91 84  1  0
 92 85  1  0
 11 32  1  0
  6  4  1  0
 20  9  1  0
 29 41  1  0
 38  8  1  0
 27 93  1  1
 93 94  1  0
M  END