
          11280715062D 1   1.00000     0.00000     0

 15 17  0     0  0            999 V2000
    3.8792   -0.8042    0.0000 C   0  0  0  0  0  0           0  0  0
    3.3917   -1.4750    0.0000 N   0  0  0  0  0  0           0  0  0
    3.3917   -0.1375    0.0000 N   0  0  0  0  0  0           0  0  0
    2.6125   -1.2167    0.0000 C   0  0  0  0  0  0           0  0  0
    2.6125   -0.3917    0.0000 C   0  0  0  0  0  0           0  0  0
    4.7042   -0.8042    0.0000 C   0  0  0  0  0  0           0  0  0
    5.1167   -1.5250    0.0000 N   0  0  0  0  0  0           0  0  0
    1.8917   -1.6375    0.0000 C   0  0  0  0  0  0           0  0  0
    1.8917    0.0208    0.0000 C   0  0  0  0  0  0           0  0  0
    5.9417   -1.5250    0.0000 C   0  0  0  0  0  0           0  0  0
    5.1125   -0.0917    0.0000 C   0  0  0  0  0  0           0  0  0
    6.3542   -0.8042    0.0000 C   0  0  0  0  0  0           0  0  0
    1.1792   -0.4000    0.0000 C   0  0  0  0  0  0           0  0  0
    1.1792   -1.2250    0.0000 C   0  0  0  0  0  0           0  0  0
    5.9375   -0.0917    0.0000 C   0  0  0  0  0  0           0  0  0
  2  1  2  0     0  0
  3  1  1  0     0  0
  4  2  1  0     0  0
  5  3  1  0     0  0
  6  1  1  0     0  0
  7  6  2  0     0  0
  8  4  2  0     0  0
  9  5  2  0     0  0
 10  7  1  0     0  0
 11  6  1  0     0  0
 12 15  1  0     0  0
 13  9  1  0     0  0
 14  8  1  0     0  0
 15 11  2  0     0  0
  5  4  1  0     0  0
 10 12  2  0     0  0
 13 14  2  0     0  0
M  END