
          11280715262D 1   1.00000     0.00000     0

 27 29  0     0  0            999 V2000
   -1.6750   -0.8000    0.0000 N   0  0  3  0  0  0           0  0  0
   -1.1208   -0.1917    0.0000 C   0  0  0  0  0  0           0  0  0
   -1.5333    0.5250    0.0000 C   0  0  0  0  0  0           0  0  0
   -2.3458    0.3500    0.0000 N   0  0  0  0  0  0           0  0  0
   -2.4250   -0.4667    0.0000 C   0  0  0  0  0  0           0  0  0
    2.1625   -1.7167    0.0000 C   0  0  0  0  0  0           0  0  0
    1.6667   -2.3792    0.0000 C   0  0  0  0  0  0           0  0  0
    1.9167   -0.9292    0.0000 C   0  0  0  0  0  0           0  0  0
   -1.5000   -1.6042    0.0000 C   0  0  0  0  0  0           0  0  0
    2.9375   -1.9792    0.0000 O   0  0  0  0  0  0           0  0  0
    0.8417   -2.3667    0.0000 C   0  0  0  0  0  0           0  0  0
    2.1417   -3.0500    0.0000 C   0  0  0  0  0  0           0  0  0
    2.9292   -2.8042    0.0000 C   0  0  0  0  0  0           0  0  0
   -0.3000   -0.2792    0.0000 Cl  0  0  0  0  0  0           0  0  0
    1.1125   -0.7500    0.0000 O   0  0  0  0  0  0           0  0  0
    0.6667   -1.5542    0.0000 C   0  0  0  0  0  0           0  0  0
    0.2292   -2.9167    0.0000 C   0  0  0  0  0  0           0  0  0
   -1.2000    1.2833    0.0000 C   0  0  0  0  0  0           0  0  0
   -0.7208   -1.8542    0.0000 C   0  0  0  0  0  0           0  0  0
    2.4750   -0.3250    0.0000 O   0  0  0  0  0  0           0  0  0
   -3.1458   -0.8792    0.0000 C   0  0  0  0  0  0           0  0  0
   -0.5500   -2.6667    0.0000 C   0  0  0  0  0  0           0  0  0
   -0.1125   -1.3042    0.0000 C   0  0  0  0  0  0           0  0  0
   -0.3833    1.3625    0.0000 O   0  0  0  0  0  0           0  0  0
   -3.8583   -0.4750    0.0000 C   0  0  0  0  0  0           0  0  0
   -4.5708   -0.8875    0.0000 C   0  0  0  0  0  0           0  0  0
   -5.2833   -0.4792    0.0000 C   0  0  0  0  0  0           0  0  0
  2  1  1  0     0  0
  3  2  2  0     0  0
  4  5  2  0     0  0
  5  1  1  0     0  0
  6  7  2  0     0  0
  7 11  1  0     0  0
  8  6  1  0     0  0
  9  1  1  0     0  0
 10  6  1  0     0  0
 11 16  1  0     0  0
 12  7  1  0     0  0
 13 12  2  0     0  0
 14  2  1  0     0  0
 15  8  2  0     0  0
 16 23  2  0     0  0
 17 22  1  0     0  0
 18  3  1  0     0  0
 19  9  1  0     0  0
 20  8  1  0     0  0
 21  5  1  0     0  0
 22 19  2  0     0  0
 23 19  1  0     0  0
 24 18  1  0     0  0
 25 21  1  0     0  0
 26 25  1  0     0  0
 27 26  1  0     0  0
  3  4  1  0     0  0
 17 11  2  0     0  0
 13 10  1  0     0  0
M  END