
  SciTegic06271318582D

 23 25  0  0  0  0            999 V2000
    5.4792   -3.8792    0.0000 C   0  0
    5.4792   -3.0542    0.0000 C   0  0
    4.7625   -4.2917    0.0000 N   0  0
    4.0500   -3.0542    0.0000 N   0  0
    4.0500   -3.8792    0.0000 C   0  0
    6.2667   -4.1292    0.0000 N   0  0
    4.7625   -2.6417    0.0000 C   0  0
    6.2625   -2.7917    0.0000 N   0  0
    6.7542   -3.4542    0.0000 C   0  0
    3.3292   -4.2917    0.0000 O   0  0
    4.7542   -1.8167    0.0000 O   0  0
    7.5750   -3.4542    0.0000 C   0  0
    4.7667   -5.1167    0.0000 C   0  0
    3.3375   -2.6417    0.0000 C   0  0
    4.0500   -5.5292    0.0000 C   0  0
    3.3375   -6.7750    0.0000 F   0  0
    4.0542   -6.3542    0.0000 C   0  0
    8.0417   -2.7750    0.0000 C   0  0
    8.0792   -4.1042    0.0000 C   0  0
    3.3375   -1.8167    0.0000 C   0  0
    2.6167   -1.4042    0.0000 C   0  0
    8.8292   -3.0042    0.0000 C   0  0
    8.8542   -3.8292    0.0000 C   0  0
  2  1  2  0
  3  1  1  0
  4  5  1  0
  5  3  1  0
  6  1  1  0
  7  2  1  0
  8  2  1  0
  9  6  1  0
 10  5  2  0
 11  7  2  0
 12  9  1  0
 13  3  1  0
 14  4  1  0
 15 13  1  0
 16 17  1  0
 17 15  1  0
 18 12  1  0
 19 12  1  0
 20 14  1  0
 21 20  1  0
 22 18  1  0
 23 19  1  0
  9  8  2  0
  7  4  1  0
 23 22  1  0
M  ISO  1  16  18
M  END