
  SciTegic10191216072D

 32 35  0  0  0  0            999 V2000
   -2.6001  -25.6282    0.0000 C   0  0
   -2.6014  -26.4557    0.0000 C   0  0
   -1.8885  -26.8686    0.0000 C   0  0
   -1.8904  -25.2154    0.0000 C   0  0
   -1.1724  -25.6242    0.0000 C   0  0
   -1.1733  -26.4578    0.0000 C   0  0
   -0.4558  -26.8730    0.0000 C   0  0
    0.2672  -26.4593    0.0000 N   0  0
    0.2681  -25.6258    0.0000 C   0  0
   -0.4540  -25.2059    0.0000 C   0  0
   -0.4543  -24.3809    0.0000 C   0  0
    0.2591  -23.9715    0.0000 C   0  0
    0.2593  -23.1474    0.0000 C   0  0
   -0.4559  -22.7342    0.0000 C   0  0
   -1.1725  -23.1513    0.0000 C   0  0
   -1.1691  -23.9742    0.0000 C   0  0
    0.9806  -26.8736    0.0000 C   0  0
   -3.3164  -26.8672    0.0000 O   0  0
   -4.0302  -26.4537    0.0000 C   0  0
   -4.0290  -25.6288    0.0000 C   0  0
   -4.7429  -25.2152    0.0000 C   0  0
   -4.7417  -24.3903    0.0000 N   0  0
   -4.0235  -23.9813    0.0000 C   0  0
   -4.0204  -23.1600    0.0000 C   0  0
   -4.7324  -22.7426    0.0000 C   0  0
   -5.4492  -23.1529    0.0000 C   0  0
   -5.4541  -23.9803    0.0000 C   0  0
   -4.7281  -21.9176    0.0000 F   0  0
   -0.4572  -21.9093    0.0000 O   0  0
    0.2565  -21.4956    0.0000 C   0  0
    0.2552  -20.6707    0.0000 F   0  0
    0.9717  -21.9070    0.0000 F   0  0
  5  4  2  0
 15 16  2  0
 16 11  1  0
  4  1  1  0
  8 17  1  0
  5 10  1  0
  2 18  1  0
  6  7  1  0
 18 19  1  0
  7  8  1  0
 19 20  1  0
  8  9  1  0
 20 21  1  0
  9 10  1  0
 21 22  1  0
 22 23  1  0
  5  6  1  0
 10 11  1  0
 11 12  2  0
  2  3  1  0
 22 27  1  0
 23 24  1  0
 24 25  1  0
 25 26  1  0
 26 27  1  0
 12 13  1  0
 25 28  1  0
  3  6  2  0
 14 29  1  0
 13 14  2  0
 29 30  1  0
  1  2  2  0
 30 31  1  0
 14 15  1  0
 30 32  1  0
M  END