
          11280714442D 1   1.00000     0.00000     0

 19 19  0     0  0            999 V2000
    4.8667   -6.8542    0.0000 C   0  0  0  0  0  0           0  0  0
    4.1750   -7.3000    0.0000 C   0  0  0  0  0  0           0  0  0
    5.6000   -7.2375    0.0000 O   0  0  0  0  0  0           0  0  0
    4.8292   -6.0292    0.0000 O   0  0  0  0  0  0           0  0  0
    8.4542   -7.1042    0.0000 N   0  0  0  0  0  0           0  0  0
    4.2167   -8.1167    0.0000 C   0  0  0  0  0  0           0  0  0
    3.4417   -6.9167    0.0000 C   0  0  0  0  0  0           0  0  0
    7.0292   -7.1667    0.0000 C   0  0  3  0  0  0           0  0  0
    6.2917   -6.7917    0.0000 C   0  0  0  0  0  0           0  0  0
    7.7250   -6.7250    0.0000 C   0  0  0  0  0  0           0  0  0
    3.5250   -8.5667    0.0000 C   0  0  0  0  0  0           0  0  0
    2.7500   -7.3667    0.0000 C   0  0  0  0  0  0           0  0  0
    2.7875   -8.1875    0.0000 C   0  0  0  0  0  0           0  0  0
    7.0667   -7.9917    0.0000 O   0  0  0  0  0  0           0  0  0
    1.3542   -8.2542    0.0000 O   0  0  0  0  0  0           0  0  0
    9.1500   -6.6625    0.0000 C   0  0  3  0  0  0           0  0  0
    2.0917   -8.6292    0.0000 C   0  0  0  0  0  0           0  0  0
    9.8792   -7.0417    0.0000 C   0  0  0  0  0  0           0  0  0
    9.1167   -5.8375    0.0000 C   0  0  0  0  0  0           0  0  0
  2  1  1  0     0  0
  3  1  1  0     0  0
  4  1  2  0     0  0
  5 10  1  0     0  0
  6  2  1  0     0  0
  7  2  2  0     0  0
  8  9  1  0     0  0
  9  3  1  0     0  0
 10  8  1  0     0  0
 11  6  2  0     0  0
 12  7  1  0     0  0
 13 12  2  0     0  0
 14  8  1  0     0  0
 15 17  1  0     0  0
 16  5  1  0     0  0
 17 13  1  0     0  0
 18 16  1  0     0  0
 19 16  1  0     0  0
 13 11  1  0     0  0
M  END