
  SciTegic12231509382D

 37 42  0  0  0  0            999 V2000
   -1.6125   -1.8776    0.0000 N   0  0
    0.0000   -1.8555    0.0000 C   0  0
    0.6627   -0.5522    0.0000 N   0  0
    0.0000    0.7068    0.0000 C   0  0
    0.9498    1.8334    0.0000 N   0  0
    2.2973    1.1928    0.0000 C   0  0
    2.1205   -0.2651    0.0000 N   0  0
   -1.5683    0.7068    0.0000 C   0  0
   -2.3414   -0.5743    0.0000 C   0  0
   -3.8214   -0.2430    0.0000 N   0  0
   -3.9539    1.2370    0.0000 N   0  0
   -2.5402    1.8334    0.0000 C   0  0
    0.6344   -2.8741    0.0000 N   0  0
    3.6120    1.9165    0.0000 C   0  0
    4.9906    1.3707    0.0000 O   0  0
    5.9323    2.5382    0.0000 C   0  0
    5.1130    3.7947    0.0000 C   0  0
    3.6648    3.4037    0.0000 C   0  0
   -4.9540   -1.2237    0.0000 C   0  0
   -6.3723   -0.7331    0.0000 C   0  0
   -7.5070   -1.7154    0.0000 N   0  0
   -8.9254   -1.2272    0.0000 C   0  0
  -10.0574   -2.2113    0.0000 C   0  0
   -9.7712   -3.6837    0.0000 N   0  0
   -8.3529   -4.1721    0.0000 C   0  0
   -7.2209   -3.1880    0.0000 C   0  0
  -10.9038   -4.6683    0.0000 C   0  0
  -12.3230   -4.1823    0.0000 C   0  0
  -13.4535   -5.1682    0.0000 C   0  0
  -13.1649   -6.6402    0.0000 C   0  0
  -11.7458   -7.1263    0.0000 C   0  0
  -10.6153   -6.1404    0.0000 C   0  0
  -14.2940   -7.6289    0.0000 O   0  0
  -14.0032   -9.1013    0.0000 C   0  0
  -15.1322  -10.0901    0.0000 C   0  0
  -14.8414  -11.5625    0.0000 O   0  0
  -15.7442  -12.3530    0.0000 C   0  0
  1  2  2  0
  2  3  1  0
  3  4  1  0
  4  5  2  0
  5  6  1  0
  3  7  1  0
  6  7  2  0
  4  8  1  0
  1  9  1  0
  8  9  2  0
  9 10  1  0
 10 11  1  0
  8 12  1  0
 11 12  2  0
  2 13  1  0
  6 14  1  0
 14 15  1  0
 15 16  1  0
 16 17  2  0
 14 18  2  0
 17 18  1  0
 10 19  1  0
 19 20  1  0
 20 21  1  0
 21 22  1  0
 22 23  1  0
 23 24  1  0
 24 25  1  0
 21 26  1  0
 25 26  1  0
 24 27  1  0
 27 28  2  0
 28 29  1  0
 29 30  2  0
 30 31  1  0
 27 32  1  0
 31 32  2  0
 30 33  1  0
 33 34  1  0
 34 35  1  0
 35 36  1  0
 36 37  1  0
M  END