
  SciTegic01091216402D

 60 61  0  0  0  0            999 V2000
    3.4458   -1.0018    0.0000 Na  0  3
   -0.4566   -0.1348    0.0000 C   0  0  1  0  0  0
   -1.1642   -0.5632    0.0000 C   0  0  1  0  0  0
   -1.1427   -1.3854    0.0000 C   0  0  2  0  0  0
   -0.4241   -1.7856    0.0000 C   0  0
    0.2848   -1.3552    0.0000 C   0  0  1  0  0  0
    0.2725   -0.5285    0.0000 O   0  0
    0.9920   -0.9248    0.0000 C   0  0
    0.9743   -0.0963    0.0000 O   0  0
   -1.8502   -1.8137    0.0000 O   0  0
   -1.8859   -0.1677    0.0000 N   0  0
   -0.4726    0.6901    0.0000 C   0  0  1  0  0  0
    0.2337    1.1206    0.0000 C   0  0  1  0  0  0
   -2.5929   -0.5970    0.0000 C   0  0
   -3.3203   -0.2001    0.0000 C   0  0
   -2.5782   -1.4221    0.0000 O   0  0
   -1.2006    1.0860    0.0000 O   0  0
    0.2488    0.2972    0.0000 H   0  0
    0.2121    1.9469    0.0000 C   0  0
    0.9560    0.7261    0.0000 O   0  0
    0.3013   -2.1734    0.0000 O   0  0
   -4.0187   -4.5946    0.0000 C   0  0  2  0  0  0
   -3.3093   -5.0116    0.0000 C   0  0  2  0  0  0
   -2.5952   -4.6116    0.0000 C   0  0  1  0  0  0
   -2.5844   -3.7889    0.0000 O   0  0
   -3.2937   -3.3675    0.0000 C   0  0  1  0  0  0
   -4.0140   -3.7734    0.0000 C   0  0  2  0  0  0
   -4.7271   -3.3512    0.0000 O   0  0
   -3.2843   -2.5405    0.0000 C   0  0
   -3.9965   -2.1207    0.0000 O   0  0
   -1.8874   -5.0316    0.0000 O   0  0
   -4.7388   -5.0003    0.0000 O   0  0
   -3.3178   -5.8388    0.0000 O   0  0
   -1.1657   -4.6286    0.0000 C   0  0  2  0  0  0
   -0.4573   -5.0515    0.0000 C   0  0  2  0  0  0
    0.2622   -4.6520    0.0000 C   0  0  2  0  0  0
    0.2762   -3.8247    0.0000 O   0  0
   -0.4355   -3.3983    0.0000 C   0  0  1  0  0  0
   -1.1613   -3.8037    0.0000 C   0  0  2  0  0  0
   -1.1722   -5.4535    0.0000 H   0  0
   -1.8737   -3.3803    0.0000 O   0  0
   -0.4229   -2.5713    0.0000 C   0  0
    0.9727   -5.0746    0.0000 O   0  0
   -0.4703   -5.8787    0.0000 N   0  0
    0.2358   -6.3013    0.0000 C   0  0
    0.2228   -7.1243    0.0000 C   0  0
    0.9550   -5.9011    0.0000 O   0  0
    1.6907   -4.6725    0.0000 C   0  0  1  0  0  0
    2.3980   -5.0932    0.0000 C   0  0  2  0  0  0
    1.7014   -3.8496    0.0000 C   0  0
    2.3873   -5.9162    0.0000 N   0  0
    3.1160   -4.6911    0.0000 C   0  0
    3.8234   -5.1119    0.0000 O   0  0
    3.1268   -3.8682    0.0000 O   0  0
    4.5414   -4.7097    0.0000 C   0  0
    3.0945   -6.3369    0.0000 C   0  0
    3.0838   -7.1600    0.0000 C   0  0
    3.8126   -5.9348    0.0000 O   0  0
    1.7137   -1.3203    0.0000 O   0  5
    0.9138    2.3770    0.0000 O   0  0
 29 30  1  0
 14 15  1  0
 24 31  1  1
 22 32  1  1
 14 16  2  0
 23 33  1  6
  6  8  1  1
 34 31  1  0
 34 35  1  0
 12 17  1  6
  2 18  1  1
  8  9  2  0
 13 19  1  0
 34 39  1  0
 35 36  1  0
 36 37  1  0
 37 38  1  0
 38 39  1  0
  2  3  1  0
 34 40  1  6
 13 20  1  1
 39 41  1  1
  4 10  1  6
 38 42  1  1
 42 21  1  0
  6 21  1  0
 36 43  1  6
  2  7  1  0
 35 44  1  6
 22 23  1  0
 44 45  1  0
  3 11  1  1
 45 46  1  0
  3  4  1  0
 45 47  2  0
  2 12  1  0
 43 48  1  0
  4  5  1  0
 48 49  1  0
 12 13  1  0
 48 50  1  6
 22 27  1  0
 49 51  1  1
 23 24  1  0
 49 52  1  0
 24 25  1  0
 52 53  1  0
 25 26  1  0
 52 54  2  0
 26 27  1  0
 53 55  1  0
  5  6  1  0
 51 56  1  0
 27 28  1  1
 56 57  1  0
 11 14  1  0
 56 58  2  0
 26 29  1  1
  8 59  1  0
  6  7  1  0
 19 60  1  0
M  CHG  2   1   1  59  -1
M  END