
  CDK    6/4/10,11:42

 27 28  0  0  0  0  0  0  0  0999 V2000
    6.1273   -5.2135    0.0000 C   0  0  0  0  0  0  0  0  0  0  0  0
    6.1273   -6.0397    0.0000 C   0  0  0  0  0  0  0  0  0  0  0  0
    6.8410   -6.4444    0.0000 C   0  0  0  0  0  0  0  0  0  0  0  0
    7.5507   -6.0397    0.0000 O   0  0  0  0  0  0  0  0  0  0  0  0
    7.5507   -5.2135    0.0000 C   0  0  0  0  0  0  0  0  0  0  0  0
    6.8410   -4.7962    0.0000 C   0  0  0  0  0  0  0  0  0  0  0  0
    7.5559   -3.5594    0.0000 C   0  0  0  0  0  0  0  0  0  0  0  0
    7.5559   -2.7332    0.0000 C   0  0  0  0  0  0  0  0  0  0  0  0
    8.2692   -3.9704    0.0000 O   0  0  0  0  0  0  0  0  0  0  0  0
    5.4151   -6.4523    0.0000 O   0  0  0  0  0  0  0  0  0  0  0  0
    6.8410   -7.2706    0.0000 C   0  0  0  0  0  0  0  0  0  0  0  0
    5.4127   -7.2743    0.0000 C   0  0  0  0  0  0  0  0  0  0  0  0
    4.6992   -7.6885    0.0000 C   0  0  0  0  0  0  0  0  0  0  0  0
    4.6980   -8.5093    0.0000 C   0  0  0  0  0  0  0  0  0  0  0  0
    5.4136   -8.9245    0.0000 C   0  0  0  0  0  0  0  0  0  0  0  0
    6.1286   -8.5138    0.0000 C   0  0  0  0  0  0  0  0  0  0  0  0
    6.1323   -7.6837    0.0000 O   0  0  0  0  0  0  0  0  0  0  0  0
    6.8407   -8.9270    0.0000 C   0  0  0  0  0  0  0  0  0  0  0  0
    8.2657   -4.8016    0.0000 O   0  0  0  0  0  0  0  0  0  0  0  0
    6.8410   -3.9712    0.0000 N   0  0  0  0  0  0  0  0  0  0  0  0
    5.4123   -4.8016    0.0000 O   0  0  0  0  0  0  0  0  0  0  0  0
    7.5543   -7.6827    0.0000 O   0  0  0  0  0  0  0  0  0  0  0  0
    6.8424   -9.7490    0.0000 O   0  0  0  0  0  0  0  0  0  0  0  0
    5.4107   -9.7506    0.0000 O   0  0  0  0  0  0  0  0  0  0  0  0
    3.9833   -8.9177    0.0000 O   0  0  0  0  0  0  0  0  0  0  0  0
    3.9865   -7.2766    0.0000 O   0  0  0  0  0  0  0  0  0  0  0  0
    6.1250   -6.8542    0.0000 H   0  0  0  0  0  0  0  0  0  0  0  0
  7  8  1  0  0  0  0 
  7  9  2  0  0  0  0 
  2 10  1  1  0  0  0 
  3 11  1  6  0  0  0 
 12 10  1  0  0  0  0 
 12 13  1  0  0  0  0 
 12 17  1  0  0  0  0 
 13 14  1  0  0  0  0 
 14 15  1  0  0  0  0 
 15 16  1  0  0  0  0 
 16 17  1  0  0  0  0 
 16 18  1  6  0  0  0 
  1  2  1  0  0  0  0 
  1  6  1  0  0  0  0 
  2  3  1  0  0  0  0 
  3  4  1  0  0  0  0 
  4  5  1  0  0  0  0 
  5  6  1  0  0  0  0 
 11 22  1  0  0  0  0 
  6 20  1  1  0  0  0 
 20  7  1  0  0  0  0 
 18 23  1  0  0  0  0 
  5 19  1  6  0  0  0 
 15 24  1  6  0  0  0 
  1 21  1  6  0  0  0 
 14 25  1  6  0  0  0 
 13 26  1  1  0  0  0 
 12 27  1  1  0  0  0 
M  END