
  SciTegic12231509382D

 44 48  0  0  0  0            999 V2000
    5.1177   -6.2594    0.0000 C   0  0
    4.8660   -7.0464    0.0000 C   0  0
    4.0420   -7.0496    0.0000 N   0  0
    3.7874   -6.2691    0.0000 C   0  0
    4.4465   -5.7817    0.0000 N   0  0
    2.9994   -6.0155    0.0000 O   0  0
    4.4465   -4.9634    0.0000 C   0  0
    3.7305   -4.5508    0.0000 C   0  0
    3.0179   -4.9614    0.0000 C   0  0
    2.3079   -4.5523    0.0000 N   0  0
    2.3022   -3.7292    0.0000 C   0  0
    1.5913   -3.3187    0.0000 C   0  0
    0.8803   -3.7308    0.0000 N   0  0
    0.8794   -4.5547    0.0000 C   0  0
    1.5972   -4.9679    0.0000 C   0  0
    0.1660   -3.3192    0.0000 C   0  0
    0.1680   -2.4981    0.0000 C   0  0
   -0.5422   -2.0873    0.0000 C   0  0
   -1.2570   -2.5005    0.0000 C   0  0
   -1.2552   -3.3301    0.0000 C   0  0
   -0.5406   -3.7341    0.0000 C   0  0
    3.7305   -3.7276    0.0000 O   0  0
    5.5293   -5.5493    0.0000 C   0  0
    6.3571   -5.5434    0.0000 C   0  0
    6.7686   -4.8221    0.0000 C   0  0
    6.3508   -4.1022    0.0000 C   0  0
    5.5110   -4.1102    0.0000 C   0  0
    5.1050   -4.8324    0.0000 C   0  0
    5.8725   -6.5919    0.0000 C   0  0
    5.9608   -7.4138    0.0000 C   0  0
    6.7150   -7.7458    0.0000 C   0  0
    7.3838   -7.2575    0.0000 C   0  0
    7.2867   -6.4315    0.0000 C   0  0
    6.5321   -6.1055    0.0000 C   0  0
    5.3551   -7.7105    0.0000 O   0  0
    3.5636   -7.7174    0.0000 C   0  0
    2.7410   -7.6461    0.0000 C   0  0
    3.9119   -8.4653    0.0000 C   0  0
    2.2709   -8.3227    0.0000 O   0  0
    2.3968   -6.9023    0.0000 O   0  0
    2.6192   -9.0707    0.0000 C   0  0
    2.1492   -9.7431    0.0000 C   0  0
    0.8824   -2.0865    0.0000 O   0  0
    1.5975   -2.4985    0.0000 C   0  0
 21 16  1  0
 10 11  1  0
  8 22  1  0
  5  1  1  0
  1 23  1  0
  1  2  1  0
 23 24  2  0
  4  6  2  0
 24 25  1  0
 25 26  2  0
  5  7  1  0
 26 27  1  0
 10 15  1  0
 27 28  2  0
 28 23  1  0
 11 12  1  0
  1 29  1  0
 12 13  1  0
 29 30  2  0
 13 14  1  0
 30 31  1  0
 14 15  1  0
 31 32  2  0
  2  3  1  0
 32 33  1  0
 13 16  1  0
 33 34  2  0
 34 29  1  0
  7  8  1  0
  2 35  2  0
 16 17  2  0
  3 36  1  0
  3  4  1  0
 36 37  1  0
 17 18  1  0
 36 38  1  0
  8  9  1  0
 37 39  1  0
 18 19  2  0
 37 40  2  0
  4  5  1  0
 39 41  1  0
 19 20  1  0
 41 42  1  0
  9 10  1  0
 17 43  1  0
 20 21  2  0
 43 44  1  0
M  END