
  SciTegic09261414532D

 36 41  0  0  0  0            999 V2000
    0.2710  -14.2802    0.0000 C   0  0
    0.2698  -15.0997    0.0000 C   0  0
    0.9779  -15.5087    0.0000 C   0  0
    0.9761  -13.8713    0.0000 C   0  0
    1.6847  -14.2766    0.0000 C   0  0
    1.6895  -15.0952    0.0000 C   0  0
    2.4695  -15.3436    0.0000 N   0  0
    2.9469  -14.6785    0.0000 C   0  0
    2.4618  -14.0191    0.0000 N   0  0
    2.7266  -16.1193    0.0000 C   0  0
    2.1833  -16.7298    0.0000 C   0  0
    1.3846  -16.5621    0.0000 C   0  0
    0.8416  -17.1717    0.0000 C   0  0
    1.0985  -17.9484    0.0000 C   0  0
    1.9035  -18.1119    0.0000 C   0  0
    2.4430  -17.5010    0.0000 C   0  0
    3.7633  -14.6724    0.0000 C   0  0
    4.1748  -15.3795    0.0000 C   0  0
    4.9884  -15.3767    0.0000 C   0  0
    5.3967  -14.6683    0.0000 C   0  0
    4.9851  -13.9612    0.0000 C   0  0
    4.1653  -13.9625    0.0000 C   0  0
    6.2139  -14.6666    0.0000 O   0  0
    6.6240  -15.3735    0.0000 C   0  0
    6.2169  -16.0820    0.0000 C   0  0
    6.6270  -16.7889    0.0000 N   0  0
    6.3008  -17.5348    0.0000 C   0  0
    6.9093  -18.0804    0.0000 N   0  0
    7.6162  -17.6702    0.0000 C   0  0
    7.4445  -16.8713    0.0000 C   0  0
    5.5055  -17.7087    0.0000 C   0  0
    4.9563  -17.1021    0.0000 C   0  0
    4.1584  -17.2751    0.0000 C   0  0
    3.9086  -18.0541    0.0000 C   0  0
    4.4629  -18.6603    0.0000 C   0  0
    5.2587  -18.4843    0.0000 C   0  0
  1  2  2  0
  2  3  1  0
  3  6  2  0
  5  4  2  0
  4  1  1  0
  5  6  1  0
  6  7  1  0
  7  8  1  0
  8  9  2  0
  9  5  1  0
  7 10  1  0
 10 11  1  0
 11 12  2  0
 12 13  1  0
 13 14  2  0
 14 15  1  0
 15 16  2  0
 16 11  1  0
 17 18  2  0
 17 22  1  0
 18 19  1  0
 19 20  2  0
 20 21  1  0
 21 22  2  0
  8 17  1  0
 20 23  1  0
 23 24  1  0
 24 25  1  0
 25 26  1  0
 26 27  1  0
 27 28  2  0
 28 29  1  0
 29 30  2  0
 30 26  1  0
 31 32  2  0
 32 33  1  0
 33 34  2  0
 34 35  1  0
 35 36  2  0
 36 31  1  0
 27 31  1  0
M  END