
  SciTegic05161214222D

 54 57  0  0  0  0            999 V2000
    1.0902  -19.6832    0.0000 C   0  0
   -2.4750  -19.2792    0.0000 C   0  0
   -2.4750  -20.1042    0.0000 C   0  0
   -1.7630  -20.5125    0.0000 O   0  0
   -1.0510  -20.1042    0.0000 C   0  0
   -1.0510  -19.2792    0.0000 C   0  0
   -1.7630  -18.8625    0.0000 C   0  0
   -3.1927  -18.8739    0.0000 S   0  0
   -3.6010  -19.5908    0.0000 O   0  0
   -2.7760  -19.5860    0.0000 O   0  0
   -6.0652  -13.9375    0.0000 C   0  0
   -6.0641  -14.7648    0.0000 C   0  0
   -5.3461  -15.1777    0.0000 C   0  0
   -5.3479  -13.5247    0.0000 C   0  0
   -4.6325  -13.9338    0.0000 C   0  0
   -4.6318  -14.7607    0.0000 C   0  0
   -3.9165  -15.1716    0.0000 N   0  0
   -3.2014  -14.7569    0.0000 C   0  0
   -3.2062  -13.9269    0.0000 C   0  0
   -3.9221  -13.5197    0.0000 C   0  0
   -2.4854  -15.1666    0.0000 C   0  0
   -3.9265  -12.6947    0.0000 C   0  0
   -5.3442  -16.0027    0.0000 O   0  0
   -4.6288  -16.4135    0.0000 C   0  0
   -4.6269  -17.2385    0.0000 C   0  0
   -5.3430  -17.6483    0.0000 C   0  0
   -5.3414  -18.4726    0.0000 C   0  0
   -4.6254  -18.8842    0.0000 C   0  0
   -3.9096  -18.4656    0.0000 C   0  0
   -3.9146  -17.6428    0.0000 C   0  0
   -6.0596  -17.2351    0.0000 Cl  0  0
   -3.2030  -17.2254    0.0000 Cl  0  0
   -2.4806  -18.4573    0.0000 N   0  0
   -1.0517  -18.4489    0.0000 C   0  0
   -0.3360  -18.8592    0.0000 N   0  0
   -1.0543  -17.6239    0.0000 O   0  0
   -0.3371  -19.6842    0.0000 C   0  0
    0.3746  -20.0944    0.0000 C   0  0
    1.0896  -18.8573    0.0000 C   0  0
    0.3734  -18.4425    0.0000 C   0  0
    1.8044  -20.0962    0.0000 C   0  0
    2.5191  -19.6842    0.0000 C   0  0
    3.2333  -20.0972    0.0000 C   0  0
    3.9481  -19.6852    0.0000 N   0  3
    4.6623  -20.0982    0.0000 C   0  0
    3.9486  -18.8602    0.0000 C   0  0
    4.1610  -20.4823    0.0000 C   0  0
    1.8784  -17.8051    0.0000 F   0  0
    2.5928  -17.3926    0.0000 C   0  0
    3.3073  -17.8051    0.0000 F   0  0
    2.5867  -18.2134    0.0000 F   0  0
    2.5959  -16.5676    0.0000 C   0  0
    3.3119  -16.1578    0.0000 O   0  5
    1.8830  -16.1524    0.0000 O   0  0
 23 24  1  0
 13 16  2  0
 24 25  1  0
  6  7  1  0
 25 26  2  0
 15 14  2  0
 26 27  1  0
 14 11  1  0
 27 28  2  0
  9  8  2  0
 28 29  1  0
  8 10  2  0
 29 30  2  0
 30 25  1  0
 15 16  1  0
 26 31  1  0
 30 32  1  0
 29  8  1  0
 16 17  1  0
  8 33  1  0
 33  7  1  0
  2  3  1  0
  7 34  1  0
 17 18  2  0
 34 35  1  0
  2  7  1  0
 34 36  2  0
 35 37  1  0
 18 19  1  0
  3  4  1  0
 19 20  2  0
 20 15  1  0
 35 40  1  0
 37 38  1  0
 38  1  1  0
  1 39  1  0
 39 40  1  0
  4  5  1  0
  1 41  1  0
 18 21  1  0
 41 42  1  0
 11 12  2  0
 42 43  1  0
 20 22  1  0
 43 44  1  0
  5  6  1  0
 44 45  1  0
 13 23  1  0
 44 46  1  0
 12 13  1  0
 44 47  1  0
 48 49  1  0
 49 51  1  0
 49 52  1  0
 49 50  1  0
 52 53  1  0
 52 54  2  0
M  CHG  2  44   1  53  -1
M  END