
  SciTegic06051315212D

 17 19  0  0  0  0            999 V2000
    4.2969  -15.5898    0.0000 C   0  0  1  0  0  0
    5.0050  -15.1837    0.0000 O   0  0
    5.0050  -14.3632    0.0000 C   0  0
    4.2969  -13.9488    0.0000 C   0  0
    3.5887  -15.1837    0.0000 C   0  0  1  0  0  0
    3.5841  -14.3587    0.0000 C   0  0  2  0  0  0
    2.7980  -14.1080    0.0000 C   0  0  1  0  0  0
    2.3168  -14.7782    0.0000 C   0  0  2  0  0  0
    2.8055  -15.4429    0.0000 C   0  0  1  0  0  0
    2.9712  -16.4767    0.0000 C   0  0
    4.0570  -16.5057    0.0000 O   0  0
    2.5402  -13.3290    0.0000 O   0  0
    3.5763  -13.5343    0.0000 H   0  0
    2.0886  -15.8467    0.0000 O   0  0
    3.5846  -16.0042    0.0000 H   0  0
    4.8733  -16.1699    0.0000 H   0  0
    1.4963  -14.7828    0.0000 O   0  0
  6  4  1  0
  5  1  1  0
  1  2  1  0
  2  3  1  0
  3  4  1  0
  5  6  1  0
  6  7  1  0
  7  8  1  0
  8  9  1  0
  9  5  1  0
  9 10  1  0
  1 11  1  0
 10 11  1  0
  7 12  1  1
  6 13  1  1
  9 14  1  1
  5 15  1  1
  1 16  1  1
  8 17  1  6
M  END