
  SciTegic05191616072D

 32 34  0  0  0  0            999 V2000
   -2.2935    3.7700    0.0000 C   0  0
   -0.9971    3.0138    0.0000 C   0  0
   -2.3155    0.7475    0.0000 C   0  0
   -1.0028    1.5132    0.0000 C   0  0
   -1.0028   -1.5132    0.0000 C   0  0
   -2.3155   -0.7475    0.0000 C   0  0
    0.2917   -0.7475    0.0000 C   0  0  1  0  0  0
    0.2917    0.7475    0.0000 C   0  0  1  0  0  0
    1.7138    1.2033    0.0000 C   0  0
    2.5889    0.0182    0.0000 C   0  0
    1.7138   -1.2033    0.0000 C   0  0  2  0  0  0
    3.1750   -1.4819    0.0000 C   0  0  1  0  0  0
    3.6473   -2.9065    0.0000 C   0  0
    5.1170   -3.2107    0.0000 C   0  0
    5.5892   -4.6353    0.0000 C   0  0
    7.0589   -4.9395    0.0000 C   0  0
    7.8568   -4.0433    0.0000 C   0  0
    6.6818   -3.8003    0.0000 C   0  0
    7.5312   -6.3641    0.0000 O   0  0
    3.9729   -0.5856    0.0000 C   0  0
    1.0371   -1.9396    0.0000 H   0  0
    0.4035    1.7412    0.0000 H   0  0
    0.4258   -1.9400    0.0000 C   0  0
   -2.2878    5.2708    0.0000 C   0  0
   -3.5855    6.0232    0.0000 C   0  0
   -3.5828    7.5232    0.0000 C   0  0  2  0  0  0
   -2.2825    8.2709    0.0000 C   0  0
   -0.9848    7.5185    0.0000 C   0  0  1  0  0  0
   -0.9874    6.0185    0.0000 C   0  0
    0.3148    8.2693    0.0000 O   0  0
   -4.8828    8.2732    0.0000 O   0  0
    0.0507    5.4167    0.0000 C   0  0
 16 17  1  0
  2  4  2  0
 16 18  1  0
  3  4  1  0
 16 19  1  0
  3  6  1  0
 12 20  1  6
  8  9  1  0
 11 21  1  1
  9 10  1  0
  8 22  1  1
 10 11  1  0
  7 23  1  6
 11  7  1  0
  1 24  2  0
 24 25  1  0
  4  8  1  0
 11 12  1  0
  7  5  1  0
 12 13  1  0
  5  6  1  0
 24 29  1  0
 25 26  1  0
 26 27  1  0
 27 28  1  0
 28 29  1  0
 13 14  1  0
  7  8  1  0
 28 30  1  6
 14 15  1  0
 26 31  1  1
 15 16  1  0
  1  2  1  0
 29 32  2  0
M  END