
  SciTegic12211612322D

 23 28  0  0  0  0            999 V2000
   -0.4521    1.4317    0.0000 C   0  0
   -1.8387    2.0346    0.0000 C   0  0
   -1.9894    3.5417    0.0000 C   0  0
   -0.7686    4.4309    0.0000 C   0  0
    0.5878    3.7979    0.0000 C   0  0
    0.7535    2.3059    0.0000 C   0  0
    1.9592    1.4317    0.0000 C   0  0
    3.4211    1.6879    0.0000 C   0  0
    4.4459    0.6179    0.0000 C   0  0
    5.9530    0.6179    0.0000 N   0  0
    6.9628    1.6879    0.0000 C   0  0
    8.4397    1.4317    0.0000 C   0  0
    8.9069    0.0000    0.0000 C   0  0
    7.8972   -1.1153    0.0000 C   0  0
    6.4202   -0.7988    0.0000 C   0  0
    5.1995   -1.6879    0.0000 C   0  0
    3.9787   -0.7988    0.0000 N   0  3
    2.5018   -1.1153    0.0000 N   0  0
    1.5071    0.0000    0.0000 C   0  0
    0.0000    0.0000    0.0000 C   0  0
   -1.1605   -0.9495    0.0000 C   0  0
   -2.5922   -0.4823    0.0000 C   0  0
   -2.9087    0.9796    0.0000 C   0  0
  1  2  2  0
  2  3  1  0
  3  4  2  0
  4  5  1  0
  5  6  2  0
  1  6  1  0
  6  7  1  0
  7  8  2  0
  8  9  1  0
  9 10  1  0
 10 11  1  0
 11 12  2  0
 12 13  1  0
 13 14  2  0
 10 15  1  0
 14 15  1  0
 15 16  2  0
  9 17  2  0
 16 17  1  0
 17 18  1  0
 18 19  2  0
  7 19  1  0
 19 20  1  0
  1 20  1  0
 20 21  2  0
 21 22  1  0
 22 23  2  0
  2 23  1  0
M  CHG  1  17   1
M  END