
  SciTegic01161211252D

 35 39  0  0  0  0            999 V2000
    4.6875   -4.2292    0.0000 N   0  0
    5.4750   -3.9917    0.0000 C   0  0
    4.7125   -2.8917    0.0000 N   0  3
    5.4917   -3.1625    0.0000 C   0  0
    4.4125   -5.0042    0.0000 C   0  0  1  0  0  0
    6.1792   -4.4208    0.0000 N   0  0
    4.2167   -3.5500    0.0000 C   0  0
    6.2167   -2.7625    0.0000 C   0  0
    6.9250   -3.1958    0.0000 N   0  0
    4.8792   -5.6875    0.0000 C   0  0  1  0  0  0
    6.9083   -4.0250    0.0000 C   0  0
    3.6208   -5.2458    0.0000 O   0  0
    1.5000   -6.6583    0.0000 P   0  0
    3.6000   -6.0708    0.0000 C   0  0  1  0  0  0
    4.3792   -6.3458    0.0000 C   0  0  1  0  0  0
    4.4708   -2.1042    0.0000 C   0  0
    2.9250   -6.5417    0.0000 C   0  0
    2.1792   -6.1875    0.0000 O   0  0
    6.2333   -1.9375    0.0000 O   0  0
    2.0292   -7.2917    0.0000 O   0  5
    0.9125   -7.2417    0.0000 O   0  0
    0.9708   -6.0208    0.0000 O   0  0
    5.0333   -1.5000    0.0000 C   0  0
    5.3500   -0.1125    0.0000 C   0  0
    4.7917   -0.7167    0.0000 C   0  0
    7.6125   -4.4542    0.0000 N   0  0
    5.7042   -5.7083    0.0000 O   0  0
    6.1542   -0.3000    0.0000 C   0  0
    6.4000   -1.0875    0.0000 C   0  0
    4.6167   -7.1333    0.0000 O   0  0
    5.8375   -1.6875    0.0000 C   0  0
    5.1083    0.6750    0.0000 C   0  0
    6.7208    0.3042    0.0000 C   0  0
    5.6667    1.2792    0.0000 C   0  0
    6.4792    1.0958    0.0000 C   0  0
  2  1  1  0
  3  7  2  0
  4  2  2  0
  5  1  1  1
  6  2  1  0
  7  1  1  0
  8  4  1  0
  9 11  1  0
 10  5  1  0
 11  6  2  0
 12  5  1  0
 13 18  1  0
 14 12  1  0
 15 10  1  0
 16  3  1  0
 14 17  1  1
 18 17  1  0
 19  8  2  0
 20 13  1  0
 21 13  1  0
 22 13  2  0
 23 16  1  0
 24 25  2  0
 25 23  1  0
 26 11  1  0
 10 27  1  6
 28 24  1  0
 29 31  1  0
 15 30  1  6
 31 23  2  0
 32 24  1  0
 33 28  1  0
 34 32  2  0
 35 34  1  0
  3  4  1  0
 15 14  1  0
  8  9  1  0
 28 29  2  0
 35 33  2  0
M  CHG  2   3   1  20  -1
M  END