
  SciTegic11201309402D

 55 58  0  0  0  0            999 V2000
   17.2355   -6.9517    0.0000 C   0  0
   16.5189   -7.3600    0.0000 C   0  0
   16.5142   -8.1803    0.0000 C   0  0
   17.2245   -8.5984    0.0000 C   0  0
   17.9411   -8.1901    0.0000 C   0  0
   17.9475   -7.3636    0.0000 C   0  0
   14.3726   -6.8999    0.0000 C   0  0
   15.0960   -6.5073    0.0000 C   0  0  1  0  0  0
   15.8001   -6.9382    0.0000 C   0  0
   15.7809   -7.7617    0.0000 O   0  0
   14.3492   -7.7234    0.0000 C   0  0
   13.6223   -8.1171    0.0000 C   0  0
   13.6025   -8.9393    0.0000 C   0  0
   14.3075   -9.3716    0.0000 C   0  0
   15.0347   -8.9722    0.0000 C   0  0
   15.0531   -8.1519    0.0000 C   0  0
   14.2858  -10.1951    0.0000 O   0  0
   17.9495   -6.5413    0.0000 C   0  0
   18.6657   -6.9532    0.0000 O   0  0
   18.6657   -5.3031    0.0000 C   0  0  2  0  0  0
   18.6657   -4.4792    0.0000 C   0  0
   19.3777   -5.7150    0.0000 C   0  0
   19.3777   -4.0672    0.0000 O   0  0
   20.0939   -5.3031    0.0000 C   0  0
   20.0939   -4.4792    0.0000 O   0  0
   17.9495   -3.2433    0.0000 C   0  0  2  0  0  0
   14.4112   -5.2505    0.0000 C   0  0
   14.4347   -4.4229    0.0000 C   0  0
   13.6879   -5.6431    0.0000 O   0  0
   17.2135   -2.8158    0.0000 C   0  0
   17.2138   -1.9653    0.0000 O   0  0
   15.7411   -2.8152    0.0000 C   0  0  1  0  0  0
   15.0047   -3.2422    0.0000 C   0  0
   15.0044   -4.0926    0.0000 S   0  0
   15.7414   -1.9648    0.0000 C   0  0
   15.0053   -1.5414    0.0000 O   0  0
   18.6645   -2.8318    0.0000 C   0  0
   18.6656   -2.0068    0.0000 C   0  0
   19.3826   -1.5984    0.0000 C   0  0
   19.3841   -0.7742    0.0000 C   0  0
   18.6696   -0.3599    0.0000 C   0  0
   17.9522   -0.7759    0.0000 C   0  0
   17.9543   -1.5987    0.0000 C   0  0
   18.6696    0.4651    0.0000 O   0  0
   13.5607  -10.5887    0.0000 P   0  0
   12.8573  -10.1575    0.0000 O   0  0
   13.5390  -11.4134    0.0000 O   0  0
   13.3682   -9.7864    0.0000 O   0  0
   17.9503   -4.0683    0.0000 N   0  0
   20.8083   -5.6646    0.0000 N   0  0
   16.4771   -3.1879    0.0000 N   0  0
   16.4760   -1.4915    0.0000 N   0  0
   15.1140   -5.6825    0.0000 N   0  0
   16.5196   -6.4846    0.0000 N   0  0
   17.9516   -5.7163    0.0000 N   0  0
  8  7  1  6
  8  9  1  0
  9 10  2  0
  7 11  1  0
 11 12  2  0
 12 13  1  0
 13 14  2  0
 14 15  1  0
 15 16  2  0
 16 11  1  0
 14 17  1  0
  1 18  1  0
 18 19  2  0
 20 21  1  0
 20 22  1  6
 21 23  2  0
 22 24  1  0
 24 25  2  0
 27 28  1  0
 27 29  2  0
 26 30  1  0
 30 31  2  0
 32 33  1  0
 33 34  1  0
 32 35  1  1
 35 36  2  0
 28 34  1  0
 26 37  1  6
 37 38  1  0
 38 39  2  0
 39 40  1  0
 40 41  2  0
 41 42  1  0
 42 43  2  0
 43 38  1  0
 41 44  1  0
 17 45  1  0
 45 46  1  0
 45 47  2  0
 45 48  1  0
  1  2  1  0
  1  6  1  0
  2  3  1  0
  3  4  1  0
  4  5  1  0
  5  6  1  0
 35 52  1  0
 24 50  1  0
  8 53  1  0
 53 27  1  0
 21 49  1  0
 49 26  1  0
  9 54  1  0
 54  1  1  0
 30 51  1  0
 51 32  1  0
 18 55  1  0
 55 20  1  0
M  END