
  SciTegic05061116452D

 27 29  0  0  0  0            999 V2000
   11.7537  -20.4100    0.0000 C   0  0
   11.7526  -21.2375    0.0000 C   0  0
   12.4675  -21.6503    0.0000 C   0  0
   12.4657  -19.9972    0.0000 C   0  0
   13.1811  -20.4064    0.0000 C   0  0
   13.1818  -21.2333    0.0000 C   0  0
   13.8972  -21.6443    0.0000 N   0  0
   14.6123  -21.2295    0.0000 C   0  0
   14.6075  -20.3994    0.0000 C   0  0
   13.8916  -19.9922    0.0000 N   0  0
   15.3284  -21.6392    0.0000 O   0  0
   15.3317  -22.4643    0.0000 C   0  0
   16.0478  -22.8740    0.0000 C   0  0
   15.3195  -19.9826    0.0000 C   0  0
   16.0366  -20.3907    0.0000 N   0  0
   16.7444  -19.9757    0.0000 C   0  0
   15.3145  -19.1575    0.0000 O   0  0
   17.4539  -20.3837    0.0000 C   0  0
   18.1612  -19.9694    0.0000 C   0  0
   18.1561  -19.1480    0.0000 C   0  0
   17.4379  -18.7427    0.0000 C   0  0
   16.7334  -19.1594    0.0000 C   0  0
   18.8674  -18.7297    0.0000 N   0  0
   19.5852  -19.1365    0.0000 C   0  0
   20.2963  -18.7183    0.0000 C   0  0
   18.8607  -17.9047    0.0000 C   0  0
   19.5720  -17.4864    0.0000 C   0  0
 12 13  1  0
  3  6  2  0
  9 14  1  0
  6  7  1  0
 14 15  1  0
  1  2  2  0
 15 16  1  0
  7  8  2  0
 14 17  2  0
  5  4  2  0
 16 18  2  0
  8  9  1  0
 18 19  1  0
  4  1  1  0
 19 20  2  0
  9 10  2  0
 20 21  1  0
 10  5  1  0
 21 22  2  0
 22 16  1  0
 20 23  1  0
  8 11  1  0
 23 24  1  0
  2  3  1  0
 24 25  1  0
 11 12  1  0
 23 26  1  0
  5  6  1  0
 26 27  1  0
M  END