
          11280715342D 1   1.00000     0.00000     0

 25 25  0     0  0            999 V2000
    5.6042   -3.7000    0.0000 S   0  0  3  0  0  0           0  0  0
   11.5750   -6.5125    0.0000 C   0  0  0  0  0  0           0  0  0
   11.8875   -5.7500    0.0000 C   0  0  3  0  0  0           0  0  0
    8.9000   -3.6792    0.0000 C   0  0  0  0  0  0           0  0  0
   12.7042   -5.6375    0.0000 C   0  0  0  0  0  0           0  0  0
   11.3792   -5.0917    0.0000 N   0  0  0  0  0  0           0  0  0
    6.4292   -3.6917    0.0000 C   0  0  0  0  0  0           0  0  0
   12.0792   -7.1667    0.0000 C   0  0  0  0  0  0           0  0  0
   10.5542   -5.1000    0.0000 C   0  0  0  0  0  0           0  0  0
    9.3167   -4.3917    0.0000 N   0  0  0  0  0  0           0  0  0
    5.6042   -2.8750    0.0000 O   0  0  0  0  0  0           0  0  0
    5.6042   -4.5167    0.0000 O   0  0  0  0  0  0           0  0  0
    8.0750   -3.6875    0.0000 C   0  0  0  0  0  0           0  0  0
    4.7792   -3.6917    0.0000 N   0  0  0  0  0  0           0  0  0
    9.3042   -2.9667    0.0000 O   0  0  0  0  0  0           0  0  0
   13.0167   -4.8750    0.0000 O   0  0  0  0  0  0           0  0  0
   12.8917   -7.0542    0.0000 O   0  0  0  0  0  0           0  0  0
   10.1417   -5.8167    0.0000 O   0  0  0  0  0  0           0  0  0
    6.8292   -2.9792    0.0000 C   0  0  0  0  0  0           0  0  0
    6.8417   -4.4042    0.0000 C   0  0  0  0  0  0           0  0  0
    7.6667   -4.4042    0.0000 C   0  0  0  0  0  0           0  0  0
    7.6542   -2.9750    0.0000 C   0  0  0  0  0  0           0  0  0
   10.1417   -4.3792    0.0000 C   0  0  0  0  0  0           0  0  0
   13.2125   -6.2917    0.0000 O   0  0  0  0  0  0           0  0  0
   11.7667   -7.9292    0.0000 O   0  0  0  0  0  0           0  0  0
  2  3  1  0     0  0
  3  6  1  0     0  0
  4 13  1  0     0  0
  5  3  1  0     0  0
  6  9  1  0     0  0
  7  1  1  0     0  0
  8  2  1  0     0  0
  9 23  1  0     0  0
 10  4  1  0     0  0
 11  1  2  0     0  0
 12  1  2  0     0  0
 13 21  2  0     0  0
 14  1  1  0     0  0
 15  4  2  0     0  0
 16  5  2  0     0  0
 17  8  2  0     0  0
 18  9  2  0     0  0
 19  7  1  0     0  0
 20  7  2  0     0  0
 21 20  1  0     0  0
 22 19  2  0     0  0
 23 10  1  0     0  0
 24  5  1  0     0  0
 25  8  1  0     0  0
 13 22  1  0     0  0
M  END