
  CDK    9/16/09,9:19

 21 22  0  0  0  0  0  0  0  0999 V2000
   -4.5639   -8.1500    0.0000 C   0  0  0  0  0  0  0  0  0  0  0  0
   -4.5651   -8.9773    0.0000 C   0  0  0  0  0  0  0  0  0  0  0  0
   -3.8503   -9.3902    0.0000 C   0  0  0  0  0  0  0  0  0  0  0  0
   -3.1338   -8.9769    0.0000 C   0  0  0  0  0  0  0  0  0  0  0  0
   -3.1367   -8.1463    0.0000 C   0  0  0  0  0  0  0  0  0  0  0  0
   -3.8521   -7.7372    0.0000 C   0  0  0  0  0  0  0  0  0  0  0  0
   -5.2799   -9.3893    0.0000 Cl  0  0  0  0  0  0  0  0  0  0  0  0
   -2.4238   -7.7311    0.0000 C   0  0  0  0  0  0  0  0  0  0  0  0
   -1.7078   -8.1409    0.0000 C   0  0  0  0  0  0  0  0  0  0  0  0
   -0.9948   -7.7258    0.0000 C   0  0  0  0  0  0  0  0  0  0  0  0
   -0.2788   -8.1356    0.0000 C   0  0  0  0  0  0  0  0  0  0  0  0
   -1.0000   -6.9000    0.0000 C   0  0  0  0  0  0  0  0  0  0  0  0
   -1.0042   -6.0750    0.0000 C   0  0  0  0  0  0  0  0  0  0  0  0
   -1.8250   -6.9047    0.0000 C   0  0  0  0  0  0  0  0  0  0  0  0
   -0.1750   -6.8946    0.0000 C   0  0  0  0  0  0  0  0  0  0  0  0
   -1.7125   -7.3125    0.0000 O   0  0  0  0  0  0  0  0  0  0  0  0
    0.4341   -7.7204    0.0000 N   0  0  0  0  0  0  0  0  0  0  0  0
    1.1899   -8.0490    0.0000 C   0  0  0  0  0  0  0  0  0  0  0  0
    1.7396   -7.4338    0.0000 N   0  0  0  0  0  0  0  0  0  0  0  0
    1.3244   -6.7209    0.0000 C   0  0  0  0  0  0  0  0  0  0  0  0
    0.5181   -6.8956    0.0000 N   0  0  0  0  0  0  0  0  0  0  0  0
  2  3  1  0  0  0  0 
 10 11  1  0  0  0  0 
  5  6  2  0  0  0  0 
 10 12  1  0  0  0  0 
  6  1  1  0  0  0  0 
 12 13  1  0  0  0  0 
  1  2  2  0  0  0  0 
 12 14  1  0  0  0  0 
  2  7  1  0  0  0  0 
 12 15  1  0  0  0  0 
  3  4  2  0  0  0  0 
 10 16  1  0  0  0  0 
  5  8  1  0  0  0  0 
 11 17  1  0  0  0  0 
 17 18  1  0  0  0  0 
  8  9  1  0  0  0  0 
  4  5  1  0  0  0  0 
  9 10  1  0  0  0  0 
 18 19  2  0  0  0  0 
 19 20  1  0  0  0  0 
 20 21  2  0  0  0  0 
 21 17  1  0  0  0  0 
M  END