
  SciTegic06051313522D

 35 39  0  0  0  0            999 V2000
   14.9268   -1.6632    0.0000 C   0  0
   14.9256   -2.4828    0.0000 N   0  0
   15.6337   -2.8917    0.0000 C   0  0
   16.3433   -2.4823    0.0000 C   0  0
   16.3405   -1.6596    0.0000 C   0  0
   15.6319   -1.2544    0.0000 C   0  0
   17.0482   -2.8890    0.0000 C   0  0
   17.0481   -3.7073    0.0000 N   0  0
   17.7556   -4.1147    0.0000 C   0  0
   18.4637   -3.7050    0.0000 N   0  0
   18.4598   -2.8836    0.0000 C   0  0
   17.7517   -2.4798    0.0000 C   0  0
   17.7565   -4.9319    0.0000 N   0  0
   18.4647   -5.3398    0.0000 C   0  0
   18.4634   -6.1548    0.0000 C   0  0
   19.1707   -6.5625    0.0000 C   0  0
   19.8789   -6.1531    0.0000 C   0  0
   19.8754   -5.3317    0.0000 C   0  0
   19.1675   -4.9276    0.0000 C   0  0
   17.7554   -6.5630    0.0000 C   0  0
   20.5812   -4.9198    0.0000 C   0  0
   21.2908   -5.3252    0.0000 N   0  0
   20.5774   -4.1026    0.0000 O   0  0
   21.9966   -4.9133    0.0000 C   0  0
   22.7028   -5.3229    0.0000 C   0  0
   23.4082   -4.9117    0.0000 C   0  0
   23.4048   -4.0936    0.0000 C   0  0
   22.6903   -3.6885    0.0000 C   0  0
   21.9879   -4.1020    0.0000 C   0  0
   24.0607   -5.3975    0.0000 N   0  0
   24.0513   -6.2146    0.0000 C   0  0
   24.8255   -6.4761    0.0000 N   0  0
   25.3135   -5.8206    0.0000 C   0  0
   24.8408   -5.1540    0.0000 C   0  0
   26.1307   -5.8299    0.0000 C   0  0
  1  2  2  0
  2  3  1  0
  3  4  2  0
  4  5  1  0
  5  6  2  0
  6  1  1  0
  7  8  2  0
  8  9  1  0
  9 10  2  0
 10 11  1  0
 11 12  2  0
 12  7  1  0
  4  7  1  0
  9 13  1  0
 13 14  1  0
 14 15  2  0
 15 16  1  0
 16 17  2  0
 17 18  1  0
 18 19  2  0
 19 14  1  0
 15 20  1  0
 18 21  1  0
 21 22  1  0
 21 23  2  0
 22 24  1  0
 24 25  2  0
 25 26  1  0
 26 27  2  0
 27 28  1  0
 28 29  2  0
 29 24  1  0
 30 31  1  0
 31 32  2  0
 32 33  1  0
 33 34  2  0
 34 30  1  0
 26 30  1  0
 33 35  1  0
M  END