
          11280714442D 1   1.00000     0.00000     0

 22 22  0     0  0            999 V2000
    6.0500   -1.7667    0.0000 C   0  0  0  0  0  0           0  0  0
    5.3542   -2.2167    0.0000 C   0  0  0  0  0  0           0  0  0
    6.7792   -2.1500    0.0000 O   0  0  0  0  0  0           0  0  0
    9.6375   -2.0167    0.0000 N   0  0  0  0  0  0           0  0  0
    6.0125   -0.9500    0.0000 O   0  0  0  0  0  0           0  0  0
   10.3292   -1.5792    0.0000 C   0  0  3  0  0  0           0  0  0
    4.6167   -1.8292    0.0000 C   0  0  0  0  0  0           0  0  0
    5.3917   -3.0375    0.0000 C   0  0  0  0  0  0           0  0  0
    1.8417   -3.6125    0.0000 C   0  0  0  0  0  0           0  0  0
    1.1042   -3.2292    0.0000 C   0  0  0  0  0  0           0  0  0
    8.2042   -2.0875    0.0000 C   0  0  3  0  0  0           0  0  0
    7.4750   -1.7042    0.0000 C   0  0  0  0  0  0           0  0  0
    8.9042   -1.6417    0.0000 C   0  0  0  0  0  0           0  0  0
    3.9667   -3.1042    0.0000 C   0  0  0  0  0  0           0  0  0
    3.9292   -2.2792    0.0000 C   0  0  0  0  0  0           0  0  0
    4.7042   -3.4792    0.0000 C   0  0  0  0  0  0           0  0  0
    8.2417   -2.9125    0.0000 O   0  0  0  0  0  0           0  0  0
    3.2667   -3.5500    0.0000 O   0  0  0  0  0  0           0  0  0
    2.5375   -3.1667    0.0000 C   0  0  0  0  0  0           0  0  0
   10.2917   -0.7542    0.0000 C   0  0  0  0  0  0           0  0  0
   10.8875   -0.9667    0.0000 C   0  0  0  0  0  0           0  0  0
   11.0625   -1.9542    0.0000 C   0  0  0  0  0  0           0  0  0
  2  1  1  0     0  0
  3  1  1  0     0  0
  4 13  1  0     0  0
  5  1  2  0     0  0
  6  4  1  0     0  0
  7  2  2  0     0  0
  8  2  1  0     0  0
  9 19  1  0     0  0
 10  9  2  0     0  0
 11 12  1  0     0  0
 12  3  1  0     0  0
 13 11  1  0     0  0
 14 16  1  0     0  0
 15  7  1  0     0  0
 16  8  2  0     0  0
 17 11  1  0     0  0
 18 14  1  0     0  0
 19 18  1  0     0  0
 20  6  1  0     0  0
 21  6  1  0     0  0
 22  6  1  0     0  0
 14 15  2  0     0  0
M  END