
          11280715332D 1   1.00000     0.00000     0

 16 16  0     0  0            999 V2000
    4.0750   -1.1125    0.0000 C   0  0  0  0  0  0           0  0  0
    4.0750   -2.7667    0.0000 C   0  0  0  0  0  0           0  0  0
    4.7917   -1.5250    0.0000 C   0  0  0  0  0  0           0  0  0
    3.3625   -1.5250    0.0000 C   0  0  0  0  0  0           0  0  0
    3.3625   -2.3542    0.0000 C   0  0  0  0  0  0           0  0  0
    4.7917   -2.3542    0.0000 C   0  0  0  0  0  0           0  0  0
    4.0667   -0.2875    0.0000 O   0  0  0  0  0  0           0  0  0
    4.0750   -3.5917    0.0000 C   0  0  0  0  0  0           0  0  0
    3.3625   -4.0042    0.0000 C   0  0  0  0  0  0           0  0  0
   -0.9125   -4.0042    0.0000 C   0  0  0  0  0  0           0  0  0
   -0.2000   -3.6000    0.0000 C   0  0  0  0  0  0           0  0  0
    1.2250   -3.5917    0.0000 C   0  0  0  0  0  0           0  0  0
    0.5125   -4.0042    0.0000 C   0  0  0  0  0  0           0  0  0
    2.6500   -3.5917    0.0000 C   0  0  0  0  0  0           0  0  0
    1.9375   -4.0042    0.0000 C   0  0  0  0  0  0           0  0  0
   -1.6250   -3.6042    0.0000 C   0  0  0  0  0  0           0  0  0
  2  5  1  0     0  0
  3  1  2  0     0  0
  4  1  1  0     0  0
  5  4  2  0     0  0
  6  3  1  0     0  0
  7  1  1  0     0  0
  8  2  1  0     0  0
  9  8  1  0     0  0
 10 11  1  0     0  0
 11 13  1  0     0  0
 12 15  1  0     0  0
 13 12  1  0     0  0
 14  9  1  0     0  0
 15 14  1  0     0  0
 16 10  1  0     0  0
  2  6  2  0     0  0
M  END