
  SciTegic06051315212D

 25 28  0  0  0  0            999 V2000
   11.0905  -26.8544    0.0000 C   0  0
   10.4620  -27.5378    0.0000 C   0  0
   10.2959  -27.0852    0.0000 C   0  0
    9.7549  -27.2846    0.0000 C   0  0
    9.5474  -26.7926    0.0000 C   0  0
    9.0160  -27.4757    0.0000 C   0  0
   10.3069  -27.9295    0.0000 C   0  0
    9.7620  -28.5866    0.0000 C   0  0
   10.4742  -28.3256    0.0000 C   0  0
    9.0182  -28.2868    0.0000 C   0  0
    8.4340  -26.9053    0.0000 N   0  0
    7.7289  -24.8583    0.0000 C   0  0
    7.7277  -25.6778    0.0000 C   0  0
    8.4358  -26.0868    0.0000 C   0  0
    9.1454  -25.6773    0.0000 C   0  0
    9.1426  -24.8547    0.0000 C   0  0
    8.4340  -24.4494    0.0000 C   0  0
    8.4316  -23.6322    0.0000 S   0  0
    9.1380  -23.2215    0.0000 N   0  0
    7.6354  -23.8389    0.0000 O   0  0
    8.0151  -22.9185    0.0000 O   0  0
    9.8488  -24.4434    0.0000 F   0  0
    7.0211  -24.4498    0.0000 F   0  0
    7.0197  -26.0858    0.0000 F   0  0
    9.8538  -26.0848    0.0000 F   0  0
  1  2  1  0
  1  3  1  0
  2  4  1  0
  3  5  1  0
  4  6  1  0
  5  6  1  0
  7  8  1  0
  3  7  1  0
  2  9  1  0
  6 10  1  0
 10  8  1  0
  8  9  1  0
  6 11  1  0
 12 13  2  0
 13 14  1  0
 14 15  2  0
 15 16  1  0
 16 17  2  0
 17 12  1  0
 17 18  1  0
 18 19  1  0
 18 20  2  0
 18 21  2  0
 16 22  1  0
 12 23  1  0
 13 24  1  0
 15 25  1  0
 14 11  1  0
M  END