
  SciTegic07101214422D

 91 92  0  0  0  0            999 V2000
    9.0970   -9.7450    0.0000 N   0  0
    9.0970  -10.5700    0.0000 C   0  0
    8.3811  -10.9825    0.0000 N   0  0
    9.8087  -10.9825    0.0000 N   0  0
    6.9536   -6.8575    0.0000 N   0  0
    7.6694   -7.2700    0.0000 C   0  0  1  0  0  0
    8.3811   -6.0325    0.0000 O   0  0
    8.3811   -6.8575    0.0000 C   0  0
    7.6694   -8.0950    0.0000 C   0  0
    8.3811   -8.5075    0.0000 C   0  0
    8.3811   -9.3325    0.0000 C   0  0
   11.2404   -4.3825    0.0000 N   0  0
   11.2404   -3.5575    0.0000 C   0  0
   10.5246   -3.1450    0.0000 N   0  0
   11.9563   -3.1450    0.0000 N   0  0
    9.0970   -7.2700    0.0000 N   0  0
    9.8087   -6.8575    0.0000 C   0  0  1  0  0  0
   10.5246   -8.0950    0.0000 O   0  0
   10.5246   -7.2700    0.0000 C   0  0
    9.8087   -6.0325    0.0000 C   0  0
   10.5246   -5.6200    0.0000 C   0  0
   10.5246   -4.7950    0.0000 C   0  0
   13.3839   -9.7450    0.0000 N   0  0
   13.3839  -10.5700    0.0000 C   0  0
   12.6680  -10.9825    0.0000 N   0  0
   14.0997  -10.9825    0.0000 N   0  0
   11.2404   -6.8575    0.0000 N   0  0
   11.9563   -7.2700    0.0000 C   0  0  1  0  0  0
   12.6680   -6.0325    0.0000 O   0  0
   12.6680   -6.8575    0.0000 C   0  0
   11.9563   -8.0950    0.0000 C   0  0
   12.6680   -8.5075    0.0000 C   0  0
   12.6680   -9.3325    0.0000 C   0  0
   15.5273   -4.3825    0.0000 N   0  0
   15.5273   -3.5575    0.0000 C   0  0
   14.8114   -3.1450    0.0000 N   0  0
   16.2390   -3.1450    0.0000 N   0  0
   13.3839   -7.2700    0.0000 N   0  0
   14.0997   -6.8575    0.0000 C   0  0  1  0  0  0
   14.8114   -8.0950    0.0000 O   0  0
   14.8114   -7.2700    0.0000 C   0  0
   14.0997   -6.0325    0.0000 C   0  0
   14.8114   -5.6200    0.0000 C   0  0
   14.8114   -4.7950    0.0000 C   0  0
   17.6707   -9.7450    0.0000 N   0  0
   17.6707  -10.5700    0.0000 C   0  0
   16.9549  -10.9825    0.0000 N   0  0
   18.3866  -10.9825    0.0000 N   0  0
   15.5273   -6.8575    0.0000 N   0  0
   16.2390   -7.2700    0.0000 C   0  0  1  0  0  0
   16.9549   -6.0325    0.0000 O   0  0
   16.9549   -6.8575    0.0000 C   0  0
   16.2390   -8.0950    0.0000 C   0  0
   16.9549   -8.5075    0.0000 C   0  0
   16.9549   -9.3325    0.0000 C   0  0
   19.8141   -4.3825    0.0000 N   0  0
   19.8141   -3.5575    0.0000 C   0  0
   19.0983   -3.1450    0.0000 N   0  0
   20.5258   -3.1450    0.0000 N   0  0
   17.6707   -7.2700    0.0000 N   0  0
   18.3866   -6.8575    0.0000 C   0  0  1  0  0  0
   19.0983   -8.0950    0.0000 O   0  0
   19.0983   -7.2700    0.0000 C   0  0
   18.3866   -6.0325    0.0000 C   0  0
   19.0983   -5.6200    0.0000 C   0  0
   19.0983   -4.7950    0.0000 C   0  0
   19.8141   -6.8575    0.0000 N   0  0
   -1.4958   -6.6667    0.0000 O   0  0
   -0.9083   -7.2500    0.0000 S   0  0
   -1.7073   -7.4671    0.0000 O   0  0
   -3.0514   -9.3084    0.0000 N   0  0
   -3.0526   -8.4810    0.0000 C   0  0
   -2.3378   -8.0681    0.0000 C   0  0
   -2.3396   -9.7211    0.0000 C   0  0
   -1.6242   -9.3120    0.0000 C   0  0
   -1.6234   -8.4852    0.0000 C   0  0
   -0.9081   -8.0742    0.0000 C   0  0
   -0.1931   -8.4890    0.0000 C   0  0
   -0.1979   -9.3189    0.0000 C   0  0
   -0.9138   -9.7262    0.0000 C   0  0
   -0.1911   -6.8382    0.0000 N   0  0
    0.5224   -7.2524    0.0000 C   0  0
    1.2379   -6.8416    0.0000 C   0  0
    1.9513   -7.2559    0.0000 N   0  0
    2.6668   -6.8451    0.0000 C   0  0
    3.3803   -7.2593    0.0000 C   0  0
    4.0957   -6.8485    0.0000 C   0  0
    4.8092   -7.2627    0.0000 C   0  0
    5.5247   -6.8520    0.0000 C   0  0
    6.2381   -7.2662    0.0000 C   0  0
    6.2362   -8.0912    0.0000 O   0  0
 20 21  1  0
 21 22  1  0
 22 12  1  0
 23 24  1  0
 24 25  1  0
 24 26  2  0
 27 28  1  0
 28 30  1  0
 30 29  2  0
 28 31  1  1
 31 32  1  0
 32 33  1  0
 33 23  1  0
 34 35  1  0
 35 36  1  0
 35 37  2  0
 38 39  1  0
 39 41  1  0
 41 40  2  0
 39 42  1  6
 42 43  1  0
 43 44  1  0
 44 34  1  0
 45 46  1  0
 46 47  1  0
 46 48  2  0
 49 50  1  0
 50 52  1  0
 52 51  2  0
 50 53  1  1
 53 54  1  0
 54 55  1  0
 55 45  1  0
 56 57  1  0
 57 58  1  0
 57 59  2  0
 60 61  1  0
 61 63  1  0
 63 62  2  0
 61 64  1  6
 64 65  1  0
 65 66  1  0
 66 56  1  0
 69 68  2  0
 70 69  2  0
  8 16  1  0
 19 27  1  0
 30 38  1  0
 41 49  1  0
 71 72  2  0
 52 60  1  0
 72 73  1  0
 73 76  2  0
 63 67  1  0
 75 74  2  0
 74 71  1  0
  1  2  1  0
  2  3  1  0
 75 76  1  0
  2  4  2  0
 76 77  1  0
  5  6  1  0
 77 78  2  0
  6  8  1  0
 78 79  1  0
  8  7  2  0
 79 80  2  0
 80 75  1  0
 77 69  1  0
  6  9  1  1
 69 81  1  0
  9 10  1  0
 81 82  1  0
 10 11  1  0
 82 83  1  0
 11  1  1  0
 83 84  1  0
 12 13  1  0
 84 85  1  0
 13 14  1  0
 85 86  1  0
 13 15  2  0
 86 87  1  0
 16 17  1  0
 87 88  1  0
 17 19  1  0
 88 89  1  0
 19 18  2  0
 89 90  1  0
 90  5  1  0
 17 20  1  6
 90 91  2  0
M  END