
          11280715222D 1   1.00000     0.00000     0

 25 27  0     0  0            999 V2000
    2.6125   -2.3292    0.0000 C   0  0  0  0  0  0           0  0  0
    2.6125   -3.1542    0.0000 C   0  0  0  0  0  0           0  0  0
    3.3250   -1.9167    0.0000 C   0  0  0  0  0  0           0  0  0
    4.0417   -2.3292    0.0000 C   0  0  0  0  0  0           0  0  0
    3.3250   -3.5750    0.0000 C   0  0  0  0  0  0           0  0  0
    6.9000   -3.1667    0.0000 C   0  0  0  0  0  0           0  0  0
    7.6167   -3.5750    0.0000 C   0  0  0  0  0  0           0  0  0
    1.8875   -3.5750    0.0000 C   0  0  3  0  0  0           0  0  0
    1.8875   -1.9125    0.0000 C   0  0  3  0  0  0           0  0  0
    4.7625   -1.9000    0.0000 S   0  0  0  0  0  0           0  0  0
    4.0500   -3.1542    0.0000 C   0  0  0  0  0  0           0  0  0
    5.4667   -3.1417    0.0000 N   0  0  0  0  0  0           0  0  0
    5.4667   -2.3167    0.0000 C   0  0  0  0  0  0           0  0  0
    6.1792   -3.5625    0.0000 C   0  0  0  0  0  0           0  0  0
    7.3917   -4.3750    0.0000 O   0  0  0  0  0  0           0  0  0
    1.1792   -3.1542    0.0000 C   0  0  0  0  0  0           0  0  0
    1.1792   -2.3292    0.0000 C   0  0  0  0  0  0           0  0  0
    6.9042   -2.3292    0.0000 C   0  0  0  0  0  0           0  0  0
    6.1917   -1.9125    0.0000 C   0  0  0  0  0  0           0  0  0
    8.3250   -3.1542    0.0000 O   0  0  0  0  0  0           0  0  0
    1.1667   -1.4917    0.0000 C   0  0  0  0  0  0           0  0  0
    2.6042   -3.9917    0.0000 C   0  0  0  0  0  0           0  0  0
    1.1667   -3.9917    0.0000 C   0  0  0  0  0  0           0  0  0
    2.4750   -1.3250    0.0000 C   0  0  0  0  0  0           0  0  0
    4.7625   -3.5750    0.0000 C   0  0  0  0  0  0           0  0  0
  2  1  2  0     0  0
  3  1  1  0     0  0
  4  3  2  0     0  0
  5  2  1  0     0  0
  6 18  1  0     0  0
  7  6  1  0     0  0
  8  2  1  0     0  0
  9  1  1  0     0  0
 10  4  1  0     0  0
 11  4  1  0     0  0
 12 13  2  0     0  0
 13 10  1  0     0  0
 14 12  1  0     0  0
 15  7  2  0     0  0
 16 17  1  0     0  0
 17  9  1  0     0  0
 18 19  2  0     0  0
 19 13  1  0     0  0
 20  7  1  0     0  0
 21  9  1  0     0  0
 22  8  1  0     0  0
 23  8  1  0     0  0
 24  9  1  0     0  0
 25 11  1  0     0  0
 16  8  1  0     0  0
  5 11  2  0     0  0
 14  6  2  0     0  0
M  END