
          11280715422D 1   1.00000     0.00000     0

 28 31  0     0  0            999 V2000
   -0.2125    0.3000    0.0000 C   0  0  0  0  0  0           0  0  0
   -0.2125    1.1333    0.0000 N   0  0  0  0  0  0           0  0  0
   -1.6500    1.1333    0.0000 C   0  0  0  0  0  0           0  0  0
   -0.9458    1.5583    0.0000 C   0  0  0  0  0  0           0  0  0
   -0.9458   -0.1167    0.0000 N   0  0  0  0  0  0           0  0  0
   -1.6583    0.3000    0.0000 C   0  0  0  0  0  0           0  0  0
    2.6292   -1.3667    0.0000 C   0  0  0  0  0  0           0  0  0
    0.5000   -0.1167    0.0000 N   0  0  3  0  0  0           0  0  0
    1.9167   -0.9542    0.0000 N   0  0  3  0  0  0           0  0  0
   -2.3708    1.5458    0.0000 C   0  0  0  0  0  0           0  0  0
    3.4542   -1.3667    0.0000 C   0  0  3  0  0  0           0  0  0
   -2.3708   -0.1042    0.0000 C   0  0  0  0  0  0           0  0  0
    3.9417   -2.0292    0.0000 S   0  0  0  0  0  0           0  0  0
   -3.0833    1.1333    0.0000 C   0  0  0  0  0  0           0  0  0
   -3.0833    0.3083    0.0000 C   0  0  0  0  0  0           0  0  0
    4.7250   -1.7792    0.0000 S   0  0  0  0  0  0           0  0  0
    1.2125    0.2958    0.0000 C   0  0  0  0  0  0           0  0  0
    0.4875   -0.9417    0.0000 C   0  0  0  0  0  0           0  0  0
    1.9250   -0.1292    0.0000 C   0  0  0  0  0  0           0  0  0
    1.2000   -1.3542    0.0000 C   0  0  0  0  0  0           0  0  0
    2.6250   -2.1917    0.0000 O   0  0  0  0  0  0           0  0  0
   -0.9458    2.3833    0.0000 N   0  0  0  0  0  0           0  0  0
    3.9375   -0.7000    0.0000 C   0  0  0  0  0  0           0  0  0
   -3.7958    1.5458    0.0000 O   0  0  0  0  0  0           0  0  0
   -3.8000   -0.1042    0.0000 O   0  0  0  0  0  0           0  0  0
    4.7250   -0.9542    0.0000 C   0  0  0  0  0  0           0  0  0
   -3.7958    2.3708    0.0000 C   0  0  0  0  0  0           0  0  0
   -4.5208    0.3083    0.0000 C   0  0  0  0  0  0           0  0  0
  2  1  1  0     0  0
  3  6  1  0     0  0
  4  2  2  0     0  0
  5  1  2  0     0  0
  6  5  1  0     0  0
  7  9  1  0     0  0
  8  1  1  0     0  0
  9 20  1  0     0  0
 10  3  2  0     0  0
 11  7  1  0     0  0
 12  6  2  0     0  0
 13 11  1  0     0  0
 14 15  2  0     0  0
 15 12  1  0     0  0
 16 13  1  0     0  0
 17  8  1  0     0  0
 18  8  1  0     0  0
 19 17  1  0     0  0
 20 18  1  0     0  0
 21  7  2  0     0  0
 22  4  1  0     0  0
 23 11  1  0     0  0
 24 14  1  0     0  0
 25 15  1  0     0  0
 26 23  1  0     0  0
 27 24  1  0     0  0
 28 25  1  0     0  0
  3  4  1  0     0  0
  9 19  1  0     0  0
 10 14  1  0     0  0
 16 26  1  0     0  0
M  END