
          11280714482D 1   1.00000     0.00000     0

 25 26  0     0  0            999 V2000
   -3.2083    1.4750    0.0000 N   0  0  3  0  0  0           0  0  0
   -3.9250    1.8833    0.0000 C   0  0  0  0  0  0           0  0  0
   -4.6333    1.4708    0.0000 N   0  0  0  0  0  0           0  0  0
   -3.2083    0.6500    0.0000 C   0  0  0  0  0  0           0  0  0
   -2.4958    1.8958    0.0000 C   0  0  0  0  0  0           0  0  0
   -3.9208    0.2333    0.0000 C   0  0  0  0  0  0           0  0  0
   -1.0708    1.8958    0.0000 N   0  0  3  0  0  0           0  0  0
   -1.7833    1.4833    0.0000 C   0  0  0  0  0  0           0  0  0
   -5.3458   -0.5917    0.0000 C   0  0  0  0  0  0           0  0  0
   -4.6333    0.6458    0.0000 C   0  0  0  0  0  0           0  0  0
   -3.9208   -0.5917    0.0000 C   0  0  0  0  0  0           0  0  0
    2.5042    1.4958    0.0000 N   0  0  0  0  0  0           0  0  0
   -4.6333   -1.0042    0.0000 C   0  0  0  0  0  0           0  0  0
   -5.3458    0.2333    0.0000 C   0  0  0  0  0  0           0  0  0
   -6.0542   -1.0042    0.0000 O   0  0  0  0  0  0           0  0  0
   -3.9250    2.7125    0.0000 C   0  0  0  0  0  0           0  0  0
   -5.3500    1.8750    0.0000 C   0  0  0  0  0  0           0  0  0
   -0.3500    1.4875    0.0000 C   0  0  0  0  0  0           0  0  0
   -1.0708    2.7208    0.0000 C   0  0  0  0  0  0           0  0  0
    1.7917    1.9083    0.0000 C   0  0  0  0  0  0           0  0  0
   -6.0542   -1.8292    0.0000 C   0  0  0  0  0  0           0  0  0
    0.3625    1.9000    0.0000 C   0  0  0  0  0  0           0  0  0
    1.0792    1.4958    0.0000 C   0  0  0  0  0  0           0  0  0
   -4.6458    3.1208    0.0000 C   0  0  0  0  0  0           0  0  0
   -5.3583    2.7083    0.0000 C   0  0  0  0  0  0           0  0  0
  2  1  1  0     0  0
  3  2  1  0     0  0
  4  1  1  0     0  0
  5  1  1  0     0  0
  6  4  1  0     0  0
  7  8  1  0     0  0
  8  5  1  0     0  0
  9 13  1  0     0  0
 10  6  2  0     0  0
 11  6  1  0     0  0
 12 20  1  0     0  0
 13 11  2  0     0  0
 14 10  1  0     0  0
 15  9  1  0     0  0
 16  2  2  0     0  0
 17  3  2  0     0  0
 18  7  1  0     0  0
 19  7  1  0     0  0
 20 23  1  0     0  0
 21 15  1  0     0  0
 22 18  1  0     0  0
 23 22  1  0     0  0
 24 16  1  0     0  0
 25 24  2  0     0  0
 14  9  2  0     0  0
 25 17  1  0     0  0
M  END