
  SciTegic05061116452D

 28 32  0  0  0  0            999 V2000
    1.0069   -9.2724    0.0000 C   0  0
    1.0069  -10.1037    0.0000 C   0  0
    1.7159  -10.5154    0.0000 C   0  0
    2.4242  -10.1065    0.0000 C   0  0
    3.1468  -10.5261    0.0000 C   0  0
    3.8593  -10.1123    0.0000 C   0  0
    3.8593   -9.2821    0.0000 C   0  0
    2.4242   -9.3278    0.0000 C   0  0
    3.1349   -8.8656    0.0000 C   0  0
    1.7838   -8.8725    0.0000 C   0  0
    2.0641   -8.0639    0.0000 C   0  0
    2.8949   -8.0639    0.0000 C   0  0
    3.1731   -7.3005    0.0000 C   0  0
    2.5369   -6.7902    0.0000 C   0  0
    1.8377   -7.2504    0.0000 N   0  0
    3.9613   -7.0708    0.0000 C   0  0
    4.7495   -6.8411    0.0000 N   0  0
    2.5369   -5.9699    0.0000 O   0  0
    3.1468  -11.3511    0.0000 O   0  0
    3.8613  -11.7636    0.0000 C   0  0
    3.8597  -12.5886    0.0000 C   0  0
    4.5734  -13.0010    0.0000 C   0  0
    5.2888  -12.5884    0.0000 C   0  0
    5.2862  -11.7592    0.0000 C   0  0
    4.5719  -11.3505    0.0000 C   0  0
    6.0038  -13.0000    0.0000 C   0  0
    6.0050  -13.8250    0.0000 C   0  0
    6.7178  -12.5865    0.0000 C   0  0
  7  9  2  0
  8  9  1  0
  9 12  1  0
 11 10  1  0
 11 12  1  0
 12 13  2  0
 13 14  1  0
 14 15  1  0
 15 11  2  0
 16 17  3  0
 13 16  1  0
 14 18  2  0
  5 19  1  0
  1  2  2  0
 19 20  1  0
  2  3  1  0
 20 21  2  0
  3  4  2  0
 21 22  1  0
  8 10  2  0
 22 23  2  0
 10  1  1  0
 23 24  1  0
  8  4  1  0
 24 25  2  0
 25 20  1  0
  4  5  1  0
 23 26  1  0
  5  6  2  0
 26 27  1  0
  6  7  1  0
 26 28  1  0
M  END