
  SciTegic03291108542D

 28 31  0  0  0  0            999 V2000
   -3.3418   -2.4392    0.0000 Cl  0  0
   -0.0434   -2.3362    0.0000 S   0  0
    2.4838    0.5006    0.0000 O   0  0
   -0.0176   -3.1608    0.0000 O   0  0
   -0.0691   -1.5116    0.0000 O   0  0
    4.5933   -0.8873    0.0000 O   0  0
    3.6708   -1.9786    0.0000 O   0  0
    0.7812   -2.3104    0.0000 N   0  0
    1.9512   -0.1294    0.0000 C   0  0
    2.3858   -0.8307    0.0000 C   0  0
    1.1266   -0.1552    0.0000 C   0  0
    0.7366   -0.8822    0.0000 C   0  0
    3.1870   -0.6340    0.0000 C   0  0
    1.1712   -1.5834    0.0000 C   0  0
    1.9958   -1.5577    0.0000 C   0  0
    3.2476    0.1888    0.0000 C   0  0
    3.8171   -1.1666    0.0000 C   0  0
    0.6920    0.5461    0.0000 C   0  0
   -0.0880   -0.9080    0.0000 C   0  0
   -0.8680   -2.3620    0.0000 C   0  0
   -0.1326    0.5203    0.0000 C   0  0
   -0.5226   -0.2067    0.0000 C   0  0
    3.9488    0.6234    0.0000 C   0  0
   -1.2580   -3.0890    0.0000 C   0  0
   -1.3026   -1.6607    0.0000 C   0  0
   -2.0826   -3.1147    0.0000 C   0  0
   -2.1272   -1.6865    0.0000 C   0  0
   -2.5172   -2.4135    0.0000 C   0  0
  1 28  1  0
  2  4  2  0
  2  5  2  0
  2  8  1  0
  2 20  1  0
  3  9  1  0
  3 16  1  0
  6 17  2  0
  7 17  1  0
  8 14  1  0
  9 10  2  0
  9 11  1  0
 10 13  1  0
 10 15  1  0
 11 12  1  0
 11 18  2  0
 12 14  1  0
 12 19  2  0
 13 16  2  0
 13 17  1  0
 14 15  2  0
 16 23  1  0
 18 21  1  0
 19 22  1  0
 20 24  2  0
 20 25  1  0
 21 22  2  0
 24 26  1  0
 25 27  2  0
 26 28  2  0
 27 28  1  0
M  END