
  SciTegic01161211252D

 16 15  0  0  0  0            999 V2000
    3.7167   -3.1292    0.0000 C   0  0
    3.0250   -2.7292    0.0000 P   0  0
    7.1792   -2.7167    0.0000 P   0  0
    4.4125   -2.7292    0.0000 C   0  0
    2.0667   -3.0667    0.0000 O   0  0
    2.0667   -2.4417    0.0000 O   0  0
    3.0167   -1.9292    0.0000 O   0  0
    7.8750   -3.1292    0.0000 O   0  0
    7.8750   -2.3167    0.0000 O   0  0
    7.1750   -1.9125    0.0000 O   0  0
    3.3125   -3.8167    0.0000 F   0  0
    4.1167   -3.8167    0.0000 F   0  0
    4.4042   -1.9250    0.0000 O   0  0
    6.4792   -3.1167    0.0000 C   0  0
    5.7917   -2.7167    0.0000 C   0  0
    5.1042   -3.1292    0.0000 C   0  0
  2  1  1  0
  3 14  1  0
  4  1  1  0
  5  2  1  0
  6  2  1  0
  7  2  2  0
  8  3  1  0
  9  3  1  0
 10  3  2  0
 11  1  1  0
 12  1  1  0
 13  4  2  0
 14 15  1  0
 15 16  1  0
 16  4  1  0
M  END