
  SciTegic12231509382D

 10 10  0  0  1  0            999 V2000
    4.8750   -4.6167    0.0000 C   0  0
    6.1042   -4.6125    0.0000 N   0  0
    4.2667   -4.9750    0.0000 C   0  0
    5.4917   -4.9667    0.0000 C   0  0  1  0  0  0
    4.2667   -5.6875    0.0000 C   0  0
    3.6500   -4.6250    0.0000 C   0  0
    5.4917   -5.6792    0.0000 C   0  0
    3.6542   -6.0417    0.0000 C   0  0
    3.0375   -4.9792    0.0000 C   0  0
    3.0375   -5.6875    0.0000 C   0  0
  4  2  1  1
  3  1  1  0
  4  1  1  0
  5  3  1  0
  6  3  2  0
  7  4  1  0
  8  5  2  0
  9  6  1  0
 10  9  2  0
 10  8  1  0
M  END