
          11290715122D 1   1.00000     0.00000     0

 12 12  0     0  0            999 V2000
   10.7433  -10.9864    0.0000 C   0  0  0  0  0  0           0  0  0
   10.7421  -11.8136    0.0000 C   0  0  0  0  0  0           0  0  0
   11.4570  -12.2265    0.0000 C   0  0  0  0  0  0           0  0  0
   12.1733  -11.8132    0.0000 C   0  0  0  0  0  0           0  0  0
   12.1704  -10.9827    0.0000 C   0  0  0  0  0  0           0  0  0
   11.4552  -10.5737    0.0000 C   0  0  0  0  0  0           0  0  0
   10.0274  -12.2256    0.0000 Cl  0  0  0  0  0  0           0  0  0
   11.4568  -13.0514    0.0000 Cl  0  0  0  0  0  0           0  0  0
   12.8833  -10.5676    0.0000 C   0  0  3  0  0  0           0  0  0
   13.5993  -10.9773    0.0000 C   0  0  0  0  0  0           0  0  0
   14.3121  -10.5623    0.0000 N   0  0  0  0  0  0           0  0  0
   12.8801   -9.7426    0.0000 O   0  0  0  0  0  0           0  0  0
  6  1  1  0     0  0
  1  2  2  0     0  0
  2  7  1  0     0  0
  3  4  2  0     0  0
  3  8  1  0     0  0
  5  9  1  0     0  0
  4  5  1  0     0  0
  9 10  1  0     0  0
  2  3  1  0     0  0
 10 11  1  0     0  0
  5  6  2  0     0  0
  9 12  1  0     0  0
M  END