
  SciTegic09081514192D

 36 40  0  0  0  0            999 V2000
   13.7144    9.2663    0.0000 C   0  0
   -1.0028    1.5132    0.0000 C   0  0
    1.7138    1.2033    0.0000 C   0  0
    4.7008   -0.9930    0.0000 O   0  0
    8.6017   10.2417    0.0000 C   0  0
   11.5200    5.3389    0.0000 C   0  0
    1.7138   -1.2033    0.0000 N   0  0
    9.2510    6.6044    0.0000 C   0  0
    8.5559    2.6972    0.0000 C   0  0
    0.2917   -0.7475    0.0000 C   0  0
    2.5889    0.0182    0.0000 C   0  0
    0.2917    0.7475    0.0000 C   0  0
    7.0552    2.6770    0.0000 C   0  0
    8.5204    5.2943    0.0000 C   0  0
   -2.3155    0.7475    0.0000 C   0  0
   12.9472   10.5552    0.0000 C   0  0
   10.7894    4.0289    0.0000 C   0  0
   11.4473   10.5353    0.0000 C   0  0
   -2.3155   -0.7475    0.0000 C   0  0
    9.2139    9.2096    0.0000 O   0  0
    4.8208    1.3475    0.0000 N   0  0
   10.7508    6.6267    0.0000 N   0  0
   12.9817    7.9574    0.0000 C   0  0
    9.2896    4.0065    0.0000 N   0  0
    4.0872    0.0382    0.0000 C   0  0
    6.3215    1.3677    0.0000 C   0  0
   11.4818    7.9374    0.0000 C   0  0
   10.7146    9.2264    0.0000 C   0  0
   -1.0028   -1.5132    0.0000 C   0  0
    2.1855   -2.6254    0.0000 C   0  0
    3.6552   -2.9294    0.0000 C   0  0
    4.1295   -4.3524    0.0000 C   0  0
    5.5991   -4.6533    0.0000 C   0  0
    6.5944   -3.5310    0.0000 C   0  0
    6.1201   -2.1080    0.0000 C   0  0
    4.6506   -1.8071    0.0000 C   0  0
 13 26  1  0
 23 27  1  0
  9 13  1  0
 22  8  1  0
 21 25  1  0
 27 22  1  0
 24 17  1  0
 18 16  2  0
  1 23  2  0
  3 11  2  0
 28 18  1  0
 20  5  1  0
 26 21  1  0
 17  6  1  0
 28 20  1  0
 25 11  1  0
 24  9  1  0
 11  7  1  0
 12 10  2  0
 29 19  2  0
 25  4  2  0
 14 24  1  0
 19 15  1  0
 22  6  1  0
 16  1  1  0
 10 29  1  0
 12  3  1  0
  7 10  1  0
 27 28  2  0
  2 12  1  0
 15  2  2  0
  8 14  1  0
  7 30  1  0
 30 31  1  0
 31 32  2  0
 32 33  1  0
 33 34  2  0
 34 35  1  0
 35 36  2  0
 36 31  1  0
M  END