
  CDK    9/16/09,10:4

 26 27  0  0  0  0  0  0  0  0999 V2000
   -1.0375   -2.8833    0.0000 C   0  0  0  0  0  0  0  0  0  0  0  0
   -0.3230   -3.2958    0.0000 N   0  0  0  0  0  0  0  0  0  0  0  0
   -1.7520   -3.2958    0.0000 N   0  0  0  0  0  0  0  0  0  0  0  0
   -1.0375   -2.0583    0.0000 S   0  0  0  0  0  0  0  0  0  0  0  0
   -2.4664   -2.8833    0.0000 C   0  0  0  0  0  0  0  0  0  0  0  0
   -3.1803   -3.2990    0.0000 C   0  0  0  0  0  0  0  0  0  0  0  0
   -3.8943   -2.8872    0.0000 C   0  0  0  0  0  0  0  0  0  0  0  0
   -3.8948   -2.0613    0.0000 C   0  0  0  0  0  0  0  0  0  0  0  0
   -3.1753   -1.6489    0.0000 C   0  0  0  0  0  0  0  0  0  0  0  0
   -2.4642   -2.0631    0.0000 C   0  0  0  0  0  0  0  0  0  0  0  0
    0.3914   -2.8833    0.0000 C   0  0  0  0  0  0  0  0  0  0  0  0
    1.1059   -3.2958    0.0000 C   0  0  0  0  0  0  0  0  0  0  0  0
    1.8204   -2.8833    0.0000 N   0  0  0  0  0  0  0  0  0  0  0  0
    2.5349   -3.2958    0.0000 C   0  0  0  0  0  0  0  0  0  0  0  0
    3.2442   -4.5343    0.0000 C   0  0  0  0  0  0  0  0  0  0  0  0
    3.9596   -4.1218    0.0000 N   0  0  0  0  0  0  0  0  0  0  0  0
    3.9570   -3.2925    0.0000 C   0  0  0  0  0  0  0  0  0  0  0  0
    3.2428   -2.8838    0.0000 C   0  0  0  0  0  0  0  0  0  0  0  0
    2.5299   -4.1214    0.0000 N   0  0  0  0  0  0  0  0  0  0  0  0
    3.2437   -5.3593    0.0000 N   0  0  0  0  0  0  0  0  0  0  0  0
    2.5290   -5.7714    0.0000 C   0  0  0  0  0  0  0  0  0  0  0  0
    3.9580   -5.7722    0.0000 C   0  0  0  0  0  0  0  0  0  0  0  0
    4.6727   -5.3601    0.0000 C   0  0  0  0  0  0  0  0  0  0  0  0
    1.8148   -5.3586    0.0000 C   0  0  0  0  0  0  0  0  0  0  0  0
    4.6700   -2.8775    0.0000 C   0  0  0  0  0  0  0  0  0  0  0  0
   -4.6086   -3.3000    0.0000 Br  0  0  0  0  0  0  0  0  0  0  0  0
  6  7  1  0  0  0  0 
 13 14  1  0  0  0  0 
 11  2  1  0  0  0  0 
 14 19  2  0  0  0  0 
  1  4  2  0  0  0  0 
  7  8  2  0  0  0  0 
 15 16  2  0  0  0  0 
 16 17  1  0  0  0  0 
  8  9  1  0  0  0  0 
 17 18  2  0  0  0  0 
 18 14  1  0  0  0  0 
  3  5  1  0  0  0  0 
 15 19  1  0  0  0  0 
  9 10  2  0  0  0  0 
 15 20  1  0  0  0  0 
 10  5  1  0  0  0  0 
 20 21  1  0  0  0  0 
  1  3  1  0  0  0  0 
 20 22  1  0  0  0  0 
  5  6  2  0  0  0  0 
 22 23  1  0  0  0  0 
 11 12  1  0  0  0  0 
 21 24  1  0  0  0  0 
  1  2  1  0  0  0  0 
 17 25  1  0  0  0  0 
 12 13  1  0  0  0  0 
  7 26  1  0  0  0  0 
M  END