
  SciTegic04091416462D

 38 40  0  0  0  0            999 V2000
   33.9143   -4.1725    0.0000 C   0  0
   34.3254   -4.8878    0.0000 N   0  3
   33.9095   -5.5971    0.0000 C   0  0
   34.3199   -6.3119    0.0000 C   0  0
   35.1458   -6.3140    0.0000 C   0  0
   35.5595   -5.5952    0.0000 C   0  0
   35.1466   -4.8834    0.0000 C   0  0
   35.5580   -7.0286    0.0000 N   0  0
   35.2757   -7.8025    0.0000 C   0  0
   35.9235   -8.3134    0.0000 C   0  0
   36.6096   -7.8552    0.0000 C   0  0
   36.3858   -7.0612    0.0000 C   0  0
   31.4433   -4.1645    0.0000 C   0  0
   31.8501   -4.8823    0.0000 C   0  0
   32.6743   -4.8843    0.0000 C   0  0
   33.0890   -4.1701    0.0000 C   0  0
   32.6735   -3.4523    0.0000 C   0  0
   31.8506   -3.4540    0.0000 C   0  0
   27.7332   -3.4504    0.0000 C   0  0
   28.1438   -4.1672    0.0000 C   0  0
   28.9681   -4.1675    0.0000 C   0  0
   29.3813   -3.4525    0.0000 C   0  0
   28.9644   -2.7357    0.0000 C   0  0
   28.1415   -2.7388    0.0000 C   0  0
   26.9082   -3.4501    0.0000 C   0  0
   26.4960   -2.7354    0.0000 N   0  3
   26.9136   -2.0231    0.0000 C   0  0
   26.5021   -1.3089    0.0000 C   0  0
   25.6762   -1.3081    0.0000 C   0  0
   25.2635   -2.0274    0.0000 C   0  0
   25.6774   -2.7386    0.0000 C   0  0
   25.2631   -0.5940    0.0000 N   0  0
   25.6749    0.1230    0.0000 C   0  0
   24.4381   -0.5948    0.0000 C   0  0
   30.2064   -3.4515    0.0000 C   0  0
   30.6198   -4.1654    0.0000 C   0  0
   28.1973   -1.9741    0.0000 Br  0  5
   35.0330   -4.2134    0.0000 Br  0  5
  1  2  1  0
  2  3  2  0
  3  4  1  0
  4  5  2  0
  5  6  1  0
  6  7  2  0
  7  2  1  0
  5  8  1  0
  8  9  1  0
  9 10  1  0
 10 11  1  0
 11 12  1  0
 12  8  1  0
 13 14  2  0
 14 15  1  0
 15 16  2  0
 16 17  1  0
 17 18  2  0
 18 13  1  0
 16  1  1  0
 19 20  2  0
 20 21  1  0
 21 22  2  0
 22 23  1  0
 23 24  2  0
 24 19  1  0
 19 25  1  0
 25 26  1  0
 26 27  2  0
 27 28  1  0
 28 29  2  0
 29 30  1  0
 30 31  2  0
 31 26  1  0
 29 32  1  0
 32 33  1  0
 32 34  1  0
 22 35  1  0
 35 36  1  0
 36 13  1  0
M  CHG  4   2   1  26   1  37  -1  38  -1
M  END