
          11280715362D 1   1.00000     0.00000     0

 28 31  0     0  0            999 V2000
    4.0042   -7.0750    0.0000 C   0  0  0  0  0  0           0  0  0
    4.0167   -7.8917    0.0000 C   0  0  0  0  0  0           0  0  0
    3.2375   -8.1542    0.0000 N   0  0  0  0  0  0           0  0  0
    3.2250   -6.8292    0.0000 C   0  0  0  0  0  0           0  0  0
    4.7250   -6.6500    0.0000 C   0  0  0  0  0  0           0  0  0
    2.7417   -7.5000    0.0000 C   0  0  0  0  0  0           0  0  0
    8.4375   -7.3417    0.0000 N   0  0  3  0  0  0           0  0  0
    9.2125   -7.0667    0.0000 C   0  0  0  0  0  0           0  0  0
    6.8792   -7.8792    0.0000 N   0  0  3  0  0  0           0  0  0
    4.7375   -8.3042    0.0000 C   0  0  0  0  0  0           0  0  0
    5.4417   -7.0542    0.0000 C   0  0  0  0  0  0           0  0  0
    5.4542   -7.8875    0.0000 C   0  0  3  0  0  0           0  0  0
    4.7167   -5.8250    0.0000 O   0  0  0  0  0  0           0  0  0
    7.8125   -6.8000    0.0000 C   0  0  0  0  0  0           0  0  0
    8.2792   -8.1500    0.0000 C   0  0  0  0  0  0           0  0  0
    9.8375   -7.6125    0.0000 C   0  0  0  0  0  0           0  0  0
    6.1667   -8.2917    0.0000 C   0  0  0  0  0  0           0  0  0
    7.0292   -7.0667    0.0000 C   0  0  0  0  0  0           0  0  0
    7.5042   -8.4167    0.0000 C   0  0  0  0  0  0           0  0  0
    2.9542   -6.0417    0.0000 C   0  0  0  0  0  0           0  0  0
    1.9167   -7.5042    0.0000 C   0  0  0  0  0  0           0  0  0
    9.6792   -8.4167    0.0000 O   0  0  0  0  0  0           0  0  0
    9.3667   -6.2625    0.0000 C   0  0  0  0  0  0           0  0  0
   10.6167   -7.3417    0.0000 C   0  0  0  0  0  0           0  0  0
    8.9000   -8.6917    0.0000 C   0  0  0  0  0  0           0  0  0
    2.1500   -5.8792    0.0000 C   0  0  0  0  0  0           0  0  0
   10.1417   -5.9917    0.0000 C   0  0  0  0  0  0           0  0  0
   10.7667   -6.5292    0.0000 C   0  0  0  0  0  0           0  0  0
  2  1  2  0     0  0
  3  2  1  0     0  0
  4  1  1  0     0  0
  5  1  1  0     0  0
  6  4  2  0     0  0
  7 15  1  0     0  0
  8  7  1  0     0  0
  9 17  1  0     0  0
 10  2  1  0     0  0
 11  5  1  0     0  0
 12 11  1  0     0  0
 13  5  2  0     0  0
 14 18  1  0     0  0
 15 19  1  0     0  0
 16  8  2  0     0  0
 17 12  1  0     0  0
 18  9  1  0     0  0
 19  9  1  0     0  0
 20  4  1  0     0  0
 21  6  1  0     0  0
 22 16  1  0     0  0
 23  8  1  0     0  0
 24 16  1  0     0  0
 25 22  1  0     0  0
 26 20  1  0     0  0
 27 23  2  0     0  0
 28 27  1  0     0  0
  3  6  1  0     0  0
 12 10  1  0     0  0
  7 14  1  0     0  0
 28 24  2  0     0  0
M  END