
  SciTegic04151115542D

 24 25  0  0  0  0            999 V2000
   -4.4056    1.1834    0.0000 C   0  0
   -4.4068    0.3560    0.0000 C   0  0
   -3.6919   -0.0569    0.0000 C   0  0
   -2.9755    0.3565    0.0000 C   0  0
   -2.9784    1.1870    0.0000 C   0  0
   -3.6937    1.5961    0.0000 C   0  0
   -3.6921   -0.8819    0.0000 F   0  0
   -5.1216   -0.0559    0.0000 Cl  0  0
   -2.2654    1.6022    0.0000 N   0  0
   -1.5494    1.1924    0.0000 C   0  0
   -0.8365    1.6076    0.0000 C   0  0
   -1.5463    0.3674    0.0000 O   0  0
   -0.1205    1.1978    0.0000 N   0  0
   -0.8396    2.4326    0.0000 O   0  0
    0.5924    1.6130    0.0000 C   0  0
    0.5893    2.4380    0.0000 C   0  0
    1.3022    2.8531    0.0000 C   0  0
    2.0182    2.4433    0.0000 N   0  0
    0.8833    3.5708    0.0000 C   0  0
    1.7083    3.5708    0.0000 C   0  0
    2.0214    1.6183    0.0000 C   0  0
    1.3084    1.2032    0.0000 C   0  0
    2.8167    1.8375    0.0000 C   0  0
    2.4292    0.9083    0.0000 C   0  0
 10 12  2  0
  6  1  1  0
 11 13  1  0
  1  2  2  0
 11 14  2  0
  3  7  1  0
 13 15  1  0
 15 22  1  0
  3  4  2  0
 15 16  1  0
  2  8  1  0
 16 17  1  0
 17 18  1  0
  5  9  1  0
 17 19  1  0
  4  5  1  0
 17 20  1  0
  9 10  1  0
 18 21  1  0
  2  3  1  0
 21 22  1  0
 10 11  1  0
 21 23  1  0
  5  6  2  0
 21 24  1  0
M  END