
  SciTegic12231509382D

 16 17  0  0  0  0            999 V2000
   -0.5599   -9.1325    0.0000 N   0  0
    0.0929   -8.6562    0.0000 C   0  0  2  0  0  0
    0.7802   -9.9447    0.0000 O   0  0
    0.7774   -9.1169    0.0000 C   0  0
    0.0932   -7.8264    0.0000 C   0  0
    1.4718   -7.8945    0.0000 C   0  0
    0.8037   -7.4095    0.0000 C   0  0
    2.1402   -7.4099    0.0000 N   0  0
    1.0620   -6.6260    0.0000 C   0  0
    1.8825   -6.6263    0.0000 C   0  0
    2.2971   -5.9153    0.0000 C   0  0
    1.8830   -5.1997    0.0000 C   0  0
    1.0625   -5.1995    0.0000 C   0  0
    0.6478   -5.9106    0.0000 C   0  0
    1.5084   -8.7262    0.0000 O   0  0
    2.2123   -9.1639    0.0000 C   0  0
  4  3  2  0
  2  5  1  1
 10  8  1  0
  9 10  2  0
  1  2  1  0
 10 11  1  0
  5  7  1  0
 11 12  2  0
  2  4  1  0
 12 13  1  0
  6  7  2  0
 13 14  2  0
 14  9  1  0
  7  9  1  0
  4 15  1  0
  8  6  1  0
 15 16  1  0
M  END