
  SciTegic01161211232D

 26 28  0  0  0  0            999 V2000
   -7.0075    8.7105    0.0000 C   0  0
   -8.1491    8.3407    0.0000 O   0  0
   -8.4633    6.8731    0.0000 C   0  0
   -9.8896    6.4088    0.0000 C   0  0
  -10.2007    4.9414    0.0000 C   0  0
   -9.0854    3.9383    0.0000 C   0  0
   -7.6590    4.4026    0.0000 C   0  0
   -6.5411    3.4012    0.0000 C   0  0
   -5.1171    3.8670    0.0000 N   0  0
   -4.6484    5.2919    0.0000 C   0  0
   -3.1484    5.2864    0.0000 C   0  0
   -2.6901    3.8581    0.0000 N   0  0
   -3.9067    3.0027    0.0000 C   0  0
   -3.9091    1.5019    0.0000 C   0  0
   -2.6111    0.7486    0.0000 C   0  0
   -2.6111   -0.7486    0.0000 C   0  0
   -1.2964   -1.4973    0.0000 O   0  0
    0.0000   -0.7486    0.0000 C   0  0
    1.2964   -1.4973    0.0000 C   0  0
    2.5929   -0.7486    0.0000 C   0  0
    2.5929    0.7486    0.0000 C   0  0
    1.2964    1.4973    0.0000 C   0  0
    0.0000    0.7486    0.0000 C   0  0
   -1.2964    1.4973    0.0000 O   0  0
   -7.3480    5.8700    0.0000 C   0  0
    5.0929    3.6530    0.0000 Cl  0  0
  1  2  1  0
  2  3  1  0
  3  4  2  0
  4  5  1  0
  5  6  2  0
  6  7  1  0
  7  8  1  0
  8  9  1  0
  9 10  1  0
 10 11  2  0
 11 12  1  0
 12 13  2  0
 13  9  1  0
 13 14  1  0
 14 15  1  0
 15 16  1  0
 16 17  1  0
 17 18  1  0
 18 19  2  0
 19 20  1  0
 20 21  2  0
 21 22  1  0
 22 23  2  0
 23 18  1  0
 23 24  1  0
 24 15  1  0
  7 25  2  0
 25  3  1  0
M  END