
  SciTegic04071410272D

 29 31  0  0  0  0            999 V2000
   -1.5751    1.1532    0.0000 C   0  0  1  0  0  0
   -0.5081    0.3513    0.0000 C   0  0  2  0  0  0
   -1.0243    0.7800    0.0000 C   0  0
   -1.9960    0.7800    0.0000 C   0  0  1  0  0  0
   -2.1357    1.5931    0.0000 N   0  3
   -0.6463    1.1687    0.0000 C   0  0
   -2.5159    0.0677    0.0000 C   0  0
   -1.8956    0.4446    0.0000 C   0  0
   -0.0963   -0.3636    0.0000 C   0  0
    0.7287   -0.3644    0.0000 C   0  0
    0.7279   -1.1894    0.0000 C   0  0
    1.5537   -0.3652    0.0000 C   0  0
    1.9669    0.3489    0.0000 C   0  0
    2.7919    0.3480    0.0000 C   0  0
    3.2037   -0.3668    0.0000 C   0  0
    2.7905   -1.0809    0.0000 C   0  0
    1.9655   -1.0801    0.0000 C   0  0
    1.4420   -1.6026    0.0000 C   0  0
    1.4411   -2.4276    0.0000 C   0  0
    0.7263   -2.8394    0.0000 C   0  0
    0.0122   -2.4262    0.0000 C   0  0
    0.0130   -1.6012    0.0000 C   0  0
   -1.7650    1.9560    0.0000 H   0  0
   -2.5987    1.3433    0.0000 H   0  0
    0.7295    0.4606    0.0000 C   0  0
    1.4444    0.8724    0.0000 O   0  0
   -1.8244    2.3571    0.0000 C   0  0
   -2.9559    1.6823    0.0000 C   0  0
    5.4430    0.0000    0.0000 Br  0  5
  1  5  1  0
  1  6  1  0
  6  2  1  0
  4  7  1  0
  1  8  1  0
  7  8  1  0
  2  9  1  6
  9 10  1  0
 10 11  1  0
 10 12  1  0
 12 13  2  0
 13 14  1  0
 14 15  2  0
 15 16  1  0
 16 17  2  0
 17 12  1  0
 11 18  2  0
 18 19  1  0
 19 20  2  0
 20 21  1  0
 21 22  2  0
 22 11  1  0
  1 23  1  6
  4 24  1  1
 10 25  1  0
 25 26  1  0
  2  3  1  0
  5 27  1  0
  3  4  1  0
  5 28  1  0
  4  5  1  0
M  CHG  2   5   1  29  -1
M  END