
          11280715312D 1   1.00000     0.00000     0

 23 26  0     0  0            999 V2000
    5.8500   -5.3792    0.0000 N   0  0  3  0  0  0           0  0  0
    5.8500   -4.5542    0.0000 C   0  0  0  0  0  0           0  0  0
    6.5250   -5.8625    0.0000 C   0  0  0  0  0  0           0  0  0
    7.6250   -7.0792    0.0000 C   0  0  0  0  0  0           0  0  0
    8.2917   -7.5625    0.0000 N   0  0  3  0  0  0           0  0  0
    7.8750   -6.2917    0.0000 C   0  0  0  0  0  0           0  0  0
    6.2667   -6.6417    0.0000 C   0  0  0  0  0  0           0  0  0
    7.3250   -5.6917    0.0000 C   0  0  0  0  0  0           0  0  0
    6.8167   -7.2542    0.0000 C   0  0  0  0  0  0           0  0  0
    8.9542   -7.0750    0.0000 C   0  0  0  0  0  0           0  0  0
    5.1292   -4.1417    0.0000 N   0  0  0  0  0  0           0  0  0
    8.7000   -6.2917    0.0000 C   0  0  0  0  0  0           0  0  0
    5.1917   -5.8667    0.0000 C   0  0  0  0  0  0           0  0  0
    6.5625   -4.1417    0.0000 O   0  0  0  0  0  0           0  0  0
    5.4500   -6.6542    0.0000 C   0  0  0  0  0  0           0  0  0
    3.7042   -5.8042    0.0000 N   0  0  0  0  0  0           0  0  0
    4.4167   -4.5625    0.0000 C   0  0  0  0  0  0           0  0  0
    8.3000   -8.3875    0.0000 C   0  0  0  0  0  0           0  0  0
    4.4167   -5.3917    0.0000 C   0  0  0  0  0  0           0  0  0
    2.9917   -5.3917    0.0000 C   0  0  0  0  0  0           0  0  0
    3.7042   -4.1500    0.0000 C   0  0  0  0  0  0           0  0  0
    7.5917   -8.8042    0.0000 C   0  0  0  0  0  0           0  0  0
    2.9917   -4.5667    0.0000 C   0  0  0  0  0  0           0  0  0
  2  1  1  0     0  0
  3  1  1  0     0  0
  4  6  1  0     0  0
  5  4  1  0     0  0
  6  8  2  0     0  0
  7  3  2  0     0  0
  8  3  1  0     0  0
  9  7  1  0     0  0
 10 12  2  0     0  0
 11  2  1  0     0  0
 12  6  1  0     0  0
 13  1  1  0     0  0
 14  2  2  0     0  0
 15 13  1  0     0  0
 16 19  1  0     0  0
 17 11  1  0     0  0
 18  5  1  0     0  0
 19 17  2  0     0  0
 20 23  1  0     0  0
 21 17  1  0     0  0
 22 18  1  0     0  0
 23 21  2  0     0  0
 15  7  1  0     0  0
  9  4  2  0     0  0
  5 10  1  0     0  0
 16 20  2  0     0  0
M  END