
          11280715332D 1   1.00000     0.00000     0

 25 25  0     0  0            999 V2000
    2.1917   -4.0917    0.0000 S   0  0  3  0  0  0           0  0  0
    5.4917   -4.0792    0.0000 C   0  0  0  0  0  0           0  0  0
    3.0250   -4.0917    0.0000 C   0  0  0  0  0  0           0  0  0
    9.1917   -6.2375    0.0000 C   0  0  0  0  0  0           0  0  0
    7.9750   -5.4917    0.0000 N   0  0  0  0  0  0           0  0  0
    7.1500   -5.4917    0.0000 C   0  0  0  0  0  0           0  0  0
    5.9042   -4.7917    0.0000 N   0  0  0  0  0  0           0  0  0
    2.1917   -4.9167    0.0000 O   0  0  0  0  0  0           0  0  0
    2.1917   -3.2667    0.0000 O   0  0  0  0  0  0           0  0  0
    8.3667   -6.2167    0.0000 C   0  0  3  0  0  0           0  0  0
    4.6667   -4.0792    0.0000 C   0  0  0  0  0  0           0  0  0
    1.3750   -4.0875    0.0000 N   0  0  0  0  0  0           0  0  0
    5.9000   -3.3625    0.0000 O   0  0  0  0  0  0           0  0  0
    9.6250   -5.5292    0.0000 O   0  0  0  0  0  0           0  0  0
    6.7417   -6.2125    0.0000 O   0  0  0  0  0  0           0  0  0
    3.4250   -3.3792    0.0000 C   0  0  0  0  0  0           0  0  0
    3.4375   -4.8042    0.0000 C   0  0  0  0  0  0           0  0  0
    4.2542   -4.8000    0.0000 C   0  0  0  0  0  0           0  0  0
    4.2417   -3.3667    0.0000 C   0  0  0  0  0  0           0  0  0
    6.7292   -4.7792    0.0000 C   0  0  0  0  0  0           0  0  0
    9.5875   -6.9625    0.0000 O   0  0  0  0  0  0           0  0  0
    7.9375   -6.9167    0.0000 C   0  0  0  0  0  0           0  0  0
    8.3292   -7.6417    0.0000 C   0  0  0  0  0  0           0  0  0
    7.9000   -8.3500    0.0000 C   0  0  0  0  0  0           0  0  0
    8.2917   -9.0750    0.0000 C   0  0  0  0  0  0           0  0  0
  2 11  1  0     0  0
  3  1  1  0     0  0
  4 10  1  0     0  0
  5  6  1  0     0  0
  6 20  1  0     0  0
  7  2  1  0     0  0
  8  1  2  0     0  0
  9  1  2  0     0  0
 10  5  1  0     0  0
 11 18  2  0     0  0
 12  1  1  0     0  0
 13  2  2  0     0  0
 14  4  2  0     0  0
 15  6  2  0     0  0
 16  3  1  0     0  0
 17  3  2  0     0  0
 18 17  1  0     0  0
 19 16  2  0     0  0
 20  7  1  0     0  0
 21  4  1  0     0  0
 22 10  1  0     0  0
 23 22  1  0     0  0
 24 23  1  0     0  0
 25 24  1  0     0  0
 11 19  1  0     0  0
M  END