
          11280714482D 1   1.00000     0.00000     0

  9  9  0     0  0            999 V2000
    0.9500   -3.1917    0.0000 N   0  0  0  0  0  0           0  0  0
    1.4667   -3.4917    0.0000 C   0  0  0  0  0  0           0  0  0
    0.4292   -3.5000    0.0000 C   0  0  0  0  0  0           0  0  0
    1.9875   -3.1917    0.0000 C   0  0  0  0  0  0           0  0  0
    1.4667   -4.1000    0.0000 C   0  0  0  0  0  0           0  0  0
    2.5042   -3.4875    0.0000 C   0  0  0  0  0  0           0  0  0
    0.4292   -4.1000    0.0000 C   0  0  0  0  0  0           0  0  0
    3.0250   -3.1875    0.0000 C   0  0  0  0  0  0           0  0  0
    0.9500   -4.4000    0.0000 C   0  0  0  0  0  0           0  0  0
  2  1  2  0     0  0
  3  1  1  0     0  0
  4  2  1  0     0  0
  5  2  1  0     0  0
  6  4  1  0     0  0
  7  3  2  0     0  0
  8  6  1  0     0  0
  9  7  1  0     0  0
  5  9  2  0     0  0
M  END