
  SciTegic06051315212D

 20 21  0  0  0  0            999 V2000
   25.6287  -16.1209    0.0000 C   0  0
   25.6275  -16.9405    0.0000 C   0  0
   26.3356  -17.3494    0.0000 C   0  0
   27.0452  -16.9400    0.0000 C   0  0
   27.0424  -16.1173    0.0000 C   0  0
   26.3338  -15.7121    0.0000 C   0  0
   26.3313  -14.8949    0.0000 S   0  0
   27.0378  -14.4842    0.0000 N   0  0
   25.5352  -15.1015    0.0000 O   0  0
   25.9149  -14.1812    0.0000 O   0  0
   27.7486  -15.7061    0.0000 F   0  0
   24.9209  -15.7125    0.0000 F   0  0
   24.9195  -17.3485    0.0000 F   0  0
   27.7536  -17.3475    0.0000 F   0  0
   26.3359  -18.1617    0.0000 N   0  0
   25.6263  -18.5689    0.0000 C   0  0
   25.6242  -19.3825    0.0000 C   0  0
   26.3300  -19.7951    0.0000 O   0  0
   27.0396  -19.3879    0.0000 C   0  0
   27.0434  -18.5681    0.0000 C   0  0
  1  2  2  0
  2  3  1  0
  3  4  2  0
  4  5  1  0
  5  6  2  0
  6  1  1  0
  6  7  1  0
  7  8  1  0
  7  9  2  0
  7 10  2  0
  5 11  1  0
  1 12  1  0
  2 13  1  0
  4 14  1  0
 15 16  1  0
 15 20  1  0
 16 17  1  0
 17 18  1  0
 18 19  1  0
 19 20  1  0
  3 15  1  0
M  END