
          11280714532D 1   1.00000     0.00000     0

 21 23  0     0  0            999 V2000
    3.9292   -2.6917    0.0000 N   0  0  3  0  0  0           0  0  0
    3.1417   -2.9542    0.0000 C   0  0  0  0  0  0           0  0  0
    3.9417   -4.0292    0.0000 C   0  0  3  0  0  0           0  0  0
    4.4167   -3.3542    0.0000 C   0  0  0  0  0  0           0  0  0
    3.1542   -3.7792    0.0000 C   0  0  0  0  0  0           0  0  0
    4.1792   -1.9042    0.0000 C   0  0  0  0  0  0           0  0  0
    6.4042   -0.6667    0.0000 N   0  0  0  0  0  0           0  0  0
    6.3292   -1.4917    0.0000 C   0  0  0  0  0  0           0  0  0
    7.0792   -1.8292    0.0000 C   0  0  0  0  0  0           0  0  0
    7.2167   -0.5000    0.0000 C   0  0  0  0  0  0           0  0  0
    7.6292   -1.2167    0.0000 N   0  0  0  0  0  0           0  0  0
    4.8917   -1.4917    0.0000 C   0  0  0  0  0  0           0  0  0
    5.6042   -1.9042    0.0000 C   0  0  0  0  0  0           0  0  0
    3.4667   -1.4917    0.0000 O   0  0  0  0  0  0           0  0  0
    3.5167   -4.7375    0.0000 C   0  0  0  0  0  0           0  0  0
    4.7292   -4.2375    0.0000 C   0  0  0  0  0  0           0  0  0
    2.4292   -2.5417    0.0000 C   0  0  0  0  0  0           0  0  0
    2.4292   -4.1917    0.0000 C   0  0  0  0  0  0           0  0  0
    7.2542   -2.6375    0.0000 C   0  0  0  0  0  0           0  0  0
    1.7167   -2.9542    0.0000 C   0  0  0  0  0  0           0  0  0
    1.7167   -3.7792    0.0000 C   0  0  0  0  0  0           0  0  0
  2  1  1  0     0  0
  3  4  1  0     0  0
  4  1  1  0     0  0
  5  2  1  0     0  0
  6  1  1  0     0  0
  7  8  1  0     0  0
  8 13  1  0     0  0
  9  8  2  0     0  0
 10  7  2  0     0  0
 11  9  1  0     0  0
 12  6  1  0     0  0
 13 12  1  0     0  0
 14  6  2  0     0  0
  3 15  1  0     0  0
  3 16  1  0     0  0
 17  2  2  0     0  0
 18  5  2  0     0  0
 19  9  1  0     0  0
 20 17  1  0     0  0
 21 20  2  0     0  0
  3  5  1  0     0  0
 18 21  1  0     0  0
 10 11  1  0     0  0
M  END