
          03140815522D 1   1.00000     0.00000     0

 18 18  0     0  0            999 V2000
    3.7167   -6.4000    0.0000 I   0  5  0  0  0  0           0  0  0
    5.8176   -1.8484    0.0000 C   0  0  0  0  0  0           0  0  0
    5.0078   -2.0064    0.0000 C   0  0  0  0  0  0           0  0  0
    4.9060   -2.8252    0.0000 C   0  0  0  0  0  0           0  0  0
    5.6561   -3.1747    0.0000 N   0  0  0  0  0  0           0  0  0
    6.2156   -2.5697    0.0000 O   0  0  0  0  0  0           0  0  0
    4.1842   -3.2247    0.0000 O   0  0  0  0  0  0           0  0  0
    4.1692   -4.0496    0.0000 C   0  0  0  0  0  0           0  0  0
    3.4492   -4.4481    0.0000 C   0  0  0  0  0  0           0  0  0
    2.7376   -4.8676    0.0000 C   0  0  0  0  0  0           0  0  0
    2.0269   -5.2866    0.0000 C   0  0  0  0  0  0           0  0  0
    1.3087   -4.8806    0.0000 N   0  3  3  0  0  0           0  0  0
    1.3073   -4.0506    0.0000 C   0  0  0  0  0  0           0  0  0
    0.5932   -3.6447    0.0000 C   0  0  0  0  0  0           0  0  0
   -0.1195   -4.0599    0.0000 C   0  0  0  0  0  0           0  0  0
   -0.1095   -4.8833    0.0000 C   0  0  0  0  0  0           0  0  0
    0.6059   -5.2956    0.0000 C   0  0  0  0  0  0           0  0  0
    1.3042   -5.7042    0.0000 C   0  0  0  0  0  0           0  0  0
  8  9  1  0     0  0
  3  4  1  0     0  0
  9 10  3  0     0  0
  4  5  2  0     0  0
 10 11  1  0     0  0
  5  6  1  0     0  0
 11 12  1  0     0  0
 12 13  1  0     0  0
  6  2  1  0     0  0
  2  3  1  0     0  0
  4  7  1  0     0  0
  7  8  1  0     0  0
 12 17  1  0     0  0
 13 14  1  0     0  0
 14 15  1  0     0  0
 15 16  1  0     0  0
 16 17  1  0     0  0
 12 18  1  0     0  0
M  CHG  2   1  -1  12   1
M  END