
          11280715402D 1   1.00000     0.00000     0

 44 47  0     0  0            999 V2000
    8.9750   -4.7917    0.0000 S   0  0  3  0  0  0           0  0  0
    9.7000   -6.0250    0.0000 C   0  0  0  0  0  0           0  0  0
    8.9875   -6.4375    0.0000 N   0  0  0  0  0  0           0  0  0
    8.9875   -7.2667    0.0000 C   0  0  0  0  0  0           0  0  0
    9.7000   -7.6792    0.0000 N   0  0  0  0  0  0           0  0  0
    9.6917   -5.2000    0.0000 N   0  0  0  0  0  0           0  0  0
   10.4167   -6.4375    0.0000 C   0  0  0  0  0  0           0  0  0
   12.5292  -10.1917    0.0000 S   0  0  3  0  0  0           0  0  0
   10.4167   -7.2667    0.0000 C   0  0  0  0  0  0           0  0  0
    8.2542   -5.2000    0.0000 C   0  0  0  0  0  0           0  0  0
   11.1292   -6.0167    0.0000 O   0  0  0  0  0  0           0  0  0
    8.2750   -7.6792    0.0000 N   0  0  3  0  0  0           0  0  0
    7.5417   -4.7750    0.0000 N   0  0  0  0  0  0           0  0  0
    9.3792   -4.0667    0.0000 O   0  0  0  0  0  0           0  0  0
   11.8417   -6.4292    0.0000 C   0  0  0  0  0  0           0  0  0
    8.2542   -4.3792    0.0000 O   0  0  0  0  0  0           0  0  0
   12.2542  -10.9750    0.0000 O   0  0  0  0  0  0           0  0  0
   12.8000   -9.4125    0.0000 O   0  0  0  0  0  0           0  0  0
   11.8500   -9.7375    0.0000 N   0  0  0  0  0  0           0  0  0
    6.8250   -5.1792    0.0000 C   0  0  0  0  0  0           0  0  0
    6.8167   -6.0042    0.0000 C   0  0  0  0  0  0           0  0  0
    8.2500   -6.0167    0.0000 C   0  0  0  0  0  0           0  0  0
   12.5500   -6.0125    0.0000 C   0  0  0  0  0  0           0  0  0
    7.5292   -6.4292    0.0000 C   0  0  0  0  0  0           0  0  0
    6.8500   -8.5000    0.0000 O   0  0  0  0  0  0           0  0  0
   11.1292   -7.6792    0.0000 O   0  0  0  0  0  0           0  0  0
   13.2250  -10.6542    0.0000 C   0  0  0  0  0  0           0  0  0
    6.1000   -6.4167    0.0000 C   0  0  3  0  0  0           0  0  0
   11.8500   -8.9125    0.0000 C   0  0  0  0  0  0           0  0  0
   12.5417   -5.1875    0.0000 O   0  0  0  0  0  0           0  0  0
    7.5625   -7.2667    0.0000 C   0  0  0  0  0  0           0  0  0
    8.2792   -8.5000    0.0000 C   0  0  0  0  0  0           0  0  0
   11.8417   -7.2542    0.0000 C   0  0  0  0  0  0           0  0  0
    7.5625   -8.9125    0.0000 C   0  0  0  0  0  0           0  0  0
    6.8542   -7.6750    0.0000 C   0  0  0  0  0  0           0  0  0
   11.1292   -8.5042    0.0000 C   0  0  0  0  0  0           0  0  0
   13.2667   -6.4167    0.0000 C   0  0  0  0  0  0           0  0  0
    6.0917   -7.2417    0.0000 C   0  0  0  0  0  0           0  0  0
    5.3875   -6.0000    0.0000 C   0  0  0  0  0  0           0  0  0
   11.8292   -4.7792    0.0000 C   0  0  0  0  0  0           0  0  0
   13.9625  -10.2875    0.0000 C   0  0  0  0  0  0           0  0  0
   12.5542   -7.6625    0.0000 C   0  0  0  0  0  0           0  0  0
   14.6542  -10.7417    0.0000 C   0  0  0  0  0  0           0  0  0
   13.2750   -7.2417    0.0000 C   0  0  0  0  0  0           0  0  0
  2  6  1  0     0  0
  3  2  1  0     0  0
  4  3  2  0     0  0
  5  9  2  0     0  0
  6  1  1  0     0  0
  7  2  2  0     0  0
  8 19  1  0     0  0
  9  7  1  0     0  0
 10  1  1  0     0  0
 11  7  1  0     0  0
 12  4  1  0     0  0
 13 10  2  0     0  0
 14  1  2  0     0  0
 15 11  1  0     0  0
 16  1  2  0     0  0
 17  8  2  0     0  0
 18  8  2  0     0  0
 19 29  1  0     0  0
 20 13  1  0     0  0
 21 24  1  0     0  0
 22 10  1  0     0  0
 23 15  1  0     0  0
 24 22  2  0     0  0
 25 34  1  0     0  0
 26  9  1  0     0  0
 27  8  1  0     0  0
 28 21  1  0     0  0
 29 36  1  0     0  0
 30 23  1  0     0  0
 31 12  1  0     0  0
 32 12  1  0     0  0
 33 15  2  0     0  0
 34 32  1  0     0  0
 35 31  1  0     0  0
 36 26  1  0     0  0
 37 23  2  0     0  0
 38 28  1  0     0  0
 39 28  1  0     0  0
 40 30  1  0     0  0
 41 27  1  0     0  0
 42 33  1  0     0  0
 43 41  1  0     0  0
 44 42  2  0     0  0
 21 20  2  0     0  0
  5  4  1  0     0  0
 25 35  1  0     0  0
 44 37  1  0     0  0
M  END