
          11280715242D 1   1.00000     0.00000     0

 50 53  0     1  0            999 V2000
    4.1167   -4.5792    0.0000 C   0  0  1  0  0  0           0  0  0
    6.2542   -4.1542    0.0000 C   0  0  1  0  0  0           0  0  0
    3.4042   -4.1667    0.0000 C   0  0  0  0  0  0           0  0  0
    6.9667   -4.5667    0.0000 C   0  0  0  0  0  0           0  0  0
    4.8292   -4.1667    0.0000 C   0  0  1  0  0  0           0  0  0
    5.5417   -4.5667    0.0000 C   0  0  1  0  0  0           0  0  0
    2.6917   -4.5792    0.0000 N   0  0  0  0  0  0           0  0  0
    7.6792   -4.1542    0.0000 N   0  0  0  0  0  0           0  0  0
    8.3917   -4.5667    0.0000 C   0  0  2  0  0  0           0  0  0
    1.9792   -4.1667    0.0000 C   0  0  2  0  0  0           0  0  0
    9.1042   -4.1542    0.0000 C   0  0  0  0  0  0           0  0  0
    1.2667   -4.5792    0.0000 C   0  0  0  0  0  0           0  0  0
    4.1167   -5.4042    0.0000 O   0  0  0  0  0  0           0  0  0
    6.2542   -3.3292    0.0000 O   0  0  0  0  0  0           0  0  0
    6.9667   -5.3917    0.0000 O   0  0  0  0  0  0           0  0  0
    3.4042   -3.3417    0.0000 O   0  0  0  0  0  0           0  0  0
    9.1042   -3.3167    0.0000 O   0  0  0  0  0  0           0  0  0
    1.2667   -5.4042    0.0000 O   0  0  0  0  0  0           0  0  0
    1.9792   -3.3417    0.0000 C   0  0  0  0  0  0           0  0  0
    8.3917   -5.3917    0.0000 C   0  0  0  0  0  0           0  0  0
    0.5500   -4.1667    0.0000 N   0  0  0  0  0  0           0  0  0
    9.8250   -4.5667    0.0000 N   0  0  0  0  0  0           0  0  0
    4.8292   -3.3417    0.0000 O   0  0  0  0  0  0           0  0  0
    5.5417   -5.3917    0.0000 O   0  0  0  0  0  0           0  0  0
    6.9667   -2.9167    0.0000 C   0  0  0  0  0  0           0  0  0
    3.4042   -5.8167    0.0000 C   0  0  0  0  0  0           0  0  0
    6.9667   -2.0917    0.0000 C   0  0  0  0  0  0           0  0  0
    3.4042   -6.6417    0.0000 C   0  0  0  0  0  0           0  0  0
    7.6792   -5.8042    0.0000 C   0  0  0  0  0  0           0  0  0
    9.1125   -5.7917    0.0000 C   0  0  0  0  0  0           0  0  0
    2.6917   -2.9292    0.0000 C   0  0  0  0  0  0           0  0  0
    1.2667   -2.9292    0.0000 C   0  0  0  0  0  0           0  0  0
   -0.1625   -4.5792    0.0000 C   0  0  0  0  0  0           0  0  0
   10.5375   -4.1417    0.0000 C   0  0  0  0  0  0           0  0  0
    7.6792   -1.6792    0.0000 C   0  0  0  0  0  0           0  0  0
    6.2542   -1.6917    0.0000 C   0  0  0  0  0  0           0  0  0
    2.6917   -7.0417    0.0000 C   0  0  0  0  0  0           0  0  0
    4.1167   -7.0417    0.0000 C   0  0  0  0  0  0           0  0  0
    9.1167   -6.6167    0.0000 C   0  0  0  0  0  0           0  0  0
    2.6917   -2.1042    0.0000 C   0  0  0  0  0  0           0  0  0
    1.2625   -2.1167    0.0000 C   0  0  0  0  0  0           0  0  0
    7.6875   -6.6292    0.0000 C   0  0  0  0  0  0           0  0  0
    6.2417   -0.8667    0.0000 C   0  0  0  0  0  0           0  0  0
    2.6917   -7.8667    0.0000 C   0  0  0  0  0  0           0  0  0
    4.1250   -7.8667    0.0000 C   0  0  0  0  0  0           0  0  0
    7.6792   -0.8542    0.0000 C   0  0  0  0  0  0           0  0  0
    6.9625   -0.4417    0.0000 C   0  0  0  0  0  0           0  0  0
    1.9792   -1.6917    0.0000 C   0  0  0  0  0  0           0  0  0
    3.4042   -8.2792    0.0000 C   0  0  0  0  0  0           0  0  0
    8.4000   -7.0292    0.0000 C   0  0  0  0  0  0           0  0  0
  2  6  1  0     0  0
  3  1  1  0     0  0
  4  2  1  0     0  0
  5  1  1  0     0  0
  6  5  1  0     0  0
  7  3  1  0     0  0
  8  4  1  0     0  0
  9  8  1  0     0  0
 10  7  1  0     0  0
 11  9  1  0     0  0
 12 10  1  0     0  0
  1 13  1  1     0  0
  2 14  1  1     0  0
 15  4  2  0     0  0
 16  3  2  0     0  0
 17 11  2  0     0  0
 18 12  2  0     0  0
 10 19  1  6     0  0
  9 20  1  6     0  0
 21 12  1  0     0  0
 22 11  1  0     0  0
  5 23  1  6     0  0
  6 24  1  6     0  0
 25 14  1  0     0  0
 26 13  1  0     0  0
 27 25  1  0     0  0
 28 26  1  0     0  0
 29 20  2  0     0  0
 30 20  1  0     0  0
 31 19  2  0     0  0
 32 19  1  0     0  0
 33 21  1  0     0  0
 34 22  1  0     0  0
 35 27  2  0     0  0
 36 27  1  0     0  0
 37 28  2  0     0  0
 38 28  1  0     0  0
 39 30  2  0     0  0
 40 31  1  0     0  0
 41 32  2  0     0  0
 42 29  1  0     0  0
 43 36  2  0     0  0
 44 37  1  0     0  0
 45 38  2  0     0  0
 46 35  1  0     0  0
 47 43  1  0     0  0
 48 41  1  0     0  0
 49 45  1  0     0  0
 50 39  1  0     0  0
 49 44  2  0     0  0
 48 40  2  0     0  0
 47 46  2  0     0  0
 50 42  2  0     0  0
M  END