
  CDK    9/16/09,10:4

 28 30  0  0  0  0  0  0  0  0999 V2000
    9.2485  -17.5446    0.0000 C   0  0  0  0  0  0  0  0  0  0  0  0
    9.9630  -17.1321    0.0000 N   0  0  0  0  0  0  0  0  0  0  0  0
    8.5341  -17.1321    0.0000 N   0  0  0  0  0  0  0  0  0  0  0  0
    9.2485  -18.3696    0.0000 S   0  0  0  0  0  0  0  0  0  0  0  0
    7.8196  -17.5446    0.0000 C   0  0  0  0  0  0  0  0  0  0  0  0
    7.1057  -17.1290    0.0000 C   0  0  0  0  0  0  0  0  0  0  0  0
    6.3917  -17.5408    0.0000 C   0  0  0  0  0  0  0  0  0  0  0  0
    6.3913  -18.3667    0.0000 C   0  0  0  0  0  0  0  0  0  0  0  0
    7.1108  -18.7790    0.0000 C   0  0  0  0  0  0  0  0  0  0  0  0
    7.8218  -18.3648    0.0000 C   0  0  0  0  0  0  0  0  0  0  0  0
   10.6775  -17.5446    0.0000 C   0  0  0  0  0  0  0  0  0  0  0  0
   10.6749  -18.3707    0.0000 C   0  0  0  0  0  0  0  0  0  0  0  0
   11.3885  -18.7831    0.0000 C   0  0  0  0  0  0  0  0  0  0  0  0
   11.3871  -17.1326    0.0000 C   0  0  0  0  0  0  0  0  0  0  0  0
   12.1014  -17.5413    0.0000 C   0  0  0  0  0  0  0  0  0  0  0  0
   12.1050  -18.3691    0.0000 C   0  0  0  0  0  0  0  0  0  0  0  0
   12.8205  -18.7798    0.0000 S   0  0  0  0  0  0  0  0  0  0  0  0
   13.5319  -19.1904    0.0000 N   0  0  0  0  0  0  0  0  0  0  0  0
   13.2321  -18.0648    0.0000 O   0  0  0  0  0  0  0  0  0  0  0  0
   12.4120  -19.4966    0.0000 O   0  0  0  0  0  0  0  0  0  0  0  0
   13.5320  -20.0154    0.0000 C   0  0  0  0  0  0  0  0  0  0  0  0
   12.8674  -20.5041    0.0000 N   0  0  0  0  0  0  0  0  0  0  0  0
   13.1225  -21.2886    0.0000 O   0  0  0  0  0  0  0  0  0  0  0  0
   13.9475  -21.2885    0.0000 C   0  0  0  0  0  0  0  0  0  0  0  0
   14.2022  -20.5039    0.0000 C   0  0  0  0  0  0  0  0  0  0  0  0
   14.4326  -21.9559    0.0000 C   0  0  0  0  0  0  0  0  0  0  0  0
    7.1137  -19.6040    0.0000 Cl  0  0  0  0  0  0  0  0  0  0  0  0
    5.6773  -18.7801    0.0000 C   0  0  0  0  0  0  0  0  0  0  0  0
  6  7  1  0  0  0  0 
 15 14  2  0  0  0  0 
 14 11  1  0  0  0  0 
 15 16  1  0  0  0  0 
  1  4  2  0  0  0  0 
  7  8  2  0  0  0  0 
 16 17  1  0  0  0  0 
  8  9  1  0  0  0  0 
 17 18  1  0  0  0  0 
  3  5  1  0  0  0  0 
 17 19  2  0  0  0  0 
  9 10  2  0  0  0  0 
 17 20  2  0  0  0  0 
 10  5  1  0  0  0  0 
 18 21  1  0  0  0  0 
 21 22  2  0  0  0  0 
  1  3  1  0  0  0  0 
  2 11  1  0  0  0  0 
  5  6  2  0  0  0  0 
 11 12  2  0  0  0  0 
 22 23  1  0  0  0  0 
 23 24  1  0  0  0  0 
 24 25  2  0  0  0  0 
 25 21  1  0  0  0  0 
  1  2  1  0  0  0  0 
 24 26  1  0  0  0  0 
 12 13  1  0  0  0  0 
  9 27  1  0  0  0  0 
 13 16  2  0  0  0  0 
  8 28  1  0  0  0  0 
M  END