
  SciTegic05071317012D

 34 37  0  0  0  0            999 V2000
   10.5643   -2.3772    0.0000 C   0  0
   10.5631   -3.1968    0.0000 C   0  0
   11.2712   -3.6057    0.0000 C   0  0
   11.2694   -1.9684    0.0000 C   0  0
   11.9780   -2.3736    0.0000 C   0  0
   11.9814   -3.1988    0.0000 C   0  0
   12.6938   -3.6062    0.0000 N   0  0
   13.4073   -3.1930    0.0000 C   0  0
   13.4040   -2.3678    0.0000 N   0  0
   12.6870   -1.9559    0.0000 C   0  0
    9.8565   -1.9688    0.0000 O   0  0
    9.8563   -1.1516    0.0000 C   0  0
    9.8551   -3.6048    0.0000 O   0  0
    9.1477   -3.1957    0.0000 C   0  0
   12.6825   -1.1387    0.0000 N   0  0
   14.1162   -3.5997    0.0000 N   0  0
   15.5290   -4.4211    0.0000 N   0  0
   15.5288   -3.6029    0.0000 C   0  0
   14.8195   -3.1918    0.0000 C   0  0
   14.8200   -4.8281    0.0000 C   0  0  2  0  0  0
   14.1127   -4.4198    0.0000 C   0  0  2  0  0  0
   13.4093   -4.8260    0.0000 C   0  0
   13.4071   -5.6421    0.0000 C   0  0
   14.1145   -6.0504    0.0000 C   0  0
   14.8240   -5.6426    0.0000 C   0  0
   16.2363   -4.8304    0.0000 C   0  0
   16.2355   -5.6476    0.0000 O   0  0
   16.9445   -4.4226    0.0000 C   0  0
   17.6876   -4.7566    0.0000 O   0  0
   18.2351   -4.1499    0.0000 C   0  0
   17.8272   -3.4417    0.0000 C   0  0
   17.0277   -3.6108    0.0000 C   0  0
   19.0477   -4.2361    0.0000 Br  0  0
   16.7613   -1.9446    0.0000 Cl  0  0
  1  2  2  0
  2  3  1  0
  3  6  2  0
  5  4  2  0
  4  1  1  0
  5  6  1  0
  5 10  1  0
  6  7  1  0
  7  8  2  0
  8  9  1  0
  9 10  2  0
  1 11  1  0
 11 12  1  0
  2 13  1  0
 13 14  1  0
 10 15  1  0
  8 16  1  0
 16 21  1  0
 16 19  1  0
 20 17  1  0
 17 18  1  0
 18 19  1  0
 20 21  1  0
 20 25  1  1
 21 22  1  6
 22 23  1  0
 23 24  1  0
 24 25  1  0
 17 26  1  0
 26 27  2  0
 26 28  1  0
 28 29  1  0
 29 30  1  0
 30 31  2  0
 31 32  1  0
 32 28  2  0
 30 33  1  0
M  END