
          08180812472D 1   1.00000     0.00000     0

 27 30  0     1  0            999 V2000
   10.9077  -16.7318    0.0000 C   0  0  0  0  0  0           0  0  0
   10.9077  -15.9068    0.0000 C   0  0  0  0  0  0           0  0  0
   11.6224  -15.4966    0.0000 C   0  0  0  0  0  0           0  0  0
   10.1929  -17.1465    0.0000 O   0  0  0  0  0  0           0  0  0
   11.6224  -17.1465    0.0000 C   0  0  0  0  0  0           0  0  0
   12.3370  -16.7318    0.0000 C   0  0  2  0  0  0           0  0  0
   13.0518  -17.1465    0.0000 C   0  0  0  0  0  0           0  0  0
   13.7665  -16.7318    0.0000 C   0  0  2  0  0  0           0  0  0
   13.7665  -15.9068    0.0000 C   0  0  1  0  0  0           0  0  0
   14.4811  -15.4966    0.0000 C   0  0  2  0  0  0           0  0  0
   15.2665  -15.7551    0.0000 C   0  0  0  0  0  0           0  0  0
   15.7512  -15.0818    0.0000 C   0  0  0  0  0  0           0  0  0
   15.2665  -14.4223    0.0000 C   0  0  2  0  0  0           0  0  0
   15.5204  -13.6369    0.0000 O   0  0  0  0  0  0           0  0  0
   14.4811  -14.6716    0.0000 C   0  0  2  0  0  0           0  0  0
   14.4811  -13.8467    0.0000 C   0  0  0  0  0  0           0  0  0
   13.7665  -14.2569    0.0000 C   0  0  0  0  0  0           0  0  0
   13.0518  -14.6716    0.0000 C   0  0  0  0  0  0           0  0  0
   13.0518  -15.4966    0.0000 C   0  0  2  0  0  0           0  0  0
   12.3370  -15.9068    0.0000 C   0  0  1  0  0  0           0  0  0
   12.3370  -15.0818    0.0000 C   0  0  0  0  0  0           0  0  0
   12.3370  -17.5567    0.0000 H   0  0  0  0  0  0           0  0  0
   13.0518  -16.3216    0.0000 H   0  0  0  0  0  0           0  0  0
   13.7665  -15.0818    0.0000 H   0  0  0  0  0  0           0  0  0
   14.4811  -16.3216    0.0000 H   0  0  0  0  0  0           0  0  0
   14.4816  -17.1465    0.0000 C   0  0  0  0  0  0           0  0  0
   16.0572  -14.6306    0.0000 C   0  0  0  0  0  0           0  0  0
  2  3  1  0     0  0
  1  4  2  0     0  0
  1  5  1  0     0  0
  5  6  1  0     0  0
  6  7  1  0     0  0
  7  8  1  0     0  0
  8  9  1  0     0  0
  9 10  1  0     0  0
 10 11  1  0     0  0
 11 12  1  0     0  0
 12 13  1  0     0  0
 13 14  1  1     0  0
 13 15  1  0     0  0
 10 15  1  0     0  0
 15 16  1  1     0  0
 15 17  1  0     0  0
 17 18  1  0     0  0
 18 19  1  0     0  0
  9 19  1  0     0  0
 19 20  1  0     0  0
  3 20  1  0     0  0
  6 20  1  0     0  0
 20 21  1  1     0  0
  6 22  1  6     0  0
 19 23  1  6     0  0
  9 24  1  1     0  0
 10 25  1  6     0  0
  8 26  1  6     0  0
  1  2  1  0     0  0
 13 27  1  0     0  0
M  END