
  SciTegic12231509382D

 29 31  0  0  0  0            999 V2000
   12.0350   -3.1367    0.0000 O   0  0
   11.2178   -3.1367    0.0000 S   0  0
   11.6264   -3.8444    0.0000 O   0  0
   10.5148   -1.0937    0.0000 C   0  0
   10.5136   -1.9132    0.0000 C   0  0
   11.2217   -2.3222    0.0000 C   0  0
   11.9313   -1.9127    0.0000 C   0  0
   11.9285   -1.0901    0.0000 C   0  0
   11.2199   -0.6848    0.0000 C   0  0
   10.5137   -3.5478    0.0000 C   0  0
    9.8095   -3.1360    0.0000 C   0  0
    9.1021   -3.5437    0.0000 C   0  0
    9.1015   -4.3618    0.0000 C   0  0
    9.8141   -4.7704    0.0000 C   0  0
   10.5185   -4.3603    0.0000 C   0  0
    8.3948   -4.7704    0.0000 C   0  0
    7.6863   -4.3609    0.0000 C   0  0
    6.9795   -4.7696    0.0000 C   0  0
    6.9800   -5.5877    0.0000 C   0  0
    7.6931   -5.9953    0.0000 C   0  0
    8.3970   -5.5843    0.0000 C   0  0
    6.2733   -5.9980    0.0000 O   0  0
    5.5646   -5.5911    0.0000 C   0  0
    4.8578   -6.0014    0.0000 C   0  0
    4.1492   -5.5945    0.0000 F   0  0
   12.6397   -2.3202    0.0000 C   0  0
   13.3467   -1.9105    0.0000 C   0  0
   14.0580   -2.3160    0.0000 O   0  0
   13.3484   -1.0914    0.0000 O   0  0
  2  1  2  0
  3  2  2  0
  4  5  2  0
  5  6  1  0
  6  7  2  0
  7  8  1  0
  8  9  2  0
  9  4  1  0
  6  2  1  0
  2 10  1  0
 10 11  2  0
 11 12  1  0
 12 13  2  0
 13 14  1  0
 14 15  2  0
 15 10  1  0
 16 17  2  0
 17 18  1  0
 18 19  2  0
 19 20  1  0
 20 21  2  0
 21 16  1  0
 13 16  1  0
 19 22  1  0
 22 23  1  0
 23 24  1  0
 24 25  1  0
  7 26  1  0
 26 27  1  0
 27 28  1  0
 27 29  2  0
M  END