
  SciTegic06051315212D

  8  7  0  0  0  0            999 V2000
    9.7857  -21.7959    0.0000 C   0  0
   10.4975  -21.3873    0.0000 C   0  0
    9.0738  -21.3873    0.0000 C   0  0
   10.4975  -20.5660    0.0000 O   0  0
   11.2093  -21.7959    0.0000 N   0  0
    8.3641  -20.9758    0.0000 N   0  0
   11.9170  -21.3873    0.0000 C   0  0
   12.6289  -21.7959    0.0000 C   0  0
  1  2  1  0
  1  3  1  0
  2  4  2  0
  2  5  1  0
  3  6  3  0
  5  7  1  0
  7  8  1  0
M  END