
  SciTegic09081514192D

 23 24  0  0  0  0            999 V2000
   -3.6267    2.9927    0.0000 O   0  0
   -4.9300    3.7369    0.0000 N   0  3
   -4.9364    4.9369    0.0000 O   0  0
   -5.9662    3.1317    0.0000 O   0  5
    0.2917    0.7475    0.0000 C   0  0
   -1.0028    1.5132    0.0000 S   0  0
    0.2917   -0.7475    0.0000 C   0  0
    1.7138    1.2033    0.0000 S   0  0
    2.5889    0.0182    0.0000 C   0  0
    4.0872    0.0351    0.0000 S   0  0
    1.7138   -1.2033    0.0000 C   0  0
   -2.3155    0.7475    0.0000 C   0  0  2  0  0  0
   -1.0028   -1.5132    0.0000 C   0  0  2  0  0  0
   -2.3155   -0.7475    0.0000 C   0  0
    0.0517    2.0860    0.0000 O   0  0
   -2.0537    2.0926    0.0000 O   0  0
    4.6760    1.0808    0.0000 O   0  0
    4.6987   -0.9974    0.0000 O   0  0
    5.2871    0.0482    0.0000 N   0  0
   -0.9909   -3.0137    0.0000 N   0  0
   -3.6187    1.4919    0.0000 C   0  0
    0.3143   -3.7546    0.0000 C   0  0
    0.3238   -4.9546    0.0000 C   0  0
  1  2  1  0
  2  3  2  0
  2  4  1  0
  6  5  1  0
  7  5  2  0
  8  5  1  0
  9  8  1  0
 10  9  1  0
 11  7  1  0
 12  6  1  0
 13  7  1  0
 14 13  1  0
 15  6  2  0
 16  6  2  0
 17 10  2  0
 18 10  2  0
 19 10  1  0
 13 20  1  1
 12 21  1  6
 22 20  1  0
 23 22  1  0
  9 11  2  0
 12 14  1  0
 21  1  1  0
M  CHG  2   2   1   4  -1
M  END