
  SciTegic09261414552D

 31 34  0  0  0  0            999 V2000
    7.0305   -4.4624    0.0000 C   0  0
    7.7450   -4.8749    0.0000 C   0  0
    7.7450   -5.6999    0.0000 C   0  0
    7.0305   -6.1124    0.0000 C   0  0
    6.3160   -5.6999    0.0000 C   0  0
    6.3160   -4.8749    0.0000 N   0  0
    8.5296   -5.9548    0.0000 N   0  0
    8.5296   -4.6199    0.0000 C   0  0
    9.0145   -5.2874    0.0000 C   0  0
    9.8395   -5.2874    0.0000 C   0  0
   10.2520   -4.5729    0.0000 O   0  0
   10.2520   -6.0018    0.0000 O   0  0
    7.0305   -3.6374    0.0000 C   0  0
    6.3160   -3.2249    0.0000 C   0  0
    6.3160   -2.3999    0.0000 C   0  0
    7.0305   -1.9874    0.0000 C   0  0
    7.7450   -2.3999    0.0000 C   0  0
    7.7450   -3.2249    0.0000 C   0  0
    5.6016   -1.9874    0.0000 O   0  0
    5.6016   -1.1624    0.0000 C   0  0
    4.8871   -0.7499    0.0000 C   0  0
    8.7845   -6.7394    0.0000 C   0  0
    9.5814   -6.9529    0.0000 C   0  0
    9.7950   -7.7498    0.0000 O   0  0
   10.5919   -7.9634    0.0000 C   0  0
   11.1752   -7.3800    0.0000 C   0  0
   11.9721   -7.5935    0.0000 C   0  0
   12.1856   -8.3904    0.0000 C   0  0
   11.6023   -8.9738    0.0000 C   0  0
   10.8054   -8.7602    0.0000 C   0  0
   12.9825   -8.6039    0.0000 Cl  0  0
  1  2  1  0
  2  3  2  0
  3  4  1  0
  4  5  2  0
  5  6  1  0
  1  6  2  0
  8  9  2  0
  7  9  1  0
  2  8  1  0
  3  7  1  0
 10 11  2  0
 10 12  1  0
  9 10  1  0
 13 14  1  0
 14 15  2  0
 15 16  1  0
 16 17  2  0
 17 18  1  0
 13 18  2  0
 20 21  1  0
 19 20  1  0
 15 19  1  0
  1 13  1  0
 22 23  1  0
 25 26  1  0
 26 27  2  0
 27 28  1  0
 28 29  2  0
 29 30  1  0
 25 30  2  0
 24 25  1  0
 28 31  1  0
 23 24  1  0
  7 22  1  0
M  END