
  SciTegic06051315212D

 25 26  0  0  0  0            999 V2000
   31.8484  -15.9063    0.0000 C   0  0
   31.8473  -16.7258    0.0000 C   0  0
   32.5553  -17.1348    0.0000 C   0  0
   33.2650  -16.7254    0.0000 C   0  0
   33.2621  -15.9027    0.0000 C   0  0
   32.5535  -15.4974    0.0000 C   0  0
   32.5511  -14.6803    0.0000 S   0  0
   33.2576  -14.2695    0.0000 N   0  0
   31.7549  -14.8869    0.0000 O   0  0
   32.1346  -13.9665    0.0000 O   0  0
   33.9683  -15.4914    0.0000 F   0  0
   31.1406  -15.4979    0.0000 F   0  0
   31.1392  -17.1339    0.0000 F   0  0
   33.9733  -17.1328    0.0000 F   0  0
   32.5551  -17.9520    0.0000 S   0  0
   31.8473  -18.3604    0.0000 C   0  0
   31.8471  -19.1776    0.0000 C   0  0
   31.1385  -19.5817    0.0000 C   0  0
   31.1379  -20.3981    0.0000 C   0  0
   31.8461  -20.8077    0.0000 C   0  0
   32.5562  -20.3949    0.0000 C   0  0
   32.5533  -19.5798    0.0000 C   0  0
   33.2590  -19.1679    0.0000 C   0  0
   30.4320  -19.1710    0.0000 C   0  0
   31.8469  -21.6249    0.0000 C   0  0
  1  2  2  0
  2  3  1  0
  3  4  2  0
  4  5  1  0
  5  6  2  0
  6  1  1  0
  6  7  1  0
  7  8  1  0
  7  9  2  0
  7 10  2  0
  5 11  1  0
  1 12  1  0
  2 13  1  0
  4 14  1  0
  3 15  1  0
 15 16  1  0
 16 17  1  0
 17 18  2  0
 18 19  1  0
 19 20  2  0
 20 21  1  0
 21 22  2  0
 22 17  1  0
 22 23  1  0
 18 24  1  0
 20 25  1  0
M  END