
  SciTegic12231509382D

 13 14  0  0  0  0            999 V2000
   -0.3102   -0.6606    0.0000 C   0  0
   -0.3091   -1.4856    0.0000 C   0  0
    0.4069   -1.8973    0.0000 N   0  0
    1.1214   -1.4852    0.0000 C   0  0
    1.1185   -0.6570    0.0000 C   0  0
    0.4051   -0.2490    0.0000 N   0  0
    1.8321   -1.8992    0.0000 N   0  0
    1.8314   -2.7227    0.0000 C   0  0
    2.5404   -3.1329    0.0000 C   0  0
    3.2547   -2.7240    0.0000 N   0  0
    3.2554   -1.9003    0.0000 C   0  0
    2.5418   -1.4856    0.0000 C   0  0
   -1.0255   -1.8964    0.0000 Cl  0  0
  1  2  2  0
  2  3  1  0
  3  4  2  0
  4  5  1  0
  5  6  2  0
  6  1  1  0
  7  8  1  0
  7 12  1  0
  8  9  1  0
  9 10  1  0
 10 11  1  0
 11 12  1  0
  4  7  1  0
  2 13  1  0
M  END