
          11280715042D 1   1.00000     0.00000     0

 41 44  0     1  0            999 V2000
    5.1875   -1.2667    0.0000 C   0  0  0  0  0  0           0  0  0
   -1.9500    0.4125    0.0000 N   0  0  3  0  0  0           0  0  0
    3.0417   -0.8500    0.0000 C   0  0  0  0  0  0           0  0  0
    5.9042   -0.8625    0.0000 C   0  0  0  0  0  0           0  0  0
    4.4750   -0.8542    0.0000 N   0  0  3  0  0  0           0  0  0
   -1.9500    1.2375    0.0000 C   0  0  0  0  0  0           0  0  0
    2.3167   -2.0792    0.0000 C   0  0  0  0  0  0           0  0  0
    3.7542   -1.2667    0.0000 C   0  0  0  0  0  0           0  0  0
    2.3292   -1.2542    0.0000 C   0  0  1  0  0  0           0  0  0
    0.1875   -0.8292    0.0000 N   0  0  3  0  0  0           0  0  0
    3.0292   -2.4917    0.0000 C   0  0  0  0  0  0           0  0  0
   -1.2333    0.0000    0.0000 C   0  0  3  0  0  0           0  0  0
    3.0292   -3.3167    0.0000 C   0  0  0  0  0  0           0  0  0
    3.0500   -0.0250    0.0000 N   0  0  0  0  0  0           0  0  0
    1.6167   -0.8417    0.0000 C   0  0  0  0  0  0           0  0  0
    6.6125   -1.2792    0.0000 C   0  0  0  0  0  0           0  0  0
    5.9042   -0.0417    0.0000 C   0  0  0  0  0  0           0  0  0
   -0.5208    0.4083    0.0000 C   0  0  0  0  0  0           0  0  0
   -1.2375   -0.8292    0.0000 C   0  0  0  0  0  0           0  0  0
    2.3167   -3.7292    0.0000 C   0  0  0  0  0  0           0  0  0
    5.1792   -2.0917    0.0000 O   0  0  0  0  0  0           0  0  0
    6.6167    0.3708    0.0000 C   0  0  0  0  0  0           0  0  0
    7.3292   -0.8750    0.0000 C   0  0  0  0  0  0           0  0  0
    7.3292   -0.0500    0.0000 C   0  0  0  0  0  0           0  0  0
   -1.2333    1.6500    0.0000 O   0  0  0  0  0  0           0  0  0
    1.6042   -2.4875    0.0000 C   0  0  0  0  0  0           0  0  0
    0.9000   -1.2500    0.0000 C   0  0  0  0  0  0           0  0  0
    1.6000   -3.3125    0.0000 C   0  0  0  0  0  0           0  0  0
    0.1917   -0.0042    0.0000 C   0  0  0  0  0  0           0  0  0
   -0.5333   -1.2417    0.0000 C   0  0  0  0  0  0           0  0  0
    3.7417   -3.7292    0.0000 Cl  0  0  0  0  0  0           0  0  0
    2.3125   -4.5542    0.0000 Cl  0  0  0  0  0  0           0  0  0
    6.6167    1.1958    0.0000 Cl  0  0  0  0  0  0           0  0  0
    8.0417   -1.2917    0.0000 Cl  0  0  0  0  0  0           0  0  0
   -2.6625    0.0083    0.0000 C   0  0  0  0  0  0           0  0  0
    3.7667    0.3833    0.0000 O   0  0  0  0  0  0           0  0  0
    4.4792   -0.0292    0.0000 C   0  0  0  0  0  0           0  0  0
   -2.6625    1.6583    0.0000 C   0  0  0  0  0  0           0  0  0
    4.4792    0.7875    0.0000 C   0  0  0  0  0  0           0  0  0
   -3.3708    0.4125    0.0000 C   0  0  0  0  0  0           0  0  0
   -3.3708    1.2375    0.0000 C   0  0  0  0  0  0           0  0  0
  2 12  1  0     0  0
  3  8  1  0     0  0
  4  1  1  0     0  0
  5  1  1  0     0  0
  6  2  1  0     0  0
  9  7  1  1     0  0
  8  5  1  0     0  0
  9  3  1  0     0  0
 10 27  1  0     0  0
 11  7  1  0     0  0
 12 19  1  0     0  0
 13 11  2  0     0  0
 14  3  2  0     0  0
 15  9  1  0     0  0
 16  4  2  0     0  0
 17  4  1  0     0  0
 18 29  1  0     0  0
 19 30  1  0     0  0
 20 28  2  0     0  0
 21  1  2  0     0  0
 22 17  2  0     0  0
 23 16  1  0     0  0
 24 22  1  0     0  0
 25  6  2  0     0  0
 26  7  2  0     0  0
 27 15  1  0     0  0
 28 26  1  0     0  0
 29 10  1  0     0  0
 30 10  1  0     0  0
 31 13  1  0     0  0
 32 20  1  0     0  0
 33 22  1  0     0  0
 34 23  1  0     0  0
 35  2  1  0     0  0
 36 14  1  0     0  0
 37  5  1  0     0  0
 38  6  1  0     0  0
 39 36  1  0     0  0
 40 35  1  0     0  0
 41 40  1  0     0  0
 23 24  2  0     0  0
 13 20  1  0     0  0
 18 12  1  0     0  0
 41 38  1  0     0  0
M  END