
  SciTegic02271515152D

 89 89  0  0  0  0            999 V2000
    8.4339   -3.5621    0.0000 O   0  0
    8.5304   -5.9725    0.0000 C   0  0
    7.8171   -3.9178    0.0000 O   0  0
    7.8171   -6.3903    0.0000 C   0  0
    6.3848   -6.3903    0.0000 C   0  0
    7.1019   -5.9725    0.0000 C   0  0
    6.3848   -3.9178    0.0000 C   0  0
    5.6759   -5.9725    0.0000 O   0  0
    3.5296   -3.9178    0.0000 C   0  0
    4.2357   -2.6749    0.0000 C   0  0
    4.2357   -3.5077    0.0000 C   0  0
    4.9531   -3.9178    0.0000 C   0  0
    3.5296   -4.7374    0.0000 C   0  0
    4.9520   -7.5722    0.0000 O   0  0
    3.5707   -6.7024    0.0000 C   0  0
    2.1498   -6.6667    0.0000 C   0  0
    2.8464   -7.0953    0.0000 C   0  0
    2.8256   -7.9186    0.0000 C   0  0
    2.8196   -9.5871    0.0000 C   0  0
    4.2357  -10.4071    0.0000 O   0  0
    4.9531   -8.3480    0.0000 C   0  0
    6.3848   -8.3480    0.0000 O   0  0
    7.1019  -10.4071    0.0000 C   0  0
    8.5304  -10.4071    0.0000 O   0  0
    7.8171   -8.3480    0.0000 C   0  0
    8.5304   -7.1099    0.0000 C   0  0
    8.5304   -7.9378    0.0000 C   0  0
    9.2480   -8.3480    0.0000 C   0  0
    9.9580  -10.4071    0.0000 C   0  0
   10.6715   -8.3480    0.0000 O   0  0
   12.1023  -10.8294    0.0000 C   0  0
   10.6715  -10.8294    0.0000 C   0  0
   11.3893  -10.4071    0.0000 C   0  0
   12.8206  -10.4071    0.0000 O   0  0
   14.3622   -7.6835    0.0000 C   0  0
   14.2483   -5.9725    0.0000 O   0  0
   13.5621   -5.5352    0.0000 C   0  0
   13.5301   -4.7374    0.0000 C   0  0
   12.1023   -3.9178    0.0000 O   0  0
    9.9580   -5.9725    0.0000 O   0  0
    9.9580   -5.1520    0.0000 C   0  0
   12.1023   -6.3903    0.0000 C   0  0
   11.3893   -5.9725    0.0000 C   0  0
   11.3893   -5.1520    0.0000 C   0  0  1  0  0  0
   12.1023   -4.7374    0.0000 C   0  0
   12.8206   -5.1520    0.0000 N   0  0
   12.8206   -5.9725    0.0000 C   0  0  1  0  0  0
   13.5301   -6.3903    0.0000 C   0  0
   13.5301   -7.6835    0.0000 N   0  0
   14.2471  -10.4446    0.0000 C   0  0
   14.9614   -9.1769    0.0000 C   0  0
   14.2483   -9.5871    0.0000 C   0  0  2  0  0  0
   13.5301   -9.1769    0.0000 C   0  0  1  0  0  0
   12.8206   -9.5871    0.0000 C   0  0
   12.1023   -9.1769    0.0000 N   0  0
   11.3893   -9.5871    0.0000 C   0  0  2  0  0  0
   10.6715   -9.1769    0.0000 C   0  0
    9.9580   -9.5871    0.0000 N   0  0
    9.2480   -9.1769    0.0000 C   0  0  2  0  0  0
    8.5304   -9.5871    0.0000 C   0  0
    7.8171   -9.1769    0.0000 N   0  0
    7.1019   -9.5871    0.0000 C   0  0  2  0  0  0
    6.3848   -9.1769    0.0000 C   0  0
    5.6759   -9.5871    0.0000 N   0  0
    4.9531   -9.1769    0.0000 C   0  0  1  0  0  0
    4.2357   -9.5871    0.0000 C   0  0
    3.5296   -9.1769    0.0000 N   0  0
    3.5296   -8.3480    0.0000 C   0  0  2  0  0  0
    4.2357   -7.9868    0.0000 C   0  0
    4.2357   -5.1520    0.0000 N   0  0
    4.9531   -4.7374    0.0000 C   0  0  2  0  0  0
    5.6759   -5.1520    0.0000 C   0  0
    6.3848   -4.7374    0.0000 N   0  0
    7.1019   -5.1520    0.0000 C   0  0  2  0  0  0
    7.8171   -4.7374    0.0000 C   0  0
    8.5304   -5.1520    0.0000 N   0  0
    9.2480   -4.7374    0.0000 C   0  0  1  0  0  0
   10.6715   -3.9178    0.0000 C   0  0
    8.5304   -1.0222    0.0000 C   0  0
    9.2480   -1.4324    0.0000 C   0  0
    9.2480   -2.2559    0.0000 C   0  0
    9.9580   -2.6748    0.0000 C   0  0
    9.9580   -3.5077    0.0000 C   0  0  2  0  0  0
    9.2480   -3.9178    0.0000 C   0  0  1  0  0  0
   10.6715   -4.7378    0.0000 N   0  0
   15.7048   -9.6079    0.0000 C   0  0
   16.4480  -10.0384    0.0000 N   0  0
    8.3819   -4.2375    0.0000 H   0  0
   13.5327  -10.1769    0.0000 H   0  0
 84 83  1  0
 77 84  1  0
 84  1  1  6
 83 82  1  0
 83 78  1  1
 82 81  1  0
 81 80  2  0
 80 79  1  0
 77 76  1  0
 77 41  1  0
 75 76  1  0
 76  2  1  0
 74 75  1  0
 75  3  2  0
 73 74  1  0
 74  6  1  6
 72 73  1  0
 73  7  1  0
 71 72  1  0
 72  8  2  0
 70 71  1  0
 71 12  1  1
 70 69  1  0
 70 13  1  0
 68 69  1  0
 69 14  2  0
 67 68  1  0
 68 18  1  1
 66 67  1  0
 67 19  1  0
 65 66  1  0
 66 20  2  0
 64 65  1  0
 65 21  1  1
 63 64  1  0
 62 63  1  0
 63 22  2  0
 61 62  1  0
 62 23  1  1
 60 61  1  0
 59 60  1  0
 60 24  2  0
 58 59  1  0
 59 28  1  6
 57 58  1  0
 58 29  1  0
 56 57  1  0
 57 30  2  0
 55 56  1  0
 56 33  1  1
 54 55  1  0
 54 53  1  0
 54 34  2  0
 53 52  1  0
 53 49  1  0
 52 51  1  0
 52 50  1  1
 48 49  1  0
 49 35  1  0
 47 48  1  0
 48 36  2  0
 46 47  1  0
 47 37  1  1
 45 46  1  0
 46 38  1  0
 44 45  1  0
 45 39  2  0
 44 43  1  6
 85 44  1  0
 43 42  1  0
 41 40  2  0
 41 85  1  0
 33 32  1  0
 33 31  1  0
 28 27  1  0
 27 26  1  0
 27 25  1  0
 18 17  1  0
 17 16  1  0
 17 15  1  0
 12 11  1  0
 11 10  1  0
 11  9  1  0
  6  5  1  0
  6  4  1  0
 51 86  1  0
 86 87  3  0
 77 88  1  6
 53 89  1  6
M  STY  1   1 SUP
M  SLB  1   1   1
M  SAL   1  1  85
M  SBL   1  2  69  72
M  SMT   1 N
M  END