
  SciTegic09171211542D

 32 34  0  0  0  0            999 V2000
   14.3292   -0.7500    0.0000 N   0  0
   14.3292   -1.5750    0.0000 C   0  0  1  0  0  0
   15.0412   -1.9833    0.0000 C   0  0  2  0  0  0
   15.7532   -1.5750    0.0000 C   0  0
   15.7532   -0.7500    0.0000 C   0  0  1  0  0  0
   15.0412   -0.3333    0.0000 C   0  0
   15.0412    0.4917    0.0000 O   0  0
   13.6135   -0.3396    0.0000 C   0  0  1  0  0  0
   12.9002   -0.7542    0.0000 C   0  0
   13.6153   -1.9885    0.0000 C   0  0
   15.0412   -2.8083    0.0000 C   0  0
   12.9009   -1.5758    0.0000 C   0  0
   12.1875   -1.9887    0.0000 C   0  0
   12.1883   -2.8146    0.0000 C   0  0
   12.9084   -3.2259    0.0000 C   0  0
   13.6188   -2.8106    0.0000 C   0  0
   14.3246   -3.2194    0.0000 C   0  0
   14.3243   -4.0436    0.0000 C   0  0
   15.0393   -4.4569    0.0000 C   0  0
   15.7561   -4.0400    0.0000 C   0  0
   15.7530   -3.2171    0.0000 C   0  0
   11.4749   -3.2290    0.0000 Cl  0  0
   13.6096   -4.4558    0.0000 Cl  0  0
   16.4689   -0.3396    0.0000 C   0  0
   17.1821   -0.7542    0.0000 C   0  0
   17.1811   -1.5784    0.0000 O   0  0
   17.8992   -0.3430    0.0000 O   0  0
   16.1583   -1.4625    0.0000 C   0  0
   12.1846   -0.3438    0.0000 C   0  0
   13.6111    0.4854    0.0000 C   0  0  1  0  0  0
   12.8954    0.8958    0.0000 O   0  0
   14.3243    0.9000    0.0000 C   0  0
 15 16  2  0
 16 10  1  0
  1  8  1  0
 11 17  2  0
  1  6  1  0
 17 18  1  0
  8  9  1  1
 18 19  2  0
  2  3  1  0
 19 20  1  0
  2 10  1  1
 20 21  2  0
 21 11  1  0
  3  4  1  0
 14 22  1  0
  3 11  1  6
 18 23  1  0
  4  5  1  0
  5 24  1  1
 10 12  2  0
 24 25  1  0
  5  6  1  0
 12 13  1  0
 25 26  1  0
 25 27  2  0
  5 28  1  0
 13 14  2  0
  9 29  1  0
  6  7  2  0
  8 30  1  0
 14 15  1  0
 30 31  1  0
  1  2  1  0
 30 32  1  1
M  END