
  SciTegic04021211102D

 26 29  0  0  0  0            999 V2000
    2.2209    1.1668    0.0000 C   0  0
    2.2198    0.3395    0.0000 C   0  0
    2.9358   -0.0754    0.0000 C   0  0
    3.6493    0.3400    0.0000 C   0  0
    3.6464    1.1705    0.0000 C   0  0
    2.9340    1.5817    0.0000 C   0  0
    4.3575    1.5865    0.0000 C   0  0
    5.0750    1.1729    0.0000 C   0  0
    5.7887    1.5896    0.0000 C   0  0
    5.7860    2.4153    0.0000 N   0  0
    5.0635    2.8227    0.0000 C   0  0
    4.3528    2.4079    0.0000 N   0  0
    2.9356   -0.9003    0.0000 O   0  0
    3.6470   -1.3108    0.0000 C   0  0
    4.3629   -0.9007    0.0000 C   0  0
    5.0785   -1.3111    0.0000 C   0  0
    5.7957   -0.8964    0.0000 O   0  0
    6.5130   -0.4845    0.0000 C   0  0
    7.2188   -0.9038    0.0000 C   0  0
    7.9356   -0.4927    0.0000 C   0  0
    7.9392    0.3332    0.0000 C   0  0
    7.2198    0.7502    0.0000 C   0  0
    6.5103    0.3366    0.0000 C   0  0
    7.2199    1.5751    0.0000 S   0  0
    2.9315    2.4064    0.0000 C   0  0
    5.0573    3.6474    0.0000 N   0  0
  6  1  1  0
  3 13  1  0
  1  2  2  0
 13 14  1  0
  3  4  2  0
 14 15  1  0
  7  8  2  0
 15 16  1  0
 16 17  1  0
  8  9  1  0
 17 18  1  0
  4  5  1  0
 18 19  2  0
  9 10  2  0
 19 20  1  0
  2  3  1  0
 20 21  2  0
 10 11  1  0
 21 22  1  0
  5  6  2  0
 22 23  2  0
 23 18  1  0
 11 12  2  0
 22 24  1  0
  9 24  1  0
 12  7  1  0
  6 25  1  0
  5  7  1  0
 11 26  1  0
M  END