
  SciTegic11201313502D

 17 18  0  0  0  0            999 V2000
   -2.6583    0.5442    0.0000 C   0  0
   -3.9817    0.1489    0.0000 N   0  0
   -1.8333    0.5442    0.0000 C   0  0
   -3.0594   -0.1776    0.0000 C   0  0
   -1.4208   -0.1776    0.0000 C   0  0
   -3.2770   -1.0886    0.0000 C   0  0
   -3.2828   -1.9136    0.0000 C   0  0
   -0.5958   -0.1776    0.0000 C   0  0
   -3.9875   -0.6761    0.0000 C   0  0
   -3.3286    0.3208    0.0000 C   0  0
   -0.1833   -0.8823    0.0000 O   0  0
   -4.6177   -0.0745    0.0000 C   0  0
   -2.6583    1.3692    0.0000 C   0  0
   -1.4208    1.2547    0.0000 C   0  0
   -4.2052    0.6473    0.0000 C   0  0
   -0.6016    1.2547    0.0000 C   0  0
   -0.1833    0.5442    0.0000 C   0  0
  2  4  1  0
  3  1  1  0
  4  1  1  0
  5  3  2  0
  6  9  1  0
  7  6  2  0
  8  5  1  0
  9  2  1  0
 10  1  1  0
 11  8  1  0
 12 15  1  0
 13  1  1  0
 14  3  1  0
 15 10  1  0
 16 14  2  0
 17 16  1  0
 12  2  1  0
 17  8  2  0
M  END