
  SciTegic09261415472D

 38 41  0  0  0  0            999 V2000
   10.5193   -8.0042    0.0000 C   0  0
   10.5193   -8.8292    0.0000 C   0  0
   11.2313   -9.2375    0.0000 C   0  0
   11.2313   -7.5875    0.0000 C   0  0
   11.9433   -8.0042    0.0000 C   0  0  1  0  0  0
   11.9444   -8.8292    0.0000 C   0  0
   12.6554   -9.2385    0.0000 C   0  0
   13.3700   -8.8274    0.0000 C   0  0
   12.6533   -7.5885    0.0000 C   0  0  2  0  0  0
   13.3685   -8.0070    0.0000 C   0  0  2  0  0  0
   13.3764   -6.3526    0.0000 C   0  0
   12.6541   -6.7621    0.0000 C   0  0  2  0  0  0
   14.0917   -6.7711    0.0000 C   0  0  2  0  0  0
   14.0835   -7.6006    0.0000 C   0  0  1  0  0  0
   14.8699   -7.8647    0.0000 C   0  0
    9.8054   -9.2427    0.0000 O   0  0
   12.6484   -8.4125    0.0000 H   0  0
   11.9359   -7.1792    0.0000 C   0  0
   11.9415   -6.3465    0.0000 O   0  0
   14.0859   -5.9459    0.0000 C   0  0
   14.8831   -6.5226    0.0000 C   0  0  1  0  0  0
   15.3606   -7.1966    0.0000 C   0  0
   15.3766   -5.8603    0.0000 O   0  0
   14.6651   -5.7209    0.0000 C   0  0
   15.2463   -5.1354    0.0000 C   0  0
   13.8674   -5.5103    0.0000 O   0  0
   15.0299   -4.3393    0.0000 O   0  0
   15.6111   -3.7538    0.0000 C   0  0
   16.4088   -3.9644    0.0000 O   0  0
   15.3947   -2.9577    0.0000 N   0  0
   15.9759   -2.3722    0.0000 C   0  0
   14.5970   -2.7471    0.0000 C   0  0
   14.3806   -1.9510    0.0000 C   0  0
   15.7595   -1.5761    0.0000 C   0  0
   16.3407   -0.9906    0.0000 Cl  0  0
   13.5829   -1.7404    0.0000 Cl  0  0
   13.3609   -7.1792    0.0000 H   0  0
   14.0776   -8.4250    0.0000 H   0  0
  1  2  1  0
  1  4  1  0
  2  3  1  0
  3  6  2  0
  5  4  1  0
  5  6  1  0
  5  9  1  0
  6  7  1  0
  7  8  1  0
  8 10  1  0
  9 10  1  0
  9 12  1  0
 10 14  1  0
 13 11  1  0
 11 12  1  0
 13 14  1  0
 14 15  1  0
 15 22  1  0
 21 13  1  0
  2 16  2  0
  9 17  1  6
  5 18  1  1
 12 19  1  1
 13 20  1  1
 21 22  1  0
 21 23  1  0
 21 24  1  1
 24 25  1  0
 24 26  2  0
 25 27  1  0
 27 28  1  0
 28 29  2  0
 28 30  1  0
 30 31  1  0
 30 32  1  0
 32 33  1  0
 31 34  1  0
 34 35  1  0
 33 36  1  0
 10 37  1  1
 14 38  1  6
M  END