
  SciTegic11201309402D

 22 25  0  0  1  0            999 V2000
   -0.0409   -1.5527    0.0000 C   0  0
   -0.0347   -0.2168    0.0000 C   0  0  2  0  0  0
   -0.5200   -0.8827    0.0000 C   0  0
    0.7509   -0.4767    0.0000 C   0  0  1  0  0  0
    0.7449   -1.3017    0.0000 N   0  0
    1.5278   -1.5623    0.0000 C   0  0
    2.0176   -0.8984    0.0000 C   0  0
    1.5374   -0.2275    0.0000 C   0  0
   -0.2870    0.5686    0.0000 C   0  0
   -1.0932    0.7429    0.0000 N   0  0
   -1.3455    1.5284    0.0000 C   0  0
   -2.1518    1.7026    0.0000 C   0  0
   -0.7914    2.1395    0.0000 O   0  0
   -2.3992    2.4893    0.0000 C   0  0
   -3.2047    2.6636    0.0000 C   0  0
   -3.7596    2.0522    0.0000 C   0  0
   -2.6987    1.0928    0.0000 C   0  0
   -3.5075    1.2657    0.0000 N   0  0
   -3.9219    0.5498    0.0000 C   0  0
   -3.3692   -0.0655    0.0000 C   0  0
   -2.6132    0.2702    0.0000 N   0  0
    0.7572    0.5233    0.0000 H   0  0
  9 10  1  0
  4  2  1  0
 10 11  1  0
  2  3  1  0
 11 12  1  0
  3  1  1  0
 11 13  2  0
  5  6  1  0
 12 14  2  0
  6  7  1  0
 14 15  1  0
  7  8  1  0
 15 16  2  0
 16 18  1  0
 17 12  1  0
 17 18  1  0
  4  8  1  0
  4  5  1  0
  1  5  1  0
  2  9  1  1
 18 19  1  0
 19 20  2  0
 20 21  1  0
 21 17  2  0
  4 22  1  1
M  END