
          11280714472D 1   1.00000     0.00000     0

 39 41  0     1  0            999 V2000
    2.7667   -1.0417    0.0000 C   0  0  0  0  0  0           0  0  0
   -1.9208    0.6083    0.0000 N   0  3  0  0  0  0           0  0  0
   -2.0958   -0.2042    0.0000 C   0  0  0  0  0  0           0  0  0
    1.3417   -1.0417    0.0000 O   0  0  0  0  0  0           0  0  0
    2.0542   -0.6292    0.0000 C   0  0  1  0  0  0           0  0  0
    0.6292   -0.6292    0.0000 C   0  0  1  0  0  0           0  0  0
    3.5917   -0.9542    0.0000 N   0  0  3  0  0  0           0  0  0
   -1.4833   -0.7542    0.0000 C   0  0  0  0  0  0           0  0  0
    3.3167   -2.2625    0.0000 N   0  0  0  0  0  0           0  0  0
   -0.0833   -1.0417    0.0000 C   0  0  3  0  0  0           0  0  0
    0.6292    0.1958    0.0000 O   0  0  0  0  0  0           0  0  0
   -0.6958   -0.4917    0.0000 O   0  0  0  0  0  0           0  0  0
    3.9292   -1.7042    0.0000 C   0  0  0  0  0  0           0  0  0
    2.6000   -1.8500    0.0000 C   0  0  0  0  0  0           0  0  0
    2.0542    0.1958    0.0000 C   0  0  1  0  0  0           0  0  0
   -1.1458    0.8708    0.0000 O   0  5  0  0  0  0           0  0  0
   -2.8833   -0.4542    0.0000 C   0  0  0  0  0  0           0  0  0
   -2.5333    1.1583    0.0000 O   0  0  0  0  0  0           0  0  0
    6.4417    0.6083    0.0000 C   0  0  0  0  0  0           0  0  0
    1.3417    0.6083    0.0000 C   0  0  0  0  0  0           0  0  0
   -1.6458   -1.5542    0.0000 C   0  0  0  0  0  0           0  0  0
    6.4417    1.4333    0.0000 O   0  0  0  0  0  0           0  0  0
    3.4792    0.1833    0.0000 C   0  0  0  0  0  0           0  0  0
    4.3042    0.1833    0.0000 C   0  0  0  0  0  0           0  0  0
   -3.0458   -1.2667    0.0000 C   0  0  0  0  0  0           0  0  0
    7.1542    0.2083    0.0000 O   0  0  0  0  0  0           0  0  0
   -2.4333   -1.8167    0.0000 C   0  0  0  0  0  0           0  0  0
    4.3042   -0.5375    0.0000 C   0  0  0  0  0  0           0  0  0
    2.7667    0.6083    0.0000 C   0  0  0  0  0  0           0  0  0
   -0.3083   -1.8417    0.0000 C   0  0  0  0  0  0           0  0  0
    0.4917   -1.6292    0.0000 C   0  0  0  0  0  0           0  0  0
    5.7292    0.1958    0.0000 C   0  0  0  0  0  0           0  0  0
    5.0167    0.6083    0.0000 C   0  0  0  0  0  0           0  0  0
   -3.8333   -1.5167    0.0000 C   0  0  0  0  0  0           0  0  0
    5.0167   -0.9417    0.0000 C   0  0  0  0  0  0           0  0  0
    7.1542   -0.5042    0.0000 C   0  0  0  0  0  0           0  0  0
    6.4417   -0.9250    0.0000 C   0  0  0  0  0  0           0  0  0
    5.7292   -0.5167    0.0000 C   0  0  0  0  0  0           0  0  0
    7.8667   -0.9125    0.0000 C   0  0  0  0  0  0           0  0  0
  2  3  1  0     0  0
  3  8  2  0     0  0
  4  5  1  0     0  0
  5  1  1  1     0  0
  6  4  1  0     0  0
  7  1  1  0     0  0
  8 12  1  0     0  0
  9 14  1  0     0  0
  6 10  1  1     0  0
 11 20  1  0     0  0
 12 10  1  0     0  0
 13  7  1  0     0  0
 14  1  2  0     0  0
 15  5  1  0     0  0
 16  2  1  0     0  0
 17  3  1  0     0  0
 18  2  2  0     0  0
 19 32  1  0     0  0
 20 15  1  0     0  0
 21  8  1  0     0  0
 22 19  2  0     0  0
 23 29  1  0     0  0
 24 23  2  0     0  0
 25 27  1  0     0  0
 26 19  1  0     0  0
 27 21  2  0     0  0
 28  7  1  0     0  0
 15 29  1  1     0  0
 30 10  1  0     0  0
 31 10  1  0     0  0
 32 33  1  0     0  0
 33 24  1  0     0  0
 34 25  1  0     0  0
 35 28  1  0     0  0
 36 37  1  0     0  0
 37 38  1  0     0  0
 38 35  1  0     0  0
 39 36  1  0     0  0
 13  9  2  0     0  0
 11  6  1  0     0  0
 25 17  2  0     0  0
M  CHG  2   2   1  16  -1
M  END