
          08180812472D 1   1.00000     0.00000     0

 43 49  0     1  0            999 V2000
   -1.5874  -11.2475    0.0000 N   0  0  0  0  0  0           0  0  0
   -1.5887  -12.0750    0.0000 C   0  0  0  0  0  0           0  0  0
   -0.8757  -12.4880    0.0000 N   0  0  0  0  0  0           0  0  0
   -0.8777  -10.8347    0.0000 C   0  0  0  0  0  0           0  0  0
   -0.1595  -11.2434    0.0000 C   0  0  0  0  0  0           0  0  0
   -0.1543  -12.0750    0.0000 C   0  0  0  0  0  0           0  0  0
    0.6381  -12.3271    0.0000 N   0  0  3  0  0  0           0  0  0
    1.1228  -11.6513    0.0000 C   0  0  0  0  0  0           0  0  0
    0.6297  -10.9816    0.0000 N   0  0  0  0  0  0           0  0  0
   -2.3037  -12.4865    0.0000 O   0  0  0  0  0  0           0  0  0
   -3.0176  -12.0730    0.0000 C   0  0  0  0  0  0           0  0  0
   -3.0111  -11.2474    0.0000 C   0  0  0  0  0  0           0  0  0
   -3.7242  -10.8339    0.0000 C   0  0  0  0  0  0           0  0  0
   -3.7251  -12.4844    0.0000 C   0  0  0  0  0  0           0  0  0
   -4.4387  -12.0747    0.0000 C   0  0  0  0  0  0           0  0  0
   -4.4381  -11.2419    0.0000 C   0  0  0  0  0  0           0  0  0
   -5.2299  -10.9839    0.0000 C   0  0  0  0  0  0           0  0  0
   -5.7200  -11.6573    0.0000 C   0  0  0  0  0  0           0  0  0
   -5.2309  -12.3314    0.0000 C   0  0  0  0  0  0           0  0  0
   -0.8815  -10.0097    0.0000 N   0  0  0  0  0  0           0  0  0
   -0.1691   -9.5939    0.0000 C   0  0  1  0  0  0           0  0  0
   -0.1729   -8.7689    0.0000 C   0  0  0  0  0  0           0  0  0
    0.5474  -10.0029    0.0000 C   0  0  0  0  0  0           0  0  0
    1.2599   -9.5871    0.0000 O   0  0  0  0  0  0           0  0  0
    0.5397   -8.3531    0.0000 C   0  0  0  0  0  0           0  0  0
    1.2544   -8.7632    0.0000 C   0  0  0  0  0  0           0  0  0
    1.9665   -8.3481    0.0000 C   0  0  0  0  0  0           0  0  0
    1.9631   -7.5222    0.0000 C   0  0  0  0  0  0           0  0  0
    1.2417   -7.1133    0.0000 C   0  0  0  0  0  0           0  0  0
    0.5325   -7.5307    0.0000 C   0  0  0  0  0  0           0  0  0
    0.8979  -13.1101    0.0000 C   0  0  0  0  0  0           0  0  0
    1.7059  -13.2768    0.0000 C   0  0  0  0  0  0           0  0  0
    1.9616  -14.0590    0.0000 C   0  0  0  0  0  0           0  0  0
    2.7688  -14.2257    0.0000 C   0  0  0  0  0  0           0  0  0
    3.3179  -13.6089    0.0000 C   0  0  0  0  0  0           0  0  0
    3.0544  -12.8226    0.0000 C   0  0  0  0  0  0           0  0  0
    2.2477  -12.6596    0.0000 C   0  0  0  0  0  0           0  0  0
    4.1233  -13.7739    0.0000 C   0  0  0  0  0  0           0  0  0
    4.3833  -14.5580    0.0000 C   0  0  0  0  0  0           0  0  0
    5.1907  -14.7237    0.0000 C   0  0  0  0  0  0           0  0  0
    5.7390  -14.1062    0.0000 C   0  0  0  0  0  0           0  0  0
    5.4744  -13.3202    0.0000 C   0  0  0  0  0  0           0  0  0
    4.6675  -13.1583    0.0000 C   0  0  0  0  0  0           0  0  0
  4 20  1  0     0  0
  4  1  1  0     0  0
 20 21  1  0     0  0
  2 10  1  0     0  0
 21 22  1  1     0  0
  5  6  1  0     0  0
 21 23  1  0     0  0
 10 11  1  0     0  0
 23 24  1  0     0  0
 22 25  1  0     0  0
 11 12  2  0     0  0
 25 26  2  0     0  0
  2  3  1  0     0  0
 26 27  1  0     0  0
 12 13  1  0     0  0
 27 28  2  0     0  0
 13 16  2  0     0  0
 28 29  1  0     0  0
  3  6  2  0     0  0
 29 30  2  0     0  0
 30 25  1  0     0  0
 15 14  2  0     0  0
  7 31  1  0     0  0
 14 11  1  0     0  0
 31 32  1  0     0  0
 15 16  1  0     0  0
 32 33  2  0     0  0
  1  2  2  0     0  0
 33 34  1  0     0  0
  5  4  2  0     0  0
 34 35  2  0     0  0
  6  7  1  0     0  0
 35 36  1  0     0  0
  7  8  1  0     0  0
 36 37  2  0     0  0
 37 32  1  0     0  0
  8  9  2  0     0  0
 16 17  1  0     0  0
 38 39  2  0     0  0
 17 18  1  0     0  0
 39 40  1  0     0  0
 18 19  1  0     0  0
 40 41  2  0     0  0
 19 15  1  0     0  0
 41 42  1  0     0  0
  9  5  1  0     0  0
 42 43  2  0     0  0
 43 38  1  0     0  0
 35 38  1  0     0  0
M  END