
          11280715132D 1   1.00000     0.00000     0

 28 30  0     0  0            999 V2000
    6.1292   -5.8917    0.0000 C   0  0  0  0  0  0           0  0  0
    1.4292   -6.6167    0.0000 N   0  0  3  0  0  0           0  0  0
    5.4167   -5.4792    0.0000 C   0  0  0  0  0  0           0  0  0
    6.1292   -6.7250    0.0000 C   0  0  0  0  0  0           0  0  0
    0.7167   -6.2042    0.0000 C   0  0  0  0  0  0           0  0  0
    2.8542   -7.4375    0.0000 N   0  0  3  0  0  0           0  0  0
    6.8417   -7.1375    0.0000 N   0  0  0  0  0  0           0  0  0
    1.4292   -7.4417    0.0000 C   0  0  0  0  0  0           0  0  0
    2.1500   -6.2042    0.0000 C   0  0  0  0  0  0           0  0  0
    4.7042   -5.8917    0.0000 O   0  0  0  0  0  0           0  0  0
    0.7167   -5.3750    0.0000 C   0  0  0  0  0  0           0  0  0
    5.4167   -4.6542    0.0000 N   0  0  0  0  0  0           0  0  0
    5.7167   -7.4292    0.0000 N   0  0  0  0  0  0           0  0  0
    2.1417   -7.8500    0.0000 C   0  0  0  0  0  0           0  0  0
    2.8542   -6.6167    0.0000 C   0  0  0  0  0  0           0  0  0
    6.8417   -5.4792    0.0000 C   0  0  0  0  0  0           0  0  0
    1.4292   -4.9542    0.0000 O   0  0  0  0  0  0           0  0  0
    3.5750   -7.8500    0.0000 C   0  0  0  0  0  0           0  0  0
    4.2875   -7.4375    0.0000 C   0  0  0  0  0  0           0  0  0
    0.0000   -6.6167    0.0000 C   0  0  0  0  0  0           0  0  0
    7.5625   -6.7167    0.0000 C   0  0  0  0  0  0           0  0  0
    5.0042   -7.8500    0.0000 C   0  0  0  0  0  0           0  0  0
    0.0000   -4.9625    0.0000 C   0  0  0  0  0  0           0  0  0
    6.1292   -4.2417    0.0000 C   0  0  0  0  0  0           0  0  0
    2.1417   -5.3667    0.0000 C   0  0  0  0  0  0           0  0  0
    7.5542   -5.8917    0.0000 C   0  0  0  0  0  0           0  0  0
   -0.7125   -6.2042    0.0000 C   0  0  0  0  0  0           0  0  0
   -0.7125   -5.3750    0.0000 C   0  0  0  0  0  0           0  0  0
  2  9  1  0     0  0
  3  1  1  0     0  0
  4  1  2  0     0  0
  5  2  1  0     0  0
  6 18  1  0     0  0
  7  4  1  0     0  0
  8 14  1  0     0  0
  9 15  1  0     0  0
 10  3  2  0     0  0
 11  5  1  0     0  0
 12  3  1  0     0  0
 13  4  1  0     0  0
 14  6  1  0     0  0
 15  6  1  0     0  0
 16  1  1  0     0  0
 17 11  1  0     0  0
 18 19  1  0     0  0
 19 22  1  0     0  0
 20  5  2  0     0  0
 21 26  1  0     0  0
 22 13  1  0     0  0
 23 11  2  0     0  0
 24 12  1  0     0  0
 25 17  1  0     0  0
 26 16  2  0     0  0
 27 20  1  0     0  0
 28 27  2  0     0  0
 21  7  2  0     0  0
  2  8  1  0     0  0
 28 23  1  0     0  0
M  END