
          11280714522D 1   1.00000     0.00000     0

 15 15  0     0  0            999 V2000
    5.2875   -3.8917    0.0000 C   0  0  0  0  0  0           0  0  0
    4.7667   -4.8042    0.0000 C   0  0  0  0  0  0           0  0  0
    5.2875   -4.5000    0.0000 C   0  0  0  0  0  0           0  0  0
    4.2500   -4.5042    0.0000 C   0  0  0  0  0  0           0  0  0
    4.7667   -3.5917    0.0000 C   0  0  0  0  0  0           0  0  0
    4.2500   -3.9000    0.0000 C   0  0  0  0  0  0           0  0  0
    5.8042   -3.5917    0.0000 C   0  0  0  0  0  0           0  0  0
    5.8042   -4.7917    0.0000 O   0  0  0  0  0  0           0  0  0
    3.7292   -4.8000    0.0000 O   0  0  0  0  0  0           0  0  0
    6.8417   -3.5875    0.0000 N   0  0  0  0  0  0           0  0  0
    6.3250   -3.8875    0.0000 C   0  0  3  0  0  0           0  0  0
    3.7292   -3.6000    0.0000 C   0  0  0  0  0  0           0  0  0
    3.7292   -5.4000    0.0000 C   0  0  0  0  0  0           0  0  0
    5.8042   -5.3917    0.0000 C   0  0  0  0  0  0           0  0  0
    6.3250   -4.4917    0.0000 C   0  0  0  0  0  0           0  0  0
  2  3  2  0     0  0
  3  1  1  0     0  0
  4  6  2  0     0  0
  5  1  2  0     0  0
  6  5  1  0     0  0
  7  1  1  0     0  0
  8  3  1  0     0  0
  9  4  1  0     0  0
 10 11  1  0     0  0
 11  7  1  0     0  0
 12  6  1  0     0  0
 13  9  1  0     0  0
 14  8  1  0     0  0
 15 11  1  0     0  0
  2  4  1  0     0  0
M  END