
  SciTegic04191613082D

 33 32  0  0  0  0            999 V2000
    1.2990   -0.7500    0.0000 C   0  0
    1.2990    0.7500    0.0000 C   0  0
    0.0000    1.5000    0.0000 C   0  0
   -1.2990    0.7500    0.0000 C   0  0
   -1.2990   -0.7500    0.0000 C   0  0
    0.0000   -1.5000    0.0000 N   0  3
   -2.6003   -1.4978    0.0000 C   0  0
   -3.8990   -0.7455    0.0000 C   0  0
   -5.2003   -1.4932    0.0000 C   0  0
   -6.4990   -0.7410    0.0000 C   0  0
   -7.8003   -1.4887    0.0000 C   0  0
   -9.0990   -0.7365    0.0000 C   0  0
    2.6003   -1.4977    0.0000 C   0  0
    3.8990   -0.7455    0.0000 C   0  0
    5.2003   -1.4932    0.0000 C   0  0
    6.4990   -0.7409    0.0000 C   0  0
    7.8003   -1.4887    0.0000 C   0  0
    9.0990   -0.7364    0.0000 C   0  0
    0.0000   -2.7000    0.0000 C   0  0
  -10.4003   -1.4842    0.0000 C   0  0
   10.4003   -1.4841    0.0000 C   0  0
  -11.6989   -0.7319    0.0000 C   0  0
   11.6990   -0.7319    0.0000 C   0  0
  -12.7394   -1.3298    0.0000 C   0  0
   12.7394   -1.3297    0.0000 C   0  0
   16.8002   -0.3754    0.0000 C   0  0
   18.1002   -1.1254    0.0000 S   0  0
   15.7608   -0.9750    0.0000 F   0  0
   16.8002    0.8246    0.0000 F   0  0
   15.7611    0.2248    0.0000 F   0  0
   18.1002   -2.3254    0.0000 O   0  5
   19.1396   -0.5257    0.0000 O   0  0
   19.1394   -1.7255    0.0000 O   0  0
  1  2  2  0
  2  3  1  0
  3  4  2  0
  4  5  1  0
  5  6  2  0
  6  1  1  0
  5  7  1  0
  7  8  1  0
  8  9  1  0
  9 10  1  0
 10 11  1  0
 11 12  1  0
  1 13  1  0
 13 14  1  0
 14 15  1  0
 15 16  1  0
 16 17  1  0
 17 18  1  0
  6 19  1  0
 12 20  1  0
 18 21  1  0
 20 22  1  0
 21 23  1  0
 22 24  1  0
 23 25  1  0
 26 27  1  0
 26 28  1  0
 26 29  1  0
 26 30  1  0
 27 31  1  0
 27 32  2  0
 27 33  2  0
M  CHG  2   6   1  31  -1
M  END