
          05080814042D 1   1.00000     0.00000     0

 40 44  0     1  0            999 V2000
   -4.6357  -24.2488    0.0000 C   0  0  0  0  0  0           0  0  0
   -5.3465  -24.6637    0.0000 C   0  0  0  0  0  0           0  0  0
   -5.3395  -25.4900    0.0000 C   0  0  0  0  0  0           0  0  0
   -4.6256  -25.8935    0.0000 C   0  0  0  0  0  0           0  0  0
   -3.9224  -24.6560    0.0000 C   0  0  0  0  0  0           0  0  0
   -3.9164  -25.4837    0.0000 C   0  0  0  0  0  0           0  0  0
   -3.2005  -25.8901    0.0000 C   0  0  0  0  0  0           0  0  0
   -3.2126  -24.2347    0.0000 C   0  0  0  0  0  0           0  0  0
   -2.4922  -24.6456    0.0000 C   0  0  2  0  0  0           0  0  0
   -2.4876  -25.4752    0.0000 C   0  0  2  0  0  0           0  0  0
   -1.7709  -25.8838    0.0000 N   0  0  3  0  0  0           0  0  0
   -1.0540  -25.4673    0.0000 C   0  0  0  0  0  0           0  0  0
   -1.0586  -24.6377    0.0000 C   0  0  1  0  0  0           0  0  0
   -1.7800  -24.2246    0.0000 C   0  0  0  0  0  0           0  0  0
   -2.5000  -23.8167    0.0000 H   0  0  0  0  0  0           0  0  0
   -2.4958  -26.3000    0.0000 H   0  0  0  0  0  0           0  0  0
   -0.3460  -24.2220    0.0000 C   0  0  0  0  0  0           0  0  0
    0.3703  -24.6313    0.0000 N   0  0  3  0  0  0           0  0  0
   -0.3497  -23.3970    0.0000 O   0  0  0  0  0  0           0  0  0
    0.3680  -25.4595    0.0000 C   0  0  0  0  0  0           0  0  0
    1.0802  -25.8687    0.0000 C   0  0  0  0  0  0           0  0  0
    1.7953  -25.4565    0.0000 N   0  0  3  0  0  0           0  0  0
    1.7936  -24.6306    0.0000 C   0  0  0  0  0  0           0  0  0
    1.0768  -24.2168    0.0000 C   0  0  0  0  0  0           0  0  0
   -4.6397  -23.4238    0.0000 O   0  0  0  0  0  0           0  0  0
   -5.3561  -23.0148    0.0000 C   0  0  0  0  0  0           0  0  0
   -1.7675  -26.7088    0.0000 C   0  0  0  0  0  0           0  0  0
    2.5100  -25.8686    0.0000 C   0  0  0  0  0  0           0  0  0
    2.5061  -26.6927    0.0000 C   0  0  0  0  0  0           0  0  0
    3.2200  -27.1047    0.0000 C   0  0  0  0  0  0           0  0  0
    3.9352  -26.6916    0.0000 C   0  0  0  0  0  0           0  0  0
    3.9320  -25.8624    0.0000 C   0  0  0  0  0  0           0  0  0
    3.2175  -25.4542    0.0000 C   0  0  0  0  0  0           0  0  0
    4.6505  -27.1027    0.0000 C   0  0  0  0  0  0           0  0  0
    4.6522  -27.9277    0.0000 O   0  0  0  0  0  0           0  0  0
    5.3641  -26.6888    0.0000 N   0  0  3  0  0  0           0  0  0
    6.0794  -27.0998    0.0000 C   0  0  0  0  0  0           0  0  0
    5.3625  -25.8638    0.0000 C   0  0  0  0  0  0           0  0  0
    6.0761  -25.4498    0.0000 C   0  0  0  0  0  0           0  0  0
    6.7931  -26.6859    0.0000 C   0  0  0  0  0  0           0  0  0
 17 19  2  0     0  0
 18 20  1  0     0  0
  9 10  1  0     0  0
  3  4  2  0     0  0
  4  6  1  0     0  0
  5  6  2  0     0  0
  1  2  2  0     0  0
 18 24  1  0     0  0
 20 21  1  0     0  0
 21 22  1  0     0  0
 22 23  1  0     0  0
 23 24  1  0     0  0
  5  1  1  0     0  0
  1 25  1  0     0  0
  2  3  1  0     0  0
 25 26  1  0     0  0
  9 14  1  0     0  0
 11 27  1  0     0  0
 10 11  1  0     0  0
 22 28  1  0     0  0
 11 12  1  0     0  0
 28 29  2  0     0  0
 12 13  1  0     0  0
 29 30  1  0     0  0
 13 14  1  0     0  0
 30 31  2  0     0  0
 31 32  1  0     0  0
  9 15  1  6     0  0
 32 33  2  0     0  0
 33 28  1  0     0  0
  5  8  1  0     0  0
 31 34  1  0     0  0
 10 16  1  1     0  0
 34 35  2  0     0  0
  6  7  1  0     0  0
 34 36  1  0     0  0
 13 17  1  1     0  0
 36 37  1  0     0  0
  7 10  1  0     0  0
 36 38  1  0     0  0
 17 18  1  0     0  0
 38 39  1  0     0  0
  9  8  1  0     0  0
 37 40  1  0     0  0
M  END