
  SciTegic09261414462D

 30 33  0  0  0  0            999 V2000
   19.6208  -12.7944    0.0000 O   0  0
   18.8325  -13.0090    0.0000 S   0  0
   19.4126  -13.5844    0.0000 O   0  0
   16.0164  -14.6558    0.0000 C   0  0
   16.0152  -15.4753    0.0000 C   0  0
   16.7233  -15.8843    0.0000 C   0  0
   16.7215  -14.2469    0.0000 C   0  0
   17.4301  -14.6522    0.0000 C   0  0
   17.4308  -15.4712    0.0000 C   0  0
   18.1394  -15.8782    0.0000 C   0  0
   18.8476  -15.4674    0.0000 C   0  0
   18.8429  -14.6453    0.0000 C   0  0
   18.1338  -14.2419    0.0000 C   0  0
   18.1411  -16.6954    0.0000 O   0  0
   19.5569  -15.8733    0.0000 S   0  0
   18.1295  -13.4247    0.0000 N   0  0
   18.8307  -12.1952    0.0000 C   0  0
   19.5403  -11.7863    0.0000 C   0  0
   19.5363  -10.9699    0.0000 C   0  0
   18.8259  -10.5672    0.0000 C   0  0
   18.1180  -10.9809    0.0000 C   0  0
   18.1255  -11.7960    0.0000 C   0  0
   19.5601  -16.6904    0.0000 C   0  0
   18.8205   -9.7500    0.0000 C   0  0
   19.5254   -9.3367    0.0000 C   0  0
   18.1101   -9.3462    0.0000 C   0  0
   18.9046  -17.1761    0.0000 N   0  0
   19.1601  -17.9524    0.0000 C   0  0
   19.9774  -17.9492    0.0000 N   0  0
   20.2267  -17.1710    0.0000 N   0  0
  2  1  2  0
  3  2  2  0
  4  5  2  0
  5  6  1  0
  6  9  2  0
  8  7  2  0
  7  4  1  0
  8  9  1  0
  9 10  1  0
 10 11  2  0
 11 12  1  0
 12 13  2  0
 13  8  1  0
 10 14  1  0
 11 15  1  0
 13 16  1  0
 16  2  1  0
  2 17  1  0
 17 18  2  0
 18 19  1  0
 19 20  2  0
 20 21  1  0
 21 22  2  0
 22 17  1  0
 15 23  1  0
 20 24  1  0
 24 25  1  0
 24 26  1  0
 23 27  1  0
 27 28  2  0
 28 29  1  0
 29 30  1  0
 30 23  2  0
M  END