
  Mrv0541 04051115152D          

 35 38  0  0  0  0            999 V2000
   -1.1828    0.2688    0.0000 N   0  0  0  0  0  0  0  0  0  0  0  0
   -1.1828   -0.5562    0.0000 C   0  0  0  0  0  0  0  0  0  0  0  0
   -0.4683   -0.9687    0.0000 N   0  0  0  0  0  0  0  0  0  0  0  0
    0.2461   -0.5562    0.0000 C   0  0  0  0  0  0  0  0  0  0  0  0
    0.2461    0.2688    0.0000 C   0  0  0  0  0  0  0  0  0  0  0  0
   -0.4683    0.6813    0.0000 C   0  0  0  0  0  0  0  0  0  0  0  0
    3.1040    0.2688    0.0000 C   0  0  0  0  0  0  0  0  0  0  0  0
    5.9619   -0.5562    0.0000 C   0  0  0  0  0  0  0  0  0  0  0  0
    5.2474   -1.7937    0.0000 C   0  0  0  0  0  0  0  0  0  0  0  0
   -4.4914   -1.5768    0.0000 C   0  0  0  0  0  0  0  0  0  0  0  0
   -3.3262    3.1563    0.0000 C   0  0  0  0  0  0  0  0  0  0  0  0
    0.9606   -0.9687    0.0000 C   0  0  0  0  0  0  0  0  0  0  0  0
    0.9606    0.6813    0.0000 C   0  0  0  0  0  0  0  0  0  0  0  0
    3.8185   -0.9687    0.0000 C   0  0  0  0  0  0  0  0  0  0  0  0
   -2.4404   -2.3525    0.0000 C   0  0  0  0  0  0  0  0  0  0  0  0
    3.1040   -0.5562    0.0000 C   0  0  0  0  0  0  0  0  0  0  0  0
   -1.8973    1.5063    0.0000 C   0  0  0  0  0  0  0  0  0  0  0  0
   -1.1828    2.7438    0.0000 C   0  0  0  0  0  0  0  0  0  0  0  0
    4.5330   -0.5562    0.0000 C   0  0  0  0  0  0  0  0  0  0  0  0
   -3.2562   -2.2296    0.0000 C   0  0  0  0  0  0  0  0  0  0  0  0
   -1.8356   -1.7914    0.0000 C   0  0  0  0  0  0  0  0  0  0  0  0
   -2.6117    1.9188    0.0000 C   0  0  0  0  0  0  0  0  0  0  0  0
   -1.8973    3.1563    0.0000 C   0  0  0  0  0  0  0  0  0  0  0  0
   -3.3673   -0.7471    0.0000 C   0  0  0  0  0  0  0  0  0  0  0  0
   -2.5789   -0.5040    0.0000 C   0  0  0  0  0  0  0  0  0  0  0  0
   -0.4683    1.5063    0.0000 N   0  0  0  0  0  0  0  0  0  0  0  0
    2.3896    0.6813    0.0000 O   0  0  0  0  0  0  0  0  0  0  0  0
    2.3896   -0.9687    0.0000 O   0  0  0  0  0  0  0  0  0  0  0  0
    1.6751    0.2688    0.0000 C   0  0  0  0  0  0  0  0  0  0  0  0
    1.6751   -0.5562    0.0000 C   0  0  0  0  0  0  0  0  0  0  0  0
   -1.1828    1.9188    0.0000 C   0  0  0  0  0  0  0  0  0  0  0  0
    5.2474   -0.9687    0.0000 N   0  0  0  0  0  0  0  0  0  0  0  0
   -3.6687   -1.5151    0.0000 N   0  0  0  0  0  0  0  0  0  0  0  0
   -2.6117    2.7438    0.0000 N   0  0  0  0  0  0  0  0  0  0  0  0
   -1.8973   -0.9687    0.0000 N   0  0  0  0  0  0  0  0  0  0  0  0
  2  1  2  0  0  0  0
  6  1  1  0  0  0  0
  2  3  1  0  0  0  0
  2 35  1  0  0  0  0
  4  3  2  0  0  0  0
  4  5  1  0  0  0  0
  4 12  1  0  0  0  0
  5  6  2  0  0  0  0
  5 13  1  0  0  0  0
  6 26  1  0  0  0  0
  7 27  1  0  0  0  0
  8 32  1  0  0  0  0
  9 32  1  0  0  0  0
 10 33  1  0  0  0  0
 11 34  1  0  0  0  0
 12 30  2  0  0  0  0
 13 29  2  0  0  0  0
 14 16  1  0  0  0  0
 14 19  1  0  0  0  0
 15 20  1  0  0  0  0
 15 21  1  0  0  0  0
 16 28  1  0  0  0  0
 17 22  1  0  0  0  0
 17 31  1  0  0  0  0
 18 23  1  0  0  0  0
 18 31  1  0  0  0  0
 19 32  1  0  0  0  0
 20 33  1  0  0  0  0
 21 35  1  0  0  0  0
 22 34  1  0  0  0  0
 23 34  1  0  0  0  0
 24 25  1  0  0  0  0
 24 33  1  0  0  0  0
 25 35  1  0  0  0  0
 31 26  1  0  0  0  0
 29 27  1  0  0  0  0
 30 28  1  0  0  0  0
 29 30  1  0  0  0  0
M  END