
          11280715482D 1   1.00000     0.00000     0

 30 34  0     0  0            999 V2000
    3.3167   -0.9667    0.0000 C   0  0  0  0  0  0           0  0  0
    2.5667   -0.6250    0.0000 N   0  0  0  0  0  0           0  0  0
    3.2250   -1.7875    0.0000 C   0  0  0  0  0  0           0  0  0
    4.0375   -0.5542    0.0000 C   0  0  0  0  0  0           0  0  0
    2.4167   -1.9542    0.0000 N   0  0  0  0  0  0           0  0  0
    2.0042   -1.2375    0.0000 C   0  0  0  0  0  0           0  0  0
    4.2667   -3.7042    0.0000 C   0  0  3  0  0  0           0  0  0
    4.7500   -0.9750    0.0000 N   0  0  0  0  0  0           0  0  0
    7.6000   -1.0000    0.0000 C   0  0  0  0  0  0           0  0  0
    6.8917   -0.5792    0.0000 C   0  0  0  0  0  0           0  0  0
    4.8667   -5.1917    0.0000 C   0  0  3  0  0  0           0  0  0
    5.5750   -4.0417    0.0000 C   0  0  3  0  0  0           0  0  0
    4.4417   -4.9625    0.0000 C   0  0  3  0  0  0           0  0  0
    4.0417    0.2708    0.0000 O   0  0  0  0  0  0           0  0  0
    3.8292   -2.3417    0.0000 C   0  0  0  0  0  0           0  0  0
    5.4667   -0.5667    0.0000 C   0  0  0  0  0  0           0  0  0
    6.1750   -0.9917    0.0000 C   0  0  0  0  0  0           0  0  0
    3.9042   -4.3792    0.0000 C   0  0  0  0  0  0           0  0  0
    5.0292   -3.4292    0.0000 C   0  0  0  0  0  0           0  0  0
    4.2917   -4.5667    0.0000 C   0  0  0  0  0  0           0  0  0
    7.5917   -1.8250    0.0000 O   0  0  0  0  0  0           0  0  0
    3.6542   -3.1500    0.0000 C   0  0  0  0  0  0           0  0  0
    5.6292   -4.9125    0.0000 C   0  0  0  0  0  0           0  0  0
    4.4292   -5.9000    0.0000 C   0  0  0  0  0  0           0  0  0
    5.1417   -4.6792    0.0000 C   0  0  0  0  0  0           0  0  0
    8.3167   -0.5917    0.0000 O   0  0  0  0  0  0           0  0  0
    1.1917   -1.1417    0.0000 C   0  0  0  0  0  0           0  0  0
    6.8917    0.2458    0.0000 C   0  0  0  0  0  0           0  0  0
    6.1792    0.6583    0.0000 C   0  0  0  0  0  0           0  0  0
    5.4667    0.2500    0.0000 C   0  0  0  0  0  0           0  0  0
  2  1  1  0     0  0
  3  1  2  0     0  0
  4  1  1  0     0  0
  5  3  1  0     0  0
  6  2  2  0     0  0
  7 22  1  0     0  0
  8  4  1  0     0  0
  9 10  1  0     0  0
 10 17  1  0     0  0
 11 20  1  0     0  0
 12 19  1  0     0  0
 13 18  1  0     0  0
 14  4  2  0     0  0
 15  3  1  0     0  0
 16  8  1  0     0  0
 17 16  2  0     0  0
 18  7  1  0     0  0
 19  7  1  0     0  0
 20  7  1  0     0  0
 21  9  2  0     0  0
 22 15  1  0     0  0
 23 11  1  0     0  0
 24 11  1  0     0  0
 25 12  1  0     0  0
 26  9  1  0     0  0
 27  6  1  0     0  0
 28 29  1  0     0  0
 29 30  2  0     0  0
 30 16  1  0     0  0
  6  5  1  0     0  0
 10 28  2  0     0  0
 13 24  1  0     0  0
 12 23  1  0     0  0
 13 25  1  0     0  0
M  END