
  SciTegic06051315212D

 19 21  0  0  0  0            999 V2000
    4.4766  -24.1814    0.0000 N   0  0
    3.7631  -23.7728    0.0000 C   0  0
    5.1901  -23.7687    0.0000 C   0  0
    5.1901  -22.9474    0.0000 C   0  0
    4.4766  -22.5388    0.0000 C   0  0
    3.7631  -22.9474    0.0000 C   0  0
    3.0537  -22.5388    0.0000 C   0  0
    2.3401  -22.9474    0.0000 C   0  0
    2.3401  -23.7728    0.0000 C   0  0
    3.0537  -24.1814    0.0000 C   0  0
    5.9005  -24.1737    0.0000 C   0  0
    6.6083  -23.7631    0.0000 C   0  0
    7.3157  -24.1708    0.0000 C   0  0
    7.3165  -24.9888    0.0000 C   0  0
    6.6040  -25.3975    0.0000 C   0  0
    5.8995  -24.9876    0.0000 C   0  0
    8.0238  -25.3981    0.0000 Cl  0  0
    4.4766  -21.7216    0.0000 O   0  0
    1.6332  -22.5375    0.0000 N   0  0
 10  2  1  0
  2  6  2  0
  2  1  1  0
  1  3  1  0
  3  4  2  0
  4  5  1  0
  5  6  1  0
  6  7  1  0
  7  8  2  0
  8  9  1  0
  9 10  2  0
 11 12  2  0
 12 13  1  0
 13 14  2  0
 14 15  1  0
 15 16  2  0
 16 11  1  0
  3 11  1  0
 14 17  1  0
  5 18  2  0
  8 19  1  0
M  END