
  SciTegic05071317052D

 28 27  0  0  0  0            999 V2000
   11.7041   -4.2749    0.0000 C   0  0
   11.7041   -5.0999    0.0000 C   0  0
   12.4161   -5.5083    0.0000 N   0  0
   13.1280   -5.0999    0.0000 C   0  0
   13.1280   -4.2749    0.0000 C   0  0
   12.4161   -3.8583    0.0000 N   0  0
   12.4165   -3.0331    0.0000 C   0  0
   13.0839   -2.5481    0.0000 N   0  0
   12.8290   -1.7630    0.0000 C   0  0
   12.0039   -1.7635    0.0000 C   0  0
   11.7491   -2.5481    0.0000 S   0  0
   13.2288   -1.0413    0.0000 C   0  0
   14.0537   -1.0267    0.0000 C   0  0
   14.4533   -0.3050    0.0000 N   0  0
   15.2782   -0.2903    0.0000 C   0  0
   14.0283    0.4063    0.0000 C   0  0
   12.4161   -6.3333    0.0000 C   0  0
   11.7016   -6.7458    0.0000 C   0  0
   11.7016   -7.5708    0.0000 C   0  0
   14.4280    1.1262    0.0000 C   0  0
   15.2527    1.1385    0.0000 C   0  0
   15.6524    1.8593    0.0000 C   0  0
   15.2273    2.5679    0.0000 C   0  0
   14.3981    2.5519    0.0000 C   0  0
   14.0022    1.8316    0.0000 C   0  0
   17.9957   -2.3724    0.0000 Br  0  0
   16.4705   -2.8875    0.0000 Br  0  0
   16.0875   -4.1250    0.0000 Br  0  0
  1  2  1  0
  1  6  1  0
  2  3  1  0
  3  4  1  0
  4  5  1  0
  5  6  1  0
  7  8  2  0
  8  9  1  0
  9 10  2  0
 10 11  1  0
 11  7  1  0
  6  7  1  0
  9 12  1  0
 12 13  1  0
 13 14  1  0
 14 15  1  0
 14 16  1  0
  3 17  1  0
 17 18  1  0
 18 19  1  0
 16 20  1  0
 20 21  2  0
 21 22  1  0
 22 23  2  0
 23 24  1  0
 24 25  2  0
 25 20  1  0
M  END