
  SciTegic04181615532D

 31 36  0  0  0  0            999 V2000
   -2.4915   -1.3190    0.0000 C   0  0
   -3.7006   -0.6045    0.0000 C   0  0
   -3.7006    0.8244    0.0000 N   0  0
   -2.4915    1.5389    0.0000 C   0  0
   -1.2274   -0.6045    0.0000 C   0  0
   -1.2274    0.8244    0.0000 C   0  0
    0.0000   -1.3190    0.0000 N   0  0
    1.2274   -0.6045    0.0000 C   0  0
    1.2274    0.8244    0.0000 C   0  0
    2.4732    1.5389    0.0000 C   0  0
    3.7372    0.8244    0.0000 C   0  0
    3.7372   -0.6045    0.0000 C   0  0
    2.4732   -1.3190    0.0000 C   0  0
    5.0335   -1.3609    0.0000 C   0  0
    5.1716   -2.8415    0.0000 C   0  0
    6.6389   -3.1531    0.0000 N   0  0
    7.3886   -1.8539    0.0000 O   0  0
    6.3847   -0.7394    0.0000 C   0  0
    4.2752   -3.6393    0.0000 C   0  0
    6.6269    0.4360    0.0000 C   0  0
    5.0356    1.5781    0.0000 O   0  0
   -2.5059    3.0395    0.0000 C   0  0
   -1.3024    3.9133    0.0000 C   0  0
   -1.7823    5.3344    0.0000 N   0  0
   -3.2822    5.3171    0.0000 N   0  0
   -3.7293    3.8853    0.0000 C   0  0
   -4.8639    3.4946    0.0000 C   0  0
    0.1275    3.4575    0.0000 C   0  0
    1.1452    2.4709    0.0000 C   0  0
    1.4640    3.9367    0.0000 C   0  0
    5.0337    2.7781    0.0000 C   0  0
  5  1  2  0
  1  2  1  0
  2  3  2  0
  3  4  1  0
  4  6  2  0
  5  6  1  0
  6  9  1  0
  8  7  1  0
  7  5  1  0
  8  9  2  0
  9 10  1  0
 10 11  2  0
 11 12  1  0
 12 13  2  0
 13  8  1  0
 14 15  1  0
 15 16  2  0
 16 17  1  0
 17 18  1  0
 18 14  2  0
 12 14  1  0
 15 19  1  0
 18 20  1  0
 11 21  1  0
 22 23  1  0
 23 24  2  0
 24 25  1  0
 25 26  1  0
 26 22  2  0
  4 22  1  0
 26 27  1  0
 23 28  1  0
 29 28  1  0
 30 29  1  0
 28 30  1  0
 21 31  1  0
M  END