
  SciTegic01181116592D

 44 49  0  0  0  0            999 V2000
   -3.2611  -22.2226    0.0000 C   0  0
   -3.2611  -23.0516    0.0000 C   0  0
   -2.5470  -23.4638    0.0000 C   0  0
   -2.5470  -21.8058    0.0000 C   0  0
   -1.8286  -22.2226    0.0000 C   0  0
   -1.8275  -23.0516    0.0000 C   0  0
   -1.1130  -23.4629    0.0000 C   0  0
   -0.3950  -23.0498    0.0000 C   0  0
   -0.3960  -22.2208    0.0000 C   0  0
   -1.1151  -21.8049    0.0000 C   0  0
    0.3187  -21.8110    0.0000 C   0  0
    1.0326  -22.2252    0.0000 C   0  0
    1.0345  -20.5773    0.0000 C   0  0
    0.3165  -20.9879    0.0000 C   0  0
    1.7483  -20.9915    0.0000 C   0  0
    1.7404  -21.8196    0.0000 C   0  0
    2.4496  -22.2380    0.0000 C   0  0
    3.1711  -21.8333    0.0000 C   0  0
    3.1792  -21.0053    0.0000 C   0  0
    2.4654  -20.5821    0.0000 C   0  0
    0.3190  -23.4620    0.0000 C   0  0
   -3.9760  -21.8121    0.0000 O   0  0
   -3.9750  -23.4638    0.0000 O   0  0
   -1.1172  -20.9805    0.0000 O   0  0
   -1.1131  -24.2873    0.0000 O   0  0
   -0.3971  -20.5751    0.0000 C   0  0
    1.0370  -19.7529    0.0000 O   0  0
    1.0304  -23.0496    0.0000 O   0  0
    3.8974  -20.6006    0.0000 O   0  0
    3.8806  -22.2533    0.0000 O   0  0
   -2.5484  -24.2882    0.0000 C   0  0
   -3.2638  -24.6996    0.0000 C   0  0
    2.4723  -19.7576    0.0000 C   0  0
    3.1894  -19.3517    0.0000 C   0  0
    3.8977  -19.7737    0.0000 C   0  0
    4.6144  -19.3684    0.0000 C   0  0
    4.6219  -18.5434    0.0000 C   0  0
    3.9066  -18.1254    0.0000 C   0  0
    3.1929  -18.5331    0.0000 C   0  0
   -3.9736  -24.2832    0.0000 C   0  0
   -4.6884  -24.6939    0.0000 C   0  0
   -4.6903  -25.5200    0.0000 C   0  0
   -3.9713  -25.9337    0.0000 C   0  0
   -3.2593  -25.5206    0.0000 C   0  0
  8  9  2  0
  8 21  1  0
  9 10  1  0
  1 22  1  0
 11 12  1  0
  2 23  1  0
  5  6  2  0
 10 24  2  0
  7 25  2  0
  1  2  1  0
 14 26  1  0
  1  4  2  0
 13 27  2  0
 11 14  2  0
 12 28  2  0
 12 16  1  0
 19 29  1  0
 15 13  1  0
 18 30  1  0
 13 14  1  0
  3 31  1  0
  9 11  1  0
 31 32  1  0
 15 16  1  0
 20 33  1  0
  2  3  2  0
 33 34  1  0
  3  6  1  0
 34 35  2  0
  5  4  1  0
 35 36  1  0
  5 10  1  0
 36 37  2  0
  6  7  1  0
 37 38  1  0
  7  8  1  0
 38 39  2  0
 39 34  1  0
 15 20  2  0
 32 40  2  0
 16 17  2  0
 40 41  1  0
 17 18  1  0
 41 42  2  0
 18 19  2  0
 42 43  1  0
 19 20  1  0
 43 44  2  0
 44 32  1  0
M  END