
          05080814042D 1   1.00000     0.00000     0

 35 39  0     1  0            999 V2000
    8.6768   -1.1030    0.0000 C   0  0  0  0  0  0           0  0  0
    7.9660   -1.5179    0.0000 C   0  0  0  0  0  0           0  0  0
    7.9730   -2.3442    0.0000 C   0  0  0  0  0  0           0  0  0
    8.6869   -2.7477    0.0000 C   0  0  0  0  0  0           0  0  0
    9.3901   -1.5102    0.0000 C   0  0  0  0  0  0           0  0  0
    9.3961   -2.3379    0.0000 C   0  0  0  0  0  0           0  0  0
   10.1120   -2.7442    0.0000 C   0  0  0  0  0  0           0  0  0
   10.0999   -1.0889    0.0000 C   0  0  0  0  0  0           0  0  0
   10.8203   -1.4997    0.0000 C   0  0  2  0  0  0           0  0  0
   10.8249   -2.3293    0.0000 C   0  0  2  0  0  0           0  0  0
   11.5416   -2.7380    0.0000 N   0  0  3  0  0  0           0  0  0
   12.2585   -2.3215    0.0000 C   0  0  0  0  0  0           0  0  0
   12.2539   -1.4919    0.0000 C   0  0  1  0  0  0           0  0  0
   11.5325   -1.0787    0.0000 C   0  0  0  0  0  0           0  0  0
   10.8125   -0.6708    0.0000 H   0  0  0  0  0  0           0  0  0
   10.8167   -3.1542    0.0000 H   0  0  0  0  0  0           0  0  0
   12.9665   -1.0762    0.0000 C   0  0  0  0  0  0           0  0  0
   13.6828   -1.4855    0.0000 N   0  0  3  0  0  0           0  0  0
   12.9628   -0.2512    0.0000 O   0  0  0  0  0  0           0  0  0
   13.6805   -2.3137    0.0000 C   0  0  0  0  0  0           0  0  0
   14.3927   -2.7229    0.0000 C   0  0  0  0  0  0           0  0  0
   15.1078   -2.3107    0.0000 N   0  0  3  0  0  0           0  0  0
   15.1061   -1.4847    0.0000 C   0  0  0  0  0  0           0  0  0
   14.3893   -1.0710    0.0000 C   0  0  0  0  0  0           0  0  0
    8.6728   -0.2780    0.0000 O   0  0  0  0  0  0           0  0  0
    7.9564    0.1311    0.0000 C   0  0  0  0  0  0           0  0  0
   11.5450   -3.5629    0.0000 C   0  0  0  0  0  0           0  0  0
   15.8225   -2.7227    0.0000 C   0  0  0  0  0  0           0  0  0
   15.8186   -3.5469    0.0000 C   0  0  0  0  0  0           0  0  0
   16.5325   -3.9588    0.0000 C   0  0  0  0  0  0           0  0  0
   17.2477   -3.5458    0.0000 C   0  0  0  0  0  0           0  0  0
   17.2445   -2.7165    0.0000 C   0  0  0  0  0  0           0  0  0
   16.5300   -2.3083    0.0000 C   0  0  0  0  0  0           0  0  0
   16.5255   -1.4839    0.0000 C   0  0  0  0  0  0           0  0  0
   16.5211   -0.6590    0.0000 N   0  0  0  0  0  0           0  0  0
  6  7  1  0     0  0
 13 17  1  1     0  0
  7 10  1  0     0  0
 17 18  1  0     0  0
  9  8  1  0     0  0
 17 19  2  0     0  0
 18 20  1  0     0  0
  9 10  1  0     0  0
  3  4  2  0     0  0
  4  6  1  0     0  0
  5  6  2  0     0  0
  1  2  2  0     0  0
 18 24  1  0     0  0
 20 21  1  0     0  0
 21 22  1  0     0  0
 22 23  1  0     0  0
 23 24  1  0     0  0
  5  1  1  0     0  0
  1 25  1  0     0  0
  2  3  1  0     0  0
 25 26  1  0     0  0
  9 14  1  0     0  0
 11 27  1  0     0  0
 10 11  1  0     0  0
 22 28  1  0     0  0
 11 12  1  0     0  0
 28 29  2  0     0  0
 12 13  1  0     0  0
 29 30  1  0     0  0
 13 14  1  0     0  0
 30 31  2  0     0  0
 31 32  1  0     0  0
  9 15  1  6     0  0
 32 33  2  0     0  0
 33 28  1  0     0  0
  5  8  1  0     0  0
 10 16  1  1     0  0
 34 35  3  0     0  0
 33 34  1  0     0  0
M  END