
          02060813482D 1   1.00000     0.00000     0

 46 49  0     0  0            999 V2000
    2.9402  -22.7666    0.0000 C   0  0  0  0  0  0           0  0  0
    2.9391  -23.5940    0.0000 C   0  0  0  0  0  0           0  0  0
    3.6539  -24.0069    0.0000 C   0  0  0  0  0  0           0  0  0
    4.3703  -23.5935    0.0000 C   0  0  0  0  0  0           0  0  0
    4.3675  -22.7630    0.0000 C   0  0  0  0  0  0           0  0  0
    3.6521  -22.3539    0.0000 C   0  0  0  0  0  0           0  0  0
    2.2243  -24.0059    0.0000 Cl  0  0  0  0  0  0           0  0  0
    3.6496  -21.5289    0.0000 C   0  0  0  0  0  0           0  0  0
    4.3629  -21.1142    0.0000 N   0  0  3  0  0  0           0  0  0
    4.3604  -20.2892    0.0000 C   0  0  0  0  0  0           0  0  0
    5.0736  -19.8746    0.0000 C   0  0  3  0  0  0           0  0  0
    3.6447  -19.8789    0.0000 O   0  0  0  0  0  0           0  0  0
    5.0804  -22.3478    0.0000 O   0  0  0  0  0  0           0  0  0
    5.0855  -24.0049    0.0000 C   0  0  0  0  0  0           0  0  0
    5.0819  -24.8303    0.0000 C   0  0  0  0  0  0           0  0  0
    5.7961  -25.2416    0.0000 C   0  0  0  0  0  0           0  0  0
    6.5109  -24.8279    0.0000 C   0  0  0  0  0  0           0  0  0
    6.5070  -23.9986    0.0000 C   0  0  0  0  0  0           0  0  0
    5.7921  -23.5910    0.0000 N   0  0  0  0  0  0           0  0  0
    7.2193  -23.5825    0.0000 O   0  0  0  0  0  0           0  0  0
    7.2266  -25.2383    0.0000 C   0  0  0  0  0  0           0  0  0
    7.9375  -25.6500    0.0000 N   0  0  0  0  0  0           0  0  0
    5.7970  -26.0666    0.0000 C   0  0  0  0  0  0           0  0  0
    5.0836  -26.4749    0.0000 C   0  0  0  0  0  0           0  0  0
    5.0841  -27.2991    0.0000 C   0  0  0  0  0  0           0  0  0
    5.7996  -27.7117    0.0000 C   0  0  0  0  0  0           0  0  0
    6.5160  -27.2940    0.0000 C   0  0  0  0  0  0           0  0  0
    6.5119  -26.4711    0.0000 C   0  0  0  0  0  0           0  0  0
    4.3697  -26.0613    0.0000 Cl  0  0  0  0  0  0           0  0  0
    7.2323  -27.7032    0.0000 C   0  0  3  0  0  0           0  0  0
    7.9417  -28.1125    0.0000 F   0  0  0  0  0  0           0  0  0
    7.6431  -26.9877    0.0000 F   0  0  0  0  0  0           0  0  0
    6.8268  -28.4216    0.0000 F   0  0  0  0  0  0           0  0  0
    5.0786  -21.5246    0.0000 C   0  0  0  0  0  0           0  0  0
    5.7841  -20.2878    0.0000 C   0  0  0  0  0  0           0  0  0
    6.4952  -19.8766    0.0000 C   0  0  0  0  0  0           0  0  0
    6.4970  -19.0513    0.0000 N   0  0  3  0  0  0           0  0  0
    5.7814  -18.6387    0.0000 C   0  0  0  0  0  0           0  0  0
    5.0641  -19.0515    0.0000 C   0  0  0  0  0  0           0  0  0
    7.2118  -18.6394    0.0000 C   0  0  0  0  0  0           0  0  0
    7.9259  -19.0524    0.0000 O   0  0  0  0  0  0           0  0  0
    7.2124  -17.8144    0.0000 O   0  0  0  0  0  0           0  0  0
    8.6407  -18.6405    0.0000 C   0  0  3  0  0  0           0  0  0
    9.3500  -18.2208    0.0000 C   0  0  0  0  0  0           0  0  0
    9.0567  -19.3529    0.0000 C   0  0  0  0  0  0           0  0  0
    8.2254  -17.9276    0.0000 C   0  0  0  0  0  0           0  0  0
 10 11  1  0     0  0
 16 23  1  0     0  0
  5  6  2  0     0  0
 23 24  2  0     0  0
 10 12  2  0     0  0
 24 25  1  0     0  0
  6  1  1  0     0  0
 25 26  2  0     0  0
  5 13  1  0     0  0
 26 27  1  0     0  0
  1  2  2  0     0  0
 27 28  2  0     0  0
 28 23  1  0     0  0
  4 14  1  0     0  0
 24 29  1  0     0  0
  2  7  1  0     0  0
 27 30  1  0     0  0
 14 15  2  0     0  0
 30 31  1  0     0  0
  3  4  2  0     0  0
 30 32  1  0     0  0
 15 16  1  0     0  0
 30 33  1  0     0  0
  6  8  1  0     0  0
  9 34  1  0     0  0
 11 35  1  0     0  0
 16 17  2  0     0  0
 17 18  1  0     0  0
  8  9  1  0     0  0
 18 19  1  0     0  0
 11 39  1  0     0  0
 35 36  1  0     0  0
 36 37  1  0     0  0
 37 38  1  0     0  0
 38 39  1  0     0  0
 19 14  1  0     0  0
 37 40  1  0     0  0
  4  5  1  0     0  0
 40 41  1  0     0  0
 18 20  2  0     0  0
 40 42  2  0     0  0
  9 10  1  0     0  0
 41 43  1  0     0  0
 17 21  1  0     0  0
 43 44  1  0     0  0
  2  3  1  0     0  0
 43 45  1  0     0  0
 21 22  3  0     0  0
 43 46  1  0     0  0
M  END