
  SciTegic06051315212D

 27 29  0  0  0  0            999 V2000
   29.5413   -2.8024    0.0000 C   0  0
   29.5401   -3.6219    0.0000 C   0  0
   30.2482   -4.0309    0.0000 C   0  0
   30.9578   -3.6214    0.0000 C   0  0
   30.9550   -2.7988    0.0000 C   0  0
   30.2464   -2.3935    0.0000 C   0  0
   30.2402   -1.5746    0.0000 N   0  3
   29.5313   -1.1681    0.0000 O   0  0
   30.9467   -1.1639    0.0000 O   0  5
   31.6662   -4.0289    0.0000 N   0  0
   32.3733   -3.6192    0.0000 C   0  0
   33.0816   -4.0267    0.0000 C   0  0
   32.3720   -2.8020    0.0000 O   0  0
   33.0783   -4.8423    0.0000 C   0  0
   33.7858   -5.2497    0.0000 C   0  0
   34.4938   -4.8400    0.0000 C   0  0
   34.4899   -4.0185    0.0000 C   0  0
   33.7818   -3.6148    0.0000 C   0  0
   33.7763   -2.7977    0.0000 Cl  0  0
   30.2441   -4.8497    0.0000 N   0  0
   30.9765   -5.2037    0.0000 C   0  0
   31.1603   -6.0019    0.0000 C   0  0
   29.5065   -5.2058    0.0000 C   0  0
   30.6552   -6.6427    0.0000 C   0  0
   29.3260   -6.0042    0.0000 C   0  0
   29.8391   -6.6415    0.0000 N   0  0
   29.4858   -7.3783    0.0000 C   0  0
  1  2  2  0
  2  3  1  0
  3  4  2  0
  4  5  1  0
  5  6  2  0
  6  1  1  0
  7  8  2  0
  7  9  1  0
  6  7  1  0
  4 10  1  0
 10 11  1  0
 11 12  1  0
 11 13  2  0
 12 14  2  0
 14 15  1  0
 15 16  2  0
 16 17  1  0
 17 18  2  0
 18 12  1  0
 18 19  1  0
 20 21  1  0
 21 22  1  0
 20 23  1  0
 22 24  1  0
 23 25  1  0
 24 26  1  0
 25 26  1  0
  3 20  1  0
 26 27  1  0
M  CHG  2   7   1   9  -1
M  END