
  SciTegic01161211242D

 24 24  0  0  0  0            999 V2000
    2.5949   -3.0050    0.0000 C   0  0
    2.5966   -1.5042    0.0000 C   0  0
    1.5548   -3.6035    0.0000 O   0  0
    1.2990   -0.7500    0.0000 C   0  0
    3.8990   -0.7582    0.0000 C   0  0
    3.8934   -3.7577    0.0000 O   0  0
    5.1884   -7.5121    0.0000 N   0  0
    9.0023   -4.1328    0.0000 Cl  0  0
    3.8917   -5.2586    0.0000 C   0  0
    5.1901   -6.0113    0.0000 C   0  0
    1.2990    0.7500    0.0000 C   0  0
    3.9042    0.7419    0.0000 C   0  0
    5.1956   -1.5125    0.0000 C   0  0
    0.0000   -1.5000    0.0000 C   0  0
    6.4868   -8.2648    0.0000 C   0  0
    3.8891   -8.2633    0.0000 C   0  0
    6.4855   -9.4648    0.0000 C   0  0
    3.8891   -9.4633    0.0000 C   0  0
    5.2058    1.4875    0.0000 C   0  0
    6.4972   -0.7669    0.0000 C   0  0
   -1.2990   -0.7500    0.0000 C   0  0
    0.0000    1.5000    0.0000 C   0  0
    6.5023    0.7331    0.0000 C   0  0
   -1.2990    0.7500    0.0000 C   0  0
  1  2  1  0
  1  3  2  0
  2  4  1  0
  2  5  1  0
  1  6  1  0
  6  9  1  0
  7 10  1  0
  9 10  1  0
  4 11  2  0
  5 12  2  0
  5 13  1  0
  4 14  1  0
  7 15  1  0
  7 16  1  0
 15 17  1  0
 16 18  1  0
 12 19  1  0
 13 20  2  0
 14 21  2  0
 11 22  1  0
 19 23  2  0
 20 23  1  0
 21 24  1  0
 22 24  2  0
M  END