
          11280715362D 1   1.00000     0.00000     0

 38 41  0     1  0            999 V2000
    4.4792   -5.4667    0.0000 C   0  0  0  0  0  0           0  0  0
    4.4917   -4.2917    0.0000 C   0  0  1  0  0  0           0  0  0
    4.9917   -4.5917    0.0000 C   0  0  2  0  0  0           0  0  0
    3.9792   -4.5792    0.0000 C   0  0  0  0  0  0           0  0  0
    5.5042   -4.3042    0.0000 N   0  0  3  0  0  0           0  0  0
    3.9792   -5.1667    0.0000 C   0  0  0  0  0  0           0  0  0
    4.9917   -5.1750    0.0000 C   0  0  0  0  0  0           0  0  0
    4.4792   -6.0542    0.0000 C   0  0  0  0  0  0           0  0  0
    3.4667   -6.0417    0.0000 N   0  0  0  0  0  0           0  0  0
    6.0417   -2.8375    0.0000 C   0  0  0  0  0  0           0  0  0
    3.4792   -5.4542    0.0000 C   0  0  0  0  0  0           0  0  0
    5.5167   -3.7167    0.0000 C   0  0  0  0  0  0           0  0  0
    4.4917   -3.7000    0.0000 C   0  0  0  0  0  0           0  0  0
    7.2167   -5.5542    0.0000 C   0  0  0  0  0  0           0  0  0
    8.4292   -5.5667    0.0000 C   0  0  0  0  0  0           0  0  0
    7.5292   -5.0417    0.0000 C   0  0  0  0  0  0           0  0  0
    8.1292   -5.0417    0.0000 C   0  0  0  0  0  0           0  0  0
    5.0042   -3.4125    0.0000 C   0  0  1  0  0  0           0  0  0
    5.5292   -2.5292    0.0000 O   0  0  0  0  0  0           0  0  0
    6.0292   -3.4292    0.0000 O   0  0  0  0  0  0           0  0  0
    9.0292   -5.5667    0.0000 O   0  0  0  0  0  0           0  0  0
    7.5292   -6.0792    0.0000 O   0  0  0  0  0  0           0  0  0
    6.5542   -2.5500    0.0000 C   0  0  3  0  0  0           0  0  0
    5.0167   -2.8167    0.0000 C   0  0  0  0  0  0           0  0  0
    3.4667   -4.2875    0.0000 C   0  0  0  0  0  0           0  0  0
    6.0167   -4.6042    0.0000 C   0  0  0  0  0  0           0  0  0
    8.1292   -6.0792    0.0000 O   0  0  0  0  0  0           0  0  0
    6.6167   -5.5542    0.0000 O   0  0  0  0  0  0           0  0  0
    2.9667   -4.5792    0.0000 C   0  0  0  0  0  0           0  0  0
    2.9667   -5.1667    0.0000 C   0  0  0  0  0  0           0  0  0
    7.0292   -2.9250    0.0000 C   0  0  0  0  0  0           0  0  0
    6.4917   -2.0167    0.0000 C   0  0  0  0  0  0           0  0  0
    6.9417   -1.6167    0.0000 C   0  0  0  0  0  0           0  0  0
    7.5417   -2.8542    0.0000 C   0  0  0  0  0  0           0  0  0
    7.8292   -2.3292    0.0000 C   0  0  0  0  0  0           0  0  0
    7.5667   -1.7625    0.0000 C   0  0  0  0  0  0           0  0  0
    5.5042   -4.8792    0.0000 H   0  0  0  0  0  0           0  0  0
    3.7292   -3.7417    0.0000 H   0  0  0  0  0  0           0  0  0
  2  3  1  0     0  0
  3  7  1  0     0  0
  4  6  2  0     0  0
  5  3  1  0     0  0
  6  1  1  0     0  0
  7  1  1  0     0  0
  8  1  2  0     0  0
  9  8  1  0     0  0
 10 19  1  0     0  0
 11  6  1  0     0  0
 12  5  1  0     0  0
 13  2  1  0     0  0
 15 17  1  0     0  0
 16 14  1  0     0  0
 17 16  2  0     0  0
 18 12  1  0     0  0
 19 24  1  0     0  0
 20 10  2  0     0  0
 21 15  2  0     0  0
 22 14  2  0     0  0
 23 10  1  0     0  0
 18 24  1  1     0  0
 25  4  1  0     0  0
 26  5  1  0     0  0
 27 15  1  0     0  0
 28 14  1  0     0  0
 29 30  1  0     0  0
 30 11  2  0     0  0
 31 23  1  0     0  0
 32 23  1  0     0  0
 33 32  1  0     0  0
 34 31  1  0     0  0
 35 34  1  0     0  0
 36 33  1  0     0  0
  3 37  1  1     0  0
  2 38  1  6     0  0
  9 11  1  0     0  0
  2  4  1  0     0  0
 29 25  2  0     0  0
 13 18  1  0     0  0
 36 35  1  0     0  0
M  END