
          11280714452D 1   1.00000     0.00000     0

 31 34  0     0  0            999 V2000
    8.8667   -3.3292    0.0000 C   0  0  0  0  0  0           0  0  0
    1.0167   -2.9250    0.0000 N   0  0  0  0  0  0           0  0  0
    8.1542   -2.9167    0.0000 C   0  0  0  0  0  0           0  0  0
    8.8667   -4.1542    0.0000 C   0  0  0  0  0  0           0  0  0
    6.7250   -2.9167    0.0000 C   0  0  0  0  0  0           0  0  0
    7.4375   -3.3292    0.0000 C   0  0  0  0  0  0           0  0  0
    0.3042   -3.3375    0.0000 C   0  0  0  0  0  0           0  0  0
    6.0042   -3.3292    0.0000 C   0  0  0  0  0  0           0  0  0
    9.5792   -4.5750    0.0000 O   0  0  0  0  0  0           0  0  0
    1.7292   -3.3375    0.0000 C   0  0  0  0  0  0           0  0  0
    7.4375   -4.1542    0.0000 O   0  0  0  0  0  0           0  0  0
    0.3042   -4.1625    0.0000 C   0  0  0  0  0  0           0  0  0
    1.0250   -4.5750    0.0000 C   0  0  0  0  0  0           0  0  0
    3.1625   -3.3292    0.0000 O   0  0  0  0  0  0           0  0  0
    5.2917   -2.9167    0.0000 C   0  0  0  0  0  0           0  0  0
    8.1542   -4.5667    0.0000 O   0  0  0  0  0  0           0  0  0
    3.8750   -2.9167    0.0000 C   0  0  0  0  0  0           0  0  0
    4.5875   -3.3292    0.0000 C   0  0  0  0  0  0           0  0  0
    2.4417   -2.9250    0.0000 C   0  0  0  0  0  0           0  0  0
    1.7375   -4.1542    0.0000 C   0  0  0  0  0  0           0  0  0
    9.5792   -2.9167    0.0000 C   0  0  0  0  0  0           0  0  0
    8.1542   -2.0917    0.0000 C   0  0  0  0  0  0           0  0  0
    4.5875   -1.6792    0.0000 C   0  0  0  0  0  0           0  0  0
   -0.4083   -2.9292    0.0000 C   0  0  0  0  0  0           0  0  0
    5.3000   -2.0917    0.0000 C   0  0  0  0  0  0           0  0  0
    3.8750   -2.0917    0.0000 C   0  0  0  0  0  0           0  0  0
   -0.4000   -4.5750    0.0000 C   0  0  0  0  0  0           0  0  0
    8.8667   -1.6792    0.0000 C   0  0  0  0  0  0           0  0  0
    9.5792   -2.0917    0.0000 C   0  0  0  0  0  0           0  0  0
   -1.1208   -3.3417    0.0000 C   0  0  0  0  0  0           0  0  0
   -1.1125   -4.1667    0.0000 C   0  0  0  0  0  0           0  0  0
  2 10  2  0     0  0
  3  1  1  0     0  0
  4  1  1  0     0  0
  5  6  1  0     0  0
  6  3  1  0     0  0
  7  2  1  0     0  0
  8  5  2  0     0  0
  9  4  2  0     0  0
 10 19  1  0     0  0
 11  6  2  0     0  0
 12 13  1  0     0  0
 13 20  2  0     0  0
 14 17  1  0     0  0
 15  8  1  0     0  0
 16  4  1  0     0  0
 17 18  2  0     0  0
 18 15  1  0     0  0
 19 14  1  0     0  0
 20 10  1  0     0  0
 21  1  2  0     0  0
 22  3  2  0     0  0
 23 25  1  0     0  0
 24  7  2  0     0  0
 25 15  2  0     0  0
 26 23  2  0     0  0
 27 12  2  0     0  0
 28 29  2  0     0  0
 29 21  1  0     0  0
 30 24  1  0     0  0
 31 27  1  0     0  0
 22 28  1  0     0  0
 26 17  1  0     0  0
  7 12  1  0     0  0
 31 30  2  0     0  0
M  END