
  SciTegic10311316262D

 33 35  0  0  0  0            999 V2000
   13.2279   -9.1313    0.0000 O   0  0
   12.8195   -8.4188    0.0000 S   0  0
   12.4067   -9.1286    0.0000 O   0  0
   13.5390   -7.1812    0.0000 C   0  0
   13.5378   -8.0086    0.0000 C   0  0
   14.2526   -8.4215    0.0000 C   0  0
   14.9690   -8.0081    0.0000 C   0  0
   14.9662   -7.1776    0.0000 C   0  0
   14.2508   -6.7685    0.0000 C   0  0
   12.1089   -8.0075    0.0000 N   0  0
   15.6791   -6.7624    0.0000 N   0  0
   16.3951   -7.1722    0.0000 C   0  0
   17.1080   -6.7570    0.0000 C   0  0
   16.3982   -7.9972    0.0000 O   0  0
   17.8241   -7.1668    0.0000 S   0  0
   18.5370   -6.7516    0.0000 C   0  0
   19.2529   -7.1646    0.0000 N   0  0
   19.9637   -6.7529    0.0000 C   0  0
   19.9648   -5.9276    0.0000 C   0  0
   19.2489   -5.5156    0.0000 C   0  0
   18.5319   -5.9289    0.0000 N   0  0
   19.2486   -4.6906    0.0000 O   0  0
   20.6800   -5.5194    0.0000 C   0  0
   21.3944   -5.1069    0.0000 N   0  0
   20.6765   -7.1646    0.0000 C   0  0
   20.6751   -7.9907    0.0000 C   0  0
   21.3887   -8.4031    0.0000 C   0  0
   22.1042   -7.9906    0.0000 C   0  0
   22.1015   -7.1613    0.0000 C   0  0
   21.3873   -6.7526    0.0000 C   0  0
   17.1049   -5.9320    0.0000 C   0  0
   22.8192   -8.4021    0.0000 Cl  0  0
   22.8146   -6.7463    0.0000 Cl  0  0
  2  1  2  0
  3  2  2  0
  4  5  2  0
  5  6  1  0
  6  7  2  0
  7  8  1  0
  8  9  2  0
  9  4  1  0
  5  2  1  0
  2 10  1  0
  8 11  1  0
 11 12  1  0
 12 13  1  0
 12 14  2  0
 13 15  1  0
 15 16  1  0
 16 17  2  0
 16 21  1  0
 17 18  1  0
 18 19  2  0
 19 20  1  0
 20 21  1  0
 20 22  2  0
 23 24  3  0
 19 23  1  0
 25 26  2  0
 26 27  1  0
 27 28  2  0
 28 29  1  0
 29 30  2  0
 30 25  1  0
 18 25  1  0
 13 31  1  0
 28 32  1  0
 29 33  1  0
M  END