
  SciTegic09261414532D

122118  0  0  0  0            999 V2000
    9.2742  -13.8775    0.0000 Na  0  3
   15.5199  -19.3107    0.0000 Na  0  3
   11.6783  -11.6276    0.0000 Na  0  3
    6.9659  -15.9400    0.0000 Na  0  3
   11.8658   -8.4777    0.0000 Na  0  3
   15.2700   -3.4487    0.0000 Na  0  3
   19.7924   -6.0192    0.0000 C   0  0  1  0  0  0
   13.5802  -13.5183    0.0000 C   0  0  1  0  0  0
   13.5408  -17.6358    0.0000 H   0  0
   17.3135   -6.0531    0.0000 O   0  0
   12.8721  -10.6327    0.0000 O   0  5
   17.8720  -10.2395    0.0000 O   0  0
   16.4420   -9.4157    0.0000 C   0  0  2  0  0  0
   12.8303  -17.2247    0.0000 C   0  0  1  0  0  0
   13.9980  -10.3356    0.0000 O   0  0
   17.1472  -14.7724    0.0000 O   0  5
   15.7272   -9.8276    0.0000 O   0  0
   16.4430  -11.0588    0.0000 C   0  0  2  0  0  0
    9.2452  -18.4104    0.0000 O   0  5
   14.2299  -19.7213    0.0000 O   0  5
   17.7365   -6.7614    0.0000 C   0  0
   16.4887   -6.0652    0.0000 S   0  0
   11.4018  -17.2062    0.0000 C   0  0
   18.9885   -7.4551    0.0000 C   0  0  1  0  0  0
   20.1955   -5.2993    0.0000 O   0  0
   11.3912  -18.0330    0.0000 O   0  0
   15.7804   -6.4881    0.0000 O   0  0
   19.7736   -4.5904    0.0000 C   0  0
   12.8542  -14.7501    0.0000 O   0  0
   15.0018  -13.5312    0.0000 C   0  0  2  0  0  0
   16.8483  -13.6446    0.0000 O   0  0
   10.7025  -15.9601    0.0000 S   0  0
   15.7265  -10.6526    0.0000 C   0  0  2  0  0  0
   20.1577   -2.4473    0.0000 C   0  0
   19.8133   -7.4430    0.0000 C   0  0  2  0  0  0
   17.1513  -11.4733    0.0000 N   0  0
   12.0923  -19.2800    0.0000 C   0  0  2  0  0  0
   17.1513  -12.3020    0.0000 O   0  0
   12.1212  -16.8025    0.0000 C   0  0  1  0  0  0
   13.5607  -15.9920    0.0000 C   0  0  2  0  0  0
   20.2372   -8.1507    0.0000 O   0  0
   13.9431  -18.5903    0.0000 O   0  0
   12.8533  -13.9275    0.0000 H   0  0
   13.5721  -14.3435    0.0000 C   0  0  1  0  0  0
   18.5892   -9.8283    0.0000 O   0  0
    9.9662  -18.0094    0.0000 C   0  0
   22.2629   -5.9804    0.0000 C   0  0
   20.1766   -3.8705    0.0000 C   0  0
   14.9847  -15.9803    0.0000 C   0  0
   15.0149   -8.5891    0.0000 O   0  0
   18.5614   -6.7492    0.0000 C   0  0  2  0  0  0
   10.6924  -16.7850    0.0000 O   0  0
   20.0181   -9.8289    0.0000 O   0  5
    9.9793  -17.1845    0.0000 O   0  0
   16.0658   -5.3568    0.0000 O   0  5
   12.8761  -12.2748    0.0000 O   0  5
   11.5274  -15.9702    0.0000 O   0  0
   11.3559  -20.5067    0.0000 O   0  0
   13.5809  -11.8734    0.0000 O   0  0
   21.0151   -5.2842    0.0000 O   0  0
   10.6740  -18.4333    0.0000 C   0  0  1  0  0  0
   18.9676   -6.0313    0.0000 O   0  0
   16.5008   -6.8901    0.0000 O   0  0
   15.0124  -11.0587    0.0000 O   0  0
   12.8473  -15.5750    0.0000 C   0  0  2  0  0  0
   14.4073  -11.0520    0.0000 O   0  0
   17.8742   -8.5944    0.0000 C   0  0  2  0  0  0
   14.2844  -14.7616    0.0000 C   0  0  1  0  0  0
   21.4380   -5.9925    0.0000 C   0  0
   16.0233  -13.6425    0.0000 O   0  0
   14.2944  -13.1126    0.0000 O   0  0
   15.7240   -9.0027    0.0000 H   0  0
   12.8011  -19.7020    0.0000 O   0  0
   12.8693  -13.0998    0.0000 C   0  0
   17.8679  -11.0645    0.0000 C   0  0
   17.8748   -9.4155    0.0000 C   0  0  1  0  0  0
   19.7547   -3.1616    0.0000 C   0  0
   16.4338  -14.3581    0.0000 S   0  0
   17.1571  -10.6533    0.0000 O   0  0
    9.9931  -15.5389    0.0000 O   0  5
   18.5886   -8.1767    0.0000 O   0  0
    9.9386  -19.6594    0.0000 O   0  0
   17.1549   -8.1793    0.0000 O   0  0
   19.7358   -1.7396    0.0000 C   0  0
   11.1237  -15.2507    0.0000 O   0  0
   20.2112   -6.7250    0.0000 C   0  0  1  0  0  0
   19.3037   -9.4161    0.0000 S   0  0
   15.7220  -12.2970    0.0000 C   0  0  2  0  0  0
   13.5823  -11.0481    0.0000 S   0  0
   18.1636   -7.4714    0.0000 H   0  0
   10.6596  -19.2585    0.0000 C   0  0  1  0  0  0
   12.8203  -18.0497    0.0000 O   0  0
   16.4438   -8.5903    0.0000 C   0  0  1  0  0  0
   13.1182  -18.5792    0.0000 O   0  0
   15.0049  -14.3542    0.0000 C   0  0  1  0  0  0
   11.3688  -19.6818    0.0000 C   0  0  1  0  0  0
   15.7020  -16.3877    0.0000 C   0  0
   21.0361   -6.7130    0.0000 N   0  0
   14.2934  -12.2893    0.0000 C   0  0
   19.7165   -8.7018    0.0000 O   0  0
   14.2731  -16.3978    0.0000 N   0  0
   14.2596  -17.2405    0.0000 O   0  0
   16.4387  -11.8863    0.0000 C   0  0  1  0  0  0
   17.1575   -9.8283    0.0000 C   0  0  1  0  0  0
   12.1008  -18.4535    0.0000 C   0  0  2  0  0  0
   12.1513  -13.5062    0.0000 O   0  0
   13.5210  -19.2992    0.0000 S   0  0
   13.5500  -16.8195    0.0000 C   0  0  1  0  0  0
   15.7182  -13.1220    0.0000 O   0  0
   18.8915   -8.7015    0.0000 O   0  0
   16.4324  -12.7068    0.0000 H   0  0
   15.0098  -11.8801    0.0000 C   0  0  1  0  0  0
   15.7304   -7.3523    0.0000 O   0  5
   14.2779  -15.5865    0.0000 O   0  0
   15.7183  -14.7687    0.0000 O   0  0
   15.7297   -8.1772    0.0000 C   0  0
   14.9789  -15.1553    0.0000 O   0  0
   12.1301  -15.9811    0.0000 O   0  0
   18.5802  -11.4805    0.0000 C   0  0
   22.4239  -10.0068    0.0000 Na  0  3
   19.5532  -14.5942    0.0000 Na  0  3
   13.8366   -6.1985    0.0000 Na  0  3
 86 98  1  6
101 49  1  0
 30109  1  1
 18 36  1  6
105 92  1  1
 46 54  2  0
 59 89  1  0
 71  8  1  0
 34 84  1  0
 33 18  1  0
 46 19  1  0
 39 23  1  1
 77 34  1  0
105 37  1  0
 86  7  1  0
 35 86  1  0
 33 64  1  0
 73107  1  0
 78 70  2  0
 68 95  1  0
 75 12  2  0
 13 17  1  0
 99 59  1  0
 22 55  1  0
 25 28  1  0
104 79  1  1
 96 37  1  0
 95115  1  6
  7 25  1  6
 31 78  2  0
 69 60  2  0
 14 92  1  0
 22 63  2  0
 67 76  1  0
 37 73  1  6
118 39  1  0
105 26  1  0
 44 68  1  0
100 87  2  0
 88109  1  0
 44 43  1  1
 30 71  1  0
 52 32  1  0
 10 22  1  0
 35 41  1  1
 65 40  1  0
 14108  1  0
  7 62  1  0
108102  1  1
 76 45  1  6
 88111  1  1
 78 16  1  0
103 18  1  0
 83 93  1  0
103 38  1  1
 26 61  1  0
115 78  1  0
 44 29  1  0
116 50  2  0
112 99  1  1
  8 44  1  0
 67 83  1  0
 48 77  1  0
 68114  1  1
 28 48  1  0
 24 81  1  0
 65118  1  0
 74 56  1  0
 75119  1  0
 89 15  2  0
 91 96  1  0
 49 97  1  0
 23 52  1  0
 21 10  1  0
 24 90  1  1
 24 51  1  0
104 76  1  0
 24 35  1  0
 30 95  1  0
 13104  1  0
 33 17  1  6
 40101  1  6
  8 74  1  6
 74106  2  0
 65 29  1  6
 32 85  2  0
 57 32  2  0
 88103  1  0
 13 72  1  1
 61 46  1  6
 89 11  1  0
 64112  1  0
 42107  2  0
 27 22  2  0
 69 47  1  0
 93116  1  6
 67 81  1  1
 39 14  1  0
 98 69  1  0
 62 51  1  0
 93 13  1  0
 45 87  1  0
 61 91  1  0
116113  1  0
 91 82  1  6
 87 53  1  0
107 94  2  0
 51 21  1  1
 66 89  2  0
 49117  2  0
 96 58  1  1
107 20  1  0
 14  9  1  1
112 88  1  0
108 40  1  0
 87110  2  0
 36 75  1  0
 32 80  1  0
M  CHG  8   1   1   2   1   3   1   4   1   5   1   6   1  11  -1  16  -1
M  CHG  8  19  -1  20  -1  53  -1  55  -1  56  -1  80  -1 113  -1 120   1
M  CHG  2 121   1 122   1
M  END