
  SciTegic10311316262D

 31 33  0  0  0  0            999 V2000
    2.0278   -5.7416    0.0000 O   0  0
    1.6194   -5.0291    0.0000 S   0  0
    1.2065   -5.7389    0.0000 O   0  0
    2.3388   -3.7915    0.0000 C   0  0
    2.3377   -4.6189    0.0000 C   0  0
    3.0525   -5.0318    0.0000 C   0  0
    3.7689   -4.6184    0.0000 C   0  0
    3.7661   -3.7879    0.0000 C   0  0
    3.0507   -3.3788    0.0000 C   0  0
    0.9087   -4.6178    0.0000 N   0  0
    4.4790   -3.3727    0.0000 N   0  0
    5.1950   -3.7825    0.0000 C   0  0
    5.9079   -3.3673    0.0000 C   0  0
    5.1981   -4.6075    0.0000 O   0  0
    6.6239   -3.7771    0.0000 S   0  0
    7.3368   -3.3619    0.0000 C   0  0
    8.0527   -3.7749    0.0000 N   0  0
    8.7635   -3.3632    0.0000 C   0  0
    8.7647   -2.5379    0.0000 C   0  0
    8.0488   -2.1259    0.0000 C   0  0
    7.3318   -2.5392    0.0000 N   0  0
    8.0485   -1.3009    0.0000 O   0  0
    9.4798   -2.1297    0.0000 C   0  0
   10.1943   -1.7172    0.0000 N   0  0
    9.4763   -3.7749    0.0000 C   0  0
    9.4750   -4.6010    0.0000 C   0  0
   10.1886   -5.0134    0.0000 C   0  0
   10.9041   -4.6009    0.0000 C   0  0
   10.9014   -3.7716    0.0000 C   0  0
   10.1872   -3.3629    0.0000 C   0  0
   11.6191   -5.0124    0.0000 Cl  0  0
  2  1  2  0
  3  2  2  0
  4  5  2  0
  5  6  1  0
  6  7  2  0
  7  8  1  0
  8  9  2  0
  9  4  1  0
  5  2  1  0
  2 10  1  0
  8 11  1  0
 11 12  1  0
 12 13  1  0
 12 14  2  0
 13 15  1  0
 15 16  1  0
 16 17  2  0
 16 21  1  0
 17 18  1  0
 18 19  2  0
 19 20  1  0
 20 21  1  0
 20 22  2  0
 23 24  3  0
 19 23  1  0
 25 26  2  0
 26 27  1  0
 27 28  2  0
 28 29  1  0
 29 30  2  0
 30 25  1  0
 18 25  1  0
 28 31  1  0
M  END