
  SciTegic02271515072D

 23 26  0  0  0  0            999 V2000
    2.3098   -3.1119    0.0000 C   0  0
    2.3087   -3.9314    0.0000 C   0  0
    3.0167   -4.3404    0.0000 N   0  0
    3.0149   -2.7030    0.0000 C   0  0
    3.7236   -3.1083    0.0000 C   0  0
    3.7238   -3.9315    0.0000 C   0  0
    4.5068   -4.1856    0.0000 S   0  0
    4.9905   -3.5195    0.0000 N   0  0
    4.5064   -2.8537    0.0000 C   0  0
    4.7587   -2.0765    0.0000 N   0  0
    4.2116   -1.4694    0.0000 C   0  0
    4.4639   -0.6921    0.0000 C   0  0
    3.4124   -1.6395    0.0000 O   0  0
    5.2655   -0.5215    0.0000 C   0  0
    5.5186    0.2600    0.0000 C   0  0
    4.9745    0.8632    0.0000 C   0  0
    4.1739    0.7015    0.0000 C   0  0
    3.9173   -0.0851    0.0000 C   0  0
    1.6060   -2.6992    0.0000 C   0  0
    1.5204   -1.8866    0.0000 C   0  0
    0.7210   -1.7168    0.0000 S   0  0
    0.3126   -2.4247    0.0000 C   0  0
    0.8596   -3.0318    0.0000 C   0  0
  1  2  2  0
  2  3  1  0
  3  6  2  0
  5  4  2  0
  4  1  1  0
  5  6  1  0
  6  7  1  0
  7  8  1  0
  8  9  2  0
  9  5  1  0
  9 10  1  0
 10 11  1  0
 11 12  1  0
 11 13  2  0
 12 14  1  0
 12 18  1  0
 14 15  1  0
 15 16  1  0
 16 17  1  0
 17 18  1  0
 19 20  2  0
 20 21  1  0
 21 22  1  0
 22 23  2  0
 23 19  1  0
  1 19  1  0
M  END