
          11280715412D 1   1.00000     0.00000     0

 29 33  0     0  0            999 V2000
   10.5667   -2.7917    0.0000 C   0  0  0  0  0  0           0  0  0
    9.8167   -3.1292    0.0000 N   0  0  3  0  0  0           0  0  0
   11.1167   -3.4125    0.0000 N   0  0  0  0  0  0           0  0  0
    5.5417   -1.4542    0.0000 C   0  0  0  0  0  0           0  0  0
    4.8167   -1.8667    0.0000 O   0  0  0  0  0  0           0  0  0
    9.9000   -3.9417    0.0000 C   0  0  0  0  0  0           0  0  0
   10.7042   -4.1250    0.0000 C   0  0  0  0  0  0           0  0  0
    5.5417   -0.6250    0.0000 C   0  0  0  0  0  0           0  0  0
    4.8167   -0.2042    0.0000 O   0  0  0  0  0  0           0  0  0
    6.2542   -1.8750    0.0000 C   0  0  3  0  0  0           0  0  0
    7.6792   -1.8792    0.0000 N   0  0  3  0  0  0           0  0  0
    4.1000   -1.4542    0.0000 C   0  0  0  0  0  0           0  0  0
    9.1042   -2.7125    0.0000 C   0  0  3  0  0  0           0  0  0
   10.7500   -1.9917    0.0000 O   0  0  0  0  0  0           0  0  0
    6.9667   -1.4625    0.0000 C   0  0  0  0  0  0           0  0  0
    4.1042   -0.6250    0.0000 C   0  0  0  0  0  0           0  0  0
    8.3875   -3.1167    0.0000 C   0  0  0  0  0  0           0  0  0
    9.1042   -1.8792    0.0000 C   0  0  0  0  0  0           0  0  0
    7.6750   -2.7042    0.0000 C   0  0  0  0  0  0           0  0  0
    8.3917   -1.4667    0.0000 C   0  0  0  0  0  0           0  0  0
    6.2542   -2.7000    0.0000 O   0  0  0  0  0  0           0  0  0
    9.3417   -4.5542    0.0000 C   0  0  0  0  0  0           0  0  0
   10.9500   -4.9042    0.0000 C   0  0  0  0  0  0           0  0  0
    3.3875   -1.8667    0.0000 C   0  0  0  0  0  0           0  0  0
    3.3875   -0.2125    0.0000 C   0  0  0  0  0  0           0  0  0
    9.5917   -5.3375    0.0000 C   0  0  0  0  0  0           0  0  0
   10.3917   -5.5125    0.0000 C   0  0  0  0  0  0           0  0  0
    2.6750   -1.4542    0.0000 C   0  0  0  0  0  0           0  0  0
    2.6750   -0.6250    0.0000 C   0  0  0  0  0  0           0  0  0
  2  1  1  0     0  0
  3  1  2  0     0  0
  4 10  1  0     0  0
  5  4  1  0     0  0
  6  2  1  0     0  0
  7  3  1  0     0  0
  8  4  2  0     0  0
  9  8  1  0     0  0
 10 15  1  0     0  0
 11 20  1  0     0  0
 12  5  1  0     0  0
 13  2  1  0     0  0
 14  1  1  0     0  0
 15 11  1  0     0  0
 16  9  1  0     0  0
 17 13  1  0     0  0
 18 13  1  0     0  0
 19 17  1  0     0  0
 20 18  1  0     0  0
 21 10  1  0     0  0
 22  6  2  0     0  0
 23  7  2  0     0  0
 24 12  2  0     0  0
 25 16  2  0     0  0
 26 22  1  0     0  0
 27 23  1  0     0  0
 28 24  1  0     0  0
 29 25  1  0     0  0
  7  6  1  0     0  0
 26 27  2  0     0  0
 11 19  1  0     0  0
 16 12  1  0     0  0
 29 28  2  0     0  0
M  END