
  SciTegic01061111512D

 45 49  0  0  0  0            999 V2000
   25.4587    3.2673    0.0000 C   0  0  2  0  0  0
   25.4587    2.4422    0.0000 C   0  0  2  0  0  0
   26.1714    2.0358    0.0000 C   0  0  1  0  0  0
   26.8841    2.4422    0.0000 C   0  0  2  0  0  0
   26.8841    3.2673    0.0000 C   0  0  1  0  0  0
   26.1714    3.6862    0.0000 O   0  0
   27.6004    3.6799    0.0000 O   0  0
   27.5986    2.0307    0.0000 N   0  0
   28.3144    2.4402    0.0000 C   0  0
   29.0289    2.0287    0.0000 C   0  0
   28.3156    3.2653    0.0000 O   0  0
   26.1714    1.2108    0.0000 O   0  0
   24.7442    2.0307    0.0000 O   0  0
   24.7424    3.6799    0.0000 C   0  0
   24.7400    4.5092    0.0000 O   0  0
   24.0285    2.4402    0.0000 C   0  0  2  0  0  0
   24.0295    3.2685    0.0000 O   0  0
   23.3220    3.6821    0.0000 C   0  0  1  0  0  0
   22.6051    3.2699    0.0000 C   0  0  1  0  0  0
   22.6043    2.4437    0.0000 C   0  0  1  0  0  0
   23.3205    2.0299    0.0000 C   0  0  1  0  0  0
   24.6128    3.0310    0.0000 H   0  0
   23.3239    4.5153    0.0000 C   0  0
   22.6097    4.9242    0.0000 O   0  0
   21.8933    3.6901    0.0000 O   0  0
   21.8883    2.0346    0.0000 N   0  0
   23.3208    1.2053    0.0000 O   0  0
   21.1399    2.3713    0.0000 N   0  0
   20.5852    1.7623    0.0000 N   0  0
   20.9985    1.0463    0.0000 C   0  0
   21.8060    1.2156    0.0000 C   0  0
   20.6591    0.2928    0.0000 C   0  0
   19.8393    0.2095    0.0000 N   0  0
   21.1445   -0.3765    0.0000 O   0  0
   27.6029    4.5092    0.0000 C   0  0
   19.8193   -0.6154    0.0000 C   0  0
   19.7778   -2.2601    0.0000 C   0  0
   20.5051   -1.8627    0.0000 C   0  0
   20.5219   -1.0399    0.0000 C   0  0
   19.0724   -1.8317    0.0000 C   0  0
   19.0938   -1.0114    0.0000 C   0  0
   18.3988   -0.5823    0.0000 C   0  0
   17.6778   -0.9766    0.0000 C   0  0
   17.6602   -1.8001    0.0000 C   0  0
   18.3599   -2.2213    0.0000 C   0  0
 16 22  1  6
  9 11  2  0
 18 23  1  1
  4  5  1  0
 23 24  1  0
  3 12  1  1
 19 25  1  1
  5  6  1  0
 20 26  1  1
  2 13  1  6
 21 27  1  6
 26 28  1  0
  1 14  1  1
  5  7  1  1
 14 15  1  0
 28 29  2  0
 29 30  1  0
 30 31  2  0
 31 26  1  0
  1  2  1  0
 30 32  1  0
 13 16  1  0
 32 33  1  0
 16 17  1  0
 32 34  2  0
  4  8  1  6
  7 35  1  0
  1  6  1  0
 33 36  1  0
 36 41  2  0
  8  9  1  0
 40 37  2  0
  2  3  1  0
 37 38  1  0
  9 10  1  0
 38 39  2  0
 39 36  1  0
 16 21  1  0
 17 18  1  0
 40 41  1  0
 18 19  1  0
 41 42  1  0
 19 20  1  0
 42 43  2  0
 20 21  1  0
 43 44  1  0
  3  4  1  0
 44 45  2  0
 45 40  1  0
M  END