
  SciTegic09081514192D

 58 62  0  0  0  0            999 V2000
    2.0934   -2.2270    0.0000 C   0  0
    3.5632   -2.4942    0.0000 C   0  0
    4.5431   -1.4253    0.0000 C   0  0  1  0  0  0
    4.0754    0.0000    0.0000 C   0  0
    1.5812   -0.7794    0.0000 C   0  0  2  0  0  0
    2.4942    0.2895    0.0000 N   0  0
    2.0934    1.7370    0.0000 C   0  0
    0.6236    2.0488    0.0000 C   0  0
    0.0891   -0.4677    0.0000 C   0  0
   -0.3340    0.9353    0.0000 C   0  0
   -1.0690   -1.3585    0.0000 N   0  0
   -2.2938   -0.4677    0.0000 C   0  0
   -1.8484    0.9353    0.0000 C   0  0
   -2.8728    2.0488    0.0000 C   0  0
   -4.3426    1.7370    0.0000 C   0  0
   -4.8103    0.2672    0.0000 C   0  0
   -3.7636   -0.8240    0.0000 C   0  0
    0.9230   -1.5323    0.0000 H   0  0
    6.0080   -1.7520    0.0000 C   0  0
    7.0242   -0.6475    0.0000 N   0  0
    6.3668   -2.8970    0.0000 O   0  0
    8.4890   -0.9745    0.0000 C   0  0
    9.5052    0.1299    0.0000 C   0  0
   10.9700   -0.1970    0.0000 C   0  0
   11.9863    0.9074    0.0000 C   0  0
   13.4510    0.5805    0.0000 C   0  0
   14.4673    1.6849    0.0000 C   0  0
   15.9320    1.3580    0.0000 N   0  0
   14.1084    2.8300    0.0000 O   0  0
   16.9483    2.4624    0.0000 C   0  0  2  0  0  0
   18.4131    2.1354    0.0000 C   0  0
   19.4293    3.2399    0.0000 N   0  0
   18.7719    0.9903    0.0000 O   0  0
   20.8941    2.9129    0.0000 C   0  0  2  0  0  0
   21.3458    1.4817    0.0000 C   0  0
   22.8110    1.1564    0.0000 N   0  0
   20.5351    0.5970    0.0000 O   0  0
   23.2627   -0.2749    0.0000 C   0  0  2  0  0  0
   22.2510   -1.3835    0.0000 C   0  0
   21.0790   -1.1258    0.0000 N   0  0
   22.6135   -2.5274    0.0000 O   0  0
   21.9103    4.0173    0.0000 C   0  0
   16.5024    3.8955    0.0000 C   0  0
   24.7278   -0.6002    0.0000 C   0  0
   17.5199    4.9988    0.0000 C   0  0
   17.0740    6.4318    0.0000 C   0  0
   17.8875    7.3140    0.0000 C   0  0
   23.3751    3.6904    0.0000 C   0  0
   24.3924    4.7927    0.0000 C   0  0
   25.8557    4.4630    0.0000 C   0  0
   26.3018    3.0309    0.0000 C   0  0
   25.2846    1.9285    0.0000 C   0  0
   23.8213    2.2582    0.0000 C   0  0
   27.4724    2.7671    0.0000 O   0  0
   25.1796   -2.0314    0.0000 C   0  0
   26.6447   -2.3567    0.0000 C   0  0
   27.0965   -3.7880    0.0000 C   0  0
   28.2679   -4.0481    0.0000 N   0  0
  6  4  1  0
  5  1  1  0
  1  2  1  0
  2  3  1  0
  3  4  1  0
  5  6  1  0
  5  9  1  0
  6  7  1  0
  7  8  1  0
  8 10  1  0
  9 10  2  0
 10 13  1  0
 12 11  1  0
 11  9  1  0
 12 13  2  0
 13 14  1  0
 14 15  2  0
 15 16  1  0
 16 17  2  0
 17 12  1  0
  5 18  1  6
  3 19  1  1
 19 20  1  0
 19 21  2  0
 20 22  1  0
 22 23  1  0
 23 24  1  0
 24 25  1  0
 25 26  1  0
 26 27  1  0
 27 28  1  0
 27 29  2  0
 28 30  1  0
 30 31  1  0
 31 32  1  0
 31 33  2  0
 32 34  1  0
 34 35  1  0
 35 36  1  0
 35 37  2  0
 36 38  1  0
 38 39  1  0
 39 40  1  0
 39 41  2  0
 34 42  1  1
 30 43  1  1
 38 44  1  1
 43 45  1  0
 45 46  1  0
 46 47  1  0
 42 48  1  0
 48 49  2  0
 49 50  1  0
 50 51  2  0
 51 52  1  0
 52 53  2  0
 53 48  1  0
 51 54  1  0
 44 55  1  0
 55 56  1  0
 56 57  1  0
 57 58  1  0
M  END