
          11280715012D 1   1.00000     0.00000     0

 39 42  0     0  0            999 V2000
    5.9250   -4.3500    0.0000 N   0  0  0  0  0  0           0  0  0
    5.4375   -4.7125    0.0000 C   0  0  0  0  0  0           0  0  0
    6.4125   -4.7125    0.0000 C   0  0  0  0  0  0           0  0  0
    7.5292   -3.8125    0.0000 C   0  0  0  0  0  0           0  0  0
    7.5292   -4.4125    0.0000 C   0  0  0  0  0  0           0  0  0
    7.0125   -4.7125    0.0000 C   0  0  0  0  0  0           0  0  0
    6.2250   -5.2750    0.0000 O   0  0  0  0  0  0           0  0  0
    5.6250   -5.2750    0.0000 C   0  0  0  0  0  0           0  0  0
    4.8375   -4.7000    0.0000 C   0  0  0  0  0  0           0  0  0
    9.0667   -1.1042    0.0000 C   0  0  0  0  0  0           0  0  0
    7.0125   -3.5125    0.0000 C   0  0  0  0  0  0           0  0  0
    8.0500   -3.5125    0.0000 C   0  0  0  0  0  0           0  0  0
    4.5375   -4.1875    0.0000 O   0  0  0  0  0  0           0  0  0
    6.4875   -2.6125    0.0000 N   0  0  0  0  0  0           0  0  0
    9.5875   -0.8000    0.0000 O   0  0  0  0  0  0           0  0  0
    4.5375   -5.2167    0.0000 N   0  0  0  0  0  0           0  0  0
    8.5500   -0.8042    0.0000 O   0  0  0  0  0  0           0  0  0
    8.0500   -4.7125    0.0000 C   0  0  0  0  0  0           0  0  0
    7.0125   -2.9125    0.0000 C   0  0  0  0  0  0           0  0  0
    7.0125   -5.3125    0.0000 C   0  0  0  0  0  0           0  0  0
    9.0750   -1.7042    0.0000 C   0  0  0  0  0  0           0  0  0
    5.9667   -2.9125    0.0000 C   0  0  0  0  0  0           0  0  0
    2.1292   -4.1750    0.0000 C   0  0  3  0  0  0           0  0  0
    8.0417   -2.9125    0.0000 C   0  0  0  0  0  0           0  0  0
    6.4875   -3.8125    0.0000 C   0  0  0  0  0  0           0  0  0
    3.9375   -5.2167    0.0000 C   0  0  0  0  0  0           0  0  0
    2.7375   -4.1750    0.0000 C   0  0  0  0  0  0           0  0  0
    1.8375   -4.6875    0.0000 C   0  0  0  0  0  0           0  0  0
    1.8417   -3.6500    0.0000 C   0  0  0  0  0  0           0  0  0
    8.5542   -2.0042    0.0000 C   0  0  0  0  0  0           0  0  0
    8.5625   -2.6042    0.0000 C   0  0  0  0  0  0           0  0  0
    3.6375   -4.7000    0.0000 C   0  0  0  0  0  0           0  0  0
    3.0375   -4.7000    0.0000 C   0  0  0  0  0  0           0  0  0
    5.9667   -3.5125    0.0000 C   0  0  0  0  0  0           0  0  0
    8.0542   -5.3042    0.0000 C   0  0  0  0  0  0           0  0  0
    7.5375   -5.6125    0.0000 C   0  0  0  0  0  0           0  0  0
    1.2500   -3.6417    0.0000 C   0  0  0  0  0  0           0  0  0
    1.2375   -4.6875    0.0000 C   0  0  0  0  0  0           0  0  0
    0.9417   -4.1625    0.0000 C   0  0  0  0  0  0           0  0  0
  2  1  1  0     0  0
  3  1  2  0     0  0
  4  5  1  0     0  0
  5  6  2  0     0  0
  6  3  1  0     0  0
  7  3  1  0     0  0
  8  2  2  0     0  0
  9  2  1  0     0  0
 10 21  1  0     0  0
 11  4  1  0     0  0
 12  4  2  0     0  0
 13  9  2  0     0  0
 14 19  2  0     0  0
 15 10  2  0     0  0
 16  9  1  0     0  0
 17 10  1  0     0  0
 18  5  1  0     0  0
 19 11  1  0     0  0
 20  6  1  0     0  0
 21 30  1  0     0  0
 22 34  2  0     0  0
 23 27  1  0     0  0
 24 12  1  0     0  0
 25 11  2  0     0  0
 26 16  1  0     0  0
 27 33  1  0     0  0
 28 23  1  0     0  0
 29 23  1  0     0  0
 30 31  1  0     0  0
 31 24  1  0     0  0
 32 26  1  0     0  0
 33 32  1  0     0  0
 34 25  1  0     0  0
 35 36  1  0     0  0
 36 20  2  0     0  0
 37 29  1  0     0  0
 38 28  1  0     0  0
 39 37  1  0     0  0
  8  7  1  0     0  0
 35 18  2  0     0  0
 14 22  1  0     0  0
 39 38  1  0     0  0
M  END