
          08180812492D 1   1.00000     0.00000     0

 22 20  0     1  0            999 V2000
    3.6521   -8.8890    0.0000 N   0  0  0  0  0  0           0  0  0
    4.3629   -8.4772    0.0000 C   0  0  0  0  0  0           0  0  0
    5.0778   -8.8890    0.0000 N   0  0  0  0  0  0           0  0  0
    4.3629   -7.6536    0.0000 N   0  0  3  0  0  0           0  0  0
    5.7887   -8.4772    0.0000 C   0  0  0  0  0  0           0  0  0
    6.5036   -8.8890    0.0000 C   0  0  0  0  0  0           0  0  0
    7.2186   -8.4772    0.0000 C   0  0  0  0  0  0           0  0  0
    7.9293   -8.8890    0.0000 C   0  0  1  0  0  0           0  0  0
    8.6443   -8.4772    0.0000 C   0  0  0  0  0  0           0  0  0
    7.9293   -9.7126    0.0000 N   0  0  0  0  0  0           0  0  0
    9.3552   -8.8890    0.0000 O   0  0  0  0  0  0           0  0  0
    8.6443   -7.6536    0.0000 O   0  0  0  0  0  0           0  0  0
    5.0778   -7.2418    0.0000 C   0  0  0  0  0  0           0  0  0
    3.6521   -7.2418    0.0000 N   0  0  0  0  0  0           0  0  0
    5.0778   -6.4182    0.0000 C   0  0  3  0  0  0           0  0  0
    5.0705   -5.5904    0.0000 F   0  0  0  0  0  0           0  0  0
    5.9014   -6.4145    0.0000 F   0  0  0  0  0  0           0  0  0
    4.2543   -6.4261    0.0000 F   0  0  0  0  0  0           0  0  0
    7.0047   -6.3309    0.0000 C   0  0  0  0  0  0           0  0  0
    7.7238   -5.9191    0.0000 C   0  0  0  0  0  0           0  0  0
    8.4388   -6.3309    0.0000 O   0  0  0  0  0  0           0  0  0
    7.7238   -5.0913    0.0000 O   0  0  0  0  0  0           0  0  0
  9 11  1  0     0  0
  9 12  2  0     0  0
  5  6  1  0     0  0
  4 13  1  0     0  0
  2  3  2  0     0  0
  4 14  1  0     0  0
  6  7  1  0     0  0
 13 15  1  0     0  0
 15 16  1  0     0  0
  7  8  1  0     0  0
 15 17  1  0     0  0
  2  4  1  0     0  0
 15 18  1  0     0  0
  8  9  1  0     0  0
  1  2  1  0     0  0
 19 20  1  0     0  0
  8 10  1  1     0  0
 20 21  1  0     0  0
  3  5  1  0     0  0
 20 22  2  0     0  0
M  END