
          11280715472D 1   1.00000     0.00000     0

 30 32  0     0  0            999 V2000
    5.4792   -2.8667    0.0000 S   0  0  3  0  0  0           0  0  0
    4.7667   -3.2750    0.0000 N   0  0  0  0  0  0           0  0  0
    3.3917   -1.5292    0.0000 N   0  0  0  0  0  0           0  0  0
    4.0542   -2.0250    0.0000 N   0  0  3  0  0  0           0  0  0
    4.0542   -2.8542    0.0000 C   0  0  0  0  0  0           0  0  0
    3.6667   -0.7542    0.0000 C   0  0  0  0  0  0           0  0  0
    4.4792   -0.7625    0.0000 C   0  0  3  0  0  0           0  0  0
    4.7167   -1.5542    0.0000 C   0  0  0  0  0  0           0  0  0
    5.8917   -3.5792    0.0000 N   0  0  3  0  0  0           0  0  0
    5.0667   -2.1417    0.0000 O   0  0  0  0  0  0           0  0  0
    6.2000   -2.4542    0.0000 O   0  0  0  0  0  0           0  0  0
    3.1542   -0.0917    0.0000 C   0  0  0  0  0  0           0  0  0
    5.0042   -0.1292    0.0000 C   0  0  0  0  0  0           0  0  0
    3.3292   -3.2542    0.0000 N   0  0  0  0  0  0           0  0  0
    3.4667    0.6708    0.0000 C   0  0  0  0  0  0           0  0  0
    2.3417   -0.2125    0.0000 C   0  0  0  0  0  0           0  0  0
    6.7167   -3.5792    0.0000 C   0  0  3  0  0  0           0  0  0
    2.1417    1.1958    0.0000 C   0  0  0  0  0  0           0  0  0
    1.8292    0.4458    0.0000 C   0  0  0  0  0  0           0  0  0
    2.9667    1.3208    0.0000 C   0  0  0  0  0  0           0  0  0
    1.6250    1.8333    0.0000 Cl  0  0  0  0  0  0           0  0  0
    5.4792   -4.2917    0.0000 C   0  0  0  0  0  0           0  0  0
    4.7042    0.6458    0.0000 C   0  0  0  0  0  0           0  0  0
    5.8250   -0.2667    0.0000 C   0  0  0  0  0  0           0  0  0
    3.3292   -4.0875    0.0000 C   0  0  0  0  0  0           0  0  0
    7.1417   -2.8667    0.0000 C   0  0  0  0  0  0           0  0  0
    7.1292   -4.3000    0.0000 C   0  0  0  0  0  0           0  0  0
    5.2292    1.2833    0.0000 C   0  0  0  0  0  0           0  0  0
    6.3417    0.3708    0.0000 C   0  0  0  0  0  0           0  0  0
    6.0417    1.1458    0.0000 C   0  0  0  0  0  0           0  0  0
  2  1  1  0     0  0
  3  4  1  0     0  0
  4  5  1  0     0  0
  5  2  1  0     0  0
  6  3  2  0     0  0
  7  8  1  0     0  0
  8  4  1  0     0  0
  9  1  1  0     0  0
 10  1  2  0     0  0
 11  1  2  0     0  0
 12  6  1  0     0  0
 13  7  1  0     0  0
 14  5  2  0     0  0
 15 12  1  0     0  0
 16 12  2  0     0  0
 17  9  1  0     0  0
 18 19  2  0     0  0
 19 16  1  0     0  0
 20 15  2  0     0  0
 21 18  1  0     0  0
 22  9  1  0     0  0
 23 13  1  0     0  0
 24 13  2  0     0  0
 25 14  1  0     0  0
 26 17  1  0     0  0
 27 17  1  0     0  0
 28 23  2  0     0  0
 29 24  1  0     0  0
 30 29  2  0     0  0
  7  6  1  0     0  0
 20 18  1  0     0  0
 30 28  1  0     0  0
M  END