
  SciTegic12231509382D

 19 21  0  0  1  0            999 V2000
    2.1214   -0.0243    0.0000 O   0  0
    2.1214    1.6257    0.0000 O   0  0
    6.0721    0.8007    0.0000 N   0  0
    4.2648    0.3882    0.0000 C   0  0
    4.9099   -0.1262    0.0000 C   0  0  1  0  0  0
    4.2648    1.2132    0.0000 C   0  0
    3.5504   -0.0243    0.0000 C   0  0
    2.8359    0.3882    0.0000 C   0  0
    4.7263   -0.9305    0.0000 C   0  0
    2.8359    1.2132    0.0000 C   0  0
    3.5504    1.6257    0.0000 C   0  0
    5.7142    0.0574    0.0000 C   0  0
    4.9099    1.7276    0.0000 C   0  0
    5.3310   -1.4916    0.0000 C   0  0
    3.9379   -1.1737    0.0000 C   0  0
    5.7142    1.5440    0.0000 C   0  0
    5.1475   -2.2960    0.0000 C   0  0
    3.7543   -1.9780    0.0000 C   0  0
    4.3591   -2.5391    0.0000 C   0  0
  1  8  1  0
  2 10  1  0
  3 12  1  0
  3 16  1  0
  4  5  1  0
  4  6  2  0
  4  7  1  0
  5  9  1  6
  5 12  1  0
  6 11  1  0
  6 13  1  0
  7  8  2  0
  8 10  1  0
  9 14  2  0
  9 15  1  0
 10 11  2  0
 13 16  1  0
 14 17  1  0
 15 18  2  0
 17 19  2  0
 18 19  1  0
M  END