
          08180812472D 1   1.00000     0.00000     0

 28 31  0     1  0            999 V2000
    5.0106  -30.7418    0.0000 C   0  0  0  0  0  0           0  0  0
    5.0106  -29.9168    0.0000 C   0  0  0  0  0  0           0  0  0
    5.7241  -29.5020    0.0000 C   0  0  0  0  0  0           0  0  0
    4.2970  -31.1520    0.0000 O   0  0  0  0  0  0           0  0  0
    5.7241  -31.1521    0.0000 C   0  0  0  0  0  0           0  0  0
    6.4375  -30.7418    0.0000 C   0  0  0  0  0  0           0  0  0
    7.1510  -31.1521    0.0000 C   0  0  0  0  0  0           0  0  0
    7.8646  -30.7418    0.0000 C   0  0  0  0  0  0           0  0  0
    7.8646  -29.9168    0.0000 C   0  0  1  0  0  0           0  0  0
    8.5781  -29.5020    0.0000 C   0  0  2  0  0  0           0  0  0
    9.3632  -29.7587    0.0000 C   0  0  0  0  0  0           0  0  0
    9.8487  -29.0918    0.0000 C   0  0  0  0  0  0           0  0  0
    9.3632  -28.4248    0.0000 C   0  0  2  0  0  0           0  0  0
   10.1093  -28.0755    0.0000 O   0  0  0  0  0  0           0  0  0
    8.5781  -28.6815    0.0000 C   0  0  2  0  0  0           0  0  0
    8.5034  -27.6120    0.0000 C   0  0  0  0  0  0           0  0  0
    7.8646  -28.2667    0.0000 C   0  0  0  0  0  0           0  0  0
    7.1510  -28.6815    0.0000 C   0  0  0  0  0  0           0  0  0
    7.1510  -29.5020    0.0000 C   0  0  2  0  0  0           0  0  0
    6.4375  -29.9168    0.0000 C   0  0  1  0  0  0           0  0  0
    6.4375  -29.0918    0.0000 H   0  0  0  0  0  0           0  0  0
    7.7631  -27.2501    0.0000 C   0  0  0  0  0  0           0  0  0
    6.4375  -28.2667    0.0000 C   0  0  0  0  0  0           0  0  0
    9.1669  -27.6224    0.0000 C   0  0  0  0  0  0           0  0  0
    8.9661  -26.8246    0.0000 C   0  0  0  0  0  0           0  0  0
    7.1510  -30.3270    0.0000 H   0  0  0  0  0  0           0  0  0
    7.8646  -29.0917    0.0000 H   0  0  0  0  0  0           0  0  0
    8.5781  -30.3270    0.0000 H   0  0  0  0  0  0           0  0  0
  1  2  1  0     0  0
  2  3  1  0     0  0
  1  4  2  0     0  0
  1  5  1  0     0  0
  5  6  2  0     0  0
  6  7  1  0     0  0
  7  8  1  0     0  0
  8  9  1  0     0  0
  9 10  1  0     0  0
 10 11  1  0     0  0
 11 12  1  0     0  0
 12 13  1  0     0  0
 13 14  1  1     0  0
 13 15  1  0     0  0
 10 15  1  0     0  0
 15 16  1  1     0  0
 15 17  1  0     0  0
 17 18  1  0     0  0
 18 19  1  0     0  0
  9 19  1  0     0  0
 19 20  1  0     0  0
  3 20  1  0     0  0
  6 20  1  0     0  0
 20 21  1  1     0  0
 16 22  1  0     0  0
 18 23  2  0     0  0
 24 25  3  0     0  0
 13 24  1  0     0  0
 19 26  1  6     0  0
  9 27  1  1     0  0
 10 28  1  6     0  0
M  END