
          11280714462D 1   1.00000     0.00000     0

 40 42  0     1  0            999 V2000
    4.4875  -10.0500    0.0000 N   0  0  0  0  0  0           0  0  0
    3.7750   -9.6375    0.0000 C   0  0  0  0  0  0           0  0  0
   10.2042   -8.4000    0.0000 C   0  0  0  0  0  0           0  0  0
    9.4917   -8.8125    0.0000 C   0  0  2  0  0  0           0  0  0
   10.2250  -13.3542    0.0000 C   0  0  0  0  0  0           0  0  0
    3.0625  -10.0500    0.0000 C   0  0  0  0  0  0           0  0  0
    9.5042  -13.7667    0.0000 C   0  0  3  0  0  0           0  0  0
    8.7792  -10.0542    0.0000 S   0  0  0  0  0  0           0  0  0
    8.0667  -11.3000    0.0000 C   0  0  0  0  0  0           0  0  0
    9.4917   -9.6417    0.0000 C   0  0  0  0  0  0           0  0  0
   10.9250   -8.8125    0.0000 O   0  5  0  0  0  0           0  0  0
    3.7750   -8.8125    0.0000 C   0  0  0  0  0  0           0  0  0
   10.2250  -12.5292    0.0000 C   0  0  0  0  0  0           0  0  0
    8.7875  -10.8792    0.0000 C   0  0  2  0  0  0           0  0  0
   10.2042   -7.5667    0.0000 O   0  0  0  0  0  0           0  0  0
    7.3500  -10.8875    0.0000 C   0  0  0  0  0  0           0  0  0
    5.2042   -9.6375    0.0000 C   0  0  0  0  0  0           0  0  0
    9.5125  -12.1167    0.0000 C   0  0  0  0  0  0           0  0  0
    9.5042  -11.2917    0.0000 C   0  0  0  0  0  0           0  0  0
    2.3417   -9.6375    0.0000 C   0  0  0  0  0  0           0  0  0
    4.4875   -8.4000    0.0000 C   0  0  0  0  0  0           0  0  0
    3.0625   -8.4000    0.0000 C   0  0  0  0  0  0           0  0  0
    5.9167  -10.8875    0.0000 O   0  0  0  0  0  0           0  0  0
    6.6292  -11.3000    0.0000 C   0  0  0  0  0  0           0  0  0
    9.5042  -14.5917    0.0000 O   0  0  0  0  0  0           0  0  0
    5.9250  -10.0542    0.0000 C   0  0  0  0  0  0           0  0  0
    5.2042   -8.8125    0.0000 C   0  0  0  0  0  0           0  0  0
    2.3417   -8.8125    0.0000 C   0  0  0  0  0  0           0  0  0
    1.6250  -10.0542    0.0000 Cl  0  0  0  0  0  0           0  0  0
   11.9167   -8.7667    0.0000 Na  0  3  0  0  0  0           0  0  0
    8.0667  -12.1292    0.0000 C   0  0  0  0  0  0           0  0  0
    8.7792   -8.4042    0.0000 C   0  0  0  0  0  0           0  0  0
    7.3417  -12.5417    0.0000 C   0  0  0  0  0  0           0  0  0
   10.9375  -13.7667    0.0000 C   0  0  0  0  0  0           0  0  0
    8.7917  -13.3542    0.0000 C   0  0  0  0  0  0           0  0  0
    8.6792  -13.7625    0.0000 C   0  0  0  0  0  0           0  0  0
   10.9417  -12.1167    0.0000 C   0  0  0  0  0  0           0  0  0
    6.6292  -12.1292    0.0000 C   0  0  0  0  0  0           0  0  0
   11.6625  -13.3542    0.0000 C   0  0  0  0  0  0           0  0  0
   11.6542  -12.5292    0.0000 C   0  0  0  0  0  0           0  0  0
  2  1  1  0     0  0
  3  4  1  0     0  0
  4 10  1  0     0  0
  5 13  2  0     0  0
  6  2  2  0     0  0
  7  5  1  0     0  0
 14  8  1  1     0  0
  9 16  2  0     0  0
 10  8  1  0     0  0
 11  3  1  0     0  0
 12  2  1  0     0  0
 13 18  1  0     0  0
 14  9  1  0     0  0
 15  3  2  0     0  0
 16 24  1  0     0  0
 17  1  2  0     0  0
 18 19  1  0     0  0
 19 14  1  0     0  0
 20  6  1  0     0  0
 21 27  2  0     0  0
 22 12  2  0     0  0
 23 26  1  0     0  0
 24 23  1  0     0  0
 25  7  1  0     0  0
 26 17  1  0     0  0
 27 17  1  0     0  0
 28 22  1  0     0  0
 29 20  1  0     0  0
 31 33  2  0     0  0
  4 32  1  6     0  0
 33 38  1  0     0  0
 34  5  1  0     0  0
 35  7  1  0     0  0
 36  7  1  0     0  0
 37 13  1  0     0  0
 38 24  2  0     0  0
 39 40  1  0     0  0
 40 37  2  0     0  0
 21 12  1  0     0  0
 20 28  2  0     0  0
 31  9  1  0     0  0
 34 39  2  0     0  0
M  CHG  2  11  -1  30   1
M  END