
          11280715192D 1   1.00000     0.00000     0

 35 37  0     0  0            999 V2000
    3.1167   -9.9375    0.0000 N   0  3  0  0  0  0           0  0  0
    3.1125   -5.8125    0.0000 C   0  0  0  0  0  0           0  0  0
    2.4000   -3.7500    0.0000 C   0  0  0  0  0  0           0  0  0
    3.1125   -4.9875    0.0000 C   0  0  0  0  0  0           0  0  0
    2.4000   -4.5750    0.0000 C   0  0  0  0  0  0           0  0  0
    5.2542   -3.7375    0.0000 C   0  0  0  0  0  0           0  0  0
    3.1125   -6.6375    0.0000 C   0  0  0  0  0  0           0  0  0
    5.9625   -3.3167    0.0000 C   0  0  0  0  0  0           0  0  0
    5.2542   -4.5625    0.0000 C   0  0  0  0  0  0           0  0  0
    3.8292   -3.7417    0.0000 C   0  0  0  0  0  0           0  0  0
    3.1125   -9.1125    0.0000 C   0  0  0  0  0  0           0  0  0
    2.4000  -10.3500    0.0000 O   0  5  0  0  0  0           0  0  0
    3.1125   -3.3292    0.0000 C   0  0  0  0  0  0           0  0  0
    4.5417   -3.3292    0.0000 C   0  0  0  0  0  0           0  0  0
    3.8292   -4.5750    0.0000 C   0  0  0  0  0  0           0  0  0
    3.8292  -10.3500    0.0000 O   0  0  0  0  0  0           0  0  0
    8.8292   -4.9542    0.0000 C   0  0  0  0  0  0           0  0  0
    5.9667   -4.9667    0.0000 C   0  0  0  0  0  0           0  0  0
    6.6792   -3.7250    0.0000 C   0  0  0  0  0  0           0  0  0
    6.6875   -4.5542    0.0000 C   0  0  0  0  0  0           0  0  0
    8.8292   -5.7792    0.0000 O   0  0  0  0  0  0           0  0  0
    3.1125   -7.4625    0.0000 C   0  0  0  0  0  0           0  0  0
    3.8292   -8.6917    0.0000 C   0  0  0  0  0  0           0  0  0
    2.4000   -8.6917    0.0000 C   0  0  0  0  0  0           0  0  0
    1.6875   -3.3375    0.0000 C   0  0  3  0  0  0           0  0  0
    7.4042   -4.9667    0.0000 O   0  0  0  0  0  0           0  0  0
    8.1167   -4.5500    0.0000 C   0  0  0  0  0  0           0  0  0
    1.6792   -4.9875    0.0000 O   0  0  0  0  0  0           0  0  0
    9.5417   -4.5417    0.0000 O   0  0  0  0  0  0           0  0  0
    3.8292   -7.8667    0.0000 C   0  0  0  0  0  0           0  0  0
    2.4000   -7.8750    0.0000 C   0  0  0  0  0  0           0  0  0
    5.9542   -2.4917    0.0000 C   0  0  0  0  0  0           0  0  0
    4.5417   -4.9750    0.0000 C   0  0  0  0  0  0           0  0  0
    0.9667   -3.7500    0.0000 C   0  0  0  0  0  0           0  0  0
    1.6875   -2.5125    0.0000 C   0  0  0  0  0  0           0  0  0
  2  7  3  0     0  0
  3  5  2  0     0  0
  4  2  1  0     0  0
  5  4  1  0     0  0
  6 14  1  0     0  0
  7 22  1  0     0  0
  8  6  1  0     0  0
  9  6  2  0     0  0
 10 15  1  0     0  0
 11  1  1  0     0  0
 12  1  1  0     0  0
 13 10  2  0     0  0
 14 10  1  0     0  0
 15  4  2  0     0  0
 16  1  2  0     0  0
 17 27  1  0     0  0
 18  9  1  0     0  0
 19  8  2  0     0  0
 20 18  2  0     0  0
 21 17  2  0     0  0
 22 31  2  0     0  0
 23 11  1  0     0  0
 24 11  2  0     0  0
 25  3  1  0     0  0
 26 20  1  0     0  0
 27 26  1  0     0  0
 28  5  1  0     0  0
 29 17  1  0     0  0
 30 23  2  0     0  0
 31 24  1  0     0  0
 32  8  1  0     0  0
 33  9  1  0     0  0
 34 25  1  0     0  0
 35 25  1  0     0  0
 22 30  1  0     0  0
  3 13  1  0     0  0
 20 19  1  0     0  0
M  CHG  2   1   1  12  -1
M  END