
  SciTegic11201309402D

 57 60  0  0  1  0            999 V2000
    2.6917   -4.9792    0.0000 C   0  0
    1.6167   -1.5917    0.0000 N   0  0
    1.6167   -2.4167    0.0000 C   0  0
    1.8917   -4.8375    0.0000 C   0  0
    1.6167   -3.2417    0.0000 C   0  0
    1.6042   -4.0667    0.0000 O   0  0
    6.0542   -6.9917    0.0000 O   0  0
    2.9542   -5.7625    0.0000 C   0  0
    3.0417   -1.6000    0.0000 C   0  0
    5.3292   -7.3792    0.0000 C   0  0
    3.7542   -1.1875    0.0000 O   0  0
    6.7917   -5.5000    0.0000 C   0  0
    2.3292   -1.1875    0.0000 C   0  0  2  0  0  0
    4.5667   -6.1250    0.0000 O   0  0
    3.7667   -5.9250    0.0000 C   0  0  2  0  0  0
    4.6292   -6.9417    0.0000 C   0  0
    6.8667   -1.3250    0.0000 C   0  0
    3.7542   -0.3625    0.0000 C   0  0  1  0  0  0
    6.9917    0.1000    0.0000 C   0  0
    7.3417   -0.6500    0.0000 C   0  0
    3.2417   -4.3625    0.0000 O   0  0
    6.6167   -4.1750    0.0000 O   0  0
    2.4417   -2.4167    0.0000 O   0  0
    1.3542   -5.4750    0.0000 O   0  0
    2.4167   -6.3792    0.0000 O   0  0
    0.7917   -3.2375    0.0000 O   0  0
    7.2167   -2.0750    0.0000 C   0  0
    3.0417   -2.4250    0.0000 O   0  0
    5.3042   -8.2042    0.0000 O   0  0
    7.7000   -5.5292    0.0000 O   0  0
    3.3417   -6.6250    0.0000 C   0  0
    0.8792    1.2708    0.0000 N   0  0
    3.8667   -7.2542    0.0000 C   0  0
    6.1667    0.1708    0.0000 C   0  0
    7.4667    0.7750    0.0000 O   0  0
    4.8292   -0.0625    0.0000 C   0  0  1  0  0  0
    3.0292    0.0500    0.0000 C   0  0
    5.6917   -0.5042    0.0000 C   0  0
    8.6292   -0.0500    0.0000 C   0  0
    9.4542   -0.1167    0.0000 C   0  0
    0.9042   -1.1875    0.0000 C   0  0
    3.0292    0.8750    0.0000 C   0  0
    7.0917   -3.5000    0.0000 C   0  0
    2.3042    1.2750    0.0000 C   0  0
    8.1542   -0.7250    0.0000 C   0  0
    2.3292   -0.3625    0.0000 C   0  0
    1.6042    0.8625    0.0000 C   0  0
    6.7417   -2.7500    0.0000 C   0  0
    0.8792    2.0958    0.0000 C   0  0
    8.0292   -2.1500    0.0000 C   0  0
    4.8292    0.8458    0.0000 C   0  0
    2.3042    2.1000    0.0000 C   0  0
    0.9042   -0.3625    0.0000 C   0  0
    1.5917    2.5208    0.0000 C   0  0
    1.6167    0.0583    0.0000 C   0  0
    2.8511   -6.3272    0.0000 H   0  0
    3.1955   -0.6880    0.0000 H   0  0
  2  3  1  0
  3  5  1  0
  4  1  1  0
  5  6  1  0
  6  4  1  0
  7 10  1  0
  8  1  1  0
 13  9  1  0
 10 16  1  0
 11  9  1  0
 12  7  1  0
 13  2  1  0
 14 15  1  0
 15  8  1  0
 16 14  1  0
 17 27  2  0
 18 11  1  0
 19 34  1  0
 20 17  1  0
 21  1  2  0
 22 12  1  0
 23  3  2  0
 24  4  2  0
 25  8  2  0
 26  5  2  0
 27 48  1  0
 28  9  2  0
 29 10  2  0
 30 12  2  0
 31 15  1  0
 32 47  2  0
 33 31  1  0
 34 38  1  0
 35 19  2  0
 36 18  1  0
 18 37  1  6
 38 36  1  0
 39 45  1  0
 40 39  2  0
 41  2  1  0
 42 37  1  0
 43 22  1  0
 44 42  1  0
 45 20  1  0
 46 13  1  0
 47 44  1  0
 48 43  1  0
 49 54  2  0
 50 27  1  0
 36 51  1  6
 52 44  2  0
 53 41  1  0
 54 52  1  0
 55 53  1  0
 15 56  1  1
 16 33  1  0
 55 46  1  0
 19 20  1  0
 49 32  1  0
 13 57  1  6
M  END