
          11280715092D 1   1.00000     0.00000     0

 15 15  0     0  0            999 V2000
   -2.9958    0.5250    0.0000 C   0  0  0  0  0  0           0  0  0
   -2.9958   -0.3042    0.0000 C   0  0  0  0  0  0           0  0  0
   -2.2833    0.9375    0.0000 C   0  0  0  0  0  0           0  0  0
   -1.5708    0.5250    0.0000 C   0  0  0  0  0  0           0  0  0
   -2.2833   -0.7167    0.0000 C   0  0  0  0  0  0           0  0  0
   -0.1375   -2.7917    0.0000 C   0  0  0  0  0  0           0  0  0
   -1.5708   -0.3042    0.0000 C   0  0  0  0  0  0           0  0  0
   -0.8500   -3.2042    0.0000 O   0  0  0  0  0  0           0  0  0
   -3.7208   -0.7292    0.0000 I   0  0  0  0  0  0           0  0  0
   -2.2833    1.7625    0.0000 I   0  0  0  0  0  0           0  0  0
   -3.7208    0.9500    0.0000 O   0  0  0  0  0  0           0  0  0
    0.5792   -3.2042    0.0000 O   0  0  0  0  0  0           0  0  0
   -0.1375   -1.9667    0.0000 C   0  0  0  0  0  0           0  0  0
   -0.8500   -1.5542    0.0000 C   0  0  0  0  0  0           0  0  0
   -0.8458   -0.7250    0.0000 C   0  0  0  0  0  0           0  0  0
  2  1  2  0     0  0
  3  1  1  0     0  0
  4  3  2  0     0  0
  5  2  1  0     0  0
  6 13  1  0     0  0
  7  4  1  0     0  0
  8  6  2  0     0  0
  9  2  1  0     0  0
 10  3  1  0     0  0
 11  1  1  0     0  0
 12  6  1  0     0  0
 13 14  1  0     0  0
 14 15  1  0     0  0
 15  7  1  0     0  0
  7  5  2  0     0  0
M  END