
          11280715262D 1   1.00000     0.00000     0

 22 25  0     0  0            999 V2000
    0.5667    1.2083    0.0000 C   0  0  0  0  0  0           0  0  0
   -0.1458    0.7875    0.0000 C   0  0  0  0  0  0           0  0  0
   -1.5625   -0.0500    0.0000 C   0  0  3  0  0  0           0  0  0
   -0.8583    1.1958    0.0000 N   0  0  0  0  0  0           0  0  0
    1.2792    0.7833    0.0000 C   0  0  0  0  0  0           0  0  0
    0.5792    2.0333    0.0000 C   0  0  0  0  0  0           0  0  0
   -2.3208   -1.3500    0.0000 C   0  0  3  0  0  0           0  0  0
   -0.8458   -1.2875    0.0000 C   0  0  3  0  0  0           0  0  0
   -2.0208   -1.7167    0.0000 C   0  0  3  0  0  0           0  0  0
   -0.8458   -0.4667    0.0000 C   0  0  0  0  0  0           0  0  0
   -2.0208   -0.6792    0.0000 C   0  0  0  0  0  0           0  0  0
   -2.3208   -0.4500    0.0000 C   0  0  0  0  0  0           0  0  0
   -0.1333   -0.0292    0.0000 O   0  0  0  0  0  0           0  0  0
   -1.5708    0.7750    0.0000 C   0  0  0  0  0  0           0  0  0
   -1.2000   -2.0000    0.0000 C   0  0  0  0  0  0           0  0  0
   -2.6625   -2.0000    0.0000 C   0  0  0  0  0  0           0  0  0
   -1.5375   -1.6417    0.0000 C   0  0  0  0  0  0           0  0  0
    2.0000    1.1833    0.0000 C   0  0  0  0  0  0           0  0  0
    1.3042    2.4333    0.0000 C   0  0  0  0  0  0           0  0  0
    1.2667   -0.0417    0.0000 Cl  0  0  0  0  0  0           0  0  0
    2.0042    2.0083    0.0000 C   0  0  0  0  0  0           0  0  0
    1.3000    3.2583    0.0000 Cl  0  0  0  0  0  0           0  0  0
  2  1  1  0     0  0
  3 14  1  0     0  0
  4  2  1  0     0  0
  5  1  2  0     0  0
  6  1  1  0     0  0
  7 12  1  0     0  0
  8 10  1  0     0  0
  9 11  1  0     0  0
 10  3  1  0     0  0
 11  3  1  0     0  0
 12  3  1  0     0  0
 13  2  2  0     0  0
 14  4  1  0     0  0
 15  9  1  0     0  0
 16  7  1  0     0  0
 17  7  1  0     0  0
 18  5  1  0     0  0
 19  6  2  0     0  0
 20  5  1  0     0  0
 21 19  1  0     0  0
 22 19  1  0     0  0
 21 18  2  0     0  0
  8 17  1  0     0  0
  9 16  1  0     0  0
  8 15  1  0     0  0
M  END