
  SciTegic12231509382D

 88 91  0  0  1  0            999 V2000
   11.4354   -1.6867    0.0000 N   0  0
   10.7204   -2.0969    0.0000 C   0  0
    5.7154   -1.6661    0.0000 C   0  0  1  0  0  0
    6.4304   -2.0808    0.0000 C   0  0
    5.0004   -2.0762    0.0000 N   0  0
    4.2854   -1.6614    0.0000 C   0  0
   12.3451   -2.8348    0.0000 C   0  0
   10.0054   -1.6798    0.0000 C   0  0  1  0  0  0
    2.8554   -1.6569    0.0000 N   0  0
   18.4868   -7.8970    0.0000 N   0  3
    2.1404   -2.0671    0.0000 C   0  0
   12.1779   -2.0281    0.0000 C   0  0  2  0  0  0
    8.5754   -1.6752    0.0000 C   0  0
    9.2904   -2.0900    0.0000 N   0  0
   14.0754   -4.1662    0.0000 C   0  0
    7.1454   -1.6706    0.0000 N   0  0
    3.5704   -2.0717    0.0000 C   0  0  1  0  0  0
   13.1266   -3.0983    0.0000 N   0  0
   14.2404   -4.9752    0.0000 N   0  0
    7.8604   -2.0854    0.0000 C   0  0  1  0  0  0
   -0.0046   -1.6454    0.0000 C   0  0
    7.8558   -2.9104    0.0000 C   0  0
   18.6197   -8.5433    0.0000 N   0  5
    1.4254   -1.6500    0.0000 C   0  0  1  0  0  0
   15.0241   -5.2364    0.0000 C   0  0  2  0  0  0
    0.7104   -2.0602    0.0000 N   0  0
   15.6429   -4.6910    0.0000 C   0  0
   -0.7196   -2.0556    0.0000 C   0  0
   18.3218   -7.0881    0.0000 N   0  0
   17.5381   -6.8268    0.0000 C   0  0
    7.1385   -3.3206    0.0000 C   0  0
   17.3731   -6.0179    0.0000 C   0  0
   13.2916   -3.9050    0.0000 C   0  0  1  0  0  0
   -2.8737   -4.1135    0.0000 C   0  0
   -1.4346   -1.6408    0.0000 C   0  0
   10.7181   -2.7569    0.0000 O   0  0
    6.4281   -2.7408    0.0000 O   0  0
    4.2877   -1.0014    0.0000 O   0  0
   11.8501   -3.2748    0.0000 O   0  0
   15.1891   -6.0454    0.0000 C   0  0
    2.1381   -2.7271    0.0000 O   0  0
    8.5777   -1.0152    0.0000 O   0  0
   16.5893   -5.7589    0.0000 C   0  0
   14.5704   -3.7285    0.0000 O   0  0
    1.4277   -0.8250    0.0000 C   0  0
   15.9729   -6.3067    0.0000 C   0  0
   -2.8692   -3.2862    0.0000 C   0  0
   -0.0023   -0.9854    0.0000 O   0  0
   16.2685   -4.8995    0.0000 O   0  0
    5.7200   -0.8411    0.0000 C   0  0  2  0  0  0
    7.1339   -3.9806    0.0000 O   0  0
   -3.4444   -4.4412    0.0000 O   0  0
   16.9239   -7.3745    0.0000 C   0  0
   -2.1496   -2.0511    0.0000 S   0  0
   15.5122   -4.0448    0.0000 N   0  0
   11.5133   -0.8708    0.0000 C   0  0
    3.5658   -2.8967    0.0000 C   0  0  2  0  0  0
    6.5679   -2.9883    0.0000 N   0  0
   -2.3031   -4.4458    0.0000 N   0  0
    2.1427   -0.4125    0.0000 C   0  0
   17.8657   -5.5802    0.0000 I   0  0
   -2.1542   -2.8760    0.0000 C   0  0
   10.0077   -0.8548    0.0000 C   0  0
   16.1401   -7.1156    0.0000 C   0  0
    3.5750    0.4079    0.0000 C   0  0
    9.4370   -0.5248    0.0000 S   0  0
    2.8554   -0.8273    0.0000 C   0  0
    2.1450    0.4125    0.0000 C   0  0
   10.6470   -4.5260    0.0000 N   0  0
    3.5704   -0.4171    0.0000 C   0  0
    2.8600    0.8227    0.0000 C   0  0
   12.7325   -1.4162    0.0000 C   0  0
    6.2929   -0.5133    0.0000 O   0  0
    4.2900    0.8158    0.0000 O   0  0
   12.3200   -0.7012    0.0000 C   0  0
   12.6729   -4.4527    0.0000 C   0  0
   -0.7173   -1.2536    0.0000 C   0  0
   -2.1473   -1.2489    0.0000 C   0  0
   11.2726   -4.7369    0.0000 C   0  0
    2.8485   -3.3046    0.0000 C   0  0
    5.1517   -0.5064    0.0000 C   0  0
    4.1342   -3.2289    0.0000 C   0  0
    4.8606    0.4836    0.0000 C   0  0
   11.8914   -4.1892    0.0000 C   0  0
    2.8439   -3.9645    0.0000 C   0  0
   -0.7150   -0.4286    0.0000 C   0  0
   -2.1450   -0.4239    0.0000 C   0  0
   -1.4277   -0.0137    0.0000 C   0  0
  2  1  1  0
  3  4  1  0
  4 16  1  0
  3  5  1  1
  6  5  1  0
 12  7  1  1
  8  2  1  0
 17  9  1  6
 10 29  2  0
 11  9  1  0
 12  1  1  0
 13 14  1  0
  8 14  1  1
 15 33  1  0
 20 16  1  6
 17  6  1  0
 18  7  1  0
 19 15  1  0
 20 13  1  0
 21 26  1  0
 22 20  1  0
 23 10  2  0
 24 11  1  0
 25 19  1  0
 26 24  1  0
 27 25  1  0
 28 21  1  0
 29 30  1  0
 30 32  1  0
 31 22  1  0
 32 43  2  0
 33 18  1  0
 34 47  1  0
 35 28  1  0
 36  2  2  0
 37  4  2  0
 38  6  2  0
 39  7  2  0
 25 40  1  6
 41 11  2  0
 42 13  2  0
 43 46  1  0
 44 15  2  0
 24 45  1  1
 46 40  1  0
 47 62  1  0
 48 21  2  0
 49 27  2  0
 50  3  1  0
 51 31  2  0
 52 34  2  0
 53 64  1  0
 54 35  1  0
 55 27  1  0
 56  1  1  0
 57 17  1  0
 58 31  1  0
 59 34  1  0
 60 45  1  0
 61 32  1  0
 62 54  1  0
 63  8  1  0
 64 46  2  0
 65 70  1  0
 66 63  1  0
 67 60  1  0
 68 60  2  0
 69 79  1  0
 70 67  2  0
 71 68  1  0
 72 12  1  0
 73 50  1  0
 74 65  1  0
 75 56  1  0
 33 76  1  6
 77 35  1  0
 78 35  1  0
 79 84  1  0
 80 57  1  0
 50 81  1  1
 57 82  1  1
 83 74  1  0
 84 76  1  0
 85 80  1  0
 86 77  1  0
 87 78  1  0
 88 86  1  0
 72 75  1  0
 30 53  2  0
 65 71  2  0
 88 87  1  0
M  CHG  2  10   1  23  -1
M  END