
          11280715492D 1   1.00000     0.00000     0

 20 21  0     0  0            999 V2000
   12.9239  -24.6335    0.0000 C   0  0  0  0  0  0           0  0  0
   13.6434  -25.0434    0.0000 C   0  0  0  0  0  0           0  0  0
    9.3625  -22.5667    0.0000 C   0  0  3  0  0  0           0  0  0
    9.3625  -23.3917    0.0000 C   0  0  0  0  0  0           0  0  0
   10.0745  -23.8000    0.0000 C   0  0  0  0  0  0           0  0  0
   10.7865  -23.3917    0.0000 N   0  0  3  0  0  0           0  0  0
   10.7865  -22.5667    0.0000 C   0  0  0  0  0  0           0  0  0
   10.0745  -22.1500    0.0000 C   0  0  0  0  0  0           0  0  0
    8.6468  -22.1563    0.0000 C   0  0  0  0  0  0           0  0  0
    7.9336  -22.5709    0.0000 C   0  0  0  0  0  0           0  0  0
    7.1792  -22.2376    0.0000 C   0  0  0  0  0  0           0  0  0
    6.6289  -22.8524    0.0000 N   0  0  0  0  0  0           0  0  0
    7.0436  -23.5657    0.0000 C   0  0  0  0  0  0           0  0  0
    7.8500  -23.3917    0.0000 N   0  0  0  0  0  0           0  0  0
   11.5004  -23.8052    0.0000 C   0  0  0  0  0  0           0  0  0
   11.4992  -24.6302    0.0000 C   0  0  0  0  0  0           0  0  0
   12.2131  -25.0437    0.0000 C   0  0  0  0  0  0           0  0  0
   13.6481  -25.8684    0.0000 C   0  0  0  0  0  0           0  0  0
   14.3649  -26.2768    0.0000 C   0  0  0  0  0  0           0  0  0
   12.2155  -23.3937    0.0000 O   0  0  0  0  0  0           0  0  0
 10 11  2  0     0  0
  3  4  1  0     0  0
  3  8  1  0     0  0
  4  5  1  0     0  0
  5  6  1  0     0  0
 11 12  1  0     0  0
 12 13  1  0     0  0
 13 14  2  0     0  0
 14 10  1  0     0  0
  6  7  1  0     0  0
  6 15  1  0     0  0
  7  8  1  0     0  0
 15 16  1  0     0  0
 16 17  1  0     0  0
 17  1  1  0     0  0
  3  9  1  0     0  0
  2 18  1  0     0  0
  1  2  1  0     0  0
 18 19  1  0     0  0
  9 10  1  0     0  0
 15 20  2  0     0  0
M  END