
  SciTegic09261414532D

 44 51  0  0  0  0            999 V2000
   20.4626   -4.1384    0.0000 N   0  0
   19.6769   -4.3457    0.0000 C   0  0
   19.6323   -5.1618    0.0000 N   0  0
   20.9098   -4.8211    0.0000 C   0  0
   20.3947   -5.4509    0.0000 C   0  0
   20.6828   -6.2099    0.0000 C   0  0
   21.4857   -6.3402    0.0000 C   0  0
   21.9998   -5.7055    0.0000 C   0  0
   21.7089   -4.9490    0.0000 C   0  0
   18.9168   -4.0508    0.0000 C   0  0
   13.1975   -1.5642    0.0000 C   0  0
   13.1963   -2.3837    0.0000 C   0  0
   13.9044   -2.7927    0.0000 C   0  0
   13.9026   -1.1553    0.0000 C   0  0
   14.6112   -1.5606    0.0000 C   0  0
   14.6114   -2.3838    0.0000 C   0  0
   15.3944   -2.6379    0.0000 N   0  0
   15.8781   -1.9718    0.0000 C   0  0
   15.3940   -1.3060    0.0000 N   0  0
   15.6471   -3.4151    0.0000 C   0  0
   16.6921   -1.9701    0.0000 N   0  0
   17.1003   -2.6793    0.0000 C   0  0
   17.9167   -2.6793    0.0000 C   0  0
   18.3259   -1.9710    0.0000 C   0  0
   17.9127   -1.2610    0.0000 C   0  0
   17.0976   -1.2645    0.0000 C   0  0
   19.1431   -1.9696    0.0000 C   0  0
   19.5529   -2.6766    0.0000 O   0  0
   20.3701   -2.6752    0.0000 C   0  0
   15.1005   -4.0225    0.0000 C   0  0
   20.7799   -3.3823    0.0000 C   0  0  2  0  0  0
   19.5505   -1.2612    0.0000 O   0  0
   21.5942   -3.3317    0.0000 C   0  0
   22.0461   -4.0137    0.0000 C   0  0
   22.8582   -3.9636    0.0000 C   0  0
   23.2246   -3.2327    0.0000 N   0  0
   22.7727   -2.5507    0.0000 C   0  0
   21.9544   -2.5996    0.0000 C   0  0
   14.2909   -3.9405    0.0000 C   0  0
   13.9587   -4.6871    0.0000 S   0  0
   14.5662   -5.2338    0.0000 C   0  0
   15.2737   -4.8249    0.0000 C   0  0
   18.4091   -3.4153    0.0000 C   0  0
   18.1142   -4.1754    0.0000 C   0  0
  1  2  1  0
  2  3  2  0
  3  5  1  0
  4  1  1  0
  4  5  2  0
  5  6  1  0
  6  7  2  0
  7  8  1  0
  8  9  2  0
  9  4  1  0
  2 10  1  0
 11 12  2  0
 12 13  1  0
 13 16  2  0
 15 14  2  0
 14 11  1  0
 15 16  1  0
 16 17  1  0
 17 18  1  0
 18 19  2  0
 19 15  1  0
 17 20  1  0
 21 22  1  0
 22 23  1  0
 23 24  1  0
 24 25  1  0
 25 26  1  0
 26 21  1  0
 18 21  1  0
 24 27  1  0
 27 28  1  0
 28 29  1  0
 20 30  1  0
 29 31  1  0
 31  1  1  6
 27 32  2  0
 33 34  1  0
 33 38  1  0
 34 35  1  0
 35 36  1  0
 36 37  1  0
 37 38  1  0
 31 33  1  0
 30 39  2  0
 39 40  1  0
 40 41  1  0
 41 42  2  0
 42 30  1  0
 43 10  1  0
 44 43  1  0
 10 44  1  0
M  END