
          11280715232D 1   1.00000     0.00000     0

 20 21  0     1  0            999 V2000
    4.7542   -3.6625    0.0000 C   0  0  0  0  0  0           0  0  0
    5.4750   -4.0792    0.0000 C   0  0  0  0  0  0           0  0  0
    6.1917   -3.6667    0.0000 C   0  0  2  0  0  0           0  0  0
    4.7625   -2.8375    0.0000 C   0  0  0  0  0  0           0  0  0
    7.6167   -5.3167    0.0000 C   0  0  0  0  0  0           0  0  0
    6.9042   -4.0792    0.0000 N   0  0  3  0  0  0           0  0  0
    4.0417   -4.0792    0.0000 C   0  0  0  0  0  0           0  0  0
    8.3292   -4.9042    0.0000 C   0  0  0  0  0  0           0  0  0
    6.1917   -2.8375    0.0000 C   0  0  0  0  0  0           0  0  0
    5.4750   -2.4167    0.0000 C   0  0  0  0  0  0           0  0  0
    4.0417   -2.4250    0.0000 C   0  0  0  0  0  0           0  0  0
    3.3292   -3.6667    0.0000 C   0  0  0  0  0  0           0  0  0
    9.0417   -5.3250    0.0000 I   0  0  0  0  0  0           0  0  0
    3.3292   -2.8375    0.0000 C   0  0  0  0  0  0           0  0  0
    6.9042   -4.9042    0.0000 C   0  0  0  0  0  0           0  0  0
    2.6167   -4.0792    0.0000 O   0  0  0  0  0  0           0  0  0
    7.6167   -3.6667    0.0000 C   0  0  0  0  0  0           0  0  0
    8.3292   -4.0792    0.0000 C   0  0  0  0  0  0           0  0  0
    9.0500   -3.6750    0.0000 C   0  0  0  0  0  0           0  0  0
    6.7750   -3.0792    0.0000 H   0  0  0  0  0  0           0  0  0
  2  1  1  0     0  0
  3  2  1  0     0  0
  4  1  1  0     0  0
  5 15  1  0     0  0
  3  6  1  1     0  0
  7  1  2  0     0  0
  8  5  2  0     0  0
  9 10  1  0     0  0
 10  4  1  0     0  0
 11  4  2  0     0  0
 12  7  1  0     0  0
 13  8  1  0     0  0
 14 12  2  0     0  0
 15  6  1  0     0  0
 16 12  1  0     0  0
 17  6  1  0     0  0
 18 17  1  0     0  0
 19 18  1  0     0  0
  3 20  1  6     0  0
 11 14  1  0     0  0
  3  9  1  0     0  0
M  END