
          11280715082D 1   1.00000     0.00000     0

 36 38  0     0  0            999 V2000
    5.8750   -3.6292    0.0000 C   0  0  0  0  0  0           0  0  0
    6.3917   -3.3417    0.0000 C   0  0  0  0  0  0           0  0  0
    6.9042   -3.6292    0.0000 N   0  0  3  0  0  0           0  0  0
    5.3625   -3.3417    0.0000 N   0  0  0  0  0  0           0  0  0
    4.8417   -3.6417    0.0000 C   0  0  0  0  0  0           0  0  0
    5.8750   -4.2292    0.0000 C   0  0  0  0  0  0           0  0  0
    6.9125   -4.2292    0.0000 C   0  0  0  0  0  0           0  0  0
    4.3250   -3.3417    0.0000 C   0  0  3  0  0  0           0  0  0
    6.3875   -4.5292    0.0000 C   0  0  0  0  0  0           0  0  0
    3.8125   -3.6417    0.0000 N   0  0  0  0  0  0           0  0  0
    3.2917   -3.3542    0.0000 C   0  0  0  0  0  0           0  0  0
    7.4250   -3.3292    0.0000 C   0  0  0  0  0  0           0  0  0
    6.3875   -2.7417    0.0000 O   0  0  0  0  0  0           0  0  0
    2.0000   -1.4667    0.0000 C   0  0  0  0  0  0           0  0  0
    4.8375   -4.2417    0.0000 O   0  0  0  0  0  0           0  0  0
    4.3250   -2.7417    0.0000 C   0  0  0  0  0  0           0  0  0
    3.2417   -2.8417    0.0000 O   0  0  0  0  0  0           0  0  0
    1.9875   -1.8667    0.0000 O   0  0  0  0  0  0           0  0  0
    2.5250   -1.1667    0.0000 C   0  0  0  0  0  0           0  0  0
    7.9417   -3.6292    0.0000 C   0  0  0  0  0  0           0  0  0
    3.9000   -2.3167    0.0000 C   0  0  0  0  0  0           0  0  0
    3.0500   -1.4667    0.0000 C   0  0  0  0  0  0           0  0  0
    8.9750   -4.2167    0.0000 C   0  0  0  0  0  0           0  0  0
    1.4875   -1.1667    0.0000 O   0  0  0  0  0  0           0  0  0
    7.9417   -4.2292    0.0000 C   0  0  0  0  0  0           0  0  0
    4.0500   -1.7417    0.0000 C   0  0  0  0  0  0           0  0  0
    8.4500   -3.3292    0.0000 C   0  0  0  0  0  0           0  0  0
    3.3167   -2.4792    0.0000 C   0  0  0  0  0  0           0  0  0
    2.8917   -2.0542    0.0000 C   0  0  0  0  0  0           0  0  0
    3.6292   -1.3167    0.0000 C   0  0  0  0  0  0           0  0  0
    8.4542   -4.5167    0.0000 C   0  0  0  0  0  0           0  0  0
    8.9667   -3.6167    0.0000 C   0  0  0  0  0  0           0  0  0
    9.4875   -4.5167    0.0000 O   0  0  0  0  0  0           0  0  0
    5.3500   -4.5292    0.0000 C   0  0  0  0  0  0           0  0  0
    2.7750   -3.6542    0.0000 C   0  0  0  0  0  0           0  0  0
    9.4875   -5.1167    0.0000 C   0  0  0  0  0  0           0  0  0
  2  1  1  0     0  0
  3  2  1  0     0  0
  4  1  1  0     0  0
  5  4  1  0     0  0
  6  1  2  0     0  0
  7  9  2  0     0  0
  8  5  1  0     0  0
  9  6  1  0     0  0
 10  8  1  0     0  0
 11 10  1  0     0  0
 12  3  1  0     0  0
 13  2  2  0     0  0
 14 19  1  0     0  0
 15  5  2  0     0  0
 16  8  1  0     0  0
 17 11  2  0     0  0
 18 14  2  0     0  0
 19 22  1  0     0  0
 20 12  1  0     0  0
 21 16  1  0     0  0
 22 29  1  0     0  0
 23 32  1  0     0  0
 24 14  1  0     0  0
 25 20  2  0     0  0
 26 21  2  0     0  0
 27 20  1  0     0  0
 28 21  1  0     0  0
 29 28  2  0     0  0
 30 26  1  0     0  0
 31 25  1  0     0  0
 32 27  2  0     0  0
 33 23  1  0     0  0
 34  6  1  0     0  0
 35 11  1  0     0  0
 36 33  1  0     0  0
  3  7  1  0     0  0
 23 31  2  0     0  0
 22 30  2  0     0  0
M  END