
  CDK    9/16/09,10:4

 27 29  0  0  0  0  0  0  0  0999 V2000
   -1.1875    2.3500    0.0000 C   0  0  0  0  0  0  0  0  0  0  0  0
   -0.4730    2.7625    0.0000 N   0  0  0  0  0  0  0  0  0  0  0  0
   -1.9020    2.7625    0.0000 N   0  0  0  0  0  0  0  0  0  0  0  0
   -1.1875    1.5250    0.0000 S   0  0  0  0  0  0  0  0  0  0  0  0
   -2.6164    2.3500    0.0000 C   0  0  0  0  0  0  0  0  0  0  0  0
   -3.3303    2.7656    0.0000 C   0  0  0  0  0  0  0  0  0  0  0  0
   -4.0443    2.3538    0.0000 C   0  0  0  0  0  0  0  0  0  0  0  0
   -4.0448    1.5279    0.0000 C   0  0  0  0  0  0  0  0  0  0  0  0
   -3.3253    1.1156    0.0000 C   0  0  0  0  0  0  0  0  0  0  0  0
   -2.6142    1.5298    0.0000 C   0  0  0  0  0  0  0  0  0  0  0  0
    0.2414    2.3500    0.0000 C   0  0  0  0  0  0  0  0  0  0  0  0
    0.2389    1.5239    0.0000 C   0  0  0  0  0  0  0  0  0  0  0  0
    0.9525    1.1115    0.0000 C   0  0  0  0  0  0  0  0  0  0  0  0
    0.9511    2.7620    0.0000 C   0  0  0  0  0  0  0  0  0  0  0  0
    1.6653    2.3533    0.0000 C   0  0  0  0  0  0  0  0  0  0  0  0
    1.6690    1.5255    0.0000 C   0  0  0  0  0  0  0  0  0  0  0  0
    2.3844    1.1148    0.0000 S   0  0  0  0  0  0  0  0  0  0  0  0
    3.0958    0.7042    0.0000 N   0  0  0  0  0  0  0  0  0  0  0  0
    2.7960    1.8298    0.0000 O   0  0  0  0  0  0  0  0  0  0  0  0
    1.9760    0.3980    0.0000 O   0  0  0  0  0  0  0  0  0  0  0  0
   -4.7587    1.1145    0.0000 C   0  0  0  0  0  0  0  0  0  0  0  0
   -3.3224    0.2906    0.0000 Cl  0  0  0  0  0  0  0  0  0  0  0  0
    3.0959   -0.1208    0.0000 C   0  0  0  0  0  0  0  0  0  0  0  0
    2.4287   -0.6057    0.0000 N   0  0  0  0  0  0  0  0  0  0  0  0
    2.6837   -1.3903    0.0000 C   0  0  0  0  0  0  0  0  0  0  0  0
    3.5088   -1.3902    0.0000 C   0  0  0  0  0  0  0  0  0  0  0  0
    3.7635   -0.6056    0.0000 S   0  0  0  0  0  0  0  0  0  0  0  0
 13 16  2  0  0  0  0 
  6  7  1  0  0  0  0 
 15 14  2  0  0  0  0 
 14 11  1  0  0  0  0 
 15 16  1  0  0  0  0 
  1  4  2  0  0  0  0 
  7  8  2  0  0  0  0 
 16 17  1  0  0  0  0 
  8  9  1  0  0  0  0 
 17 18  1  0  0  0  0 
  3  5  1  0  0  0  0 
 17 19  2  0  0  0  0 
  9 10  2  0  0  0  0 
 17 20  2  0  0  0  0 
 10  5  1  0  0  0  0 
  8 21  1  0  0  0  0 
  1  3  1  0  0  0  0 
  9 22  1  0  0  0  0 
  2 11  1  0  0  0  0 
 18 23  1  0  0  0  0 
 23 24  2  0  0  0  0 
  5  6  2  0  0  0  0 
 11 12  2  0  0  0  0 
  1  2  1  0  0  0  0 
 12 13  1  0  0  0  0 
 24 25  1  0  0  0  0 
 25 26  2  0  0  0  0 
 26 27  1  0  0  0  0 
 27 23  1  0  0  0  0 
M  END