
  SciTegic11201309402D

 81 86  0  0  1  0            999 V2000
   10.3445   -5.7978    0.0000 N   0  0
    9.5469   -5.5869    0.0000 C   0  0
   10.1956   -7.2604    0.0000 C   0  0
    6.5057   -2.5656    0.0000 C   0  0
    5.4920   -1.5585    0.0000 N   0  0
    5.2759   -0.7623    0.0000 C   0  0
   10.6426   -6.5670    0.0000 C   0  0  1  0  0  0
    8.3170   -3.7836    0.0000 C   0  0
    3.4645    0.4557    0.0000 C   0  0
    7.3033   -2.7765    0.0000 N   0  0
    6.0065    2.0006    0.0000 C   0  0
    4.2621    0.2448    0.0000 N   0  0
    6.2896   -1.7694    0.0000 C   0  0  1  0  0  0
    8.5331   -4.5798    0.0000 N   0  0
   10.5725   -7.9942    0.0000 N   0  0
    7.5194   -3.5727    0.0000 C   0  0  1  0  0  0
    6.9380   -4.1580    0.0000 C   0  0
    4.4783   -0.5514    0.0000 C   0  0  1  0  0  0
    9.3307   -4.7907    0.0000 C   0  0  1  0  0  0
    3.2484    1.2519    0.0000 C   0  0  2  0  0  0
    9.1612  -11.5016    0.0000 C   0  0
    4.6274    1.6263    0.0000 C   0  0
    3.8299    1.8372    0.0000 N   0  0
    9.3015   -8.6471    0.0000 C   0  0
    7.1541   -4.9541    0.0000 C   0  0
   10.1255   -8.6876    0.0000 C   0  0  2  0  0  0
    8.7142  -12.1949    0.0000 N   0  0
    7.4776    2.0006    0.0000 C   0  0
    6.2925    1.5840    0.0000 C   0  0
    6.7420    3.1217    0.0000 C   0  0
    8.9654   -6.1721    0.0000 O   0  0
    9.3716   -7.2199    0.0000 O   0  0
    5.9243   -3.1509    0.0000 O   0  0
    5.2089    2.2115    0.0000 C   0  0
    5.8573   -0.1770    0.0000 O   0  0
    2.8831   -0.1296    0.0000 O   0  0
    8.8985   -3.1983    0.0000 O   0  0
    5.5571    1.2103    0.0000 C   0  0
    6.7420    1.6269    0.0000 C   0  0
    6.0065    2.7480    0.0000 C   0  0
    2.4508    1.4628    0.0000 C   0  0
    3.8968   -1.1367    0.0000 C   0  0
    8.8544   -9.3405    0.0000 O   0  0
    4.8436    0.8301    0.0000 O   0  0
    7.9517   -5.1650    0.0000 O   0  0
    7.4776    2.7480    0.0000 C   0  0
    6.2925    2.3314    0.0000 C   0  0
    7.0281    1.2103    0.0000 C   0  0
    9.9852  -11.5421    0.0000 N   0  0
    8.7843  -10.7677    0.0000 N   0  0
    8.9245   -7.9133    0.0000 N   0  0
   10.9839   -5.2765    0.0000 C   0  0
    6.8710   -1.1841    0.0000 C   0  0
    6.5727   -5.5394    0.0000 N   0  0
    2.2347    2.2590    0.0000 C   0  0
    1.8024    3.8514    0.0000 C   0  0
    4.1130   -1.9328    0.0000 C   0  0
    2.8161    2.8443    0.0000 C   0  0
    1.4371    2.4699    0.0000 C   0  0
   10.6428   -1.4425    0.0000 N   0  0
    1.2210    3.2661    0.0000 C   0  0
    2.6000    3.6405    0.0000 C   0  0
   11.4664   -6.5211    0.0000 C   0  0
    1.5863    4.6476    0.0000 O   0  0
   11.6773   -5.7236    0.0000 C   0  0
    9.9122   -4.2054    0.0000 C   0  0
   10.5024   -9.4215    0.0000 C   0  0
   10.4323  -10.8487    0.0000 C   0  0
   10.0614   -2.0278    0.0000 C   0  0
    7.6686   -1.3950    0.0000 C   0  0
    6.6549   -0.3879    0.0000 C   0  0
    2.1677    5.2328    0.0000 C   0  0
    3.5315   -2.5181    0.0000 C   0  0
    4.9105   -2.1438    0.0000 C   0  0
   10.0554  -10.1148    0.0000 C   0  0
    9.6960   -3.4092    0.0000 C   0  0
   10.2775   -2.8240    0.0000 C   0  0
    1.9516    6.0290    0.0000 C   0  0
    5.1267   -2.9399    0.0000 C   0  0
    3.7476   -3.3143    0.0000 C   0  0
    4.5452   -3.5252    0.0000 C   0  0
  2  1  1  0
  7  3  1  6
  4 10  1  0
 13  5  1  1
  6  5  1  0
  7  1  1  0
  8 14  1  0
  9 12  1  0
 16 10  1  6
 11 34  1  0
 18 12  1  6
 13  4  1  0
 19 14  1  1
 15  3  1  0
 16  8  1  0
 16 17  1  0
 18  6  1  0
 19  2  1  0
 20  9  1  0
 21 49  2  0
 22 23  1  0
 20 23  1  1
 24 26  1  0
 25 17  1  0
 26 15  1  1
 27 21  1  0
 28 39  1  0
 29 38  1  0
 30 40  1  0
 31  2  2  0
 32  3  2  0
 33  4  2  0
 34 22  1  0
 35  6  2  0
 36  9  2  0
 37  8  2  0
 38 11  1  0
 39 11  1  0
 29 48  1  0
 20 41  1  0
 18 42  1  0
 43 24  2  0
 44 22  2  0
 45 25  2  0
 46 30  1  0
 47 30  1  0
 48 28  1  0
 49 68  1  0
 50 21  1  0
 51 24  1  0
 52  1  1  0
 13 53  1  0
 54 25  1  0
 55 41  1  0
 56 61  1  0
 57 42  1  0
 58 55  2  0
 59 55  1  0
 60 69  1  0
 61 59  2  0
 62 58  1  0
  7 63  1  0
 64 56  1  0
 65 52  1  0
 19 66  1  0
 26 67  1  0
 68 75  1  0
 69 77  1  0
 70 53  1  0
 71 53  1  0
 72 64  1  0
 73 57  1  0
 74 57  2  0
 75 67  1  0
 76 66  1  0
 77 76  1  0
 78 72  1  0
 79 74  1  0
 80 73  2  0
 81 79  2  0
 65 63  1  0
 80 81  1  0
 56 62  2  0
 29 47  1  0
 28 46  1  0
 40 11  1  0
M  END