
          11280715332D 1   1.00000     0.00000     0

 33 36  0     0  0            999 V2000
   -0.9375    1.6208    0.0000 N   0  0  0  0  0  0           0  0  0
   -1.6000    1.1333    0.0000 C   0  0  0  0  0  0           0  0  0
   -1.3500    0.3458    0.0000 N   0  0  0  0  0  0           0  0  0
   -0.2708    1.1333    0.0000 C   0  0  0  0  0  0           0  0  0
   -0.5250    0.3458    0.0000 C   0  0  0  0  0  0           0  0  0
   -3.7833    1.0875    0.0000 C   0  0  3  0  0  0           0  0  0
   -3.0000    0.8333    0.0000 C   0  0  0  0  0  0           0  0  0
    4.1542   -2.5167    0.0000 N   0  0  0  0  0  0           0  0  0
   -2.3833    1.3875    0.0000 C   0  0  0  0  0  0           0  0  0
   -4.3958    0.5375    0.0000 C   0  0  0  0  0  0           0  0  0
   -3.9583    1.8958    0.0000 C   0  0  0  0  0  0           0  0  0
    0.5167    1.3875    0.0000 C   0  0  0  0  0  0           0  0  0
    3.4125   -2.1792    0.0000 C   0  0  0  0  0  0           0  0  0
    1.9167    1.0875    0.0000 N   0  0  0  0  0  0           0  0  0
    4.2417   -3.3375    0.0000 C   0  0  0  0  0  0           0  0  0
    1.1292    0.8333    0.0000 C   0  0  0  0  0  0           0  0  0
   -3.3458    2.4458    0.0000 C   0  0  0  0  0  0           0  0  0
   -4.7375    2.1458    0.0000 C   0  0  0  0  0  0           0  0  0
   -5.1833    0.7958    0.0000 C   0  0  0  0  0  0           0  0  0
   -4.2208   -0.2667    0.0000 C   0  0  0  0  0  0           0  0  0
    2.5292    0.5333    0.0000 C   0  0  0  0  0  0           0  0  0
    2.8000   -1.6292    0.0000 C   0  0  0  0  0  0           0  0  0
    2.7375   -2.6542    0.0000 C   0  0  0  0  0  0           0  0  0
    2.3542   -0.2667    0.0000 C   0  0  0  0  0  0           0  0  0
    2.9667   -0.8250    0.0000 C   0  0  0  0  0  0           0  0  0
    3.5667   -3.8167    0.0000 C   0  0  0  0  0  0           0  0  0
   -4.9125    2.9583    0.0000 C   0  0  0  0  0  0           0  0  0
   -5.7875    0.2458    0.0000 C   0  0  0  0  0  0           0  0  0
   -4.8333   -0.8167    0.0000 C   0  0  0  0  0  0           0  0  0
   -3.5125    3.2583    0.0000 C   0  0  0  0  0  0           0  0  0
    2.8167   -3.4792    0.0000 C   0  0  0  0  0  0           0  0  0
   -4.3000    3.5083    0.0000 C   0  0  0  0  0  0           0  0  0
   -5.6208   -0.5667    0.0000 C   0  0  0  0  0  0           0  0  0
  2  1  2  0     0  0
  3  2  1  0     0  0
  4  1  1  0     0  0
  5  4  2  0     0  0
  6  7  1  0     0  0
  7  9  1  0     0  0
  8 13  1  0     0  0
  9  2  1  0     0  0
 10  6  1  0     0  0
 11  6  1  0     0  0
 12  4  1  0     0  0
 13 22  1  0     0  0
 14 16  1  0     0  0
 15  8  2  0     0  0
 16 12  1  0     0  0
 17 11  2  0     0  0
 18 11  1  0     0  0
 19 10  2  0     0  0
 20 10  1  0     0  0
 21 14  1  0     0  0
 22 25  1  0     0  0
 23 13  2  0     0  0
 24 21  1  0     0  0
 25 24  1  0     0  0
 26 31  2  0     0  0
 27 18  2  0     0  0
 28 19  1  0     0  0
 29 20  2  0     0  0
 30 17  1  0     0  0
 31 23  1  0     0  0
 32 27  1  0     0  0
 33 29  1  0     0  0
  3  5  1  0     0  0
 30 32  2  0     0  0
 28 33  2  0     0  0
 26 15  1  0     0  0
M  END