
          11280715342D 1   1.00000     0.00000     0

 51 56  0     0  0            999 V2000
    5.6542   -5.3792    0.0000 C   0  0  3  0  0  0           0  0  0
    5.0250   -5.1542    0.0000 C   0  0  3  0  0  0           0  0  0
    6.8917   -6.0917    0.0000 C   0  0  3  0  0  0           0  0  0
    3.8917    0.7000    0.0000 C   0  0  0  0  0  0           0  0  0
    4.1000   -5.4917    0.0000 C   0  0  3  0  0  0           0  0  0
    7.3000   -6.8167    0.0000 C   0  0  3  0  0  0           0  0  0
    3.4167    1.3583    0.0000 C   0  0  0  0  0  0           0  0  0
    5.2500   -4.6542    0.0000 O   0  0  0  0  0  0           0  0  0
    4.0542   -0.7167    0.0000 C   0  0  0  0  0  0           0  0  0
    6.4792   -5.3792    0.0000 O   0  0  0  0  0  0           0  0  0
    3.5667   -0.0542    0.0000 C   0  0  0  0  0  0           0  0  0
    3.6917   -4.7667    0.0000 C   0  0  3  0  0  0           0  0  0
    4.3750   -4.9917    0.0000 C   0  0  3  0  0  0           0  0  0
    8.2250   -6.4917    0.0000 C   0  0  3  0  0  0           0  0  0
    3.7250   -1.4667    0.0000 N   0  0  0  0  0  0           0  0  0
    7.5750   -6.3167    0.0000 C   0  0  3  0  0  0           0  0  0
    8.8542   -6.7125    0.0000 C   0  0  3  0  0  0           0  0  0
    3.7375    2.1083    0.0000 C   0  0  0  0  0  0           0  0  0
    8.4500   -5.9917    0.0000 C   0  0  0  0  0  0           0  0  0
    3.8750   -2.8917    0.0000 C   0  0  0  0  0  0           0  0  0
    7.3375   -0.3542    0.0000 C   0  0  0  0  0  0           0  0  0
    4.7042    0.7958    0.0000 C   0  0  0  0  0  0           0  0  0
    4.3625   -3.5542    0.0000 N   0  0  0  0  0  0           0  0  0
    2.7500   -0.1417    0.0000 C   0  0  0  0  0  0           0  0  0
    4.2125   -2.1417    0.0000 C   0  0  3  0  0  0           0  0  0
    2.6125    1.2708    0.0000 C   0  0  0  0  0  0           0  0  0
    7.6667    0.3958    0.0000 N   0  0  0  0  0  0           0  0  0
    3.9542   -4.2792    0.0000 C   0  0  0  0  0  0           0  0  0
    4.8750   -0.6292    0.0000 O   0  0  0  0  0  0           0  0  0
    3.0542   -2.9792    0.0000 O   0  0  0  0  0  0           0  0  0
    5.4292   -5.8667    0.0000 N   0  0  0  0  0  0           0  0  0
    4.5500    2.2083    0.0000 C   0  0  0  0  0  0           0  0  0
    3.2542    2.7708    0.0000 C   0  0  0  0  0  0           0  0  0
    2.2542    0.5125    0.0000 C   0  0  0  0  0  0           0  0  0
    5.0375    1.5458    0.0000 C   0  0  0  0  0  0           0  0  0
    2.1167    1.9250    0.0000 C   0  0  0  0  0  0           0  0  0
    6.5167   -0.4542    0.0000 N   0  0  0  0  0  0           0  0  0
    2.4417    2.6708    0.0000 C   0  0  0  0  0  0           0  0  0
    3.8125   -6.2542    0.0000 O   0  0  0  0  0  0           0  0  0
    6.7125   -7.4042    0.0000 O   0  0  0  0  0  0           0  0  0
    7.8250   -1.0292    0.0000 N   0  0  0  0  0  0           0  0  0
    7.5667   -5.4917    0.0000 N   0  0  0  0  0  0           0  0  0
    9.5667   -6.2917    0.0000 N   0  0  0  0  0  0           0  0  0
    2.8917   -4.5542    0.0000 O   0  0  0  0  0  0           0  0  0
    8.6292   -7.2042    0.0000 O   0  0  0  0  0  0           0  0  0
    4.3917    3.6083    0.0000 C   0  0  0  0  0  0           0  0  0
    5.0292   -2.0417    0.0000 C   0  0  0  0  0  0           0  0  0
    4.8792    2.9458    0.0000 C   0  0  0  0  0  0           0  0  0
    3.5792    3.5208    0.0000 C   0  0  0  0  0  0           0  0  0
    6.1875   -1.2042    0.0000 C   0  0  0  0  0  0           0  0  0
    5.3625   -1.2917    0.0000 C   0  0  0  0  0  0           0  0  0
  2  1  1  0     0  0
  3 10  1  0     0  0
  4 11  2  0     0  0
  5  2  1  0     0  0
  6  3  1  0     0  0
  7  4  1  0     0  0
  8  1  1  0     0  0
  9 15  1  0     0  0
 10  1  1  0     0  0
 11  9  1  0     0  0
 12 13  1  0     0  0
 13  8  1  0     0  0
 14  6  1  0     0  0
 15 25  1  0     0  0
 16  3  1  0     0  0
 17 19  1  0     0  0
 18  7  2  0     0  0
 19 16  1  0     0  0
 20 23  1  0     0  0
 21 37  2  0     0  0
 22  4  1  0     0  0
 23 28  1  0     0  0
 24 11  1  0     0  0
 25 20  1  0     0  0
 26 34  1  0     0  0
 27 21  1  0     0  0
 28 13  1  0     0  0
 29  9  2  0     0  0
 30 20  2  0     0  0
 31  2  1  0     0  0
 32 35  1  0     0  0
 33 18  1  0     0  0
 34 24  2  0     0  0
 35 22  2  0     0  0
 36 26  2  0     0  0
 37 50  1  0     0  0
 38 36  1  0     0  0
 39  5  1  0     0  0
 40  6  1  0     0  0
 41 21  1  0     0  0
 42 16  1  0     0  0
 43 17  1  0     0  0
 44 12  1  0     0  0
 45 14  1  0     0  0
 46 48  1  0     0  0
 47 25  1  0     0  0
 48 32  2  0     0  0
 49 33  1  0     0  0
 50 51  1  0     0  0
 51 47  1  0     0  0
  5 12  1  0     0  0
 17 14  1  0     0  0
  7 26  1  0     0  0
 32 18  1  0     0  0
 38 33  2  0     0  0
 49 46  2  0     0  0
M  END