
          05080814042D 1   1.00000     0.00000     0

 37 41  0     1  0            999 V2000
    7.2094    3.0259    0.0000 C   0  0  0  0  0  0           0  0  0
    6.4988    2.6111    0.0000 C   0  0  0  0  0  0           0  0  0
    6.5058    1.7848    0.0000 C   0  0  0  0  0  0           0  0  0
    7.2195    1.3814    0.0000 C   0  0  0  0  0  0           0  0  0
    7.9227    2.6188    0.0000 C   0  0  0  0  0  0           0  0  0
    7.9288    1.7911    0.0000 C   0  0  0  0  0  0           0  0  0
    8.6445    1.3848    0.0000 C   0  0  0  0  0  0           0  0  0
    8.6324    3.0400    0.0000 C   0  0  0  0  0  0           0  0  0
    9.3529    2.6292    0.0000 C   0  0  2  0  0  0           0  0  0
    9.3574    1.7996    0.0000 C   0  0  2  0  0  0           0  0  0
   10.0741    1.3911    0.0000 N   0  0  3  0  0  0           0  0  0
   10.7908    1.8075    0.0000 C   0  0  0  0  0  0           0  0  0
   10.7862    2.6371    0.0000 C   0  0  1  0  0  0           0  0  0
   10.0650    3.0501    0.0000 C   0  0  0  0  0  0           0  0  0
    9.3450    3.4580    0.0000 H   0  0  0  0  0  0           0  0  0
    9.3492    0.9749    0.0000 H   0  0  0  0  0  0           0  0  0
   11.4989    3.0527    0.0000 C   0  0  0  0  0  0           0  0  0
   12.2151    2.6435    0.0000 N   0  0  3  0  0  0           0  0  0
   11.4952    3.8777    0.0000 O   0  0  0  0  0  0           0  0  0
   12.2128    1.8153    0.0000 C   0  0  0  0  0  0           0  0  0
   12.9249    1.4062    0.0000 C   0  0  0  0  0  0           0  0  0
   13.6399    1.8183    0.0000 N   0  0  3  0  0  0           0  0  0
   13.6382    2.6442    0.0000 C   0  0  0  0  0  0           0  0  0
   12.9214    3.0579    0.0000 C   0  0  0  0  0  0           0  0  0
    7.2056    3.8509    0.0000 O   0  0  0  0  0  0           0  0  0
    6.4891    4.2644    0.0000 C   0  0  0  0  0  0           0  0  0
   10.0774    0.5661    0.0000 C   0  0  0  0  0  0           0  0  0
   14.3546    1.4063    0.0000 C   0  0  0  0  0  0           0  0  0
   14.3507    0.5822    0.0000 C   0  0  0  0  0  0           0  0  0
   15.0645    0.1703    0.0000 C   0  0  0  0  0  0           0  0  0
   15.7796    0.5833    0.0000 C   0  0  0  0  0  0           0  0  0
   15.7764    1.4125    0.0000 C   0  0  0  0  0  0           0  0  0
   15.0619    1.8206    0.0000 C   0  0  0  0  0  0           0  0  0
   16.4948    0.1723    0.0000 S   0  0  3  0  0  0           0  0  0
   17.2067   -0.2375    0.0000 N   0  0  0  0  0  0           0  0  0
   16.9061    0.8874    0.0000 O   0  0  0  0  0  0           0  0  0
   16.0866   -0.5446    0.0000 O   0  0  0  0  0  0           0  0  0
  7 10  1  0     0  0
 17 18  1  0     0  0
  9  8  1  0     0  0
 17 19  2  0     0  0
 18 20  1  0     0  0
  9 10  1  0     0  0
  3  4  2  0     0  0
  4  6  1  0     0  0
  5  6  2  0     0  0
  1  2  2  0     0  0
 18 24  1  0     0  0
 20 21  1  0     0  0
 21 22  1  0     0  0
 22 23  1  0     0  0
 23 24  1  0     0  0
  5  1  1  0     0  0
  1 25  1  0     0  0
  2  3  1  0     0  0
 25 26  1  0     0  0
  9 14  1  0     0  0
 11 27  1  0     0  0
 10 11  1  0     0  0
 22 28  1  0     0  0
 11 12  1  0     0  0
 28 29  2  0     0  0
 12 13  1  0     0  0
 29 30  1  0     0  0
 13 14  1  0     0  0
 30 31  2  0     0  0
 31 32  1  0     0  0
  9 15  1  6     0  0
 32 33  2  0     0  0
 33 28  1  0     0  0
  5  8  1  0     0  0
 31 34  1  0     0  0
 10 16  1  1     0  0
 34 35  1  0     0  0
  6  7  1  0     0  0
 34 36  2  0     0  0
 13 17  1  1     0  0
 34 37  2  0     0  0
M  END