
  SciTegic07141513232D

 24 25  0  0  0  0            999 V2000
    5.2033   -6.1312    0.0000 C   0  0
    4.4891   -7.3604    0.0000 C   0  0
    4.4891   -6.5442    0.0000 N   0  0
    5.9175   -6.5346    0.0000 C   0  0
    5.1936   -7.7831    0.0000 N   0  0
    3.7653   -3.6535    0.0000 N   0  3
    5.9175   -7.3604    0.0000 C   0  0
    5.1936   -5.3053    0.0000 C   0  0
    6.6317   -6.1216    0.0000 C   0  0
    4.4891   -4.0665    0.0000 C   0  0
    4.4891   -4.8923    0.0000 C   0  0
    3.7653   -7.7734    0.0000 N   0  0
    3.7653   -2.8276    0.0000 O   0  5
    3.0559   -4.0665    0.0000 O   0  0
    6.6220   -5.2957    0.0000 O   0  0
    7.3459   -6.5346    0.0000 O   0  0
    6.6317   -7.7734    0.0000 C   0  0
    5.9175   -4.8923    0.0000 C   0  0
    5.1936   -3.6438    0.0000 C   0  0
    5.9175   -4.0568    0.0000 C   0  0
    3.0608   -7.3410    0.0000 C   0  0
    3.7604   -8.5944    0.0000 C   0  0
    8.0600   -6.1216    0.0000 C   0  0
    8.7742   -6.5346    0.0000 C   0  0
  3  1  1  0
  4  1  1  0
  5  7  1  0
  6 10  1  0
  7  4  2  0
  8  1  1  0
  9  4  1  0
 10 11  2  0
 11  8  1  0
 12  2  1  0
 13  6  1  0
 14  6  2  0
 15  9  2  0
 16  9  1  0
 17  7  1  0
 18  8  2  0
 19 20  2  0
 20 18  1  0
 21 12  1  0
 22 12  1  0
 23 16  1  0
 24 23  1  0
  5  2  1  0
 19 10  1  0
  3  2  2  0
M  CHG  2   6   1  13  -1
M  END