
          11280715372D 1   1.00000     0.00000     0

 25 27  0     0  0            999 V2000
    4.5792   -6.6292    0.0000 C   0  0  0  0  0  0           0  0  0
    4.0625   -6.3292    0.0000 C   0  0  3  0  0  0           0  0  0
    4.5792   -7.2292    0.0000 C   0  0  0  0  0  0           0  0  0
    4.0625   -7.5292    0.0000 O   0  0  0  0  0  0           0  0  0
    3.5375   -7.2375    0.0000 C   0  0  3  0  0  0           0  0  0
    3.5375   -6.6292    0.0000 C   0  0  3  0  0  0           0  0  0
    5.1000   -6.3292    0.0000 C   0  0  0  0  0  0           0  0  0
    6.1500   -7.5167    0.0000 C   0  0  0  0  0  0           0  0  0
    3.0125   -6.3292    0.0000 C   0  0  0  0  0  0           0  0  0
    6.6792   -7.8125    0.0000 C   0  0  0  0  0  0           0  0  0
    8.7625   -7.7792    0.0000 C   0  0  0  0  0  0           0  0  0
    9.2750   -7.4667    0.0000 C   0  0  0  0  0  0           0  0  0
    4.0625   -5.7250    0.0000 C   0  0  0  0  0  0           0  0  0
    3.0125   -5.7250    0.0000 C   0  0  0  0  0  0           0  0  0
    3.5500   -5.4250    0.0000 C   0  0  0  0  0  0           0  0  0
    5.6250   -7.2292    0.0000 C   0  0  0  0  0  0           0  0  0
    5.1000   -7.5292    0.0000 C   0  0  0  0  0  0           0  0  0
    5.6250   -6.6292    0.0000 C   0  0  0  0  0  0           0  0  0
    5.0875   -5.7292    0.0000 O   0  0  0  0  0  0           0  0  0
    3.3375   -7.8042    0.0000 C   0  0  0  0  0  0           0  0  0
    2.9750   -7.0375    0.0000 C   0  0  0  0  0  0           0  0  0
    7.2125   -8.1042    0.0000 C   0  0  0  0  0  0           0  0  0
    8.2500   -8.0875    0.0000 C   0  0  0  0  0  0           0  0  0
    3.5625   -4.8250    0.0000 C   0  0  0  0  0  0           0  0  0
    7.7250   -7.7917    0.0000 C   0  0  0  0  0  0           0  0  0
  2  1  1  0     0  0
  3  1  1  0     0  0
  4  3  1  0     0  0
  5  4  1  0     0  0
  6  2  1  0     0  0
  7  1  2  0     0  0
  8 16  1  0     0  0
  9  6  1  0     0  0
 10  8  3  0     0  0
 11 23  1  0     0  0
 12 11  3  0     0  0
 13  2  1  0     0  0
 14 15  2  0     0  0
 15 13  1  0     0  0
 16 18  2  0     0  0
 17  3  2  0     0  0
 18  7  1  0     0  0
 19  7  1  0     0  0
 20  5  1  0     0  0
 21  5  1  0     0  0
 22 10  1  0     0  0
 23 25  1  0     0  0
 24 15  1  0     0  0
 25 22  1  0     0  0
 16 17  1  0     0  0
  5  6  1  0     0  0
 14  9  1  0     0  0
M  END