
  SciTegic11201309402D

 44 45  0  0  0  0            999 V2000
    6.3138   -4.6146    0.0000 C   0  0
    4.1398   -4.3980    0.0000 C   0  0
    4.8895   -4.7478    0.0000 N   0  0
    6.9843   -4.1398    0.0000 N   0  0
    9.8580   -4.0232    0.0000 C   0  0
    5.5641   -4.2730    0.0000 C   0  0  1  0  0  0
    9.1458   -4.4397    0.0000 C   0  0
    7.3341   -2.2490    0.0000 N   0  0
    3.3527   -4.6771    0.0000 C   0  0  1  0  0  0
   10.5743   -4.4272    0.0000 N   0  0
   11.8196   -5.1393    0.0000 C   0  0
   11.3990   -4.4230    0.0000 C   0  0  2  0  0  0
    7.7215   -4.5146    0.0000 C   0  0  2  0  0  0
    3.3527   -5.5017    0.0000 N   0  0
    6.1389   -2.8529    0.0000 C   0  0
    5.5599   -3.4401    0.0000 C   0  0
    6.0097   -2.0408    0.0000 N   0  0
    6.7469   -1.6659    0.0000 C   0  0
    2.6405   -5.9015    0.0000 C   0  0
    8.4128   -4.0648    0.0000 C   0  0  1  0  0  0
    6.9593   -2.9861    0.0000 C   0  0
    6.3846   -5.4392    0.0000 O   0  0
    4.1523   -3.6483    0.0000 O   0  0
    2.7279   -4.1273    0.0000 C   0  0
    9.8455   -3.1985    0.0000 O   0  0
   12.6359   -5.1393    0.0000 O   0  0
    7.7631   -5.3392    0.0000 C   0  0
    1.8034   -5.7391    0.0000 O   0  0
   11.4073   -5.8598    0.0000 N   0  0
   11.8113   -3.7025    0.0000 C   0  0  2  0  0  0
    2.8779   -3.3235    0.0000 C   0  0
    8.3629   -3.2402    0.0000 O   0  0
    8.5003   -5.7141    0.0000 C   0  0
    2.7737   -6.7219    0.0000 C   0  0
   11.3990   -2.9903    0.0000 C   0  0
   12.6359   -3.7025    0.0000 C   0  0
    2.2490   -2.7904    0.0000 C   0  0
    3.6525   -3.0528    0.0000 C   0  0
    9.1875   -5.2643    0.0000 C   0  0
    8.5378   -6.5387    0.0000 C   0  0
   11.7363   -2.2407    0.0000 C   0  0
    3.8025   -2.2407    0.0000 C   0  0
    2.3989   -1.9866    0.0000 C   0  0
    3.1777   -1.7034    0.0000 C   0  0
  2  3  1  0
  6  3  1  1
  4  1  1  0
  5  7  1  0
  6  1  1  0
  7 20  1  0
  8 21  1  0
  9  2  1  0
 10  5  1  0
 11 12  1  0
 12 10  1  1
 13  4  1  6
  9 14  1  1
 15 16  1  0
  6 16  1  0
 17 15  1  0
 18 17  2  0
 19 14  1  0
 20 13  1  0
 21 15  2  0
 22  1  2  0
 23  2  2  0
  9 24  1  0
 25  5  2  0
 26 11  2  0
 13 27  1  0
 28 19  2  0
 29 11  1  0
 12 30  1  0
 31 24  1  0
 20 32  1  1
 33 27  1  0
 34 19  1  0
 35 30  1  0
 30 36  1  6
 37 31  1  0
 38 31  2  0
 39 33  1  0
 40 33  1  0
 41 35  1  0
 42 38  1  0
 43 37  2  0
 44 42  2  0
  8 18  1  0
 43 44  1  0
M  END