
          11280715332D 1   1.00000     0.00000     0

 35 39  0     0  0            999 V2000
    3.0542   -3.1167    0.0000 N   0  0  3  0  0  0           0  0  0
    8.3292   -1.6875    0.0000 N   0  0  3  0  0  0           0  0  0
    7.6167   -2.1042    0.0000 C   0  0  3  0  0  0           0  0  0
    4.4792   -3.1250    0.0000 C   0  0  3  0  0  0           0  0  0
    3.0500   -2.2917    0.0000 C   0  0  0  0  0  0           0  0  0
    6.6167   -2.6917    0.0000 N   0  0  3  0  0  0           0  0  0
    3.7667   -3.5292    0.0000 C   0  0  0  0  0  0           0  0  0
    4.4750   -3.9500    0.0000 C   0  0  0  0  0  0           0  0  0
    7.4167   -2.9042    0.0000 C   0  0  0  0  0  0           0  0  0
    6.8250   -1.9000    0.0000 C   0  0  0  0  0  0           0  0  0
    5.1750   -5.1875    0.0000 C   0  0  0  0  0  0           0  0  0
    5.1792   -4.3625    0.0000 C   0  0  0  0  0  0           0  0  0
    2.3417   -3.5292    0.0000 C   0  0  0  0  0  0           0  0  0
    8.5167   -0.8875    0.0000 C   0  0  0  0  0  0           0  0  0
    4.4542   -5.5917    0.0000 C   0  0  0  0  0  0           0  0  0
    4.4792   -2.2917    0.0000 C   0  0  0  0  0  0           0  0  0
    3.7667   -1.8792    0.0000 C   0  0  0  0  0  0           0  0  0
    2.3292   -1.8875    0.0000 O   0  0  0  0  0  0           0  0  0
    5.1917   -2.7042    0.0000 C   0  0  0  0  0  0           0  0  0
    3.7542   -4.3500    0.0000 C   0  0  0  0  0  0           0  0  0
    3.7417   -5.1750    0.0000 C   0  0  0  0  0  0           0  0  0
    5.9042   -3.1125    0.0000 C   0  0  0  0  0  0           0  0  0
    5.8875   -5.6042    0.0000 Cl  0  0  0  0  0  0           0  0  0
    4.4500   -6.4167    0.0000 Cl  0  0  0  0  0  0           0  0  0
    8.9292   -2.2542    0.0000 C   0  0  0  0  0  0           0  0  0
    1.6292   -3.1167    0.0000 C   0  0  0  0  0  0           0  0  0
    9.3042   -0.6500    0.0000 C   0  0  3  0  0  0           0  0  0
    9.4917    0.1500    0.0000 O   0  0  0  0  0  0           0  0  0
    9.7167   -2.0167    0.0000 C   0  0  0  0  0  0           0  0  0
    9.9042   -1.2125    0.0000 C   0  0  0  0  0  0           0  0  0
    1.6292   -2.2917    0.0000 C   0  0  0  0  0  0           0  0  0
    0.9125   -3.5292    0.0000 C   0  0  0  0  0  0           0  0  0
    0.9125   -1.8792    0.0000 C   0  0  0  0  0  0           0  0  0
    0.2000   -3.1167    0.0000 C   0  0  0  0  0  0           0  0  0
    0.2000   -2.2917    0.0000 C   0  0  0  0  0  0           0  0  0
  2  3  1  0     0  0
  3 10  1  0     0  0
  4  7  1  0     0  0
  5  1  1  0     0  0
  6 22  1  0     0  0
  7  1  1  0     0  0
  8  4  1  0     0  0
  9  6  1  0     0  0
 10  6  1  0     0  0
 11 12  2  0     0  0
 12  8  1  0     0  0
 13  1  1  0     0  0
 14  2  1  0     0  0
 15 21  2  0     0  0
 16  4  1  0     0  0
 17  5  1  0     0  0
 18  5  2  0     0  0
 19  4  1  0     0  0
 20  8  2  0     0  0
 21 20  1  0     0  0
 22 19  1  0     0  0
 23 11  1  0     0  0
 24 15  1  0     0  0
 25  2  1  0     0  0
 26 13  1  0     0  0
 27 14  1  0     0  0
 28 27  1  0     0  0
 29 25  1  0     0  0
 30 29  1  0     0  0
 31 26  1  0     0  0
 32 26  2  0     0  0
 33 31  2  0     0  0
 34 32  1  0     0  0
 35 34  2  0     0  0
 17 16  1  0     0  0
 33 35  1  0     0  0
  9  3  1  0     0  0
 11 15  1  0     0  0
 30 27  1  0     0  0
M  END