
  SciTegic11201309402D

 72 74  0  0  1  0            999 V2000
    0.4875   -9.9000    0.0000 N   0  0
    1.0750   -8.3667    0.0000 C   0  0
    5.6792   -9.3542    0.0000 N   0  0
    5.7667  -10.1750    0.0000 C   0  0  2  0  0  0
    4.0750   -7.5667    0.0000 N   0  0
    1.6875   -7.8167    0.0000 N   0  0
    0.5750  -10.7167    0.0000 C   0  0
    5.3417   -8.5917    0.0000 C   0  0
    6.5917  -10.2167    0.0000 C   0  0
   -0.6083  -11.9250    0.0000 C   0  0
    3.2667   -7.4000    0.0000 C   0  0
    0.6625   -9.0917    0.0000 C   0  0  2  0  0  0
    4.7917   -7.9792    0.0000 C   0  0  2  0  0  0
    1.4667  -12.0917    0.0000 N   0  0
    0.9125  -11.4750    0.0000 C   0  0  1  0  0  0
   -1.9083  -12.2917    0.0000 N   0  0
    6.9667  -10.9542    0.0000 N   0  0
   -1.1208  -12.5750    0.0000 C   0  0
    5.3125   -7.3375    0.0000 C   0  0
    2.4417   -7.4792    0.0000 C   0  0  1  0  0  0
    2.1792  -12.5042    0.0000 C   0  0
    8.2417  -10.3042    0.0000 C   0  0
   10.3417   -9.6917    0.0000 C   0  0
    9.2917   -6.0542    0.0000 C   0  0
    0.2167  -11.9292    0.0000 C   0  0
   -1.0708  -11.2292    0.0000 C   0  0
    9.0667  -10.3417    0.0000 N   0  0
    6.1292   -7.4667    0.0000 C   0  0
   10.7917   -9.0042    0.0000 N   0  0
    5.1792  -11.7000    0.0000 S   0  0
    7.7917  -11.0000    0.0000 C   0  0
   -1.8708  -11.4625    0.0000 C   0  0
    4.5667  -12.2542    0.0000 S   0  0
    9.5167   -9.6542    0.0000 C   0  0  1  0  0  0
   12.0750   -8.3542    0.0000 C   0  0
    2.6000   -5.3000    0.0000 C   0  0
    9.7417   -5.3625    0.0000 N   0  0
    0.4292   -7.8542    0.0000 O   0  0
   -0.2208  -10.9375    0.0000 O   0  0
    6.0375   -8.1417    0.0000 O   0  0
    3.3042   -6.5667    0.0000 O   0  0
    7.0417   -9.5250    0.0000 O   0  0
    5.5917  -10.9792    0.0000 C   0  0
    2.9917  -12.6750    0.0000 C   0  0
   10.7250  -10.4375    0.0000 O   0  0
    7.8667   -9.5667    0.0000 O   0  0
    1.8792  -13.2750    0.0000 O   0  0
    6.6500   -6.8292    0.0000 O   0  0
    1.8000   -5.0875    0.0000 O   0  0
   11.7000   -7.6167    0.0000 O   0  0
    2.2292   -6.6875    0.0000 C   0  0
    9.6667   -6.7917    0.0000 N   0  0
   11.6250   -9.0500    0.0000 C   0  0
    8.4667   -6.0125    0.0000 N   0  0
   -0.1083   -8.7917    0.0000 C   0  0  2  0  0  0
    6.6667   -8.0542    0.0000 N   0  0
    2.8167   -6.1000    0.0000 C   0  0
    3.1875   -4.7167    0.0000 N   0  0
   12.9000   -8.4000    0.0000 N   0  0
    3.8125  -12.5917    0.0000 C   0  0
    6.5167  -11.6500    0.0000 C   0  0
   -0.8708  -10.4292    0.0000 C   0  0
    9.1417   -8.9167    0.0000 C   0  0
   -2.4625  -10.8875    0.0000 C   0  0
    9.2250   -7.4875    0.0000 C   0  0
   -0.7583   -9.3125    0.0000 C   0  0
   -0.2375   -7.9792    0.0000 C   0  0
    9.5917   -8.2250    0.0000 C   0  0
   -1.5250   -9.0167    0.0000 C   0  0
   -1.4708   -9.8542    0.0000 C   0  0
   -2.2625  -10.0875    0.0000 C   0  0
   -0.2183   -9.5652    0.0000 H   0  0
  2 12  1  0
  3  8  1  0
  4  3  1  0
  5 11  1  0
  6  2  1  0
  7  1  1  0
  8 13  1  0
  4  9  1  6
 10 25  1  0
 11 20  1  0
 12  1  1  0
 13  5  1  0
 14 15  1  0
 15  7  1  0
 16 18  1  0
 17  9  1  0
 18 10  2  0
 13 19  1  1
 20  6  1  0
 21 14  1  0
 22 31  1  0
 23 34  1  0
 24 52  2  0
 15 25  1  1
 26 10  1  0
 27 22  1  0
 28 19  1  0
 29 23  1  0
 30 33  1  0
 31 17  1  0
 32 26  2  0
 33 60  1  0
 34 27  1  1
 35 53  1  0
 36 57  1  0
 37 24  1  0
 38  2  2  0
 39  7  2  0
 40  8  2  0
 41 11  2  0
 42  9  2  0
 43 30  1  0
 44 21  1  0
 45 23  2  0
 46 22  2  0
 47 21  2  0
 48 28  2  0
 49 36  2  0
 50 35  2  0
 20 51  1  6
 52 65  1  0
 53 29  1  0
 54 24  1  0
 12 55  1  0
 56 28  1  0
 57 51  1  0
 58 36  1  0
 59 35  1  0
 60 44  1  0
 61 17  1  0
 62 26  1  0
 34 63  1  0
 64 32  1  0
 65 68  1  0
 66 55  1  0
 55 67  1  6
 68 63  1  0
 69 66  1  0
 70 62  2  0
 71 70  1  0
 16 32  1  0
 64 71  2  0
  4 43  1  0
 12 72  1  6
M  END