
  SciTegic12231509382D

 19 20  0  0  0  0            999 V2000
    0.0000   -0.7486    0.0000 C   0  0
   -1.2964   -1.4973    0.0000 C   0  0
   -1.2907   -2.9981    0.0000 O   0  0
   -3.8717   -7.5123    0.0000 N   0  0
    0.0000    0.7486    0.0000 C   0  0
   -2.5812   -5.2552    0.0000 C   0  0  2  0  0  0
   -2.5870   -3.7544    0.0000 C   0  0
   -3.8775   -6.0115    0.0000 C   0  0
   -1.5395   -5.8509    0.0000 O   0  0
   -5.1681   -8.2686    0.0000 C   0  0
   -2.6111    0.7486    0.0000 C   0  0
   -2.6111   -0.7486    0.0000 C   0  0
    1.2964   -1.4973    0.0000 C   0  0
   -1.2964    1.4973    0.0000 C   0  0
    1.2964    1.4973    0.0000 C   0  0
   -5.1634   -9.4686    0.0000 C   0  0
   -6.2098   -7.6730    0.0000 C   0  0
    2.5929   -0.7486    0.0000 C   0  0
    2.5929    0.7486    0.0000 C   0  0
  1  2  2  0
  2  3  1  0
  1  5  1  0
  3  7  1  0
  6  7  1  0
  4  8  1  0
  6  8  1  0
  6  9  1  1
  4 10  1  0
  2 12  1  0
 11 12  2  0
  1 13  1  0
  5 14  2  0
 11 14  1  0
  5 15  1  0
 10 16  1  0
 10 17  1  0
 13 18  2  0
 15 19  2  0
 18 19  1  0
M  END