
  Mrv0541 05211314572D          

 22 23  0  0  0  0            999 V2000
    4.0996    0.3579    0.0000 N   0  0  0  0  0  0  0  0  0  0  0  0
    4.8141    0.7704    0.0000 C   0  0  0  0  0  0  0  0  0  0  0  0
    4.8141    1.5954    0.0000 N   0  0  0  0  0  0  0  0  0  0  0  0
    4.0996    2.0079    0.0000 C   0  0  0  0  0  0  0  0  0  0  0  0
    3.3852    0.7704    0.0000 C   0  0  0  0  0  0  0  0  0  0  0  0
    3.3852    1.5954    0.0000 C   0  0  0  0  0  0  0  0  0  0  0  0
    2.6005    1.8503    0.0000 N   0  0  0  0  0  0  0  0  0  0  0  0
    2.1156    1.1829    0.0000 C   0  0  0  0  0  0  0  0  0  0  0  0
    2.6005    0.5154    0.0000 C   0  0  0  0  0  0  0  0  0  0  0  0
    4.0996    2.8329    0.0000 O   0  0  0  0  0  0  0  0  0  0  0  0
    5.5286    0.3579    0.0000 N   0  0  0  0  0  0  0  0  0  0  0  0
    2.3456   -0.2692    0.0000 C   0  0  0  0  0  0  0  0  0  0  0  0
    1.5386   -0.4407    0.0000 C   0  0  0  0  0  0  0  0  0  0  0  0
    1.2837   -1.2254    0.0000 C   0  0  0  0  0  0  0  0  0  0  0  0
    0.4767   -1.3969    0.0000 C   0  0  0  0  0  0  0  0  0  0  0  0
    0.2218   -2.1815    0.0000 C   0  0  0  0  0  0  0  0  0  0  0  0
   -0.0332   -2.9661    0.0000 P   0  0  0  0  0  0  0  0  0  0  0  0
   -0.5628   -1.9266    0.0000 F   0  0  0  0  0  0  0  0  0  0  0  0
    1.0064   -2.4364    0.0000 F   0  0  0  0  0  0  0  0  0  0  0  0
   -0.2881   -3.7507    0.0000 O   0  0  0  0  0  0  0  0  0  0  0  0
   -0.8178   -2.7112    0.0000 O   0  0  0  0  0  0  0  0  0  0  0  0
    0.7515   -3.2211    0.0000 O   0  0  0  0  0  0  0  0  0  0  0  0
  5  6  2  0  0  0  0
  2 11  1  0  0  0  0
  9 12  1  0  0  0  0
  6  4  1  0  0  0  0
 12 13  1  0  0  0  0
  5  1  1  0  0  0  0
 13 14  1  0  0  0  0
  1  2  2  0  0  0  0
 14 15  1  0  0  0  0
  2  3  1  0  0  0  0
 15 16  1  0  0  0  0
  6  7  1  0  0  0  0
 16 17  1  0  0  0  0
  7  8  1  0  0  0  0
 16 18  1  0  0  0  0
  8  9  2  0  0  0  0
 16 19  1  0  0  0  0
  9  5  1  0  0  0  0
 17 20  2  0  0  0  0
  3  4  1  0  0  0  0
 17 21  1  0  0  0  0
  4 10  2  0  0  0  0
 17 22  1  0  0  0  0
M  END