
  SciTegic01201417202D

 81 85  0  0  1  0            999 V2000
    6.9761   -5.8140    0.0000 N   0  0
    6.1722   -5.9890    0.0000 C   0  0
    4.3980   -0.8288    0.0000 N   0  0
    5.6141   -5.3768    0.0000 C   0  0  1  0  0  0
    5.8098   -1.6535    0.0000 C   0  0
    6.1347   -4.7395    0.0000 N   0  0
    6.2596   -2.3406    0.0000 N   0  0
    2.0783   -1.4535    0.0000 N   0  0
    3.5734   -0.7913    0.0000 C   0  0
    6.4346   -3.9648    0.0000 C   0  0
    1.5618   -2.1033    0.0000 C   0  0
    7.5091   -7.1884    0.0000 C   0  0
    5.1727   -1.1287    0.0000 C   0  0  2  0  0  0
    6.4763   -3.1403    0.0000 C   0  0  2  0  0  0
    1.2244   -3.6901    0.0000 N   0  0
    7.5882   -6.3638    0.0000 C   0  0  2  0  0  0
    2.7737   -1.0037    0.0000 C   0  0  2  0  0  0
    1.4368   -4.4896    0.0000 C   0  0
    1.2619   -2.8654    0.0000 C   0  0  2  0  0  0
    8.1755   -7.6757    0.0000 N   0  0
    7.2966   -3.0528    0.0000 C   0  0
    9.6498   -7.7382    0.0000 C   0  0
   10.0954   -3.9024    0.0000 C   0  0
    1.8867   -5.1894    0.0000 C   0  0
    4.1231   -6.0389    0.0000 S   0  0
    3.3235   -6.0514    0.0000 S   0  0
    7.8839   -3.6401    0.0000 C   0  0
   10.3619   -7.3258    0.0000 N   0  0
    2.5238   -5.7016    0.0000 C   0  0
    8.9334   -7.3258    0.0000 C   0  0  2  0  0  0
   11.7446   -7.2509    0.0000 C   0  0
    5.9098   -6.7761    0.0000 O   0  0
   10.1828   -4.7270    0.0000 N   0  0
    6.4263   -1.0912    0.0000 O   0  0
    4.9228   -5.8265    0.0000 C   0  0
    6.7594   -7.5257    0.0000 O   0  0
    3.4235   -0.1791    0.0000 O   0  0
    7.2384   -4.1398    0.0000 O   0  0
    0.8413   -1.6784    0.0000 O   0  0
    0.4540   -2.6904    0.0000 C   0  0
    2.4363   -0.2541    0.0000 C   0  0
    0.6747   -4.8270    0.0000 O   0  0
    9.6581   -8.5628    0.0000 O   0  0
    7.6965   -4.2522    0.0000 O   0  0
   11.6614   -6.4263    0.0000 O   0  0
   11.0825   -7.7257    0.0000 C   0  0
    9.3457   -3.5651    0.0000 N   0  0
   10.7659   -3.4152    0.0000 N   0  0
    5.5849   -0.4165    0.0000 C   0  0  2  0  0  0
    7.3133   -5.0644    0.0000 C   0  0
    8.6960   -3.5526    0.0000 N   0  0
   -0.2624   -3.1028    0.0000 C   0  0
   12.4985   -7.5757    0.0000 N   0  0
   -1.6992   -3.9149    0.0000 C   0  0
    2.9237    0.4206    0.0000 C   0  0
   -0.2624   -3.9274    0.0000 C   0  0
   -0.9745   -2.6779    0.0000 C   0  0
   -1.6867   -3.0903    0.0000 C   0  0
   -0.9828   -4.3272    0.0000 C   0  0
    8.3087   -5.9515    0.0000 C   0  0
   -2.4114   -4.3272    0.0000 O   0  0
    8.1338   -5.1519    0.0000 C   0  0
    9.5124   -5.2019    0.0000 C   0  0
    2.9986   -6.3263    0.0000 C   0  0
    1.7534   -5.6016    0.0000 C   0  0
    8.9251   -6.5013    0.0000 C   0  0
    6.4096   -0.4165    0.0000 C   0  0
    5.1727    0.3082    0.0000 C   0  0
   -2.4197   -5.1519    0.0000 C   0  0
    3.7483    0.3332    0.0000 C   0  0
    2.5863    1.1702    0.0000 C   0  0
    9.5956   -6.0264    0.0000 C   0  0
    6.8219    0.2957    0.0000 C   0  0
   -1.7075   -5.5641    0.0000 C   0  0
    1.3411   -6.3263    0.0000 C   0  0
    2.5780   -7.0384    0.0000 C   0  0
    3.0736    1.8450    0.0000 C   0  0
    4.2272    1.0078    0.0000 C   0  0
    3.8900    1.7575    0.0000 C   0  0
    1.7534   -7.0384    0.0000 C   0  0
    4.8408   -0.1855    0.0000 H   0  0
  2  1  1  0
  3 13  1  0
  4  2  1  6
  5  7  1  0
  6  4  1  0
  7 14  1  0
  8 11  1  0
  9  3  1  0
 10  6  1  0
 11 19  1  0
 16 12  1  1
 13  5  1  0
 14 10  1  0
 15 18  1  0
 16  1  1  0
 17  9  1  0
 18 24  1  0
 19 15  1  0
 20 12  1  0
 14 21  1  1
 22 30  1  0
 23 33  2  0
 24 29  1  0
 25 35  1  0
 26 25  1  0
 27 21  1  0
 28 22  1  0
 29 26  1  0
 30 20  1  1
 31 46  1  0
 32  2  2  0
 33 63  1  0
 34  5  2  0
  4 35  1  0
 36 12  2  0
 37  9  2  0
 38 10  2  0
 39 11  2  0
 19 40  1  6
 17 41  1  1
 42 18  2  0
 43 22  2  0
 44 27  2  0
 45 31  2  0
 46 28  1  0
 47 23  1  0
 48 23  1  0
 13 49  1  0
 50  1  1  0
 51 27  1  0
 52 40  1  0
 53 31  1  0
 54 58  2  0
 55 41  1  0
 56 52  1  0
 57 52  2  0
 58 57  1  0
 59 56  2  0
 60 16  1  0
 61 54  1  0
 62 50  1  0
 63 72  1  0
 64 29  1  0
 65 29  1  0
 30 66  1  0
 67 49  1  0
 49 68  1  1
 69 61  1  0
 70 55  1  0
 71 55  2  0
 72 66  1  0
 73 67  1  0
 74 69  1  0
 75 65  1  0
 76 64  1  0
 77 71  1  0
 78 70  2  0
 79 77  2  0
 80 75  1  0
 60 62  1  0
 76 80  1  0
  8 17  1  0
 59 54  1  0
 78 79  1  0
 13 81  1  6
M  END