
          11280715552D 1   1.00000     0.00000     0

 96103  0     0  0            999 V2000
   -2.2708   -1.3542    0.0000 C   0  0  3  0  0  0           0  0  0
   13.2875   -1.1500    0.0000 C   0  0  3  0  0  0           0  0  0
   -0.9583   -1.7042    0.0000 C   0  0  3  0  0  0           0  0  0
   11.9625   -1.5042    0.0000 C   0  0  3  0  0  0           0  0  0
   11.7250    0.4583    0.0000 C   0  0  3  0  0  0           0  0  0
   10.1917   -3.7042    0.0000 C   0  0  3  0  0  0           0  0  0
   -0.7083    0.2583    0.0000 C   0  0  3  0  0  0           0  0  0
    0.8125   -3.9042    0.0000 C   0  0  3  0  0  0           0  0  0
   10.6542   -2.2917    0.0000 C   0  0  3  0  0  0           0  0  0
    0.3542   -2.5000    0.0000 C   0  0  3  0  0  0           0  0  0
   12.9042   -0.2125    0.0000 C   0  0  3  0  0  0           0  0  0
   -1.9083   -0.4167    0.0000 C   0  0  3  0  0  0           0  0  0
    1.2667   -4.8042    0.0000 C   0  0  3  0  0  0           0  0  0
   11.0167    0.7333    0.0000 C   0  0  3  0  0  0           0  0  0
    9.7500   -4.6042    0.0000 C   0  0  3  0  0  0           0  0  0
    0.0000    0.5333    0.0000 C   0  0  3  0  0  0           0  0  0
   11.6542   -2.2917    0.0000 C   0  0  3  0  0  0           0  0  0
   -0.6375   -2.5000    0.0000 C   0  0  3  0  0  0           0  0  0
    1.0500    0.1250    0.0000 C   0  0  3  0  0  0           0  0  0
   10.4542   -4.3167    0.0000 C   0  0  3  0  0  0           0  0  0
    0.5625   -4.5250    0.0000 C   0  0  3  0  0  0           0  0  0
    9.9667    0.3250    0.0000 C   0  0  3  0  0  0           0  0  0
   -1.5083   -1.1542    0.0000 O   0  0  0  0  0  0           0  0  0
   12.5250   -0.9625    0.0000 O   0  0  0  0  0  0           0  0  0
   11.1542   -1.0292    0.0000 O   0  0  0  0  0  0           0  0  0
   -0.1458   -1.2292    0.0000 O   0  0  0  0  0  0           0  0  0
   11.2667    1.3500    0.0000 O   0  0  0  0  0  0           0  0  0
   -0.1833   -4.3167    0.0000 O   0  0  0  0  0  0           0  0  0
   -0.2500    1.1583    0.0000 O   0  0  0  0  0  0           0  0  0
   11.1917   -4.1167    0.0000 O   0  0  0  0  0  0           0  0  0
   10.2042   -2.9292    0.0000 O   0  0  0  0  0  0           0  0  0
    0.8042   -3.1292    0.0000 O   0  0  0  0  0  0           0  0  0
   -1.1083   -0.4167    0.0000 O   0  0  0  0  0  0           0  0  0
   12.1167   -0.2125    0.0000 O   0  0  0  0  0  0           0  0  0
   14.3042   -0.8167    0.0000 C   0  0  3  0  0  0           0  0  0
   -3.3000   -1.0167    0.0000 C   0  0  3  0  0  0           0  0  0
   -0.4833   -4.9292    0.0000 C   0  0  3  0  0  0           0  0  0
    1.5042    1.0125    0.0000 C   0  0  3  0  0  0           0  0  0
    9.5125    1.2208    0.0000 C   0  0  3  0  0  0           0  0  0
   11.5000   -4.7292    0.0000 C   0  0  3  0  0  0           0  0  0
   10.3500   -1.5042    0.0000 C   0  0  3  0  0  0           0  0  0
    0.6667   -1.7042    0.0000 C   0  0  3  0  0  0           0  0  0
   10.2792    0.9333    0.0000 C   0  0  3  0  0  0           0  0  0
   -0.9375   -4.0417    0.0000 C   0  0  3  0  0  0           0  0  0
   11.9542   -3.8292    0.0000 C   0  0  3  0  0  0           0  0  0
    0.7417    0.7333    0.0000 C   0  0  3  0  0  0           0  0  0
   -2.5833   -0.7542    0.0000 C   0  0  3  0  0  0           0  0  0
   13.5917   -0.5542    0.0000 C   0  0  3  0  0  0           0  0  0
   15.0500   -1.1542    0.0000 C   0  0  3  0  0  0           0  0  0
   -4.0333   -1.3542    0.0000 C   0  0  3  0  0  0           0  0  0
   14.6667   -0.2375    0.0000 C   0  0  0  0  0  0           0  0  0
   -3.6583   -0.4375    0.0000 C   0  0  0  0  0  0           0  0  0
    2.0542   -4.8042    0.0000 N   0  0  0  0  0  0           0  0  0
    8.9625   -4.6042    0.0000 N   0  0  0  0  0  0           0  0  0
    0.0042   -0.2375    0.0000 N   0  0  0  0  0  0           0  0  0
   11.0042   -0.0292    0.0000 N   0  0  0  0  0  0           0  0  0
   12.0917   -2.9292    0.0000 O   0  0  0  0  0  0           0  0  0
   -1.0875   -3.1292    0.0000 O   0  0  0  0  0  0           0  0  0
   10.4542   -5.0917    0.0000 O   0  0  0  0  0  0           0  0  0
    0.5625   -5.2917    0.0000 O   0  0  0  0  0  0           0  0  0
    8.9417    0.3208    0.0000 O   0  0  0  0  0  0           0  0  0
    2.0792    0.1125    0.0000 O   0  0  0  0  0  0           0  0  0
   13.3875    0.1958    0.0000 N   0  0  0  0  0  0           0  0  0
   -2.5875    0.0708    0.0000 N   0  0  0  0  0  0           0  0  0
   15.8375   -1.1542    0.0000 N   0  0  0  0  0  0           0  0  0
   -3.4958   -1.7625    0.0000 O   0  0  0  0  0  0           0  0  0
   14.5042   -1.5542    0.0000 O   0  0  0  0  0  0           0  0  0
    8.7250    1.2208    0.0000 O   0  0  0  0  0  0           0  0  0
   -1.2708   -4.9292    0.0000 O   0  0  0  0  0  0           0  0  0
   12.2875   -4.7292    0.0000 O   0  0  0  0  0  0           0  0  0
    2.2917    1.0125    0.0000 O   0  0  0  0  0  0           0  0  0
    5.8875   -3.5542    0.0000 S   0  0  0  0  0  0           0  0  0
    5.1292   -3.7625    0.0000 S   0  0  0  0  0  0           0  0  0
   -4.6083   -1.9542    0.0000 O   0  0  0  0  0  0           0  0  0
    1.4125   -1.4625    0.0000 C   0  0  0  0  0  0           0  0  0
    9.6000   -1.2667    0.0000 C   0  0  0  0  0  0           0  0  0
   12.7167   -3.6375    0.0000 C   0  0  0  0  0  0           0  0  0
   -1.6958   -3.8292    0.0000 C   0  0  0  0  0  0           0  0  0
   10.2667    1.7083    0.0000 C   0  0  0  0  0  0           0  0  0
    0.7417    1.5083    0.0000 C   0  0  0  0  0  0           0  0  0
    9.0042   -1.7667    0.0000 S   0  0  0  0  0  0           0  0  0
    1.9917   -1.9750    0.0000 S   0  0  0  0  0  0           0  0  0
    6.4792   -3.0500    0.0000 C   0  0  0  0  0  0           0  0  0
    4.5292   -3.2500    0.0000 C   0  0  0  0  0  0           0  0  0
    0.0542    1.8958    0.0000 N   0  0  0  0  0  0           0  0  0
   -2.3833   -4.2167    0.0000 N   0  0  0  0  0  0           0  0  0
   10.9542    2.1000    0.0000 N   0  0  0  0  0  0           0  0  0
   13.4000   -4.0167    0.0000 N   0  0  0  0  0  0           0  0  0
    4.0875   -1.9875    0.0000 O   0  0  0  0  0  0           0  0  0
    6.9167   -1.7792    0.0000 O   0  0  0  0  0  0           0  0  0
    4.6875   -2.4917    0.0000 C   0  0  0  0  0  0           0  0  0
    6.3292   -2.2917    0.0000 C   0  0  0  0  0  0           0  0  0
    2.7500   -1.7167    0.0000 C   0  0  0  0  0  0           0  0  0
    8.2542   -1.5167    0.0000 C   0  0  0  0  0  0           0  0  0
    3.3417   -2.2292    0.0000 C   0  0  0  0  0  0           0  0  0
    7.6667   -2.0292    0.0000 C   0  0  0  0  0  0           0  0  0
  2 24  1  0     0  0
  3 23  1  0     0  0
  4 25  1  0     0  0
  5 34  1  0     0  0
  6 31  1  0     0  0
  7 33  1  0     0  0
  8 32  1  0     0  0
  9 41  1  0     0  0
 10 18  1  0     0  0
 11  2  1  0     0  0
 12  1  1  0     0  0
 13  8  1  0     0  0
 14  5  1  0     0  0
 15  6  1  0     0  0
 16  7  1  0     0  0
 17  9  1  0     0  0
 18  3  1  0     0  0
 19 16  1  0     0  0
 20 15  1  0     0  0
 21 13  1  0     0  0
 22 14  1  0     0  0
 23  1  1  0     0  0
 24  4  1  0     0  0
 25 41  1  0     0  0
 26  3  1  0     0  0
 27  5  1  0     0  0
 28  8  1  0     0  0
 29  7  1  0     0  0
 30  6  1  0     0  0
 31  9  1  0     0  0
 32 10  1  0     0  0
 33 12  1  0     0  0
 34 11  1  0     0  0
 35  2  1  0     0  0
 36  1  1  0     0  0
 37 44  1  0     0  0
 38 46  1  0     0  0
 39 43  1  0     0  0
 40 45  1  0     0  0
 41 76  1  0     0  0
 42 26  1  0     0  0
 43 27  1  0     0  0
 44 28  1  0     0  0
 45 30  1  0     0  0
 46 29  1  0     0  0
 47 12  1  0     0  0
 48 11  1  0     0  0
 49 35  1  0     0  0
 50 36  1  0     0  0
 51 49  1  0     0  0
 52 50  1  0     0  0
 53 13  1  0     0  0
 54 15  1  0     0  0
 55 16  1  0     0  0
 56 14  1  0     0  0
 57 17  1  0     0  0
 58 18  1  0     0  0
 59 20  1  0     0  0
 60 21  1  0     0  0
 61 22  1  0     0  0
 62 19  1  0     0  0
 63 48  1  0     0  0
 64 47  1  0     0  0
 65 49  1  0     0  0
 66 36  1  0     0  0
 67 35  1  0     0  0
 68 39  1  0     0  0
 69 37  1  0     0  0
 70 40  1  0     0  0
 71 38  1  0     0  0
 72 73  1  0     0  0
 73 84  1  0     0  0
 74 50  1  0     0  0
 75 42  1  0     0  0
 76 81  1  0     0  0
 77 45  1  0     0  0
 78 44  1  0     0  0
 79 43  1  0     0  0
 80 46  1  0     0  0
 81 94  1  0     0  0
 82 75  1  0     0  0
 83 72  1  0     0  0
 84 91  1  0     0  0
 85 80  1  0     0  0
 86 78  1  0     0  0
 87 79  1  0     0  0
 88 77  1  0     0  0
 89 95  1  0     0  0
 90 92  1  0     0  0
 91 89  1  0     0  0
 92 83  1  0     0  0
 93 82  1  0     0  0
 94 96  1  0     0  0
 95 93  1  0     0  0
 96 90  1  0     0  0
 52 47  1  0     0  0
 10 42  1  0     0  0
 38 19  1  0     0  0
 37 21  1  0     0  0
  4 17  1  0     0  0
 40 20  1  0     0  0
 51 48  1  0     0  0
 39 22  1  0     0  0
M  END