
          11280715092D 1   1.00000     0.00000     0

 32 33  0     0  0            999 V2000
    0.3125    0.3458    0.0000 C   0  0  3  0  0  0           0  0  0
   -0.8500   -0.5292    0.0000 O   0  0  0  0  0  0           0  0  0
   -0.3333    0.1208    0.0000 C   0  0  3  0  0  0           0  0  0
   -0.3125    0.7208    0.0000 C   0  0  3  0  0  0           0  0  0
    0.3125    0.9375    0.0000 C   0  0  3  0  0  0           0  0  0
    0.7167   -0.0792    0.0000 C   0  0  0  0  0  0           0  0  0
    1.5375   -0.7292    0.0000 C   0  0  0  0  0  0           0  0  0
    1.3792   -0.1542    0.0000 N   0  0  0  0  0  0           0  0  0
    2.8542   -1.6167    0.0000 C   0  0  0  0  0  0           0  0  0
    4.0042    0.8208    0.0000 C   0  0  0  0  0  0           0  0  0
    2.2750   -1.4667    0.0000 N   0  0  0  0  0  0           0  0  0
   -0.9708    0.4333    0.0000 C   0  0  0  0  0  0           0  0  0
   -0.9708    0.9958    0.0000 C   0  0  0  0  0  0           0  0  0
    1.1167   -1.1625    0.0000 O   0  0  0  0  0  0           0  0  0
    3.2792   -1.1917    0.0000 O   0  0  0  0  0  0           0  0  0
    4.0125    0.2208    0.0000 O   0  0  0  0  0  0           0  0  0
    1.4042    1.0958    0.0000 C   0  0  0  0  0  0           0  0  0
    1.9292    0.8000    0.0000 C   0  0  0  0  0  0           0  0  0
    2.1167   -0.8875    0.0000 C   0  0  0  0  0  0           0  0  0
    4.5250    1.1208    0.0000 O   0  0  0  0  0  0           0  0  0
    0.8875    0.7875    0.0000 C   0  0  0  0  0  0           0  0  0
    3.0125   -2.2000    0.0000 C   0  0  0  0  0  0           0  0  0
    3.4792    1.1125    0.0000 C   0  0  0  0  0  0           0  0  0
    2.4417    1.1083    0.0000 C   0  0  0  0  0  0           0  0  0
    2.9667    0.8083    0.0000 C   0  0  0  0  0  0           0  0  0
    2.5917   -2.6250    0.0000 C   0  0  0  0  0  0           0  0  0
    2.2167   -5.2125    0.0000 C   0  0  0  0  0  0           0  0  0
    2.0542   -4.6292    0.0000 C   0  0  0  0  0  0           0  0  0
    2.4792   -4.2042    0.0000 C   0  0  0  0  0  0           0  0  0
    2.7417   -3.2042    0.0000 C   0  0  0  0  0  0           0  0  0
    2.3167   -3.6292    0.0000 C   0  0  0  0  0  0           0  0  0
    1.7917   -5.6417    0.0000 C   0  0  0  0  0  0           0  0  0
  2  3  1  0     0  0
  3  1  1  0     0  0
  4  5  1  0     0  0
  5  1  1  0     0  0
  6  1  1  0     0  0
  7  8  1  0     0  0
  8  6  1  0     0  0
  9 11  1  0     0  0
 10 23  1  0     0  0
 11 19  1  0     0  0
 12  3  1  0     0  0
 13  4  1  0     0  0
 14  7  2  0     0  0
 15  9  2  0     0  0
 16 10  2  0     0  0
 17 21  1  0     0  0
 18 17  2  0     0  0
 19  7  1  0     0  0
 20 10  1  0     0  0
 21  5  1  0     0  0
 22  9  1  0     0  0
 23 25  1  0     0  0
 24 18  1  0     0  0
 25 24  1  0     0  0
 26 22  1  0     0  0
 27 28  1  0     0  0
 28 29  1  0     0  0
 29 31  1  0     0  0
 30 26  1  0     0  0
 31 30  1  0     0  0
 32 27  1  0     0  0
  2  4  1  0     0  0
 12 13  1  0     0  0
M  END