
  SciTegic06051315212D

 26 28  0  0  0  0            999 V2000
   29.2152  -16.2406    0.0000 C   0  0
   29.2141  -17.0601    0.0000 C   0  0
   29.9221  -17.4691    0.0000 C   0  0
   30.6318  -17.0597    0.0000 C   0  0
   30.6290  -16.2370    0.0000 C   0  0
   29.9203  -15.8317    0.0000 C   0  0
   29.9186  -18.2836    0.0000 N   0  0
   29.2090  -18.6908    0.0000 C   0  0
   29.2068  -19.5044    0.0000 C   0  0
   29.9126  -19.9170    0.0000 N   0  0
   30.6222  -19.5098    0.0000 C   0  0
   30.6260  -18.6900    0.0000 C   0  0
   29.9093  -20.7342    0.0000 C   0  0
   29.9142  -15.0128    0.0000 N   0  3
   29.2052  -14.6063    0.0000 O   0  0
   30.6206  -14.6021    0.0000 O   0  5
   31.3401  -17.4672    0.0000 N   0  0
   32.0472  -17.0574    0.0000 C   0  0
   32.7556  -17.4649    0.0000 C   0  0
   32.0459  -16.2403    0.0000 O   0  0
   32.7522  -18.2806    0.0000 C   0  0
   33.4597  -18.6880    0.0000 C   0  0
   34.1678  -18.2782    0.0000 C   0  0
   34.1639  -17.4568    0.0000 C   0  0
   33.4558  -17.0531    0.0000 C   0  0
   34.8695  -17.0446    0.0000 C   0  0
  1  2  2  0
  2  3  1  0
  3  4  2  0
  4  5  1  0
  5  6  2  0
  6  1  1  0
  7  8  1  0
  7 12  1  0
  8  9  1  0
  9 10  1  0
 10 11  1  0
 11 12  1  0
  3  7  1  0
 10 13  1  0
 14 15  2  0
 14 16  1  0
  6 14  1  0
  4 17  1  0
 17 18  1  0
 18 19  1  0
 18 20  2  0
 19 21  2  0
 21 22  1  0
 22 23  2  0
 23 24  1  0
 24 25  2  0
 25 19  1  0
 24 26  1  0
M  CHG  2  14   1  16  -1
M  END