
  SciTegic06051315212D

 32 37  0  0  0  0            999 V2000
    5.5448   -7.0944    0.0000 C   0  0
    8.0373   -6.3165    0.0000 C   0  0
    5.5446   -7.9118    0.0000 N   0  0
    5.5430   -5.4567    0.0000 C   0  0
    6.2535   -6.6848    0.0000 N   0  0
    6.1484   -4.1643    0.0000 C   0  0
    6.8706   -4.5415    0.0000 C   0  0
    8.1429   -4.9063    0.0000 C   0  0
    7.6829   -5.5840    0.0000 C   0  0
    5.4578   -4.5998    0.0000 C   0  0
    7.6385   -4.2626    0.0000 N   0  0
    6.8984   -5.3593    0.0000 N   0  0
    6.1176   -3.3464    0.0000 C   0  0
    8.9530   -4.9642    0.0000 C   0  0
    9.3099   -5.6939    0.0000 C   0  0
    4.7359   -4.2231    0.0000 C   0  0
    6.2507   -5.8620    0.0000 C   0  0
    4.8377   -6.6853    0.0000 N   0  0
    4.8389   -5.8657    0.0000 C   0  0
    8.8515   -6.3766    0.0000 C   0  0
    4.8368   -8.3202    0.0000 C   0  0  2  0  0  0
    4.1350   -7.9078    0.0000 C   0  0
    3.4293   -8.3127    0.0000 C   0  0
    3.4249   -9.1302    0.0000 C   0  0
    4.1323   -9.5412    0.0000 N   0  0
    4.8442   -9.1346    0.0000 C   0  0
    4.6982   -3.4069    0.0000 C   0  0
    5.3945   -2.9666    0.0000 C   0  0
    5.3604   -2.1453    0.0000 C   0  0
    4.6307   -1.7633    0.0000 C   0  0
    3.9338   -2.2087    0.0000 C   0  0
    3.9714   -3.0285    0.0000 C   0  0
  8  9  2  0
  2 20  2  0
  7  6  1  0
 11  7  2  0
  4 19  1  0
  1  3  1  0
  7 12  1  0
 15 14  2  0
 20 15  1  0
  1  5  2  0
 19 18  2  0
  5 17  1  0
 16 10  2  0
 18  1  1  0
  6 13  2  0
 10  6  1  0
 14  8  1  0
  8 11  1  0
 27 16  1  0
 17  4  2  0
  9  2  1  0
 12  9  1  0
 17 12  1  0
 13 28  1  0
 21  3  1  1
 21 22  1  0
 21 26  1  0
 22 23  1  0
 23 24  1  0
 24 25  1  0
 25 26  1  0
 27 28  1  0
 28 29  2  0
 29 30  1  0
 30 31  2  0
 31 32  1  0
 32 27  2  0
M  END