
          11280715192D 1   1.00000     0.00000     0

 40 42  0     1  0            999 V2000
    5.3917   -3.3250    0.0000 C   0  0  1  0  0  0           0  0  0
    6.1042   -3.7292    0.0000 C   0  0  1  0  0  0           0  0  0
    4.6667   -3.7292    0.0000 C   0  0  2  0  0  0           0  0  0
    6.1042   -4.5542    0.0000 C   0  0  2  0  0  0           0  0  0
    4.6667   -4.5542    0.0000 C   0  0  1  0  0  0           0  0  0
    5.3917   -4.9667    0.0000 C   0  0  2  0  0  0           0  0  0
    5.3917   -2.4875    0.0000 C   0  0  0  0  0  0           0  0  0
    6.8250   -3.3250    0.0000 O   0  0  0  0  0  0           0  0  0
    6.8250   -2.4875    0.0000 C   0  0  2  0  0  0           0  0  0
    6.1125   -6.2167    0.0000 C   0  0  0  0  0  0           0  0  0
    3.9542   -4.9667    0.0000 C   0  0  3  0  0  0           0  0  0
    6.1042   -2.0750    0.0000 C   0  0  0  0  0  0           0  0  0
    5.3917   -5.8042    0.0000 O   0  0  0  0  0  0           0  0  0
    6.8250   -4.9667    0.0000 O   0  0  0  0  0  0           0  0  0
    3.9542   -3.3250    0.0000 C   0  0  2  0  0  0           0  0  0
    7.5375   -4.5542    0.0000 C   0  0  0  0  0  0           0  0  0
    4.6667   -2.0750    0.0000 O   0  0  0  0  0  0           0  0  0
    7.5417   -9.5167    0.0000 C   0  0  0  0  0  0           0  0  0
    5.4000   -4.1167    0.0000 O   0  0  0  0  0  0           0  0  0
    7.5667   -2.9375    0.0000 C   0  0  0  0  0  0           0  0  0
    6.8250   -5.8042    0.0000 O   0  0  0  0  0  0           0  0  0
    3.2375   -4.5542    0.0000 C   0  0  0  0  0  0           0  0  0
    7.5375   -3.7167    0.0000 O   0  0  0  0  0  0           0  0  0
    6.8250   -9.9292    0.0000 O   0  0  0  0  0  0           0  0  0
    3.2375   -3.7292    0.0000 C   0  0  0  0  0  0           0  0  0
    6.1042   -2.9542    0.0000 C   0  0  0  0  0  0           0  0  0
    6.1125   -7.0417    0.0000 N   0  0  0  0  0  0           0  0  0
    4.6667   -2.9042    0.0000 C   0  0  0  0  0  0           0  0  0
    8.3625   -2.5625    0.0000 C   0  0  0  0  0  0           0  0  0
    7.5417   -8.6917    0.0000 N   0  0  0  0  0  0           0  0  0
    3.9542   -2.4875    0.0000 O   0  0  0  0  0  0           0  0  0
    8.2542  -10.7542    0.0000 Br  0  0  0  0  0  0           0  0  0
    8.2542   -9.9292    0.0000 C   0  0  0  0  0  0           0  0  0
    7.5500   -2.0667    0.0000 C   0  0  0  0  0  0           0  0  0
    3.9542   -5.8042    0.0000 C   0  0  0  0  0  0           0  0  0
    3.3292   -5.4292    0.0000 C   0  0  0  0  0  0           0  0  0
    8.2625   -4.9792    0.0000 C   0  0  0  0  0  0           0  0  0
    6.8250   -7.4542    0.0000 C   0  0  0  0  0  0           0  0  0
    6.8250   -8.2792    0.0000 C   0  0  0  0  0  0           0  0  0
    4.6667   -5.3625    0.0000 H   0  0  0  0  0  0           0  0  0
  2  1  1  0     0  0
  3  1  1  0     0  0
  4  2  1  0     0  0
  5  3  1  0     0  0
  6  5  1  0     0  0
  7  1  1  0     0  0
  8  2  1  0     0  0
  9 12  1  0     0  0
 10 13  1  0     0  0
 11  5  1  0     0  0
 12  7  1  0     0  0
  6 13  1  1     0  0
  4 14  1  1     0  0
 15  3  1  0     0  0
 16 14  1  0     0  0
 17  7  2  0     0  0
 18 30  1  0     0  0
  1 19  1  6     0  0
  9 20  1  6     0  0
 21 10  2  0     0  0
 22 25  1  0     0  0
 23 16  2  0     0  0
 24 18  2  0     0  0
 25 15  1  0     0  0
  2 26  1  1     0  0
 27 10  1  0     0  0
  3 28  1  1     0  0
 29 20  2  0     0  0
 30 39  1  0     0  0
 15 31  1  6     0  0
 32 33  1  0     0  0
 33 18  1  0     0  0
  9 34  1  1     0  0
 11 35  1  0     0  0
 11 36  1  0     0  0
 37 16  1  0     0  0
 38 27  1  0     0  0
 39 38  1  0     0  0
  5 40  1  6     0  0
  9  8  1  0     0  0
  6  4  1  0     0  0
 22 11  1  0     0  0
M  END