
  SciTegic01061414252D

 17 18  0  0  0  0            999 V2000
    7.8343   -6.0614    0.0000 C   0  0
    8.5470   -5.6395    0.0000 C   0  0
    8.5388   -4.8163    0.0000 C   0  0
    7.8199   -4.4116    0.0000 C   0  0
    7.1134   -4.8258    0.0000 C   0  0
    7.1195   -5.6525    0.0000 C   0  0
    6.4068   -6.0745    0.0000 O   0  0
    7.8138   -3.5848    0.0000 O   0  0
    9.2659   -6.0483    0.0000 O   0  0
    9.9766   -5.6300    0.0000 C   0  0
   10.6955   -6.0348    0.0000 C   0  0
   11.4083   -5.6169    0.0000 C   0  0
   11.4000   -4.7938    0.0000 C   0  0
   10.6811   -4.3849    0.0000 C   0  0
    9.9704   -4.8033    0.0000 C   0  0
   12.1108   -4.3779    0.0000 Cl  0  0
   12.1216   -6.0239    0.0000 Cl  0  0
  1  2  1  0
  2  3  2  0
  3  4  1  0
  4  5  2  0
  5  6  1  0
  1  6  2  0
  6  7  1  0
  4  8  1  0
 10 11  1  0
 11 12  2  0
 12 13  1  0
 13 14  2  0
 14 15  1  0
 10 15  2  0
  9 10  1  0
  2  9  1  0
 13 16  1  0
 12 17  1  0
M  END