
  SciTegic12191611232D

 25 26  0  0  0  0            999 V2000
    7.4196   -6.4563    0.0000 C   0  0
    6.5256   -5.6559    0.0000 C   0  0
    5.1017   -6.1219    0.0000 C   0  0
    3.8912   -5.2578    0.0000 C   0  0
    2.6747   -6.1134    0.0000 N   0  0
    3.1332   -7.5416    0.0000 C   0  0
    4.6332   -7.5468    0.0000 C   0  0
    5.5122   -8.7602    0.0000 C   0  0
    6.7059   -8.6372    0.0000 O   0  0
    5.0222   -9.8556    0.0000 C   0  0
    2.4245   -8.5100    0.0000 C   0  0
    3.8933   -3.7570    0.0000 C   0  0
    4.9336   -3.1588    0.0000 O   0  0
    2.5951   -3.0039    0.0000 N   0  0
    1.5548   -3.6021    0.0000 C   0  0
    2.5973   -1.5031    0.0000 C   0  0
    1.2990   -0.7500    0.0000 C   0  0
    1.2990    0.7500    0.0000 C   0  0
    0.0000    1.5000    0.0000 C   0  0
   -1.2990    0.7500    0.0000 C   0  0
   -1.2990   -0.7500    0.0000 C   0  0
    0.0000   -1.5000    0.0000 C   0  0
   -0.0031    3.0008    0.0000 C   0  0
    1.0351    3.6026    0.0000 N   0  0
   -1.0432    3.5993    0.0000 O   0  0
  1  2  1  0
  2  3  1  0
  3  4  2  0
  5  4  1  0
  6  5  1  0
  7  6  2  0
  3  7  1  0
  7  8  1  0
  8  9  2  0
  8 10  1  0
  6 11  1  0
  4 12  1  0
 12 13  2  0
 12 14  1  0
 14 15  1  0
 14 16  1  0
 16 17  1  0
 17 18  2  0
 19 18  1  0
 20 19  2  0
 21 20  1  0
 22 21  2  0
 17 22  1  0
 19 23  1  0
 23 24  1  0
 23 25  2  0
M  END