
  SciTegic12231509382D

 43 46  0  0  0  0            999 V2000
   11.0420   -3.8325    0.0000 N   0  0
   10.2510   -4.0536    0.0000 N   0  0
   10.2190   -4.8758    0.0000 C   0  0
   10.9895   -5.1607    0.0000 C   0  0
   11.5001   -4.5179    0.0000 C   0  0
   12.3220   -4.5501    0.0000 C   0  0
   12.7576   -3.8546    0.0000 O   0  0
   12.7007   -5.2757    0.0000 N   0  0
    9.5101   -5.2932    0.0000 C   0  0
    8.7959   -4.8811    0.0000 C   0  0
    8.0911   -5.2985    0.0000 C   0  0
    8.0954   -6.1181    0.0000 C   0  0
    8.8021   -6.5236    0.0000 C   0  0
    9.5143   -6.1128    0.0000 C   0  0
    7.3831   -6.5289    0.0000 O   0  0
    6.6724   -6.1234    0.0000 C   0  0
   13.5226   -5.3079    0.0000 C   0  0
   13.9089   -6.0357    0.0000 C   0  0
   14.7273   -6.0658    0.0000 C   0  0
   15.1629   -5.3702    0.0000 C   0  0
   14.7842   -4.6446    0.0000 C   0  0
   13.9623   -4.6124    0.0000 C   0  0
   15.9847   -5.4025    0.0000 O   0  0
   16.3710   -6.1303    0.0000 C   0  0
   17.1918   -6.1611    0.0000 C   0  0
   17.6268   -5.4651    0.0000 C   0  0
    6.6716   -5.3061    0.0000 C   0  0
    5.9617   -4.8965    0.0000 C   0  0
    5.2521   -5.3099    0.0000 C   0  0
    5.2568   -6.1330    0.0000 C   0  0
    5.9673   -6.5347    0.0000 C   0  0
   17.2451   -4.7384    0.0000 N   0  0
   16.4244   -4.7076    0.0000 C   0  0
   16.0387   -3.9808    0.0000 C   0  0
   17.6801   -4.0425    0.0000 C   0  0
   18.5009   -4.0733    0.0000 C   0  0
   11.3256   -3.0661    0.0000 C   0  0
   13.5821   -3.8890    0.0000 O   0  0
   14.0184   -3.1981    0.0000 C   0  0
   14.8350   -3.2305    0.0000 C   0  0
   15.2713   -2.5395    0.0000 C   0  0
   16.0878   -2.5719    0.0000 C   0  0
    4.5424   -4.9047    0.0000 F   0  0
  1  2  1  0
  2  3  2  0
  3  4  1  0
  4  5  2  0
  1  5  1  0
  6  7  2  0
  6  8  1  0
  5  6  1  0
  9 10  1  0
 10 11  2  0
 11 12  1  0
 12 13  2  0
 13 14  1  0
  9 14  2  0
 15 16  1  0
 12 15  1  0
  3  9  1  0
 17 18  1  0
 18 19  2  0
 19 20  1  0
 20 21  2  0
 21 22  1  0
 17 22  2  0
 23 24  1  0
 20 23  1  0
  8 17  1  0
 24 25  1  0
 25 26  1  0
 16 27  2  0
 27 28  1  0
 28 29  2  0
 29 30  1  0
 30 31  2  0
 31 16  1  0
 26 32  1  0
 32 33  1  0
 33 34  1  0
 32 35  1  0
 35 36  1  0
  1 37  1  0
 22 38  1  0
 38 39  1  0
 39 40  1  0
 40 41  1  0
 41 42  1  0
 29 43  1  0
M  END