
          05080814032D 1   1.00000     0.00000     0

 33 37  0     0  0            999 V2000
    4.1527    1.7459    0.0000 C   0  0  0  0  0  0           0  0  0
    4.1516    0.9185    0.0000 C   0  0  0  0  0  0           0  0  0
    4.8664    0.5056    0.0000 C   0  0  0  0  0  0           0  0  0
    4.8646    2.1586    0.0000 C   0  0  0  0  0  0           0  0  0
    5.5800    1.7495    0.0000 C   0  0  0  0  0  0           0  0  0
    5.5802    0.9231    0.0000 C   0  0  0  0  0  0           0  0  0
    6.3663    0.6679    0.0000 N   0  0  3  0  0  0           0  0  0
    6.8520    1.3367    0.0000 C   0  0  0  0  0  0           0  0  0
    6.3659    2.0051    0.0000 N   0  0  0  0  0  0           0  0  0
    4.8682   -0.3216    0.0000 C   0  0  0  0  0  0           0  0  0
    4.1549   -0.7360    0.0000 O   0  0  0  0  0  0           0  0  0
    5.5838   -0.7322    0.0000 O   0  0  0  0  0  0           0  0  0
    6.6215   -0.1167    0.0000 C   0  0  0  0  0  0           0  0  0
    7.4285   -0.2880    0.0000 C   0  0  0  0  0  0           0  0  0
    7.6818   -1.0738    0.0000 C   0  0  0  0  0  0           0  0  0
    8.4880   -1.2452    0.0000 C   0  0  0  0  0  0           0  0  0
    9.0408   -0.6316    0.0000 C   0  0  0  0  0  0           0  0  0
    8.7818    0.1562    0.0000 C   0  0  0  0  0  0           0  0  0
    7.9762    0.3239    0.0000 C   0  0  0  0  0  0           0  0  0
    9.8481   -0.8019    0.0000 N   0  0  3  0  0  0           0  0  0
   10.1857   -1.5519    0.0000 C   0  0  0  0  0  0           0  0  0
   11.0060   -1.4643    0.0000 C   0  0  0  0  0  0           0  0  0
   11.1763   -0.6570    0.0000 C   0  0  0  0  0  0           0  0  0
   10.4611   -0.2458    0.0000 C   0  0  0  0  0  0           0  0  0
   10.3738    0.5701    0.0000 C   0  0  0  0  0  0           0  0  0
   10.9854    1.1239    0.0000 N   0  0  0  0  0  0           0  0  0
   10.6478    1.8766    0.0000 N   0  0  0  0  0  0           0  0  0
    9.8275    1.7881    0.0000 N   0  0  0  0  0  0           0  0  0
    9.6583    0.9807    0.0000 N   0  0  0  0  0  0           0  0  0
    4.1571   -1.5610    0.0000 C   0  0  0  0  0  0           0  0  0
    7.6770    1.3370    0.0000 C   0  0  0  0  0  0           0  0  0
    8.0892    2.0516    0.0000 C   0  0  0  0  0  0           0  0  0
    7.6764    2.7659    0.0000 C   0  0  0  0  0  0           0  0  0
 15 16  1  0     0  0
  6  7  1  0     0  0
 16 17  2  0     0  0
  7  8  1  0     0  0
 17 18  1  0     0  0
  8  9  2  0     0  0
 18 19  2  0     0  0
 19 14  1  0     0  0
  9  5  1  0     0  0
 17 20  1  0     0  0
 20 21  1  0     0  0
  4  1  1  0     0  0
  5  6  1  0     0  0
 10 11  1  0     0  0
 21 22  2  0     0  0
 22 23  1  0     0  0
 23 24  2  0     0  0
 24 20  1  0     0  0
 25 26  1  0     0  0
 10 12  2  0     0  0
  3 10  1  0     0  0
  2  3  1  0     0  0
  7 13  1  0     0  0
  3  6  2  0     0  0
 26 27  1  0     0  0
 27 28  2  0     0  0
 28 29  1  0     0  0
 29 25  2  0     0  0
 24 25  1  0     0  0
 13 14  1  0     0  0
 11 30  1  0     0  0
  1  2  2  0     0  0
  8 31  1  0     0  0
 14 15  2  0     0  0
 31 32  1  0     0  0
  5  4  2  0     0  0
 32 33  1  0     0  0
M  END