
  CDK    9/16/09,10:4

 34 37  0  0  0  0  0  0  0  0999 V2000
    0.3931  -10.7379    0.0000 C   0  0  0  0  0  0  0  0  0  0  0  0
    1.2225  -10.7190    0.0000 C   0  0  0  0  0  0  0  0  0  0  0  0
    1.6185   -9.9952    0.0000 C   0  0  0  0  0  0  0  0  0  0  0  0
    1.1897   -9.2858    0.0000 C   0  0  0  0  0  0  0  0  0  0  0  0
    0.3605   -9.3047    0.0000 C   0  0  0  0  0  0  0  0  0  0  0  0
   -0.0401  -10.0331    0.0000 N   0  0  0  0  0  0  0  0  0  0  0  0
    0.5953  -10.3573    0.0000 C   0  0  0  0  0  0  0  0  0  0  0  0
    0.9187   -9.6622    0.0000 C   0  0  0  0  0  0  0  0  0  0  0  0
   -0.8647  -10.0605    0.0000 C   0  0  0  0  0  0  0  0  0  0  0  0
    2.4435   -9.9851    0.0000 C   0  0  0  0  0  0  0  0  0  0  0  0
    3.2684   -9.9708    0.0000 C   0  0  0  0  0  0  0  0  0  0  0  0
    2.4557  -10.8099    0.0000 O   0  0  0  0  0  0  0  0  0  0  0  0
    2.4313   -9.1602    0.0000 C   0  0  0  0  0  0  0  0  0  0  0  0
    3.1403   -8.7399    0.0000 C   0  0  0  0  0  0  0  0  0  0  0  0
    3.1286   -7.9158    0.0000 C   0  0  0  0  0  0  0  0  0  0  0  0
    2.4075   -7.5131    0.0000 C   0  0  0  0  0  0  0  0  0  0  0  0
    1.6969   -7.9405    0.0000 C   0  0  0  0  0  0  0  0  0  0  0  0
    1.7122   -8.7632    0.0000 C   0  0  0  0  0  0  0  0  0  0  0  0
    3.6913  -10.6804    0.0000 C   0  0  0  0  0  0  0  0  0  0  0  0
    4.5154  -10.6665    0.0000 C   0  0  0  0  0  0  0  0  0  0  0  0
    4.9164   -9.9445    0.0000 C   0  0  0  0  0  0  0  0  0  0  0  0
    4.4872   -9.2350    0.0000 C   0  0  0  0  0  0  0  0  0  0  0  0
    3.6645   -9.2524    0.0000 C   0  0  0  0  0  0  0  0  0  0  0  0
   -1.3007   -9.3602    0.0000 C   0  0  0  0  0  0  0  0  0  0  0  0
   -2.1253   -9.3877    0.0000 O   0  0  0  0  0  0  0  0  0  0  0  0
   -2.5613   -8.6873    0.0000 C   0  0  0  0  0  0  0  0  0  0  0  0
   -3.3859   -8.7148    0.0000 C   0  0  0  0  0  0  0  0  0  0  0  0
   -3.8183   -8.0131    0.0000 C   0  0  0  0  0  0  0  0  0  0  0  0
   -4.6420   -8.0402    0.0000 C   0  0  0  0  0  0  0  0  0  0  0  0
   -5.0313   -8.7685    0.0000 C   0  0  0  0  0  0  0  0  0  0  0  0
   -4.5908   -9.4711    0.0000 C   0  0  0  0  0  0  0  0  0  0  0  0
   -3.7684   -9.4405    0.0000 C   0  0  0  0  0  0  0  0  0  0  0  0
   -5.8559   -8.7971    0.0000 C   0  0  0  0  0  0  0  0  0  0  0  0
    0.0596   -6.5953    0.0000 Br  0  0  0  0  0  0  0  0  0  0  0  0
 15 16  2  0  0  0  0 
 16 17  1  0  0  0  0 
  7  8  1  0  0  0  0 
 17 18  2  0  0  0  0 
 18 13  1  0  0  0  0 
  3  8  1  0  0  0  0 
 11 19  2  0  0  0  0 
  1  2  1  0  0  0  0 
 19 20  1  0  0  0  0 
  6  9  1  0  0  0  0 
 20 21  2  0  0  0  0 
  1  6  1  0  0  0  0 
 21 22  1  0  0  0  0 
  3 10  1  0  0  0  0 
 22 23  2  0  0  0  0 
 23 11  1  0  0  0  0 
  2  3  1  0  0  0  0 
  9 24  1  0  0  0  0 
 10 11  1  0  0  0  0 
 24 25  1  0  0  0  0 
  3  4  1  0  0  0  0 
 25 26  1  0  0  0  0 
 10 12  1  0  0  0  0 
 26 27  1  0  0  0  0 
  4  5  1  0  0  0  0 
 27 28  2  0  0  0  0 
 10 13  1  0  0  0  0 
 28 29  1  0  0  0  0 
  5  6  1  0  0  0  0 
 29 30  2  0  0  0  0 
 13 14  2  0  0  0  0 
 30 31  1  0  0  0  0 
 31 32  2  0  0  0  0 
 32 27  1  0  0  0  0 
 14 15  1  0  0  0  0 
 30 33  1  0  0  0  0 
  6  7  1  0  0  0  0 
M  CHG  1   6   1
M  CHG  1  34  -1
M  END