
  SciTegic10311217562D

 41 39  0  0  0  0            999 V2000
    2.8791  -12.4000    0.0000 C   0  0  2  0  0  0
    2.8791  -13.2250    0.0000 C   0  0  1  0  0  0
    3.5912  -13.6333    0.0000 C   0  0  2  0  0  0
    4.3032  -13.2250    0.0000 O   0  0
    4.3032  -12.4000    0.0000 C   0  0  1  0  0  0
    3.5912  -11.9833    0.0000 C   0  0  1  0  0  0
    5.0188  -11.9896    0.0000 C   0  0
    2.1635  -11.9896    0.0000 O   0  0
    2.1653  -13.6385    0.0000 O   0  0
    3.5912  -11.1583    0.0000 O   0  0
    3.5912  -14.4583    0.0000 O   0  0
    5.7321  -12.4042    0.0000 N   0  0
    4.3056  -14.8708    0.0000 C   0  0
    6.4478  -11.9937    0.0000 C   0  0
    7.1610  -12.4083    0.0000 C   0  0
    6.4502  -11.1688    0.0000 O   0  0
    7.8767  -11.9979    0.0000 N   0  0
    8.5900  -12.4125    0.0000 C   0  0
    9.3057  -12.0021    0.0000 O   0  0
    2.8767  -10.7458    0.0000 S   0  0
    2.1622  -11.1583    0.0000 O   0  5
    2.4583  -10.0291    0.0000 O   0  0
    3.2833  -10.0291    0.0000 O   0  0
    1.4502  -12.4042    0.0000 S   0  0
    0.7345  -11.9937    0.0000 O   0  5
    1.0333  -13.1166    0.0000 O   0  0
    1.8583  -13.1166    0.0000 O   0  0
    2.1665  -14.4635    0.0000 S   0  0
    1.4526  -14.8770    0.0000 O   0  5
    2.9875  -14.4625    0.0000 O   0  0
    2.5708  -15.1750    0.0000 O   0  0
    7.8780  -11.1753    0.0000 C   0  0
    8.5953  -10.7655    0.0000 C   0  0
    8.5980   -9.9412    0.0000 C   0  0
    7.8842   -9.5258    0.0000 C   0  0
    7.1662   -9.9407    0.0000 C   0  0
    7.1670  -10.7635    0.0000 C   0  0
    8.5876  -13.2375    0.0000 C   0  0
   -0.8917  -11.2958    0.0000 Na  0  3
    0.8250   -8.8625    0.0000 Na  0  3
   -0.0500  -14.5125    0.0000 Na  0  3
  6 10  1  6
 20 21  1  0
  3  4  1  0
  3 11  1  6
 20 22  2  0
  4  5  1  0
 20 23  2  0
  7 12  1  0
  8 24  1  0
  5  6  1  0
 24 25  1  0
 11 13  1  0
 24 26  2  0
 24 27  2  0
 12 14  1  0
  5  7  1  1
  9 28  1  0
 14 15  1  0
 28 29  1  0
  1  2  1  0
 28 30  2  0
 14 16  2  0
 28 31  2  0
  1  8  1  1
 15 17  1  0
  1  6  1  0
 32 33  2  0
 17 18  1  0
 33 34  1  0
  2  9  1  1
 34 35  2  0
 18 19  2  0
 35 36  1  0
  2  3  1  0
 36 37  2  0
 37 32  1  0
 17 32  1  0
 10 20  1  0
 18 38  1  0
M  CHG  6  21  -1  25  -1  29  -1  39   1  40   1  41   1
M  END