
  CDK    9/16/09,9:57

 19 21  0  0  0  0  0  0  0  0999 V2000
    7.2239   -9.8281    0.0000 C   0  0  0  0  0  0  0  0  0  0  0  0
    7.2228  -10.6551    0.0000 C   0  0  0  0  0  0  0  0  0  0  0  0
    7.9372  -11.0677    0.0000 C   0  0  0  0  0  0  0  0  0  0  0  0
    7.9354   -9.4155    0.0000 C   0  0  0  0  0  0  0  0  0  0  0  0
    8.6504   -9.8245    0.0000 C   0  0  0  0  0  0  0  0  0  0  0  0
    8.6506  -10.6551    0.0000 C   0  0  0  0  0  0  0  0  0  0  0  0
    9.4407  -10.9115    0.0000 N   0  0  0  0  0  0  0  0  0  0  0  0
    9.4403   -9.5677    0.0000 C   0  0  0  0  0  0  0  0  0  0  0  0
    9.9257  -10.2407    0.0000 C   0  0  0  0  0  0  0  0  0  0  0  0
   10.7492  -10.1560    0.0000 C   0  0  0  0  0  0  0  0  0  0  0  0
   11.0885   -9.3990    0.0000 C   0  0  0  0  0  0  0  0  0  0  0  0
   10.5980   -8.7258    0.0000 N   0  0  0  0  0  0  0  0  0  0  0  0
    9.7761   -8.8138    0.0000 C   0  0  0  0  0  0  0  0  0  0  0  0
    9.2909   -8.1471    0.0000 N   0  0  0  0  0  0  0  0  0  0  0  0
    9.6256   -7.3936    0.0000 C   0  0  0  0  0  0  0  0  0  0  0  0
    9.1405   -6.7269    0.0000 C   0  0  0  0  0  0  0  0  0  0  0  0
    9.4752   -5.9734    0.0000 C   0  0  0  0  0  0  0  0  0  0  0  0
    8.9900   -5.3066    0.0000 C   0  0  0  0  0  0  0  0  0  0  0  0
    8.3204   -6.8138    0.0000 C   0  0  0  0  0  0  0  0  0  0  0  0
  8  9  2  0  0  0  0 
  4  1  1  0  0  0  0 
  9 10  1  0  0  0  0 
  5  6  1  0  0  0  0 
 10 11  2  0  0  0  0 
 11 12  1  0  0  0  0 
  2  3  1  0  0  0  0 
 12 13  2  0  0  0  0 
 13  8  1  0  0  0  0 
  3  6  2  0  0  0  0 
 13 14  1  0  0  0  0 
  6  7  1  0  0  0  0 
 14 15  1  0  0  0  0 
  7  9  1  0  0  0  0 
 15 16  1  0  0  0  0 
  8  5  1  0  0  0  0 
 16 17  1  0  0  0  0 
  1  2  2  0  0  0  0 
 17 18  1  0  0  0  0 
  5  4  2  0  0  0  0 
 16 19  1  0  0  0  0 
M  END