
          11280714472D 1   1.00000     0.00000     0

 11 11  0     0  0            999 V2000
   -2.3833   -0.8292    0.0000 N   0  0  0  0  0  0           0  0  0
   -1.2958   -1.6167    0.0000 N   0  0  0  0  0  0           0  0  0
   -2.1208   -1.6167    0.0000 C   0  0  0  0  0  0           0  0  0
   -1.0458   -0.8375    0.0000 C   0  0  0  0  0  0           0  0  0
   -1.7125   -0.3500    0.0000 C   0  0  0  0  0  0           0  0  0
    1.8792    2.3083    0.0000 N   0  0  0  0  0  0           0  0  0
   -0.2500   -0.5875    0.0000 C   0  0  0  0  0  0           0  0  0
    1.6917    1.5083    0.0000 C   0  0  0  0  0  0           0  0  0
   -0.0708    0.2208    0.0000 C   0  0  0  0  0  0           0  0  0
    0.9042    1.2625    0.0000 C   0  0  0  0  0  0           0  0  0
    0.7167    0.4583    0.0000 C   0  0  0  0  0  0           0  0  0
  2  3  2  0     0  0
  3  1  1  0     0  0
  4  5  2  0     0  0
  5  1  1  0     0  0
  6  8  1  0     0  0
  7  4  1  0     0  0
  8 10  1  0     0  0
  9  7  1  0     0  0
 10 11  1  0     0  0
 11  9  1  0     0  0
  2  4  1  0     0  0
M  END