
  SciTegic12171312552D

 61 66  0  0  0  0            999 V2000
   22.8047   -3.5760    0.0000 N   0  0
   22.8070   -4.4040    0.0000 C   0  0
   23.5202   -4.8175    0.0000 N   0  0
   23.5190   -3.1630    0.0000 C   0  0
   24.2339   -3.5746    0.0000 C   0  0
   24.2370   -4.3975    0.0000 C   0  0
   25.0260   -4.6484    0.0000 N   0  0
   25.5103   -3.9773    0.0000 C   0  0
   25.0183   -3.3141    0.0000 N   0  0
   22.0911   -4.8165    0.0000 O   0  0
   23.5190   -2.3380    0.0000 O   0  0
   26.3352   -3.9773    0.0000 C   0  0
   26.7490   -4.6882    0.0000 C   0  0
   27.5727   -4.6814    0.0000 C   0  0
   27.9843   -3.9607    0.0000 C   0  0
   27.5628   -3.2496    0.0000 C   0  0
   26.7371   -3.2576    0.0000 C   0  0
   28.8092   -3.9607    0.0000 O   0  0
   22.0930   -3.1635    0.0000 C   0  0
   21.3771   -3.5761    0.0000 C   0  0
   20.6655   -3.1636    0.0000 C   0  0
   23.5202   -5.6424    0.0000 C   0  0
   22.8049   -6.0545    0.0000 C   0  0
   22.8049   -6.8799    0.0000 C   0  0
   29.2194   -3.2457    0.0000 C   0  0
   30.0466   -3.2457    0.0000 C   0  0
   30.4596   -2.5290    0.0000 N   0  0
   30.4586   -3.9607    0.0000 O   0  0
   31.2841   -2.5290    0.0000 C   0  0
   31.6967   -1.8171    0.0000 C   0  0
   32.5215   -1.8171    0.0000 N   0  0
   32.9340   -2.5288    0.0000 C   0  0
   32.5215   -3.2447    0.0000 C   0  0
   33.7590   -2.5288    0.0000 O   0  0
   32.9340   -3.9605    0.0000 C   0  0
   32.5215   -4.6721    0.0000 N   0  0
   32.5215   -5.4971    0.0000 C   0  0
   31.7225   -4.4611    0.0000 C   0  0
   31.8057   -5.9095    0.0000 C   0  0
   31.8057   -6.7345    0.0000 C   0  0
   32.5215   -7.1470    0.0000 C   0  0
   33.2332   -6.7345    0.0000 C   0  0
   33.2332   -5.9095    0.0000 C   0  0
   32.5215   -7.9720    0.0000 N   0  0
   33.2332   -8.3845    0.0000 C   0  0
   33.9490   -7.9720    0.0000 C   0  0
   33.9490   -7.1470    0.0000 O   0  3
   33.2332   -9.2094    0.0000 C   0  0
   33.9490   -9.6219    0.0000 C   0  0
   34.6648   -9.2094    0.0000 C   0  0
   34.6648   -8.3845    0.0000 C   0  0
   35.3765   -9.6219    0.0000 N   0  0
   36.0924   -9.2094    0.0000 C   0  0
   35.3765  -10.4469    0.0000 C   0  0
   34.6648  -10.8594    0.0000 C   0  0
   36.8082   -9.6219    0.0000 C   0  0
   37.5198   -9.2094    0.0000 C   0  0
   38.2356   -9.6219    0.0000 S   0  0
   38.9515   -9.2094    0.0000 O   0  5
   37.8232  -10.3377    0.0000 O   0  0
   38.6481  -10.3377    0.0000 O   0  0
  1  2  1  0
  2  3  1  0
  3  6  1  0
  5  4  1  0
  4  1  1  0
  5  6  2  0
  6  7  1  0
  7  8  2  0
  8  9  1  0
  9  5  1  0
  2 10  2  0
  4 11  2  0
 12 13  2  0
 13 14  1  0
 14 15  2  0
 15 16  1  0
 16 17  2  0
 17 12  1  0
  8 12  1  0
 15 18  1  0
  1 19  1  0
 19 20  1  0
 20 21  1  0
  3 22  1  0
 22 23  1  0
 23 24  1  0
 18 25  1  0
 25 26  1  0
 26 27  1  0
 26 28  2  0
 27 29  1  0
 29 30  1  0
 30 31  1  0
 31 32  1  0
 32 33  1  0
 32 34  2  0
 33 35  1  0
 35 36  1  0
 36 37  1  0
 36 38  1  0
 37 39  1  0
 39 40  2  0
 40 41  1  0
 41 42  1  0
 42 43  1  0
 43 37  2  0
 41 44  2  0
 44 45  1  0
 45 46  2  0
 46 47  1  0
 47 42  2  0
 45 48  1  0
 48 49  2  0
 49 50  1  0
 50 51  2  0
 51 46  1  0
 50 52  1  0
 52 53  1  0
 52 54  1  0
 54 55  1  0
 53 56  1  0
 56 57  1  0
 57 58  1  0
 58 59  1  0
 58 60  2  0
 61 58  2  0
M  CHG  2  47   1  59  -1
M  END