
          05080814042D 1   1.00000     0.00000     0

 36 41  0     1  0            999 V2000
   -4.9610   -9.8537    0.0000 C   0  0  0  0  0  0           0  0  0
   -5.6719  -10.2686    0.0000 C   0  0  0  0  0  0           0  0  0
   -5.6649  -11.0949    0.0000 C   0  0  0  0  0  0           0  0  0
   -4.9509  -11.4985    0.0000 C   0  0  0  0  0  0           0  0  0
   -4.2477  -10.2609    0.0000 C   0  0  0  0  0  0           0  0  0
   -4.2417  -11.0886    0.0000 C   0  0  0  0  0  0           0  0  0
   -3.5257  -11.4950    0.0000 C   0  0  0  0  0  0           0  0  0
   -3.5378   -9.8396    0.0000 C   0  0  0  0  0  0           0  0  0
   -2.8174  -10.2504    0.0000 C   0  0  2  0  0  0           0  0  0
   -2.8128  -11.0800    0.0000 C   0  0  2  0  0  0           0  0  0
   -2.0960  -11.4888    0.0000 N   0  0  3  0  0  0           0  0  0
   -1.3791  -11.0722    0.0000 C   0  0  0  0  0  0           0  0  0
   -1.3837  -10.2426    0.0000 C   0  0  1  0  0  0           0  0  0
   -2.1051   -9.8294    0.0000 C   0  0  0  0  0  0           0  0  0
   -2.8252   -9.4214    0.0000 H   0  0  0  0  0  0           0  0  0
   -2.8210  -11.9050    0.0000 H   0  0  0  0  0  0           0  0  0
   -0.6710   -9.8269    0.0000 C   0  0  0  0  0  0           0  0  0
    0.0453  -10.2362    0.0000 N   0  0  3  0  0  0           0  0  0
   -0.6747   -9.0018    0.0000 O   0  0  0  0  0  0           0  0  0
    0.0430  -11.0644    0.0000 C   0  0  0  0  0  0           0  0  0
    0.7553  -11.4737    0.0000 C   0  0  0  0  0  0           0  0  0
    1.4704  -11.0614    0.0000 N   0  0  3  0  0  0           0  0  0
    1.4687  -10.2354    0.0000 C   0  0  0  0  0  0           0  0  0
    0.7519   -9.8217    0.0000 C   0  0  0  0  0  0           0  0  0
   -4.9650   -9.0286    0.0000 O   0  0  0  0  0  0           0  0  0
   -5.6815   -8.6195    0.0000 C   0  0  0  0  0  0           0  0  0
   -2.0926  -12.3137    0.0000 C   0  0  0  0  0  0           0  0  0
    2.1851  -11.4735    0.0000 C   0  0  0  0  0  0           0  0  0
    2.1812  -12.2977    0.0000 C   0  0  0  0  0  0           0  0  0
    2.8952  -12.7097    0.0000 C   0  0  0  0  0  0           0  0  0
    2.8927  -11.0590    0.0000 C   0  0  0  0  0  0           0  0  0
    4.3902  -11.2114    0.0000 N   0  0  0  0  0  0           0  0  0
    3.6072  -11.4673    0.0000 C   0  0  0  0  0  0           0  0  0
    3.6098  -12.2917    0.0000 C   0  0  0  0  0  0           0  0  0
    4.3954  -12.5426    0.0000 N   0  0  0  0  0  0           0  0  0
    4.8755  -11.8725    0.0000 O   0  0  0  0  0  0           0  0  0
 13 17  1  1     0  0
  7 10  1  0     0  0
 17 18  1  0     0  0
  9  8  1  0     0  0
 17 19  2  0     0  0
 18 20  1  0     0  0
  9 10  1  0     0  0
  3  4  2  0     0  0
  4  6  1  0     0  0
  5  6  2  0     0  0
  1  2  2  0     0  0
 18 24  1  0     0  0
 20 21  1  0     0  0
 21 22  1  0     0  0
 22 23  1  0     0  0
 23 24  1  0     0  0
  5  1  1  0     0  0
  1 25  1  0     0  0
  2  3  1  0     0  0
 25 26  1  0     0  0
  9 14  1  0     0  0
 11 27  1  0     0  0
 10 11  1  0     0  0
 22 28  1  0     0  0
 11 12  1  0     0  0
 28 29  1  0     0  0
 12 13  1  0     0  0
 29 30  2  0     0  0
 30 34  1  0     0  0
 13 14  1  0     0  0
 33 31  1  0     0  0
 31 28  2  0     0  0
 33 34  1  0     0  0
  9 15  1  6     0  0
  5  8  1  0     0  0
 10 16  1  1     0  0
  6  7  1  0     0  0
 32 33  2  0     0  0
 34 35  2  0     0  0
 35 36  1  0     0  0
 36 32  1  0     0  0
M  END