
  SciTegic06051313522D

 23 24  0  0  0  0            999 V2000
   10.0498   -7.6133    0.0000 C   0  0
    9.2344   -7.6080    0.0000 C   0  0
    8.8240   -8.3105    0.0000 C   0  0
    9.2278   -9.0186    0.0000 C   0  0
   10.0463   -9.0199    0.0000 C   0  0
   10.4531   -8.3169    0.0000 C   0  0
    8.8300   -6.8979    0.0000 Cl  0  0
   10.4540   -9.7282    0.0000 O   0  0
   10.0445  -10.4353    0.0000 C   0  0
   11.2703   -8.3186    0.0000 N   0  0
   11.6804   -7.6117    0.0000 C   0  0
   12.4975   -7.6134    0.0000 C   0  0
   11.2732   -6.9032    0.0000 O   0  0
   12.9076   -6.9066    0.0000 S   0  0
   13.7248   -6.9082    0.0000 C   0  0
   14.1269   -7.6170    0.0000 N   0  0
   14.9433   -7.6191    0.0000 C   0  0
   15.3542   -6.9117    0.0000 C   0  0
   14.9426   -6.2008    0.0000 C   0  0
   14.1276   -6.2022    0.0000 C   0  0
   16.1752   -6.9108    0.0000 C   0  0
   16.5833   -7.6188    0.0000 O   0  0
   16.5843   -6.2034    0.0000 O   0  0
  1  2  2  0
  2  3  1  0
  3  4  2  0
  4  5  1  0
  5  6  2  0
  6  1  1  0
  2  7  1  0
  5  8  1  0
  8  9  1  0
  6 10  1  0
 10 11  1  0
 11 12  1  0
 11 13  2  0
 12 14  1  0
 14 15  1  0
 15 16  2  0
 16 17  1  0
 17 18  2  0
 18 19  1  0
 19 20  2  0
 20 15  1  0
 21 22  1  0
 21 23  2  0
 18 21  1  0
M  END