
  SciTegic04091511462D

 79 83  0  0  1  0            999 V2000
    4.3817   -5.8797    0.0000 N   0  0
   -0.3121   -2.7880    0.0000 N   0  0
    4.6355   -5.0932    0.0000 C   0  0
    2.8629    0.0707    0.0000 N   0  0
   -0.0957   -3.5827    0.0000 C   0  0
    0.0292   -1.1984    0.0000 C   0  0
    4.0862   -4.4732    0.0000 C   0  0  2  0  0  0
    4.2818   -0.7490    0.0000 C   0  0
    4.5981   -3.8324    0.0000 N   0  0
    4.7312   -1.4356    0.0000 N   0  0
    0.5535   -0.5535    0.0000 N   0  0
   -0.2704   -1.9641    0.0000 C   0  0  1  0  0  0
    2.0390    0.1124    0.0000 C   0  0
    4.8977   -3.0626    0.0000 C   0  0
    5.6966   -6.5413    0.0000 C   0  0
    3.6368   -0.2164    0.0000 C   0  0  2  0  0  0
    4.9351   -2.2387    0.0000 C   0  0  2  0  0  0
    4.8685   -6.5413    0.0000 C   0  0  2  0  0  0
    1.2400   -0.0916    0.0000 C   0  0  2  0  0  0
    0.3537   -4.2818    0.0000 C   0  0
    6.1085   -7.2528    0.0000 N   0  0
    5.7590   -2.1513    0.0000 C   0  0
    7.3444   -7.9686    0.0000 C   0  0
    9.8244   -5.1099    0.0000 C   0  0
    2.5965   -5.1431    0.0000 S   0  0
    1.8392   -5.2347    0.0000 S   0  0
    6.4706   -1.7352    0.0000 C   0  0
    0.9987   -4.7978    0.0000 C   0  0
    8.1683   -7.9686    0.0000 N   0  0
    6.9324   -7.2528    0.0000 C   0  0  2  0  0  0
    9.4042   -8.6884    0.0000 C   0  0
   10.6483   -5.1099    0.0000 N   0  0
    5.4469   -4.9184    0.0000 O   0  0
   -1.0736   -1.7976    0.0000 C   0  0
   -0.8447   -3.9198    0.0000 O   0  0
   -0.6824   -0.7865    0.0000 O   0  0
    4.8852   -0.1997    0.0000 O   0  0
    3.3872   -4.9226    0.0000 C   0  0
    6.1085   -5.8297    0.0000 O   0  0
    1.9017    0.8447    0.0000 O   0  0
    5.7049   -3.2332    0.0000 O   0  0
    0.9113    0.6491    0.0000 C   0  0
    6.9324   -8.6884    0.0000 O   0  0
    6.4664   -0.9113    0.0000 O   0  0
    9.8244   -7.9686    0.0000 O   0  0
    9.4042   -5.8297    0.0000 N   0  0
    8.5803   -8.6884    0.0000 C   0  0
    9.4042   -4.3941    0.0000 N   0  0
    4.0488    0.4869    0.0000 C   0  0
    3.5952   -6.1293    0.0000 C   0  0
    7.1904   -2.1471    0.0000 N   0  0
   -1.3315   -1.0112    0.0000 C   0  0
    9.8161   -9.4000    0.0000 N   0  0
   -1.1318   -2.8754    0.0000 C   0  0
   -1.8433    0.5618    0.0000 C   0  0
    1.3898    1.3232    0.0000 C   0  0
   -2.1429   -0.8364    0.0000 C   0  0
   -0.7823   -0.3995    0.0000 C   0  0
   -2.3926   -0.0499    0.0000 C   0  0
   -1.0319    0.3870    0.0000 C   0  0
    4.3817   -7.2154    0.0000 C   0  0
   -2.0930    1.3482    0.0000 O   0  0
    3.5952   -6.9574    0.0000 C   0  0
    1.4647   -5.4178    0.0000 C   0  0
    0.2247   -4.7062    0.0000 C   0  0
    7.3444   -6.5413    0.0000 C   0  0
    8.5803   -5.8297    0.0000 C   0  0
    3.6327    1.1984    0.0000 C   0  0
    4.8727    0.4869    0.0000 C   0  0
    2.2137    1.2317    0.0000 C   0  0
    1.0611    2.0805    0.0000 C   0  0
   -1.6186   -2.2096    0.0000 C   0  0
    8.1683   -6.5413    0.0000 C   0  0
   -0.1831   -5.4178    0.0000 C   0  0
    1.0528   -6.1335    0.0000 C   0  0
    1.5396    2.7463    0.0000 C   0  0
    2.6964    1.8975    0.0000 C   0  0
    2.3635    2.6548    0.0000 C   0  0
    0.2247   -6.1335    0.0000 C   0  0
  2  5  1  0
  3  1  1  0
  4 16  1  0
  5 20  1  0
  6 12  1  0
  7  3  1  1
  8 10  1  0
  9  7  1  0
 10 17  1  0
 11  6  1  0
 12  2  1  0
 13  4  1  0
 14  9  1  0
 18 15  1  6
 16  8  1  0
 17 14  1  0
 18  1  1  0
 19 13  1  0
 20 28  1  0
 21 15  1  0
 17 22  1  1
 23 30  1  0
 24 46  2  0
 25 38  1  0
 26 25  1  0
 27 22  1  0
 28 26  1  0
 29 23  1  0
 30 21  1  1
 31 47  1  0
 32 24  1  0
 33  3  2  0
 12 34  1  6
 35  5  2  0
 36  6  2  0
 37  8  2  0
  7 38  1  0
 39 15  2  0
 40 13  2  0
 41 14  2  0
 19 42  1  1
 43 23  2  0
 44 27  2  0
 45 31  2  0
 46 67  1  0
 47 29  1  0
 48 24  1  0
 16 49  1  1
 50  1  1  0
 51 27  1  0
 52 34  1  0
 53 31  1  0
 54  2  1  0
 55 60  2  0
 56 42  1  0
 57 52  1  0
 58 52  2  0
 59 57  2  0
 60 58  1  0
 18 61  1  0
 62 55  1  0
 63 50  1  0
 64 28  1  0
 65 28  1  0
 30 66  1  0
 67 73  1  0
 68 49  1  0
 69 49  1  0
 70 56  2  0
 71 56  1  0
 72 54  1  0
 73 66  1  0
 74 65  1  0
 75 64  1  0
 76 71  2  0
 77 70  1  0
 78 76  1  0
 79 74  1  0
 61 63  1  0
 79 75  1  0
 11 19  1  0
 55 59  1  0
 78 77  2  0
M  END