
          02060813482D 1   1.00000     0.00000     0

 42 45  0     0  0            999 V2000
   11.5611   -1.5166    0.0000 C   0  0  0  0  0  0           0  0  0
   11.5599   -2.3440    0.0000 C   0  0  0  0  0  0           0  0  0
   12.2747   -2.7569    0.0000 C   0  0  0  0  0  0           0  0  0
   12.9912   -2.3435    0.0000 C   0  0  0  0  0  0           0  0  0
   12.9883   -1.5130    0.0000 C   0  0  0  0  0  0           0  0  0
   12.2729   -1.1039    0.0000 C   0  0  0  0  0  0           0  0  0
   10.8451   -2.7559    0.0000 Cl  0  0  0  0  0  0           0  0  0
   12.2705   -0.2789    0.0000 C   0  0  0  0  0  0           0  0  0
   12.9837    0.1358    0.0000 N   0  0  3  0  0  0           0  0  0
   12.9812    0.9608    0.0000 C   0  0  0  0  0  0           0  0  0
   13.6945    1.3754    0.0000 C   0  0  3  0  0  0           0  0  0
   12.2655    1.3711    0.0000 O   0  0  0  0  0  0           0  0  0
   13.7012   -1.0978    0.0000 O   0  0  0  0  0  0           0  0  0
   13.7063   -2.7549    0.0000 C   0  0  0  0  0  0           0  0  0
   13.7027   -3.5803    0.0000 C   0  0  0  0  0  0           0  0  0
   14.4170   -3.9916    0.0000 C   0  0  0  0  0  0           0  0  0
   15.1318   -3.5779    0.0000 C   0  0  0  0  0  0           0  0  0
   15.1278   -2.7486    0.0000 C   0  0  0  0  0  0           0  0  0
   14.4130   -2.3410    0.0000 N   0  0  0  0  0  0           0  0  0
   15.8402   -2.3325    0.0000 O   0  0  0  0  0  0           0  0  0
   15.8474   -3.9883    0.0000 C   0  0  0  0  0  0           0  0  0
   16.5583   -4.4000    0.0000 N   0  0  0  0  0  0           0  0  0
   14.4179   -4.8165    0.0000 C   0  0  0  0  0  0           0  0  0
   13.7044   -5.2249    0.0000 C   0  0  0  0  0  0           0  0  0
   13.7050   -6.0491    0.0000 C   0  0  0  0  0  0           0  0  0
   14.4204   -6.4617    0.0000 C   0  0  0  0  0  0           0  0  0
   15.1368   -6.0440    0.0000 C   0  0  0  0  0  0           0  0  0
   15.1327   -5.2211    0.0000 C   0  0  0  0  0  0           0  0  0
   12.9906   -4.8113    0.0000 Cl  0  0  0  0  0  0           0  0  0
   15.8532   -6.4532    0.0000 C   0  0  3  0  0  0           0  0  0
   16.5625   -6.8625    0.0000 F   0  0  0  0  0  0           0  0  0
   16.2639   -5.7377    0.0000 F   0  0  0  0  0  0           0  0  0
   15.4477   -7.1716    0.0000 F   0  0  0  0  0  0           0  0  0
   13.6994   -0.2746    0.0000 C   0  0  0  0  0  0           0  0  0
   14.4089    0.9600    0.0000 C   0  0  0  0  0  0           0  0  0
   15.1200    1.3711    0.0000 C   0  0  0  0  0  0           0  0  0
   15.1218    2.1964    0.0000 N   0  0  3  0  0  0           0  0  0
   14.4062    2.6090    0.0000 C   0  0  0  0  0  0           0  0  0
   13.6889    2.1962    0.0000 C   0  0  0  0  0  0           0  0  0
   15.8366    2.6084    0.0000 C   0  0  0  0  0  0           0  0  0
   16.5507    2.1953    0.0000 C   0  0  0  0  0  0           0  0  0
   15.8372    3.4333    0.0000 O   0  0  0  0  0  0           0  0  0
  9 10  1  0     0  0
 17 21  1  0     0  0
  2  3  1  0     0  0
 21 22  3  0     0  0
 10 11  1  0     0  0
 16 23  1  0     0  0
  5  6  2  0     0  0
 23 24  2  0     0  0
 10 12  2  0     0  0
 24 25  1  0     0  0
  6  1  1  0     0  0
 25 26  2  0     0  0
  5 13  1  0     0  0
 26 27  1  0     0  0
  1  2  2  0     0  0
 27 28  2  0     0  0
 28 23  1  0     0  0
  4 14  1  0     0  0
 24 29  1  0     0  0
  2  7  1  0     0  0
 27 30  1  0     0  0
 14 15  2  0     0  0
 30 31  1  0     0  0
  3  4  2  0     0  0
 30 32  1  0     0  0
 15 16  1  0     0  0
 30 33  1  0     0  0
  6  8  1  0     0  0
  9 34  1  0     0  0
 11 35  1  0     0  0
 16 17  2  0     0  0
 17 18  1  0     0  0
  8  9  1  0     0  0
 18 19  1  0     0  0
 11 39  1  0     0  0
 35 36  1  0     0  0
 36 37  1  0     0  0
 37 38  1  0     0  0
 38 39  1  0     0  0
 19 14  1  0     0  0
 37 40  1  0     0  0
  4  5  1  0     0  0
 40 41  1  0     0  0
 18 20  2  0     0  0
 40 42  2  0     0  0
M  END