
          05080814042D 1   1.00000     0.00000     0

 41 45  0     1  0            999 V2000
   -2.3642   -0.1291    0.0000 C   0  0  0  0  0  0           0  0  0
   -2.3654   -0.9566    0.0000 C   0  0  0  0  0  0           0  0  0
   -1.6505   -1.3696    0.0000 C   0  0  0  0  0  0           0  0  0
   -0.9339   -0.9561    0.0000 C   0  0  0  0  0  0           0  0  0
   -0.9368   -0.1255    0.0000 C   0  0  0  0  0  0           0  0  0
   -1.6523    0.2836    0.0000 C   0  0  0  0  0  0           0  0  0
   -0.2268    0.2884    0.0000 C   0  0  0  0  0  0           0  0  0
    0.4896   -0.1231    0.0000 C   0  0  0  0  0  0           0  0  0
    1.2020    0.2914    0.0000 C   0  0  0  0  0  0           0  0  0
    1.1993    1.1173    0.0000 C   0  0  0  0  0  0           0  0  0
    0.4783    1.5271    0.0000 C   0  0  0  0  0  0           0  0  0
   -0.2313    1.1101    0.0000 C   0  0  0  0  0  0           0  0  0
    1.9118    1.5336    0.0000 C   0  0  0  0  0  0           0  0  0
    2.6285    1.1246    0.0000 C   0  0  1  0  0  0           0  0  0
    3.3409    1.5409    0.0000 C   0  0  0  0  0  0           0  0  0
    2.6327    0.2995    0.0000 N   0  0  0  0  0  0           0  0  0
    4.0583    1.1336    0.0000 O   0  0  0  0  0  0           0  0  0
    3.3375    2.3676    0.0000 O   0  0  0  0  0  0           0  0  0
    3.3493   -0.1093    0.0000 S   0  0  3  0  0  0           0  0  0
    4.0587   -0.5209    0.0000 C   0  0  0  0  0  0           0  0  0
    4.0543   -1.3421    0.0000 C   0  0  0  0  0  0           0  0  0
    4.7630   -1.7536    0.0000 C   0  0  0  0  0  0           0  0  0
    5.4751   -1.3449    0.0000 C   0  0  0  0  0  0           0  0  0
    5.4742   -0.5205    0.0000 C   0  0  0  0  0  0           0  0  0
    4.7649   -0.1127    0.0000 C   0  0  0  0  0  0           0  0  0
    3.3382   -1.7519    0.0000 C   0  0  0  0  0  0           0  0  0
    4.7640    0.7124    0.0000 C   0  0  0  0  0  0           0  0  0
    6.1894   -1.7580    0.0000 C   0  0  0  0  0  0           0  0  0
    3.7607    0.6059    0.0000 O   0  0  0  0  0  0           0  0  0
    2.9421   -0.8270    0.0000 O   0  0  0  0  0  0           0  0  0
   -3.0788    0.2832    0.0000 N   0  0  0  0  0  0           0  0  0
   -4.5081    1.1080    0.0000 N   0  0  0  0  0  0           0  0  0
   -3.7975   -0.1285    0.0000 C   0  0  0  0  0  0           0  0  0
   -4.5079    0.2829    0.0000 C   0  0  0  0  0  0           0  0  0
   -4.9193   -0.4274    0.0000 C   0  0  0  0  0  0           0  0  0
   -4.2090   -0.8389    0.0000 C   0  0  0  0  0  0           0  0  0
   -5.7166   -0.6400    0.0000 O   0  0  0  0  0  0           0  0  0
   -3.9964   -1.6362    0.0000 O   0  0  0  0  0  0           0  0  0
   -3.7937    1.5207    0.0000 C   0  0  3  0  0  0           0  0  0
   -2.9668    1.5167    0.0000 C   0  0  0  0  0  0           0  0  0
   -3.3796    2.2311    0.0000 C   0  0  0  0  0  0           0  0  0
 19 20  1  0     0  0
  2  3  1  0     0  0
 20 21  2  0     0  0
 10 11  1  0     0  0
 21 22  1  0     0  0
  5  6  2  0     0  0
 22 23  2  0     0  0
 11 12  2  0     0  0
 23 24  1  0     0  0
 12  7  1  0     0  0
 24 25  2  0     0  0
 25 20  1  0     0  0
  5  7  1  0     0  0
 21 26  1  0     0  0
  6  1  1  0     0  0
 25 27  1  0     0  0
 10 13  1  0     0  0
 23 28  1  0     0  0
  1  2  2  0     0  0
 19 29  2  0     0  0
 13 14  1  0     0  0
 19 30  2  0     0  0
  3  4  2  0     0  0
  1 31  1  0     0  0
 31 33  1  0     0  0
 14 15  1  0     0  0
 34 32  1  0     0  0
 33 34  2  0     0  0
  7  8  2  0     0  0
 14 16  1  1     0  0
  8  9  1  0     0  0
 34 35  1  0     0  0
 35 36  1  0     0  0
 36 33  1  0     0  0
 15 17  1  0     0  0
 35 37  2  0     0  0
 15 18  2  0     0  0
 36 38  2  0     0  0
  4  5  1  0     0  0
 32 39  1  0     0  0
 40 39  1  0     0  0
 41 40  1  0     0  0
 39 41  1  0     0  0
 16 19  1  0     0  0
  9 10  2  0     0  0
M  END