
  SciTegic06061310022D

 22 25  0  0  0  0            999 V2000
    3.8410   -1.6559    0.0000 C   0  0
    2.4121   -1.6542    0.0000 N   0  0
    3.1271   -1.2426    0.0000 C   0  0  2  0  0  0
    3.8410   -0.0059    0.0000 C   0  0
    3.8401   -2.4809    0.0000 C   0  0
    4.5535   -1.2434    0.0000 C   0  0
    3.1251   -2.8926    0.0000 C   0  0  2  0  0  0
    4.5535   -0.4184    0.0000 C   0  0
    3.1285   -0.4184    0.0000 C   0  0
    2.4111   -2.4792    0.0000 C   0  0
    4.1410    0.8512    0.0000 C   0  0
    4.9660    0.8512    0.0000 N   0  0
    3.1241   -3.7176    0.0000 C   0  0
    5.2714   -0.0059    0.0000 C   0  0
    3.8381   -4.1309    0.0000 O   0  0
    2.4091   -4.1292    0.0000 N   0  0
    1.6981   -1.2409    0.0000 C   0  0
    5.2714   -1.6559    0.0000 C   0  0
    5.9839   -1.2434    0.0000 C   0  0
    5.9839   -0.4184    0.0000 C   0  0
    2.4132   -0.8290    0.0000 H   0  0
    3.8391   -3.3059    0.0000 H   0  0
  2  3  1  0
  3  1  1  0
  4  8  1  0
  5  1  2  0
  6  1  1  0
  7  5  1  0
  8  6  1  0
  9  3  1  0
 10  7  1  0
 11  4  2  0
 12 14  1  0
  7 13  1  1
 14  8  2  0
 15 13  2  0
 16 13  1  0
  2 17  1  0
 18  6  2  0
 19 18  1  0
 20 19  2  0
  3 21  1  1
  7 22  1  6
  9  4  1  0
  2 10  1  0
 14 20  1  0
 12 11  1  0
M  END