
  SciTegic12011113442D

 29 32  0  0  0  0            999 V2000
    3.2292   -2.3333    0.0000 O   0  0
    2.4333   -2.1208    0.0000 S   0  0
    2.6472   -2.9163    0.0000 O   0  0
    1.6350   -4.9892    0.0000 C   0  0  2  0  0  0
    2.0409   -4.2700    0.0000 C   0  0
    1.2151   -4.2781    0.0000 C   0  0
    1.6527   -6.9763    0.0000 N   0  0
    2.3172   -6.4859    0.0000 C   0  0
    0.9833   -6.4948    0.0000 C   0  0
    1.2296   -5.7076    0.0000 C   0  0  2  0  0  0
    2.0544   -5.6995    0.0000 C   0  0  1  0  0  0
    1.6224   -3.5593    0.0000 C   0  0
    1.2032   -2.8487    0.0000 C   0  0
    0.3766   -2.8564    0.0000 C   0  0
   -0.0290   -3.5806    0.0000 C   0  0
    0.3925   -4.2882    0.0000 C   0  0
    0.4053   -5.6740    0.0000 H   0  0
    2.8790   -5.6728    0.0000 H   0  0
    1.6090   -2.1304    0.0000 N   0  0
    2.8398   -1.4044    0.0000 C   0  0
    1.6577   -7.8013    0.0000 C   0  0
    2.3747   -8.2094    0.0000 C   0  0
    2.3798   -9.0344    0.0000 C   0  0
    3.0967   -9.4425    0.0000 C   0  0
    3.0981  -10.2678    0.0000 C   0  0
    3.8142  -10.6758    0.0000 C   0  0
    4.5272  -10.2589    0.0000 C   0  0
    4.5194   -9.4297    0.0000 C   0  0
    3.8027   -9.0253    0.0000 C   0  0
 10  4  1  0
  6 12  2  0
 12 13  1  0
 13 14  2  0
 14 15  1  0
 15 16  2  0
 16  6  1  0
 10 17  1  6
 11 18  1  6
 13 19  1  0
 19  2  1  0
  2  1  2  0
  2 20  1  0
  3  2  2  0
  7 21  1  0
  4  5  1  1
 21 22  1  0
  4  6  1  0
 22 23  1  0
  7  8  1  0
 23 24  1  0
 11  8  1  0
 24 25  2  0
 10  9  1  0
 25 26  1  0
  9  7  1  0
 26 27  2  0
 11 10  1  0
 27 28  1  0
  4 11  1  0
 28 29  2  0
 29 24  1  0
M  END