
  SciTegic06181315362D

 44 50  0  0  0  0            999 V2000
    4.9523  -30.9071    0.0000 N   0  0
    4.2388  -31.3227    0.0000 C   0  0
    4.2420  -32.1484    0.0000 O   0  0
    3.5221  -30.9127    0.0000 O   0  0
    3.5284  -32.5643    0.0000 C   0  0
    3.3716  -33.3750    0.0000 C   0  0
    2.7236  -34.5457    0.0000 C   0  0
    2.6260  -33.7295    0.0000 C   0  0
    1.8717  -33.4075    0.0000 C   0  0
    1.2144  -33.9007    0.0000 C   0  0
    1.3162  -34.7195    0.0000 C   0  0
    2.0706  -35.0378    0.0000 C   0  0
    3.9338  -33.9799    0.0000 C   0  0
    3.5350  -34.7006    0.0000 C   0  0
    3.9596  -35.4041    0.0000 C   0  0
    4.7828  -35.3883    0.0000 C   0  0
    5.1796  -34.6630    0.0000 C   0  0
    4.7527  -33.9624    0.0000 C   0  0
    5.6670  -31.3205    0.0000 C   0  0
    5.6649  -32.1436    0.0000 C   0  0
    6.3788  -32.5570    0.0000 C   0  0
    7.0952  -32.1447    0.0000 C   0  0
    7.0905  -31.3170    0.0000 C   0  0
    6.3788  -30.9051    0.0000 C   0  0
    6.2535  -30.0865    0.0000 N   0  0
    7.8610  -31.0134    0.0000 C   0  0
    6.8108  -29.4784    0.0000 C   0  0  2  0  0  0
    8.1026  -30.2226    0.0000 N   0  0
    7.6335  -29.5411    0.0000 C   0  0
    6.5073  -28.7105    0.0000 C   0  0
    7.0205  -28.0637    0.0000 C   0  0
    8.9283  -30.2192    0.0000 C   0  0
    9.3441  -30.9325    0.0000 C   0  0
   10.1708  -30.9310    0.0000 O   0  0
    7.8445  -28.0944    0.0000 C   0  0
    8.1328  -27.3206    0.0000 N   0  0
    6.7980  -27.2640    0.0000 C   0  0
    7.4865  -26.8092    0.0000 C   0  0
    7.4361  -25.9874    0.0000 C   0  0
    6.6976  -25.6193    0.0000 C   0  0
    6.0086  -26.0793    0.0000 C   0  0
    6.0626  -26.8996    0.0000 C   0  0
    8.9335  -31.6488    0.0000 O   0  0
    8.0448  -28.8259    0.0000 O   0  0
  1  2  1  0
  2  3  1  0
  2  4  2  0
  3  5  1  0
  5  6  1  0
  6  8  1  0
  7 14  1  0
 13  6  1  0
  7  8  2  0
  8  9  1  0
  9 10  2  0
 10 11  1  0
 11 12  2  0
 12  7  1  0
 13 14  2  0
 14 15  1  0
 15 16  2  0
 16 17  1  0
 17 18  2  0
 18 13  1  0
  1 19  1  0
 19 20  2  0
 20 21  1  0
 21 22  2  0
 22 23  1  0
 24 19  1  0
 23 24  2  0
 24 25  1  0
 23 26  1  0
 25 27  1  0
 26 28  1  0
 27 29  1  0
 28 29  1  0
 27 30  1  1
 30 31  1  0
 28 32  1  0
 32 33  1  0
 33 34  2  0
 31 35  2  0
 35 36  1  0
 36 38  1  0
 37 31  1  0
 37 38  2  0
 38 39  1  0
 39 40  2  0
 40 41  1  0
 41 42  2  0
 42 37  1  0
 33 43  1  0
 29 44  2  0
M  END