
          11280714442D 1   1.00000     0.00000     0

 28 30  0     0  0            999 V2000
    3.8125   -6.6042    0.0000 C   0  0  0  0  0  0           0  0  0
    3.8167   -7.4375    0.0000 N   0  0  0  0  0  0           0  0  0
    2.3792   -7.4417    0.0000 C   0  0  0  0  0  0           0  0  0
    3.1042   -7.8542    0.0000 C   0  0  0  0  0  0           0  0  0
    3.0917   -6.2000    0.0000 N   0  0  0  0  0  0           0  0  0
    2.3792   -6.6167    0.0000 C   0  0  0  0  0  0           0  0  0
    4.5250   -6.1917    0.0000 N   0  0  3  0  0  0           0  0  0
    1.6667   -7.8542    0.0000 C   0  0  0  0  0  0           0  0  0
    1.6667   -6.2042    0.0000 C   0  0  0  0  0  0           0  0  0
    0.9542   -7.4417    0.0000 C   0  0  0  0  0  0           0  0  0
    0.9542   -6.6167    0.0000 C   0  0  0  0  0  0           0  0  0
    6.6542   -4.1250    0.0000 C   0  0  0  0  0  0           0  0  0
    4.5167   -5.3667    0.0000 C   0  0  0  0  0  0           0  0  0
    5.2375   -6.6042    0.0000 C   0  0  0  0  0  0           0  0  0
    7.3750   -3.7042    0.0000 O   0  0  0  0  0  0           0  0  0
    3.1042   -8.6792    0.0000 N   0  0  0  0  0  0           0  0  0
    5.9417   -3.7125    0.0000 N   0  0  0  0  0  0           0  0  0
    6.6625   -4.9500    0.0000 C   0  0  0  0  0  0           0  0  0
    0.2417   -7.8542    0.0000 O   0  0  0  0  0  0           0  0  0
    0.2417   -6.2042    0.0000 O   0  0  0  0  0  0           0  0  0
    5.9500   -6.1875    0.0000 C   0  0  0  0  0  0           0  0  0
    5.2292   -4.9542    0.0000 C   0  0  0  0  0  0           0  0  0
    5.9500   -5.3625    0.0000 C   0  0  3  0  0  0           0  0  0
    5.9417   -2.8875    0.0000 C   0  0  0  0  0  0           0  0  0
    0.2417   -5.3792    0.0000 C   0  0  0  0  0  0           0  0  0
    0.2417   -8.6792    0.0000 C   0  0  0  0  0  0           0  0  0
    6.6542   -2.4750    0.0000 C   0  0  0  0  0  0           0  0  0
    6.6542   -1.6500    0.0000 C   0  0  0  0  0  0           0  0  0
  2  1  1  0     0  0
  3  6  1  0     0  0
  4  2  2  0     0  0
  5  1  2  0     0  0
  6  5  1  0     0  0
  7  1  1  0     0  0
  8  3  2  0     0  0
  9  6  2  0     0  0
 10 11  2  0     0  0
 11  9  1  0     0  0
 12 18  1  0     0  0
 13  7  1  0     0  0
 14  7  1  0     0  0
 15 12  2  0     0  0
 16  4  1  0     0  0
 17 12  1  0     0  0
 18 23  1  0     0  0
 19 10  1  0     0  0
 20 11  1  0     0  0
 21 14  1  0     0  0
 22 13  1  0     0  0
 23 21  1  0     0  0
 24 17  1  0     0  0
 25 20  1  0     0  0
 26 19  1  0     0  0
 27 24  1  0     0  0
 28 27  1  0     0  0
  4  3  1  0     0  0
 23 22  1  0     0  0
 10  8  1  0     0  0
M  END