
  SciTegic01161211242D

 20 20  0  0  0  0            999 V2000
    2.5973   -1.5031    0.0000 C   0  0  2  0  0  0
    2.5951   -3.0039    0.0000 C   0  0  2  0  0  0
    1.2990   -0.7500    0.0000 C   0  0
    1.2990    0.7500    0.0000 C   0  0
    0.0000   -1.5000    0.0000 C   0  0
    3.8933   -3.7570    0.0000 C   0  0
    1.5548   -3.6021    0.0000 O   0  0
   -1.2990    0.7500    0.0000 C   0  0
   -1.2990   -0.7500    0.0000 C   0  0
    0.0000    1.5000    0.0000 C   0  0
    3.8999   -0.7576    0.0000 C   0  0
    8.9915   -1.5016    0.0000 Cl  0  0
    4.9372   -1.3609    0.0000 N   0  0
   -2.5973    1.5031    0.0000 O   0  0
    3.8934   -5.2570    0.0000 C   0  0
    5.1925   -3.0070    0.0000 C   0  0
   -2.5956    2.7031    0.0000 C   0  0
    5.1924   -6.0070    0.0000 C   0  0
    6.4915   -3.7571    0.0000 C   0  0
    6.4915   -5.2571    0.0000 C   0  0
  1  2  1  0
  1  3  1  6
  3  4  2  0
  3  5  1  0
  2  6  1  0
  2  7  1  6
  5  9  2  0
  8  9  1  0
  4 10  1  0
  8 10  2  0
  1 11  1  0
 11 13  1  0
  8 14  1  0
  6 15  1  0
  6 16  1  0
 14 17  1  0
 15 18  1  0
 16 19  1  0
 18 20  1  0
 19 20  1  0
M  END