
  CDK    9/16/09,10:6

 42 43  0  0  0  0  0  0  0  0999 V2000
    7.8422  -12.7384    0.0000 C   0  0  0  0  0  0  0  0  0  0  0  0
    7.8422  -13.5667    0.0000 C   0  0  0  0  0  0  0  0  0  0  0  0
    8.5584  -13.9810    0.0000 C   0  0  0  0  0  0  0  0  0  0  0  0
    9.2746  -13.5667    0.0000 C   0  0  0  0  0  0  0  0  0  0  0  0
    9.2746  -12.7384    0.0000 C   0  0  0  0  0  0  0  0  0  0  0  0
    8.5584  -12.3241    0.0000 C   0  0  0  0  0  0  0  0  0  0  0  0
    8.5573  -11.5003    0.0000 O   0  0  0  0  0  0  0  0  0  0  0  0
    8.5573  -14.8048    0.0000 O   0  0  0  0  0  0  0  0  0  0  0  0
    7.1296  -12.3306    0.0000 C   0  0  0  0  0  0  0  0  0  0  0  0
    7.1276  -11.5068    0.0000 C   0  0  0  0  0  0  0  0  0  0  0  0
    6.4104  -11.0943    0.0000 C   0  0  0  0  0  0  0  0  0  0  0  0
    7.8381  -11.0908    0.0000 C   0  0  0  0  0  0  0  0  0  0  0  0
    7.8361  -10.2670    0.0000 C   0  0  0  0  0  0  0  0  0  0  0  0
    8.5513   -9.8557    0.0000 C   0  0  0  0  0  0  0  0  0  0  0  0
    7.1236   -9.8592    0.0000 O   0  0  0  0  0  0  0  0  0  0  0  0
    8.5493   -9.0320    0.0000 C   0  0  0  0  0  0  0  0  0  0  0  0
    9.2599   -8.6160    0.0000 C   0  0  0  0  0  0  0  0  0  0  0  0
    7.8321   -8.6195    0.0000 C   0  0  0  0  0  0  0  0  0  0  0  0
    9.9771   -9.0284    0.0000 C   0  0  0  0  0  0  0  0  0  0  0  0
   10.6876   -8.6124    0.0000 C   0  0  0  0  0  0  0  0  0  0  0  0
    9.9791   -9.8522    0.0000 C   0  0  0  0  0  0  0  0  0  0  0  0
   11.5097   -8.6101    0.0000 C   0  0  0  0  0  0  0  0  0  0  0  0
   12.2218   -9.0244    0.0000 C   0  0  0  0  0  0  0  0  0  0  0  0
   11.7217   -7.8149    0.0000 O   0  0  0  0  0  0  0  0  0  0  0  0
   10.4734   -7.8178    0.0000 O   0  0  0  0  0  0  0  0  0  0  0  0
    9.6776   -7.6078    0.0000 C   0  0  0  0  0  0  0  0  0  0  0  0
    9.4586   -6.8085    0.0000 O   0  0  0  0  0  0  0  0  0  0  0  0
    9.0960   -8.1923    0.0000 N   0  0  0  0  0  0  0  0  0  0  0  0
   12.5216   -7.6026    0.0000 C   0  0  0  0  0  0  0  0  0  0  0  0
   12.2197   -9.8482    0.0000 C   0  0  0  0  0  0  0  0  0  0  0  0
   11.5024  -10.2559    0.0000 C   0  0  0  0  0  0  0  0  0  0  0  0
   11.5004  -11.0797    0.0000 C   0  0  0  0  0  0  0  0  0  0  0  0
   12.2155  -11.4957    0.0000 C   0  0  0  0  0  0  0  0  0  0  0  0
    9.9913  -12.3296    0.0000 N   0  0  0  0  0  0  0  0  0  0  0  0
    9.9920  -11.5058    0.0000 C   0  0  0  0  0  0  0  0  0  0  0  0
    9.2763  -11.0908    0.0000 O   0  0  0  0  0  0  0  0  0  0  0  0
    6.3997  -10.2808    0.0000 C   0  0  0  0  0  0  0  0  0  0  0  0
    7.1166  -13.9854    0.0000 N   0  0  0  0  0  0  0  0  0  0  0  0
    9.2571  -10.2531    0.0000 O   0  0  0  0  0  0  0  0  0  0  0  0
    6.3912  -13.5662    0.0000 C   0  0  0  0  0  0  0  0  0  0  0  0
    5.6655  -13.9848    0.0000 C   0  0  0  0  0  0  0  0  0  0  0  0
    4.9402  -13.5657    0.0000 F   0  0  0  0  0  0  0  0  0  0  0  0
 19 21  1  0  0  0  0 
  3  4  1  0  0  0  0 
 20 22  1  0  0  0  0 
 10 11  1  1  0  0  0 
 22 23  1  0  0  0  0 
  4  5  2  0  0  0  0 
 22 24  1  1  0  0  0 
 10 12  1  0  0  0  0 
 20 25  1  6  0  0  0 
  5  6  1  0  0  0  0 
 25 26  1  0  0  0  0 
 12 13  1  0  0  0  0 
 26 27  2  0  0  0  0 
 26 28  1  0  0  0  0 
 13 14  1  0  0  0  0 
 24 29  1  0  0  0  0 
  6  7  2  0  0  0  0 
 23 30  2  0  0  0  0 
 13 15  1  6  0  0  0 
 30 31  1  0  0  0  0 
  1  2  2  0  0  0  0 
 31 32  2  0  0  0  0 
 14 16  1  0  0  0  0 
 32 33  1  0  0  0  0 
  3  8  2  0  0  0  0 
  5 34  1  0  0  0  0 
 16 17  1  0  0  0  0 
 34 35  1  0  0  0  0 
  1  6  1  0  0  0  0 
 35 36  2  0  0  0  0 
 35 32  1  0  0  0  0 
 16 18  1  1  0  0  0 
 15 37  1  0  0  0  0 
  1  9  1  0  0  0  0 
  2 38  1  0  0  0  0 
 17 19  2  0  0  0  0 
 14 39  2  0  0  0  0 
  2  3  1  0  0  0  0 
 38 40  1  0  0  0  0 
 19 20  1  0  0  0  0 
 40 41  1  0  0  0  0 
  9 10  1  0  0  0  0 
 41 42  1  0  0  0  0 
M  END