
  SciTegic01061111512D

 21 22  0  0  0  0            999 V2000
    2.1250  -24.8583    0.0000 C   0  0  2  0  0  0
    2.1250  -25.6833    0.0000 C   0  0  1  0  0  0
    2.8370  -26.0917    0.0000 C   0  0  1  0  0  0
    3.5490  -25.6833    0.0000 C   0  0  2  0  0  0
    3.5490  -24.8583    0.0000 C   0  0  1  0  0  0
    2.8370  -24.4417    0.0000 O   0  0
    4.2647  -24.4479    0.0000 S   0  0
    4.9780  -24.8625    0.0000 C   0  0
    4.2629  -26.0969    0.0000 O   0  0
    2.8370  -26.9167    0.0000 N   0  0
    2.1756  -27.4029    0.0000 C   0  0
    2.4305  -28.1875    0.0000 C   0  0
    3.2556  -28.1875    0.0000 N   0  0
    3.5104  -27.4029    0.0000 N   0  0
    1.9456  -28.8550    0.0000 C   0  0
    1.1251  -28.7687    0.0000 N   0  0
    2.2812  -29.6086    0.0000 O   0  0
    1.4111  -26.0969    0.0000 O   0  0
    1.4093  -24.4479    0.0000 C   0  0
    1.4069  -23.6229    0.0000 O   0  0
    1.3903  -27.1501    0.0000 N   0  0
  3 10  1  1
 10 11  1  0
  3  4  1  0
  4  5  1  0
  5  6  1  0
 11 12  2  0
 12 13  1  0
 13 14  2  0
 14 10  1  0
  5  7  1  1
 12 15  1  0
  1  2  1  0
 15 16  1  0
  7  8  1  0
 15 17  2  0
  1  6  1  0
  2 18  1  1
  4  9  1  6
  1 19  1  1
  2  3  1  0
 19 20  1  0
 11 21  1  0
M  END