
  SciTegic04091415032D

 35 38  0  0  0  0            999 V2000
    5.6405   -4.6059    0.0000 C   0  0
    5.6394   -5.4296    0.0000 C   0  0
    6.3515   -5.8427    0.0000 C   0  0
    6.3497   -4.1971    0.0000 C   0  0
    7.0625   -4.6024    0.0000 C   0  0
    7.0632   -5.4255    0.0000 C   0  0
    7.7759   -5.8367    0.0000 N   0  0
    8.4883   -5.4217    0.0000 C   0  0
    8.4836   -4.5955    0.0000 C   0  0
    7.7703   -4.1921    0.0000 C   0  0
    4.9326   -4.1933    0.0000 N   0  0
    7.7660   -3.3708    0.0000 C   0  0
    8.4757   -2.9543    0.0000 O   0  0
    7.0520   -2.9618    0.0000 O   0  0
    9.2017   -5.8317    0.0000 C   0  0
    9.2049   -6.6530    0.0000 N   0  0
    9.9120   -5.4162    0.0000 O   0  0
    9.9183   -7.0589    0.0000 C   0  0  2  0  0  0
    9.9215   -7.8802    0.0000 C   0  0
   10.6244   -6.6475    0.0000 C   0  0
   11.3378   -7.0534    0.0000 C   0  0
   10.6308   -8.2901    0.0000 O   0  0
    9.2112   -8.2956    0.0000 O   0  0
   10.6340   -9.1115    0.0000 C   0  0
   11.3379   -7.8717    0.0000 C   0  0
   12.0505   -8.2816    0.0000 C   0  0
   12.7617   -7.8661    0.0000 C   0  0
   12.7559   -7.0405    0.0000 C   0  0
   12.0427   -6.6385    0.0000 C   0  0
   13.4757   -8.2751    0.0000 O   0  0
    4.9413   -3.3723    0.0000 C   0  0
    4.2384   -2.9556    0.0000 C   0  0
    3.5240   -3.3630    0.0000 O   0  0
    3.5211   -4.1872    0.0000 C   0  0
    4.2288   -4.5961    0.0000 C   0  0
  1  2  2  0
  2  3  1  0
  3  6  2  0
  5  4  2  0
  4  1  1  0
  5  6  1  0
  6  7  1  0
  7  8  2  0
  8  9  1  0
  9 10  2  0
 10  5  1  0
  1 11  1  0
 10 12  1  0
 12 13  2  0
 12 14  1  0
  8 15  1  0
 15 16  1  0
 15 17  2  0
 16 18  1  0
 18 19  1  1
 18 20  1  0
 20 21  1  0
 19 22  1  0
 19 23  2  0
 22 24  1  0
 21 25  2  0
 25 26  1  0
 26 27  2  0
 27 28  1  0
 28 29  2  0
 29 21  1  0
 27 30  1  0
 11 31  1  0
 31 32  1  0
 32 33  1  0
 33 34  1  0
 34 35  1  0
 35 11  1  0
M  END