
  SciTegic05171617282D

 35 38  0  0  0  0            999 V2000
    2.3383   -1.3500    0.0000 C   0  0
    1.2990   -0.7500    0.0000 N   0  0
    1.2990    0.7500    0.0000 C   0  0
    0.0000    1.5000    0.0000 C   0  0
   -1.2990    0.7500    0.0000 N   0  0
   -1.2990   -0.7500    0.0000 C   0  0
    0.0000   -1.5000    0.0000 C   0  0
   -2.5987    1.5004    0.0000 C   0  0
   -2.6012    3.0004    0.0000 C   0  0
   -3.9015    3.7484    0.0000 C   0  0
   -5.1993    2.9963    0.0000 C   0  0
   -5.1969    1.4963    0.0000 C   0  0
   -6.4939    0.7411    0.0000 N   0  0
   -6.4894   -0.7597    0.0000 C   0  0
   -7.7846   -1.5163    0.0000 N   0  0
   -7.7770   -3.0163    0.0000 C   0  0
   -6.4742   -3.7597    0.0000 C   0  0
   -5.1790   -3.0032    0.0000 C   0  0
   -3.8739   -3.7444    0.0000 C   0  0
   -2.5791   -2.9855    0.0000 C   0  0
   -1.2740   -3.7267    0.0000 C   0  0
    0.0213   -2.9702    0.0000 C   0  0
    1.3241   -3.7136    0.0000 C   0  0
    1.3317   -5.2136    0.0000 C   0  0
    0.0365   -5.9701    0.0000 C   0  0
   -1.2663   -5.2267    0.0000 C   0  0
    0.0410   -7.4710    0.0000 C   0  0
    1.0822   -8.0675    0.0000 N   0  0
   -0.9960   -8.0748    0.0000 O   0  0
   -5.1866   -1.5032    0.0000 N   0  0
   -6.4666   -5.2605    0.0000 C   0  0
   -7.5025   -5.8664    0.0000 F   0  0
   -5.4242   -5.8550    0.0000 F   0  0
   -6.4600   -6.4605    0.0000 F   0  0
   -3.8967    0.7484    0.0000 C   0  0
  1  2  1  0
  2  3  1  0
  3  4  1  0
  4  5  1  0
  5  6  1  0
  6  7  1  0
  2  7  1  0
  5  8  1  0
  8  9  2  0
  9 10  1  0
 10 11  2  0
 11 12  1  0
 12 13  1  0
 13 14  1  0
 14 15  2  0
 15 16  1  0
 16 17  2  0
 17 18  1  0
 18 19  1  0
 19 20  1  0
 20 21  1  0
 21 22  2  0
 22 23  1  0
 23 24  2  0
 24 25  1  0
 25 26  2  0
 21 26  1  0
 25 27  1  0
 27 28  1  0
 27 29  2  0
 18 30  2  0
 14 30  1  0
 17 31  1  0
 31 32  1  0
 31 33  1  0
 31 34  1  0
 12 35  2  0
  8 35  1  0
M  END