
          02060813472D 1   1.00000     0.00000     0

 31 34  0     1  0            999 V2000
    8.0958   -0.1375    0.0000 C   0  0  0  0  0  0           0  0  0
    8.0958   -0.9625    0.0000 O   0  0  0  0  0  0           0  0  0
    8.8079   -1.3708    0.0000 C   0  0  0  0  0  0           0  0  0
    9.5199   -0.9625    0.0000 C   0  0  0  0  0  0           0  0  0
    9.5199   -0.1375    0.0000 N   0  0  3  0  0  0           0  0  0
    8.8079    0.2792    0.0000 C   0  0  0  0  0  0           0  0  0
   10.2355    0.2729    0.0000 C   0  0  0  0  0  0           0  0  0
   10.9488   -0.1417    0.0000 C   0  0  0  0  0  0           0  0  0
   10.2380    1.0979    0.0000 O   0  0  0  0  0  0           0  0  0
   11.6645    0.2687    0.0000 C   0  0  1  0  0  0           0  0  0
   11.6583    1.0958    0.0000 C   0  0  0  0  0  0           0  0  0
   12.3697    1.5136    0.0000 C   0  0  3  0  0  0           0  0  0
   13.0865    1.1007    0.0000 C   0  0  0  0  0  0           0  0  0
   13.7958    1.5150    0.0000 C   0  0  0  0  0  0           0  0  0
   13.7939    2.3404    0.0000 C   0  0  0  0  0  0           0  0  0
   13.0765    2.7497    0.0000 C   0  0  0  0  0  0           0  0  0
   12.3610    2.3338    0.0000 C   0  0  0  0  0  0           0  0  0
   12.3799   -0.1422    0.0000 C   0  0  0  0  0  0           0  0  0
   12.3817   -0.9672    0.0000 O   0  0  0  0  0  0           0  0  0
   13.0934    0.2719    0.0000 N   0  0  0  0  0  0           0  0  0
   13.8082   -0.1390    0.0000 C   0  0  2  0  0  0           0  0  0
   14.1648    0.6088    0.0000 C   0  0  0  0  0  0           0  0  0
   14.5212    1.3558    0.0000 N   0  0  0  0  0  0           0  0  0
   13.4802   -0.8945    0.0000 C   0  0  0  0  0  0           0  0  0
   14.2398   -1.3999    0.0000 C   0  0  0  0  0  0           0  0  0
   14.8988   -0.9035    0.0000 N   0  0  3  0  0  0           0  0  0
   14.6303   -0.1235    0.0000 C   0  0  0  0  0  0           0  0  0
   15.6877   -1.1449    0.0000 C   0  0  0  0  0  0           0  0  0
   16.2912   -0.5823    0.0000 C   0  0  3  0  0  0           0  0  0
   17.0903   -0.3944    0.0000 C   0  0  0  0  0  0           0  0  0
   16.5278    0.2090    0.0000 C   0  0  0  0  0  0           0  0  0
 12 17  1  0     0  0
 13 14  1  0     0  0
 14 15  1  0     0  0
 15 16  1  0     0  0
 16 17  1  0     0  0
  1  6  1  0     0  0
 10 18  1  0     0  0
  7  9  2  0     0  0
 18 19  2  0     0  0
  2  3  1  0     0  0
 18 20  1  0     0  0
  8 10  1  0     0  0
 21 20  1  1     0  0
  3  4  1  0     0  0
 21 22  1  0     0  0
 10 11  1  1     0  0
 22 23  3  0     0  0
  4  5  1  0     0  0
 21 24  1  0     0  0
 11 12  1  0     0  0
 12 13  1  0     0  0
  5  6  1  0     0  0
 24 25  1  0     0  0
 25 26  1  0     0  0
 26 27  1  0     0  0
 21 27  1  0     0  0
 26 28  1  0     0  0
  5  7  1  0     0  0
 28 29  1  0     0  0
 30 29  1  0     0  0
 31 30  1  0     0  0
 29 31  1  0     0  0
  1  2  1  0     0  0
  7  8  1  0     0  0
M  END