
          11280715412D 1   1.00000     0.00000     0

 20 21  0     0  0            999 V2000
    4.8125   -2.7542    0.0000 N   0  0  3  0  0  0           0  0  0
    5.5375   -2.3500    0.0000 C   0  0  3  0  0  0           0  0  0
    4.2250   -2.1667    0.0000 N   0  0  0  0  0  0           0  0  0
    6.2500   -1.9375    0.0000 C   0  0  3  0  0  0           0  0  0
    3.4875   -2.5417    0.0000 N   0  0  0  0  0  0           0  0  0
    4.4375   -3.4917    0.0000 C   0  0  0  0  0  0           0  0  0
    4.8167   -1.9375    0.0000 C   0  0  3  0  0  0           0  0  0
    6.9625   -2.3500    0.0000 C   0  0  3  0  0  0           0  0  0
    6.4917   -1.3667    0.0000 O   0  0  0  0  0  0           0  0  0
    5.6417   -1.9375    0.0000 C   0  0  3  0  0  0           0  0  0
    3.6125   -3.3625    0.0000 C   0  0  0  0  0  0           0  0  0
    7.5750   -2.9000    0.0000 S   0  0  0  0  0  0           0  0  0
    6.2417   -2.7542    0.0000 O   0  0  0  0  0  0           0  0  0
    4.4000   -1.2167    0.0000 O   0  0  0  0  0  0           0  0  0
    5.4250   -1.1375    0.0000 C   0  0  0  0  0  0           0  0  0
    3.0292   -3.9417    0.0000 C   0  0  0  0  0  0           0  0  0
    6.0042   -0.5500    0.0000 O   0  0  0  0  0  0           0  0  0
    7.4042   -3.7042    0.0000 C   0  0  0  0  0  0           0  0  0
    3.2417   -4.7375    0.0000 C   0  0  0  0  0  0           0  0  0
    2.6625   -5.3167    0.0000 C   0  0  0  0  0  0           0  0  0
  2  1  1  0     0  0
  3  1  1  0     0  0
  4  2  1  0     0  0
  5  3  2  0     0  0
  6  1  1  0     0  0
  7  2  1  0     0  0
  8  4  1  0     0  0
  9 10  1  0     0  0
 10  7  1  0     0  0
 11  6  2  0     0  0
 12  8  1  0     0  0
 13  4  1  0     0  0
 14  7  1  0     0  0
 15 10  1  0     0  0
 16 11  1  0     0  0
 17 15  1  0     0  0
 18 12  1  0     0  0
 19 16  1  0     0  0
 20 19  1  0     0  0
 11  5  1  0     0  0
  8  9  1  0     0  0
M  END