
          11280715352D 1   1.00000     0.00000     0

 19 17  0     0  0            999 V2000
    3.5375   -4.7542    0.0000 C   0  0  0  0  0  0           0  0  0
    3.1250   -5.4792    0.0000 C   0  0  0  0  0  0           0  0  0
    3.1250   -4.0417    0.0000 O   0  0  0  0  0  0           0  0  0
    3.5375   -6.1917    0.0000 O   0  0  0  0  0  0           0  0  0
    4.2417   -2.1500    0.0000 N   0  0  0  0  0  0           0  0  0
    2.2917   -5.4792    0.0000 O   0  0  0  0  0  0           0  0  0
    4.3667   -4.7542    0.0000 O   0  0  0  0  0  0           0  0  0
    3.5292   -1.7292    0.0000 C   0  0  0  0  0  0           0  0  0
    2.8167   -2.1417    0.0000 C   0  0  3  0  0  0           0  0  0
    1.3917   -2.1417    0.0000 O   0  0  0  0  0  0           0  0  0
    2.8167   -2.9667    0.0000 O   0  0  0  0  0  0           0  0  0
    4.9625   -1.7375    0.0000 C   0  0  3  0  0  0           0  0  0
    2.1042   -1.7292    0.0000 C   0  0  0  0  0  0           0  0  0
    0.6750   -1.7292    0.0000 C   0  0  0  0  0  0           0  0  0
   -0.0375   -2.1417    0.0000 C   0  0  3  0  0  0           0  0  0
    5.6750   -2.1500    0.0000 C   0  0  0  0  0  0           0  0  0
    4.9625   -0.9125    0.0000 C   0  0  0  0  0  0           0  0  0
   -0.7583   -1.7250    0.0000 C   0  0  0  0  0  0           0  0  0
   -0.0458   -2.9667    0.0000 C   0  0  0  0  0  0           0  0  0
  2  1  1  0     0  0
  3  1  2  0     0  0
  4  2  2  0     0  0
  6  2  1  0     0  0
  7  1  1  0     0  0
  8  5  1  0     0  0
  9  8  1  0     0  0
 10 13  1  0     0  0
 11  9  1  0     0  0
 12  5  1  0     0  0
 13  9  1  0     0  0
 14 10  1  0     0  0
 15 14  1  0     0  0
 16 12  1  0     0  0
 17 12  1  0     0  0
 18 15  1  0     0  0
 19 15  1  0     0  0
M  END