
          11280715062D 1   1.00000     0.00000     0

 33 37  0     0  0            999 V2000
    9.1042   -5.7792    0.0000 C   0  0  0  0  0  0           0  0  0
    9.1125   -4.9625    0.0000 C   0  0  0  0  0  0           0  0  0
    7.6792   -5.7750    0.0000 C   0  0  0  0  0  0           0  0  0
    8.3875   -6.1917    0.0000 O   0  0  0  0  0  0           0  0  0
    8.4000   -4.5417    0.0000 C   0  0  0  0  0  0           0  0  0
    7.6875   -4.9542    0.0000 C   0  0  0  0  0  0           0  0  0
    9.8792   -6.0417    0.0000 N   0  0  0  0  0  0           0  0  0
   10.3667   -5.3792    0.0000 N   0  0  0  0  0  0           0  0  0
    6.9667   -6.1875    0.0000 C   0  0  0  0  0  0           0  0  0
    9.8917   -4.7167    0.0000 N   0  0  0  0  0  0           0  0  0
    6.9667   -4.5375    0.0000 C   0  0  0  0  0  0           0  0  0
    1.3167   -7.2125    0.0000 N   0  0  3  0  0  0           0  0  0
    2.9667   -7.2125    0.0000 N   0  0  3  0  0  0           0  0  0
    6.2625   -5.7667    0.0000 C   0  0  0  0  0  0           0  0  0
    8.4042   -3.7167    0.0000 O   0  0  0  0  0  0           0  0  0
    6.2542   -4.9500    0.0000 C   0  0  0  0  0  0           0  0  0
    0.4917   -7.2125    0.0000 C   0  0  0  0  0  0           0  0  0
    0.0792   -6.5000    0.0000 C   0  0  0  0  0  0           0  0  0
    1.7292   -6.4917    0.0000 C   0  0  0  0  0  0           0  0  0
    1.7292   -7.9250    0.0000 C   0  0  0  0  0  0           0  0  0
    2.5542   -7.9250    0.0000 C   0  0  0  0  0  0           0  0  0
    2.5542   -6.4917    0.0000 C   0  0  0  0  0  0           0  0  0
    0.4917   -5.7875    0.0000 C   0  0  0  0  0  0           0  0  0
    0.0792   -5.0750    0.0000 C   0  0  0  0  0  0           0  0  0
    0.4917   -4.3542    0.0000 Cl  0  0  0  0  0  0           0  0  0
    5.4375   -5.7792    0.0000 O   0  0  0  0  0  0           0  0  0
    6.9667   -7.0125    0.0000 C   0  0  0  0  0  0           0  0  0
    3.7917   -7.2125    0.0000 C   0  0  0  0  0  0           0  0  0
    4.2042   -6.5000    0.0000 C   0  0  0  0  0  0           0  0  0
   -1.1583   -5.7917    0.0000 C   0  0  0  0  0  0           0  0  0
   -0.7458   -6.5042    0.0000 C   0  0  0  0  0  0           0  0  0
    5.0292   -6.5000    0.0000 C   0  0  0  0  0  0           0  0  0
   -0.7458   -5.0750    0.0000 C   0  0  0  0  0  0           0  0  0
  2  1  1  0     0  0
  3  4  1  0     0  0
  4  1  1  0     0  0
  5  2  2  0     0  0
  6  3  2  0     0  0
  7  1  2  0     0  0
  8  7  1  0     0  0
  9  3  1  0     0  0
 10  2  1  0     0  0
 11  6  1  0     0  0
 12 19  1  0     0  0
 13 28  1  0     0  0
 14  9  2  0     0  0
 15  5  1  0     0  0
 16 14  1  0     0  0
 17 12  1  0     0  0
 18 17  1  0     0  0
 19 22  1  0     0  0
 20 21  1  0     0  0
 21 13  1  0     0  0
 22 13  1  0     0  0
 23 18  2  0     0  0
 24 23  1  0     0  0
 25 24  1  0     0  0
 26 14  1  0     0  0
 27  9  1  0     0  0
 28 29  1  0     0  0
 29 32  1  0     0  0
 30 31  2  0     0  0
 31 18  1  0     0  0
 32 26  1  0     0  0
 33 30  1  0     0  0
  8 10  2  0     0  0
  5  6  1  0     0  0
 16 11  2  0     0  0
 20 12  1  0     0  0
 24 33  2  0     0  0
M  END