
  SciTegic12231509382D

 38 42  0  0  0  0            999 V2000
    1.4633   -5.5830    0.0000 N   0  0
    0.7494   -5.9964    0.0000 C   0  0
    0.0354   -5.5788    0.0000 C   0  0
    1.4633   -4.7521    0.0000 C   0  0
    0.7494   -4.3387    0.0000 N   0  0
    3.6053   -9.2907    0.0000 C   0  0
    4.9080   -9.0109    0.0000 N   0  0
    4.3568   -9.6247    0.0000 N   0  0
    4.4946   -8.2969    0.0000 N   0  0
    3.6930   -8.4723    0.0000 N   0  0
    0.0354   -4.7521    0.0000 C   0  0
   -0.6786   -5.9964    0.0000 C   0  0
    2.8913   -9.7123    0.0000 C   0  0
    2.1773   -9.2990    0.0000 C   0  0
   -1.3926   -5.5830    0.0000 C   0  0
    2.1773   -5.9964    0.0000 C   0  0
    0.7494   -6.8231    0.0000 O   0  0
   -2.1191   -5.9964    0.0000 C   0  0
    2.1773   -8.4723    0.0000 C   0  0
   -0.6786   -4.3387    0.0000 C   0  0
   -1.3926   -4.7563    0.0000 C   0  0
    1.4633   -8.0589    0.0000 C   0  0
    2.8913   -8.0589    0.0000 C   0  0
    2.1773   -6.8231    0.0000 C   0  0
    2.1898   -4.3429    0.0000 C   0  0
    2.8913   -7.2322    0.0000 C   0  0
    1.4633   -7.2322    0.0000 C   0  0
   -2.1191   -6.8231    0.0000 O   0  0
    2.8913  -10.5391    0.0000 C   0  0
    1.4633   -9.7123    0.0000 C   0  0
   -2.8330   -5.5830    0.0000 C   0  0
   -2.3320   -5.2030    0.0000 C   0  0
   -2.8330   -7.2364    0.0000 C   0  0
    2.9038   -4.7563    0.0000 C   0  0
    3.6178   -4.3429    0.0000 C   0  0
    1.4633  -10.5391    0.0000 C   0  0
    2.1773  -10.9524    0.0000 C   0  0
    4.3318   -4.7646    0.0000 C   0  0
  2  1  1  0
  3  2  1  0
  4  1  1  0
  5  4  2  0
  6 13  1  0
  7  8  1  0
  8  6  2  0
  9 10  2  0
 10  6  1  0
 11  5  1  0
 12  3  2  0
 13 14  1  0
 14 19  1  0
 15 12  1  0
 16  1  1  0
 17  2  2  0
 18 15  1  0
 19 22  2  0
 20 11  2  0
 21 20  1  0
 22 27  1  0
 23 26  2  0
 24 16  1  0
 25  4  1  0
 26 24  1  0
 27 24  2  0
 28 18  1  0
 29 13  2  0
 30 14  2  0
 31 18  1  0
 32 18  1  0
 33 28  1  0
 34 25  1  0
 35 34  1  0
 36 30  1  0
 37 36  2  0
 38 35  1  0
 11  3  1  0
 19 23  1  0
 21 15  2  0
 29 37  1  0
  7  9  1  0
M  END