
  CDK    6/4/10,11:41

 35 38  0  0  0  0  0  0  0  0999 V2000
   10.1292   -5.8000    0.0000 C   0  0  0  0  0  0  0  0  0  0  0  0
   12.2667   -7.0375    0.0000 N   0  0  0  0  0  0  0  0  0  0  0  0
   17.9792   -8.6875    0.0000 C   0  0  0  0  0  0  0  0  0  0  0  0
   17.2667   -8.2750    0.0000 C   0  0  0  0  0  0  0  0  0  0  0  0
   10.8458   -6.2125    0.0000 C   0  0  0  0  0  0  0  0  0  0  0  0
   15.8417   -7.4500    0.0000 C   0  0  0  0  0  0  0  0  0  0  0  0
    9.7167   -6.5125    0.0000 C   0  0  0  0  0  0  0  0  0  0  0  0
    9.4083   -5.3875    0.0000 C   0  0  0  0  0  0  0  0  0  0  0  0
   17.2583   -7.4500    0.0000 C   0  0  0  0  0  0  0  0  0  0  0  0
   16.5458   -8.6875    0.0000 C   0  0  0  0  0  0  0  0  0  0  0  0
   16.5458   -7.0375    0.0000 C   0  0  0  0  0  0  0  0  0  0  0  0
   15.8333   -8.2750    0.0000 C   0  0  0  0  0  0  0  0  0  0  0  0
   10.8458   -7.0375    0.0000 C   0  0  0  0  0  0  0  0  0  0  0  0
   11.5542   -5.7958    0.0000 C   0  0  0  0  0  0  0  0  0  0  0  0
   12.2667   -6.2125    0.0000 C   0  0  0  0  0  0  0  0  0  0  0  0
   11.5542   -7.4458    0.0000 C   0  0  0  0  0  0  0  0  0  0  0  0
   10.5417   -5.0875    0.0000 O   0  0  0  0  0  0  0  0  0  0  0  0
   15.1208   -7.0375    0.0000 C   0  0  0  0  0  0  0  0  0  0  0  0
   12.9833   -7.4500    0.0000 C   0  0  0  0  0  0  0  0  0  0  0  0
   15.1208   -6.2125    0.0000 O   0  0  0  0  0  0  0  0  0  0  0  0
   13.6958   -7.0375    0.0000 C   0  0  0  0  0  0  0  0  0  0  0  0
   18.6917   -9.1000    0.0000 C   0  0  0  0  0  0  0  0  0  0  0  0
   17.5667   -9.4083    0.0000 C   0  0  0  0  0  0  0  0  0  0  0  0
   18.3958   -7.9750    0.0000 C   0  0  0  0  0  0  0  0  0  0  0  0
   14.4083   -7.4500    0.0000 C   0  0  0  0  0  0  0  0  0  0  0  0
    8.6958   -5.8000    0.0000 C   0  0  0  0  0  0  0  0  0  0  0  0
    9.4083   -4.5500    0.0000 C   0  0  0  0  0  0  0  0  0  0  0  0
    8.8917   -6.5125    0.0000 C   0  0  0  0  0  0  0  0  0  0  0  0
   10.1333   -7.2250    0.0000 C   0  0  0  0  0  0  0  0  0  0  0  0
    7.9708   -5.3833    0.0000 C   0  0  0  0  0  0  0  0  0  0  0  0
    9.7167   -7.9458    0.0000 C   0  0  0  0  0  0  0  0  0  0  0  0
    8.4792   -7.2250    0.0000 C   0  0  0  0  0  0  0  0  0  0  0  0
    8.6958   -4.1375    0.0000 C   0  0  0  0  0  0  0  0  0  0  0  0
    8.8833   -7.9458    0.0000 C   0  0  0  0  0  0  0  0  0  0  0  0
    7.9792   -4.5500    0.0000 C   0  0  0  0  0  0  0  0  0  0  0  0
  2 15  1  0  0  0  0 
  3  4  1  0  0  0  0 
  4 10  2  0  0  0  0 
  5  1  1  0  0  0  0 
  6 18  1  0  0  0  0 
  7  1  1  0  0  0  0 
  8  1  1  0  0  0  0 
  9 11  2  0  0  0  0 
 10 12  1  0  0  0  0 
 11  6  1  0  0  0  0 
 12  6  2  0  0  0  0 
 13  5  1  0  0  0  0 
 14  5  1  0  0  0  0 
 15 14  1  0  0  0  0 
 16 13  1  0  0  0  0 
 17  1  1  0  0  0  0 
 18 25  1  0  0  0  0 
 19  2  1  0  0  0  0 
 20 18  1  0  0  0  0 
 21 19  1  0  0  0  0 
 22  3  1  0  0  0  0 
 23  3  1  0  0  0  0 
 24  3  1  0  0  0  0 
 25 21  1  0  0  0  0 
 26  8  1  0  0  0  0 
 27  8  2  0  0  0  0 
 28  7  2  0  0  0  0 
 29  7  1  0  0  0  0 
 30 26  2  0  0  0  0 
 31 29  2  0  0  0  0 
 32 28  1  0  0  0  0 
 33 27  1  0  0  0  0 
 34 31  1  0  0  0  0 
 35 33  2  0  0  0  0 
 16  2  1  0  0  0  0 
 30 35  1  0  0  0  0 
 32 34  2  0  0  0  0 
  9  4  1  0  0  0  0 
M  END