
  SciTegic04021211102D

 23 26  0  0  0  0            999 V2000
   -2.1626    1.0436    0.0000 C   0  0
   -1.4462    0.6301    0.0000 N   0  0
   -0.7315    1.0499    0.0000 C   0  0
   -0.7361    1.8788    0.0000 N   0  0
   -1.4614    2.2862    0.0000 C   0  0
   -2.1690    1.8683    0.0000 N   0  0
   -1.4693    3.1143    0.0000 N   0  0
   -0.0116    0.6378    0.0000 S   0  0
   -0.0069   -0.1903    0.0000 C   0  0
   -5.7300    0.6028    0.0000 C   0  0
   -5.7261   -0.2253    0.0000 O   0  0
   -5.0090   -0.6298    0.0000 C   0  0
   -5.0166    1.0263    0.0000 C   0  0
   -3.5849    1.8476    0.0000 C   0  0
   -4.3043    2.2591    0.0000 C   0  0
   -5.0167    1.8480    0.0000 C   0  0
   -4.3018    0.6088    0.0000 C   0  0
   -4.2972   -0.2170    0.0000 C   0  0
   -3.5804   -0.6220    0.0000 C   0  0
   -2.8676   -0.2066    0.0000 C   0  0
   -2.8762    0.6223    0.0000 C   0  0
   -3.5937    1.0279    0.0000 C   0  0
   -4.3059    3.0872    0.0000 Cl  0  0
  5  6  2  0
  6  1  1  0
  1  2  2  0
  5  7  1  0
  3  4  2  0
  3  8  1  0
  8  9  1  0
  4  5  1  0
  2  3  1  0
 21  1  1  0
 10 13  1  0
 10 11  1  0
 11 12  1  0
 12 18  1  0
 13 17  2  0
 16 13  1  0
 22 14  2  0
 14 15  1  0
 15 16  2  0
 15 23  1  0
 17 18  1  0
 22 17  1  0
 18 19  2  0
 19 20  1  0
 20 21  2  0
 21 22  1  0
M  END