
          11280714462D 1   1.00000     0.00000     0

 32 36  0     0  0            999 V2000
    0.5292    1.8958    0.0000 C   0  0  0  0  0  0           0  0  0
   -0.5500    1.1083    0.0000 C   0  0  0  0  0  0           0  0  0
    0.2750    1.1083    0.0000 N   0  0  0  0  0  0           0  0  0
   -0.8083    1.8958    0.0000 N   0  0  3  0  0  0           0  0  0
   -0.1375    2.3750    0.0000 C   0  0  0  0  0  0           0  0  0
    1.3167    2.1458    0.0000 C   0  0  0  0  0  0           0  0  0
   -1.0375    0.4375    0.0000 C   0  0  0  0  0  0           0  0  0
    2.7125    1.8458    0.0000 N   0  0  3  0  0  0           0  0  0
    1.9250    1.5958    0.0000 N   0  0  0  0  0  0           0  0  0
   -0.7083   -0.3042    0.0000 C   0  0  0  0  0  0           0  0  0
   -1.5875    2.1458    0.0000 C   0  0  0  0  0  0           0  0  0
   -1.8583    0.5333    0.0000 C   0  0  0  0  0  0           0  0  0
   -1.1833   -0.9750    0.0000 C   0  0  0  0  0  0           0  0  0
    3.3750    1.3583    0.0000 C   0  0  0  0  0  0           0  0  0
    2.9667    2.6250    0.0000 C   0  0  0  0  0  0           0  0  0
    3.7917    2.6208    0.0000 C   0  0  3  0  0  0           0  0  0
    4.0417    1.8375    0.0000 C   0  0  3  0  0  0           0  0  0
    1.4875    2.9583    0.0000 O   0  0  0  0  0  0           0  0  0
   -1.7583    2.9583    0.0000 C   0  0  0  0  0  0           0  0  0
   -2.1958    1.5958    0.0000 C   0  0  0  0  0  0           0  0  0
   -2.0083   -0.8917    0.0000 C   0  0  0  0  0  0           0  0  0
    0.1167   -0.3042    0.0000 Cl  0  0  0  0  0  0           0  0  0
   -0.1375    3.2083    0.0000 C   0  0  0  0  0  0           0  0  0
   -2.3458   -0.1292    0.0000 C   0  0  0  0  0  0           0  0  0
   -3.1583    2.6583    0.0000 C   0  0  0  0  0  0           0  0  0
   -2.9833    1.8458    0.0000 C   0  0  0  0  0  0           0  0  0
   -2.5458    3.2083    0.0000 C   0  0  0  0  0  0           0  0  0
   -2.4250   -1.6042    0.0000 Cl  0  0  0  0  0  0           0  0  0
   -3.9583    2.8750    0.0000 Cl  0  0  0  0  0  0           0  0  0
    4.4542    3.1083    0.0000 C   0  0  0  0  0  0           0  0  0
    4.8625    1.8333    0.0000 C   0  0  0  0  0  0           0  0  0
    5.1167    2.6208    0.0000 C   0  0  0  0  0  0           0  0  0
  2  3  2  0     0  0
  3  1  1  0     0  0
  4  5  1  0     0  0
  5  1  2  0     0  0
  6  1  1  0     0  0
  7  2  1  0     0  0
  8  9  1  0     0  0
  9  6  1  0     0  0
 10  7  1  0     0  0
 11  4  1  0     0  0
 12  7  2  0     0  0
 13 10  2  0     0  0
 14  8  1  0     0  0
 15  8  1  0     0  0
 16 15  1  0     0  0
 17 14  1  0     0  0
 18  6  2  0     0  0
 19 11  2  0     0  0
 20 11  1  0     0  0
 21 24  2  0     0  0
 22 10  1  0     0  0
 23  5  1  0     0  0
 24 12  1  0     0  0
 25 26  1  0     0  0
 26 20  2  0     0  0
 27 19  1  0     0  0
 28 21  1  0     0  0
 29 25  1  0     0  0
 30 16  1  0     0  0
 31 17  1  0     0  0
 32 30  1  0     0  0
  2  4  1  0     0  0
 17 16  1  0     0  0
 25 27  2  0     0  0
 21 13  1  0     0  0
 32 31  1  0     0  0
M  END