
  SciTegic12231509382D

 18 18  0  0  0  0            999 V2000
   10.4460  -10.1365    0.0000 C   0  0
   10.4515  -12.6131    0.0000 C   0  0
   15.4506  -11.3561    0.0000 N   0  0
   14.7377  -11.7713    0.0000 C   0  0
   16.1666  -11.7659    0.0000 C   0  0
   16.1697  -12.5908    0.0000 C   0  0
   16.8795  -11.3507    0.0000 C   0  0
   10.4438   -9.3126    0.0000 C   0  0
   11.8827  -12.6126    0.0000 C   0  0
   13.3088  -11.7767    0.0000 C   0  0
   14.0186  -10.5365    0.0000 O   0  0
   14.0216  -11.3615    0.0000 C   0  0
   11.1645  -11.3729    0.0000 C   0  0
   11.8799  -11.7820    0.0000 C   0  0
   11.1620  -10.5479    0.0000 C   0  0
   10.4526  -11.7856    0.0000 C   0  0
   11.1662  -13.0259    0.0000 C   0  0
   12.5927  -11.3669    0.0000 O   0  0
  3  5  1  0
  4  3  1  0
 16  2  2  0
  9 14  1  0
 12  4  1  0
  2 17  1  0
 12 11  1  0
  5  6  1  0
 14 18  1  0
  1  8  1  0
 17  9  2  0
 15  1  1  0
 13 16  1  0
 18 10  1  0
 14 13  2  0
  5  7  1  0
 13 15  1  0
 10 12  1  0
M  END