
  SciTegic10191216062D

 28 31  0  0  0  0            999 V2000
   21.3087   -4.2645    0.0000 C   0  0
   21.3075   -5.0922    0.0000 C   0  0
   22.0226   -5.5053    0.0000 C   0  0
   22.7395   -5.0918    0.0000 C   0  0
   22.7366   -4.2608    0.0000 C   0  0
   22.0208   -3.8515    0.0000 C   0  0
   22.0252   -6.3297    0.0000 C   0  0
   22.0192   -7.9795    0.0000 C   0  0
   22.7360   -7.5682    0.0000 N   0  0
   22.7399   -6.7402    0.0000 C   0  0
   21.3064   -7.5628    0.0000 C   0  0
   21.3096   -6.7431    0.0000 C   0  0
   20.6024   -6.3322    0.0000 C   0  0
   19.8916   -6.7400    0.0000 N   0  0
   19.8923   -7.5628    0.0000 C   0  0
   20.6000   -7.9699    0.0000 C   0  0
   18.4627   -7.5646    0.0000 C   0  0
   17.7484   -7.9782    0.0000 C   0  0
   17.0332   -7.5664    0.0000 C   0  0
   16.3216   -7.9800    0.0000 N   0  0
   15.6075   -7.5717    0.0000 C   0  0
   14.8980   -7.9818    0.0000 C   0  0
   14.8962   -8.8052    0.0000 C   0  0
   15.6101   -9.2167    0.0000 C   0  0
   16.3256   -8.8050    0.0000 C   0  0
   23.4493   -7.9835    0.0000 C   0  0
   23.4498   -3.8454    0.0000 Cl  0  0
   19.1781   -7.9764    0.0000 O   0  0
  7 12  1  0
 13 14  2  0
  1  2  2  0
 14 15  1  0
  3  4  2  0
 15 16  2  0
 16 11  1  0
 15 28  1  0
  4  5  1  0
 28 17  1  0
  7 10  1  0
 17 18  1  0
 11  8  1  0
 18 19  1  0
  8  9  1  0
 19 20  1  0
 20 21  1  0
  9 10  1  0
  7  3  1  0
  2  3  1  0
  5  6  2  0
 11 12  2  0
 20 25  1  0
 21 22  1  0
 22 23  1  0
 23 24  1  0
 24 25  1  0
  6  1  1  0
  9 26  1  0
 12 13  1  0
  5 27  1  0
M  END