
          02060813472D 1   1.00000     0.00000     0

 35 39  0     1  0            999 V2000
   -3.6973   -4.9583    0.0000 C   0  0  0  0  0  0           0  0  0
   -3.6984   -5.7857    0.0000 C   0  0  0  0  0  0           0  0  0
   -2.9836   -6.1985    0.0000 C   0  0  0  0  0  0           0  0  0
   -2.9854   -4.5455    0.0000 C   0  0  0  0  0  0           0  0  0
   -2.2700   -4.9547    0.0000 C   0  0  0  0  0  0           0  0  0
   -2.2693   -5.7815    0.0000 C   0  0  0  0  0  0           0  0  0
   -1.5540   -6.1925    0.0000 N   0  0  0  0  0  0           0  0  0
   -0.8389   -5.7777    0.0000 C   0  0  0  0  0  0           0  0  0
   -0.8437   -4.9477    0.0000 N   0  0  0  0  0  0           0  0  0
   -1.5596   -4.5405    0.0000 C   0  0  0  0  0  0           0  0  0
   -0.1252   -6.1875    0.0000 N   0  0  3  0  0  0           0  0  0
    1.3033   -7.0113    0.0000 N   0  0  3  0  0  0           0  0  0
    1.3021   -6.1854    0.0000 C   0  0  0  0  0  0           0  0  0
    0.5855   -5.7712    0.0000 C   0  0  0  0  0  0           0  0  0
    0.5880   -7.4231    0.0000 C   0  0  2  0  0  0           0  0  0
   -0.1264   -7.0108    0.0000 C   0  0  1  0  0  0           0  0  0
   -0.8368   -7.4210    0.0000 C   0  0  0  0  0  0           0  0  0
   -0.8390   -8.2453    0.0000 C   0  0  0  0  0  0           0  0  0
   -0.1246   -8.6576    0.0000 C   0  0  0  0  0  0           0  0  0
    0.5920   -8.2457    0.0000 C   0  0  0  0  0  0           0  0  0
    1.3000   -7.8333    0.0000 H   0  0  0  0  0  0           0  0  0
   -0.8458   -6.5958    0.0000 H   0  0  0  0  0  0           0  0  0
    2.0178   -7.4238    0.0000 C   0  0  0  0  0  0           0  0  0
    2.0179   -8.2488    0.0000 O   0  0  0  0  0  0           0  0  0
    2.7326   -7.0108    0.0000 C   0  0  0  0  0  0           0  0  0
    3.5202   -7.2446    0.0000 C   0  0  0  0  0  0           0  0  0
    3.9867   -6.5641    0.0000 C   0  0  0  0  0  0           0  0  0
    3.4837   -5.9101    0.0000 C   0  0  0  0  0  0           0  0  0
    2.7064   -6.1865    0.0000 O   0  0  0  0  0  0           0  0  0
   -4.4118   -4.5460    0.0000 O   0  0  0  0  0  0           0  0  0
   -4.4132   -6.1976    0.0000 O   0  0  0  0  0  0           0  0  0
   -4.4120   -3.7210    0.0000 C   0  0  0  0  0  0           0  0  0
   -4.4139   -7.0226    0.0000 C   0  0  0  0  0  0           0  0  0
   -1.5640   -3.7155    0.0000 N   0  0  0  0  0  0           0  0  0
    3.7170   -5.1188    0.0000 C   0  0  0  0  0  0           0  0  0
  7  8  2  0     0  0
  5  4  2  0     0  0
  8  9  1  0     0  0
  4  1  1  0     0  0
 15 20  1  0     0  0
 16 17  1  0     0  0
 17 18  1  0     0  0
 18 19  1  0     0  0
 19 20  1  0     0  0
  9 10  2  0     0  0
 15 21  1  6     0  0
 10  5  1  0     0  0
 16 22  1  6     0  0
 11 16  1  0     0  0
 12 23  1  0     0  0
 23 24  2  0     0  0
  2  3  1  0     0  0
 23 25  1  0     0  0
 25 26  2  0     0  0
  5  6  1  0     0  0
  3  6  2  0     0  0
 11 14  1  0     0  0
 15 12  1  0     0  0
 26 27  1  0     0  0
 27 28  2  0     0  0
 28 29  1  0     0  0
 29 25  1  0     0  0
 12 13  1  0     0  0
  1 30  1  0     0  0
 13 14  1  0     0  0
  2 31  1  0     0  0
  8 11  1  0     0  0
 30 32  1  0     0  0
 15 16  1  0     0  0
 31 33  1  0     0  0
  6  7  1  0     0  0
 10 34  1  0     0  0
  1  2  2  0     0  0
 28 35  1  0     0  0
M  END