
  SciTegic09171211542D

 42 47  0  0  0  0            999 V2000
    6.6293  -11.6108    0.0000 C   0  0
    6.6281  -12.4381    0.0000 C   0  0
    7.3429  -12.8510    0.0000 C   0  0
    8.0594  -12.4377    0.0000 C   0  0
    8.0565  -11.6071    0.0000 C   0  0
    7.3411  -11.1980    0.0000 C   0  0
   10.1993  -11.1913    0.0000 N   0  0
   10.9144  -11.6027    0.0000 C   0  0
   11.6282  -11.1890    0.0000 C   0  0
   10.9157  -12.4277    0.0000 O   0  0
   12.3420  -11.6018    0.0000 C   0  0
   12.3344   -9.9518    0.0000 C   0  0
   11.6240  -10.3670    0.0000 C   0  0
   12.3302   -9.1268    0.0000 C   0  0
   13.0545  -10.3630    0.0000 C   0  0
   13.0568  -11.1875    0.0000 C   0  0
   13.8409  -11.4400    0.0000 N   0  0
   14.3245  -10.7717    0.0000 C   0  0
   13.8380  -10.1061    0.0000 N   0  0
   15.1495  -10.7694    0.0000 C   0  0
   15.5600  -10.0538    0.0000 C   0  0
   16.3850  -10.0515    0.0000 C   0  0
   13.8428  -12.2650    0.0000 C   0  0
   14.5582  -12.6759    0.0000 C   0  0
   14.5553  -13.5002    0.0000 C   0  0
   15.2698  -13.9110    0.0000 C   0  0
   15.9843  -13.4968    0.0000 C   0  0
   15.9798  -12.6676    0.0000 C   0  0
   15.2646  -12.2605    0.0000 C   0  0
   16.6986  -13.9041    0.0000 C   0  0
   16.7002  -14.7303    0.0000 C   0  0
   17.4153  -15.1401    0.0000 C   0  0
   18.1293  -14.7249    0.0000 C   0  0
   18.1236  -13.8957    0.0000 C   0  0
   17.4079  -13.4896    0.0000 C   0  0
   17.4027  -12.6646    0.0000 C   0  0
   18.0632  -12.1754    0.0000 N   0  0
   17.8033  -11.3924    0.0000 N   0  0
   16.9783  -11.3976    0.0000 N   0  0
   16.7285  -12.1839    0.0000 N   0  0
    9.4855  -11.6049    0.0000 C   0  0
    8.7703  -11.1935    0.0000 C   0  0
  2  3  1  0
 20 21  1  0
  9 11  2  0
 21 22  1  0
 11 16  1  0
 17 23  1  0
  5  6  2  0
 23 24  1  0
 15 12  1  0
 24 25  2  0
  6  1  1  0
 25 26  1  0
 12 13  2  0
 26 27  2  0
 13  9  1  0
 27 28  1  0
  1  2  2  0
 28 29  2  0
 29 24  1  0
 12 14  1  0
 15 16  2  0
 30 31  2  0
  3  4  2  0
 31 32  1  0
  7  8  1  0
 32 33  2  0
 33 34  1  0
  8  9  1  0
 34 35  2  0
 35 30  1  0
 27 30  1  0
  4  5  1  0
 35 36  1  0
 36 37  1  0
 16 17  1  0
 17 18  1  0
 18 19  2  0
 19 15  1  0
 37 38  1  0
 38 39  2  0
 39 40  1  0
 40 36  2  0
  8 10  2  0
  7 41  1  0
 18 20  1  0
 41 42  1  0
 42  5  1  0
M  END