
  SciTegic03291108572D

 17 18  0  0  0  0            999 V2000
   -2.3127   -0.1717    0.0000 O   0  0
   -1.5983    3.5408    0.0000 O   0  0
   -0.8838   -0.1717    0.0000 N   0  0
   -1.5983   -1.4092    0.0000 N   0  0
   -1.5983    1.0658    0.0000 C   0  0
   -1.5983    0.2408    0.0000 C   0  0
   -0.8838   -0.9967    0.0000 C   0  0
   -2.3127    1.4783    0.0000 C   0  0
   -0.8838    1.4783    0.0000 C   0  0
   -1.5983    2.7158    0.0000 C   0  0
   -2.3127    2.3033    0.0000 C   0  0
   -0.8838    2.3033    0.0000 C   0  0
   -0.1693   -1.4092    0.0000 C   0  0
   -1.5983   -2.2342    0.0000 C   0  0
   -0.1693   -2.2342    0.0000 C   0  0
   -0.8838   -2.6467    0.0000 C   0  0
   -2.3127    3.9533    0.0000 C   0  0
  1  6  2  0
  2 10  1  0
  2 17  1  0
  3  6  1  0
  3  7  1  0
  4  7  1  0
  4 14  2  0
  5  6  1  0
  5  8  2  0
  5  9  1  0
  7 13  2  0
  8 11  1  0
  9 12  2  0
 10 11  2  0
 10 12  1  0
 13 15  1  0
 14 16  1  0
 15 16  2  0
M  END