
  SciTegic01161211252D

 28 30  0  0  0  0            999 V2000
   12.1635   -1.1369    0.0000 C   0  0
   12.1623   -1.9638    0.0000 C   0  0
   12.8768   -2.3765    0.0000 C   0  0
   13.5929   -1.9634    0.0000 C   0  0
   13.5900   -1.1332    0.0000 C   0  0
   12.8750   -0.7243    0.0000 C   0  0
   11.4479   -2.3756    0.0000 N   0  0
   10.7341   -1.9627    0.0000 C   0  0
   10.0196   -2.3744    0.0000 N   0  0
   10.7348   -1.1381    0.0000 O   0  0
    9.3058   -1.9611    0.0000 C   0  0
    9.0321   -1.1821    0.0000 C   0  0
    8.2068   -1.1978    0.0000 C   0  0
    7.9679   -1.9883    0.0000 O   0  0
    8.6466   -2.4585    0.0000 N   0  0
    7.7087   -0.5405    0.0000 C   0  0
    8.0841    0.1937    0.0000 C   0  0
    6.8852   -0.5825    0.0000 C   0  0
    7.1829    0.1046    0.0000 C   0  0
   14.3027   -0.7183    0.0000 N   0  0
   15.0183   -1.1279    0.0000 C   0  0
   15.7309   -0.7130    0.0000 C   0  0
   15.0135   -1.9491    0.0000 O   0  0
   16.4491   -1.1276    0.0000 C   0  0
   17.1595   -0.7161    0.0000 C   0  0
   17.1607    0.1089    0.0000 N   0  0
   16.4451    0.5207    0.0000 C   0  0
   15.7285    0.1075    0.0000 C   0  0
 11 12  1  0
 13 14  1  0
 14 15  1  0
 15 11  2  0
  3  4  2  0
 13 16  1  0
  7  8  1  0
 16 17  1  0
 16 18  1  0
  8  9  1  0
 16 19  1  0
  4  5  1  0
  5 20  1  0
  8 10  2  0
 20 21  1  0
  2  3  1  0
 21 22  1  0
  9 11  1  0
 21 23  2  0
 22 24  1  0
 12 13  2  0
  5  6  2  0
  6  1  1  0
  1  2  2  0
  2  7  1  0
 22 28  1  0
 24 25  1  0
 25 26  1  0
 26 27  1  0
 27 28  1  0
M  END