
  SciTegic11201309402D

 99104  0  0  1  0            999 V2000
    9.4500   -6.2250    0.0000 N   0  0
    7.6000  -12.2042    0.0000 N   0  0
    5.1625  -12.0292    0.0000 N   0  0
   10.3417   -8.4917    0.0000 N   0  0
    3.3667  -10.3625    0.0000 N   0  0
   11.4750   -4.5042    0.0000 C   0  0
    3.2542   -7.1542    0.0000 C   0  0
    3.0042   -7.9417    0.0000 N   0  0
    9.6167  -10.8292    0.0000 N   0  0
    9.0542  -11.4375    0.0000 C   0  0
    9.9167   -6.9042    0.0000 C   0  0
    6.7792  -12.3292    0.0000 C   0  0
    4.4500  -11.6125    0.0000 C   0  0
    8.8375   -5.6542    0.0000 C   0  0  1  0  0  0
   10.2792   -9.3167    0.0000 C   0  0
    3.0667   -9.5917    0.0000 C   0  0
    3.6667   -6.4375    0.0000 C   0  0  2  0  0  0
    9.3292   -4.9917    0.0000 C   0  0
    8.3667  -11.9042    0.0000 C   0  0  2  0  0  0
    3.0917   -5.1167    0.0000 C   0  0
   10.6417   -4.4167    0.0000 C   0  0  1  0  0  0
    3.0000   -5.9417    0.0000 N   0  0
    5.9542  -12.2667    0.0000 C   0  0  1  0  0  0
    3.8375  -11.0500    0.0000 C   0  0  2  0  0  0
   10.2167   -7.6750    0.0000 C   0  0  1  0  0  0
   10.1542   -5.0792    0.0000 N   0  0
    5.6875   -5.0625    0.0000 S   0  0
    6.5042   -4.9375    0.0000 S   0  0
    3.8500   -4.7917    0.0000 C   0  0  2  0  0  0
   11.9625   -3.8417    0.0000 C   0  0
    8.7542  -12.6375    0.0000 C   0  0
   -0.3208  -10.3292    0.0000 C   0  0
   10.0292  -10.1125    0.0000 C   0  0  2  0  0  0
    2.9417   -8.7667    0.0000 C   0  0  1  0  0  0
    9.5875  -12.6667    0.0000 C   0  0
    7.3292   -5.0000    0.0000 S   0  0
    4.9167   -5.3625    0.0000 S   0  0
   -0.7583   -9.6292    0.0000 N   0  0
   11.1292   -3.7917    0.0000 O   0  0
   10.3167   -3.6542    0.0000 C   0  0
    4.5167   -5.2792    0.0000 C   0  0
    2.4917   -6.8167    0.0000 O   0  0
    3.9500  -12.2667    0.0000 O   0  0
   10.6417   -6.5167    0.0000 O   0  0
    9.5917  -12.0667    0.0000 O   0  0
    6.8125  -13.1625    0.0000 O   0  0
    2.2667   -9.8042    0.0000 O   0  0
   11.0917   -9.4792    0.0000 O   0  0
    9.0042   -4.2292    0.0000 O   0  0
    5.8000  -13.0792    0.0000 C   0  0
   11.0167   -7.4625    0.0000 C   0  0
    3.2125  -11.5875    0.0000 C   0  0
    2.4250   -4.6292    0.0000 O   0  0
    8.1167   -5.2417    0.0000 C   0  0
    4.2250   -5.8292    0.0000 C   0  0
   12.2667   -4.3917    0.0000 O   0  0
    3.9417   -3.9667    0.0000 N   0  0
   10.0292  -11.9667    0.0000 O   0  0
    0.5167  -10.3000    0.0000 N   0  0
   -0.7000  -11.0667    0.0000 N   0  0
   12.7875   -3.9292    0.0000 N   0  0
    9.9750  -13.4042    0.0000 N   0  0
    4.4250   -6.1042    0.0000 C   0  0
   10.8042   -2.9875    0.0000 C   0  0
    4.7000   -3.6292    0.0000 N   0  0
    4.2417   -7.7500    0.0000 C   0  0
   11.7917   -1.6542    0.0000 C   0  0
    3.3625  -12.4042    0.0000 C   0  0
   11.2292   -6.6625    0.0000 C   0  0
    6.4250  -13.6292    0.0000 C   0  0
   11.6292   -3.0792    0.0000 C   0  0
    3.6667   -6.4375    0.0000 C   0  0
   10.4792   -2.2292    0.0000 C   0  0
    5.0917   -6.6000    0.0000 C   0  0
    3.5667   -7.2625    0.0000 C   0  0
   10.9667   -1.5625    0.0000 C   0  0
    4.9917   -7.4167    0.0000 C   0  0
   12.1250   -2.4167    0.0000 C   0  0
    4.1500   -8.5750    0.0000 O   0  0
   12.2875   -0.9875    0.0000 O   0  0
    2.1167   -8.8042    0.0000 C   0  0
   10.7917  -10.4417    0.0000 C   0  0
    0.9000   -9.5667    0.0000 C   0  0
    7.2125  -13.3500    0.0000 C   0  0
    2.7292  -12.9417    0.0000 C   0  0
    6.2750  -14.4417    0.0000 C   0  0
   12.0292   -6.4417    0.0000 C   0  0
    4.1500  -12.6750    0.0000 C   0  0
   10.6417   -6.0750    0.0000 C   0  0
    1.7292   -9.5375    0.0000 C   0  0
    2.8917  -13.7542    0.0000 C   0  0
    7.8417  -13.8917    0.0000 C   0  0
    6.9000  -14.9792    0.0000 C   0  0
    4.3000  -13.4875    0.0000 C   0  0
   10.8625   -5.2750    0.0000 C   0  0
   12.2417   -5.6417    0.0000 C   0  0
    3.6750  -14.0292    0.0000 C   0  0
   11.6625   -5.0625    0.0000 C   0  0
    7.6792  -14.7042    0.0000 C   0  0
  2 19  1  0
  3 23  1  0
  4 25  1  0
  5 16  1  0
  6 21  1  0
  7 17  1  0
  8  7  1  0
  9 33  1  0
 10  9  1  0
 11  1  1  0
 12  2  1  0
 13  3  1  0
 14  1  1  0
 15  4  1  0
 16 34  1  0
 17 55  1  0
 14 18  1  6
 19 10  1  0
 20 22  1  0
 21 26  1  1
 17 22  1  6
 23 12  1  0
 24  5  1  0
 25 11  1  0
 26 18  1  0
 27 28  1  0
 28 36  1  0
 29 20  1  0
 30  6  1  0
 19 31  1  6
 32 59  2  0
 33 15  1  0
 34  8  1  0
 35 31  1  0
 36 54  1  0
 37 27  1  0
 38 32  1  0
 39  6  2  0
 21 40  1  0
 29 41  1  1
 42  7  2  0
 43 13  2  0
 44 11  2  0
 45 10  2  0
 46 12  2  0
 47 16  2  0
 48 15  2  0
 49 18  2  0
 23 50  1  1
 25 51  1  1
 24 52  1  6
 53 20  2  0
 14 54  1  0
 55 37  1  0
 56 30  2  0
 57 29  1  0
 58 35  2  0
 59 83  1  0
 60 32  1  0
 61 30  1  0
 62 35  1  0
 63 41  1  0
 64 40  1  0
 65 57  1  0
 66 77  1  0
 67 76  1  0
 68 52  1  0
 69 51  1  0
 70 50  1  0
 71 64  2  0
 72 63  2  0
 73 64  1  0
 74 63  1  0
 75 72  1  0
 76 73  2  0
 77 74  2  0
 78 71  1  0
 79 66  1  0
 80 67  1  0
 34 81  1  1
 33 82  1  6
 83 90  1  0
 84 70  1  0
 85 68  2  0
 86 70  2  0
 87 69  2  0
 88 68  1  0
 89 69  1  0
 90 81  1  0
 91 85  1  0
 92 84  2  0
 93 86  1  0
 94 88  2  0
 95 89  2  0
 96 87  1  0
 97 94  1  0
 98 95  1  0
 99 93  2  0
 96 98  2  0
 78 67  2  0
 13 24  1  0
 75 66  2  0
 99 92  1  0
 91 97  2  0
M  END