
  SciTegic12171312552D

 50 54  0  0  0  0            999 V2000
    4.8212  -10.7039    0.0000 C   0  0
    4.8212  -11.5289    0.0000 C   0  0
    5.5335  -11.9393    0.0000 N   0  0
    6.2499  -11.5289    0.0000 C   0  0
    6.2499  -10.7039    0.0000 N   0  0
    5.5335  -10.2893    0.0000 C   0  0
    4.0364  -10.4481    0.0000 N   0  0
    3.5499  -11.1143    0.0000 C   0  0
    4.0364  -11.7847    0.0000 N   0  0
    5.5335   -9.4643    0.0000 N   0  0
    6.2499   -9.0539    0.0000 C   0  0
    6.9663   -9.4643    0.0000 C   0  0
    7.6745   -9.0539    0.0000 C   0  0
    3.7806  -12.5696    0.0000 C   0  0  2  0  0  0
    2.9957  -12.8212    0.0000 O   0  0
    2.9957  -13.6462    0.0000 C   0  0  1  0  0  0
    3.7806  -13.9062    0.0000 C   0  0  2  0  0  0
    4.2629  -13.2358    0.0000 C   0  0  1  0  0  0
    5.0879  -13.2358    0.0000 O   0  0
    4.0364  -14.6910    0.0000 O   0  0
    2.3295  -14.1327    0.0000 C   0  0
    1.5747  -13.8009    0.0000 N   0  0
    2.4139  -14.9550    0.0000 O   0  0
    0.9043  -14.2832    0.0000 C   0  0
    0.1537  -13.9515    0.0000 C   0  0
    8.3909   -9.4643    0.0000 C   0  0
    9.1073   -9.0539    0.0000 C   0  0
    9.8196   -9.4643    0.0000 C   0  0
   10.5360   -9.0539    0.0000 C   0  0
   11.2524   -9.4643    0.0000 C   0  0
   11.9646   -9.0539    0.0000 C   0  0
   12.6811   -9.4643    0.0000 C   0  0
   13.3933   -9.0539    0.0000 C   0  0
   14.1056   -9.4643    0.0000 N   0  0
   14.8220   -9.0539    0.0000 S   0  0
   15.5384   -9.4643    0.0000 C   0  0
   15.5384  -10.2893    0.0000 C   0  0
   16.2507  -10.7039    0.0000 C   0  0
   16.9671  -10.2893    0.0000 C   0  0
   16.9671   -9.4643    0.0000 C   0  0
   16.2507   -9.0539    0.0000 C   0  0
   14.8220  -10.7039    0.0000 C   0  0
   14.8220  -11.5289    0.0000 C   0  0
   15.5384  -11.9393    0.0000 C   0  0
   16.2507  -11.5289    0.0000 C   0  0
   16.9671  -11.9393    0.0000 N   0  0
   17.6835  -11.5289    0.0000 C   0  0
   16.9671  -12.7643    0.0000 C   0  0
   15.2366   -8.3416    0.0000 O   0  0
   14.4116   -8.3416    0.0000 O   0  0
  1  2  2  0
  2  3  1  0
  3  4  2  0
  4  5  1  0
  5  6  2  0
  6  1  1  0
  1  7  1  0
  7  8  2  0
  8  9  1  0
  9  2  1  0
  6 10  1  0
 10 11  1  0
 11 12  1  0
 12 13  1  0
 14  9  1  1
 14 15  1  0
 15 16  1  0
 16 17  1  0
 17 18  1  0
 18 14  1  0
 18 19  1  6
 17 20  1  6
 16 21  1  1
 21 22  1  0
 21 23  2  0
 22 24  1  0
 24 25  1  0
 13 26  1  0
 26 27  1  0
 27 28  1  0
 28 29  1  0
 29 30  1  0
 30 31  1  0
 31 32  1  0
 32 33  1  0
 33 34  1  0
 34 35  1  0
 35 36  1  0
 36 37  2  0
 37 38  1  0
 38 39  2  0
 39 40  1  0
 40 41  2  0
 41 36  1  0
 37 42  1  0
 42 43  2  0
 43 44  1  0
 44 45  2  0
 45 38  1  0
 45 46  1  0
 46 47  1  0
 46 48  1  0
 35 49  2  0
 50 35  2  0
M  END