
  SciTegic11201309402D

 21 22  0  0  1  0            999 V2000
    3.8417   -5.6667    0.0000 N   0  0
    3.1375   -6.0792    0.0000 C   0  0  2  0  0  0
    2.4167   -5.6667    0.0000 C   0  0  2  0  0  0
    2.4167   -4.8417    0.0000 O   0  0
   -1.8708   -5.6792    0.0000 C   0  0
    0.9917   -5.6667    0.0000 O   0  0
    4.5542   -6.0792    0.0000 C   0  0
    1.7042   -6.0792    0.0000 C   0  0
    3.1375   -6.9042    0.0000 C   0  0
   -1.1458   -6.0875    0.0000 C   0  0
    0.2750   -6.0792    0.0000 C   0  0
   -1.8708   -4.8542    0.0000 C   0  0
   -2.5708   -6.1000    0.0000 C   0  0
   -0.4375   -5.6667    0.0000 C   0  0
    4.5542   -6.9042    0.0000 C   0  0
    3.8417   -7.3167    0.0000 C   0  0
   -3.2958   -5.7000    0.0000 C   0  0
   -2.5875   -4.4417    0.0000 C   0  0
   -3.3000   -4.8667    0.0000 C   0  0
    1.7042   -5.2542    0.0000 H   0  0
    3.1292   -5.2542    0.0000 H   0  0
  2  1  1  0
  3  2  1  0
  3  4  1  0
  5 10  1  0
  6  8  1  0
  7  1  1  0
  8  3  1  0
  9  2  1  0
 10 14  1  0
 11  6  1  0
 12  5  2  0
 13  5  1  0
 14 11  1  0
 15  7  1  0
 16 15  1  0
 17 13  2  0
 18 12  1  0
 19 17  1  0
  3 20  1  6
  2 21  1  6
 16  9  1  0
 19 18  2  0
M  END