
  SciTegic01111613442D

 11 12  0  0  0  0            999 V2000
   -1.0028   -1.5132    0.0000 N   0  0
   -2.3155    0.7475    0.0000 N   0  0
    0.2917   -0.7475    0.0000 C   0  0
    0.2917    0.7475    0.0000 C   0  0
   -1.0028    1.5132    0.0000 C   0  0
   -2.3155   -0.7475    0.0000 C   0  0
    2.5889    0.0182    0.0000 N   0  0
    1.7138   -1.2033    0.0000 N   0  0
    1.7138    1.2033    0.0000 C   0  0
   -0.9991    2.7132    0.0000 O   0  0
   -3.3560   -1.3452    0.0000 O   0  0
  2  6  1  0
  3  1  1  0
  4  3  1  0
  5  2  1  0
  6  1  1  0
  7  8  1  0
  8  3  2  0
  9  4  2  0
 10  5  2  0
 11  6  2  0
  5  4  1  0
  9  7  1  0
M  END