
  SciTegic01161211222D

 18 20  0  0  0  0            999 V2000
   -3.9719   -0.6319    0.0000 C   0  0
   -3.9731   -1.4575    0.0000 C   0  0
   -3.2598   -1.8694    0.0000 C   0  0
   -3.2616   -0.2200    0.0000 C   0  0
   -2.5478   -0.6283    0.0000 C   0  0
   -2.5430   -1.4575    0.0000 C   0  0
   -1.7528   -1.7092    0.0000 N   0  0
   -1.2692   -1.0354    0.0000 C   0  0
   -1.7607   -0.3675    0.0000 C   0  0
   -0.4460   -1.0306    0.0000 C   0  0
   -0.0302   -1.7410    0.0000 O   0  0
   -0.0387   -0.3152    0.0000 N   0  0
    0.7863   -0.3155    0.0000 C   0  0
    1.1936    0.3957    0.0000 C   0  0
    0.7813    1.1087    0.0000 N   0  0
   -0.0428    1.1058    0.0000 C   0  0
   -0.4547    0.3899    0.0000 C   0  0
    1.1914    1.8224    0.0000 C   0  0
  8  9  2  0
  9  5  1  0
  4  1  1  0
  8 10  1  0
  5  6  1  0
 10 11  2  0
 10 12  1  0
 12 13  1  0
  2  3  1  0
  3  6  2  0
  1  2  2  0
  5  4  2  0
  6  7  1  0
 12 17  1  0
 13 14  1  0
 14 15  1  0
 15 16  1  0
 16 17  1  0
  7  8  1  0
 15 18  1  0
M  END