
  SciTegic11201309402D

 25 26  0  0  1  0            999 V2000
    5.1500   -6.9417    0.0000 C   0  0
    5.8542   -6.5250    0.0000 N   0  0
    8.7125   -5.6750    0.0000 C   0  0
    8.7042   -4.8417    0.0000 C   0  0
   10.1417   -6.4917    0.0000 C   0  0
    5.1500   -7.7667    0.0000 O   0  0
    4.4292   -6.5292    0.0000 C   0  0  2  0  0  0
    0.7000   -7.4000    0.0000 N   0  0
   10.1375   -5.6667    0.0000 O   0  0
    3.7167   -6.9542    0.0000 C   0  0
    9.4292   -6.9042    0.0000 C   0  0
   10.8625   -6.9000    0.0000 O   0  0
    6.5750   -6.9292    0.0000 C   0  0
    8.7125   -6.5000    0.0000 C   0  0
    3.0000   -6.5500    0.0000 C   0  0
    5.8542   -5.6917    0.0000 C   0  0
    7.2875   -6.5125    0.0000 C   0  0
    2.2875   -6.9667    0.0000 C   0  0
    5.1292   -5.2792    0.0000 C   0  0
    0.9125   -6.6000    0.0000 C   0  0
    1.2792   -7.9792    0.0000 C   0  0
    4.4167   -5.7042    0.0000 C   0  0
    8.0042   -6.9167    0.0000 C   0  0
    1.7042   -6.3792    0.0000 C   0  0
    2.0792   -7.7667    0.0000 C   0  0
  2  1  1  0
  3 14  1  0
  4  3  3  0
  5 11  1  0
  6  1  2  0
  7  1  1  0
  8 21  1  0
  9  5  2  0
  7 10  1  6
 11 14  1  0
 12  5  1  0
 13  2  1  0
 14 23  1  0
 15 10  1  0
 16  2  1  0
 17 13  1  0
 18 15  1  0
 19 22  1  0
 20 24  1  0
 21 25  1  0
  7 22  1  0
 23 17  1  0
 24 18  1  0
 25 18  1  0
 16 19  1  0
  8 20  1  0
M  END