
  SciTegic03291108522D

 27 31  0  0  0  0            999 V2000
    6.4457    6.6057    0.0000 S   0  0
    1.0722    3.0187    0.0000 O   0  0
    1.0722    4.3536    0.0000 O   0  0
    6.1437    1.6237    0.0000 N   0  0
    6.8582    2.8612    0.0000 N   0  0
    6.1437    4.0987    0.0000 N   0  0
    7.5256    5.8211    0.0000 N   0  0
    5.4292    2.8612    0.0000 C   0  0
    4.0003    2.8612    0.0000 C   0  0
    3.2858    3.2737    0.0000 C   0  0
    5.4292    2.0362    0.0000 C   0  0
    6.1437    3.2737    0.0000 C   0  0
    4.7147    3.2737    0.0000 C   0  0
    1.8569    3.2737    0.0000 C   0  0
    1.8569    4.0987    0.0000 C   0  0
    2.5713    2.8612    0.0000 C   0  0
    4.0003    2.0362    0.0000 C   0  0
    4.7147    1.6237    0.0000 C   0  0
    3.2858    4.0987    0.0000 C   0  0
    2.5713    4.5112    0.0000 C   0  0
    6.8582    2.0362    0.0000 C   0  0
    6.8582    5.3362    0.0000 C   0  0
    0.5873    3.6862    0.0000 C   0  0
    6.8582    4.5112    0.0000 C   0  0
    7.2707    6.6057    0.0000 C   0  0
    6.1907    5.8211    0.0000 C   0  0
    7.7556    7.2732    0.0000 C   0  0
  1 25  1  0
  1 26  1  0
  2 14  1  0
  2 23  1  0
  3 15  1  0
  3 23  1  0
  4 11  1  0
  4 21  2  0
  5 12  2  0
  5 21  1  0
  6 12  1  0
  6 24  1  0
  7 22  1  0
  7 25  2  0
  8 11  2  0
  8 12  1  0
  8 13  1  0
  9 10  1  0
  9 13  2  0
  9 17  1  0
 10 16  1  0
 10 19  2  0
 11 18  1  0
 14 15  1  0
 14 16  2  0
 15 20  2  0
 17 18  2  0
 19 20  1  0
 22 24  1  0
 22 26  2  0
 25 27  1  0
M  END