
  SciTegic11201309402D

112115  0  0  1  0            999 V2000
   16.5460   -7.6476    0.0000 C   0  0  1  0  0  0
   16.5511   -8.4832    0.0000 C   0  0
   15.8218   -7.2221    0.0000 N   0  0
   -2.6538    1.4434    0.0000 N   0  0
   -1.9752    1.8992    0.0000 C   0  0  2  0  0  0
   16.6575   -0.0811    0.0000 P   0  0
   -1.6510   -2.3601    0.0000 P   0  0
   -3.4287    1.7878    0.0000 C   0  0
   15.8015   -6.4017    0.0000 C   0  0
   14.3480   -4.7304    0.0000 C   0  0
   13.5883   -2.6589    0.0000 C   0  0
   17.2652   -8.9035    0.0000 N   0  0
   -1.2256    1.5498    0.0000 C   0  0
   13.6035   -3.4845    0.0000 N   0  0
   15.0722   -5.1507    0.0000 N   0  0
   14.3277   -3.9048    0.0000 C   0  0  1  0  0  0
   -4.1276    1.3319    0.0000 C   0  0  1  0  0  0
   17.2804   -9.7291    0.0000 C   0  0  2  0  0  0
    3.1451    1.8941    0.0000 C   0  0
   18.0097  -10.1545    0.0000 C   0  0
    2.3854    2.2335    0.0000 C   0  0  1  0  0  0
   -4.8721    1.6814    0.0000 N   0  0
    1.6865    1.7777    0.0000 N   0  0
    9.5924    2.0005    0.0000 C   0  0
   15.0773   -5.9763    0.0000 C   0  0  1  0  0  0
   11.6435   -0.1115    0.0000 C   0  0
    6.2750    2.0005    0.0000 C   0  0
   11.2485    0.6026    0.0000 C   0  0
    5.4394    2.0005    0.0000 C   0  0
    0.9268    2.1220    0.0000 C   0  0
   -0.5166    2.0157    0.0000 N   0  0
   -5.5558    1.2256    0.0000 C   0  0
   12.8590   -2.2234    0.0000 C   0  0
   15.8623   -0.2887    0.0000 O   0  0
   -1.5042   -1.5549    0.0000 O   0  0
    8.7567    2.0005    0.0000 C   0  0
   13.6795   -7.6172    0.0000 C   0  0
   17.4931   -0.0912    0.0000 O   0  0
   -2.4918   -2.3601    0.0000 O   0  0
   15.8522   -8.8935    0.0000 O   0  0
   -3.4946    2.6082    0.0000 O   0  0
   16.5055   -5.9914    0.0000 O   0  0
   13.6339   -5.1355    0.0000 O   0  0
   14.3328   -2.8463    0.0000 O   0  0
   15.0418   -3.4997    0.0000 C   0  0
   -4.0567    0.5166    0.0000 C   0  0
   -1.1547    0.7546    0.0000 O   0  0
    3.2211    1.0888    0.0000 O   0  0
   18.7187   -9.7392    0.0000 O   0  0
   10.0026    2.7146    0.0000 O   0  0
   16.5815  -10.1393    0.0000 C   0  0
    2.3246    3.0488    0.0000 C   0  0
   17.2449   -7.2474    0.0000 C   0  0  2  0  0  0
   -2.0360    2.7146    0.0000 C   0  0  2  0  0  0
    0.8660    2.9425    0.0000 O   0  0
   -5.5153    0.4051    0.0000 O   0  0
   13.7048   -8.4528    0.0000 O   0  0
   14.3733   -6.3814    0.0000 C   0  0
   16.8702    0.7090    0.0000 O   0  0
   17.0829   -0.8053    0.0000 O   0  0
   -1.0585   -2.9375    0.0000 O   0  0
   -2.0764   -3.0591    0.0000 O   0  0
    3.8440    2.3550    0.0000 N   0  0
   10.0026    1.3016    0.0000 N   0  0
    0.2431    1.6662    0.0000 C   0  0
   12.0487   -2.2234    0.0000 C   0  0
   13.2845   -1.5245    0.0000 C   0  0
   12.0538   -0.8205    0.0000 C   0  0
    7.1006    2.0005    0.0000 C   0  0
    8.3465    1.2915    0.0000 C   0  0
    8.3313    2.7146    0.0000 C   0  0
   18.0249  -10.9750    0.0000 N   0  0
   14.3936   -7.2069    0.0000 C   0  0
   15.6648   -1.0839    0.0000 C   0  0
   -2.1423   -1.0484    0.0000 C   0  0
   15.2445   -2.6944    0.0000 C   0  0
   -3.4135    0.0000    0.0000 C   0  0
   12.9603   -7.2069    0.0000 O   0  0
   11.6384   -1.5194    0.0000 C   0  0
   12.8742   -0.8205    0.0000 C   0  0
    7.5108    1.2915    0.0000 C   0  0
    7.5108    2.7146    0.0000 C   0  0
    4.6037    2.0005    0.0000 C   0  0
   10.8383    1.3016    0.0000 C   0  0
   14.6519   -2.0867    0.0000 C   0  0
   16.0649   -2.4817    0.0000 C   0  0
   -2.6285    0.2684    0.0000 C   0  0
   -3.5705   -0.8053    0.0000 C   0  0
   16.2573   -1.6764    0.0000 C   0  0
   14.8646   -1.2814    0.0000 C   0  0
   -1.9904   -0.2482    0.0000 C   0  0
   -2.9273   -1.3118    0.0000 C   0  0
   17.9641   -7.6577    0.0000 O   0  0
   -1.3522    3.1704    0.0000 O   0  0
   16.3840  -10.9294    0.0000 C   0  0
    2.6792    3.7781    0.0000 C   0  0
   -6.3459    1.5650    0.0000 C   0  0
   17.2348   -6.4118    0.0000 C   0  0
   -2.8057    3.0640    0.0000 C   0  0
   15.5787  -11.1370    0.0000 C   0  0
   16.9613  -11.5321    0.0000 C   0  0
    3.5149    3.8541    0.0000 C   0  0
    2.1930    4.4467    0.0000 C   0  0
   16.5506   -6.8226    0.0000 H   0  0
   -1.2964    2.3681    0.0000 H   0  0
   15.0457   -4.3112    0.0000 H   0  0
   -4.8041    0.8597    0.0000 H   0  0
   17.2815  -10.5541    0.0000 H   0  0
    1.6459    2.5992    0.0000 H   0  0
   15.0736   -6.8013    0.0000 H   0  0
   17.9558   -6.8288    0.0000 H   0  0
   -2.1027    3.5369    0.0000 H   0  0
  2  1  1  0
  3  1  1  0
  4  5  1  0
  5 13  1  0
  6 34  1  0
  7 35  1  0
  8  4  1  0
  9  3  1  0
 10 15  1  0
 11 14  1  0
 12  2  1  0
 13 31  1  0
 14 16  1  0
 15 25  1  0
 16 10  1  0
 17  8  1  0
 18 12  1  0
 19 63  1  0
 20 18  1  0
 21 19  1  0
 22 17  1  0
 23 21  1  0
 24 64  1  0
 25  9  1  0
 26 68  1  0
 27 69  1  0
 28 26  3  0
 29 27  3  0
 30 23  1  0
 31 65  1  0
 32 22  1  0
 33 11  1  0
 34 74  1  0
 35 75  1  0
 36 24  1  0
 37 73  1  0
 38  6  2  0
 39  7  2  0
 40  2  2  0
 41  8  2  0
 42  9  2  0
 43 10  2  0
 44 11  2  0
 16 45  1  0
 17 46  1  0
 47 13  2  0
 48 19  2  0
 49 20  2  0
 50 24  2  0
 18 51  1  0
 21 52  1  0
  1 53  1  0
  5 54  1  0
 55 30  2  0
 56 32  2  0
 57 37  2  0
 25 58  1  0
 59  6  1  0
 60  6  1  0
 61  7  1  0
 62  7  1  0
 63 83  1  0
 64 84  1  0
 65 30  1  0
 66 33  2  0
 67 33  1  0
 68 80  1  0
 69 82  1  0
 70 36  2  0
 71 36  1  0
 72 20  1  0
 73 58  1  0
 74 89  2  0
 75 92  2  0
 76 45  1  0
 77 46  1  0
 78 37  1  0
 79 66  1  0
 80 67  2  0
 81 70  1  0
 82 71  2  0
 83 29  1  0
 84 28  1  0
 85 76  1  0
 86 76  2  0
 87 77  1  0
 88 77  2  0
 89 86  1  0
 90 85  2  0
 91 87  2  0
 92 88  1  0
 93 53  1  0
 94 54  1  0
 95 51  1  0
 96 52  1  0
 97 32  1  0
 53 98  1  0
 54 99  1  0
100 95  1  0
101 95  1  0
102 96  1  0
103 96  1  0
 90 74  1  0
 68 79  2  0
 69 81  2  0
 91 75  1  0
  1104  1  6
  5105  1  6
 16106  1  6
 17107  1  1
 18108  1  1
 21109  1  6
 25110  1  1
 53111  1  6
 54112  1  6
M  END