
  SciTegic01161211242D

 30 33  0  0  0  0            999 V2000
    4.2580    1.5584    0.0000 N   0  0
    3.4330    2.3834    0.0000 C   0  0
    3.4330    1.5584    0.0000 C   0  0
    4.2580    2.3834    0.0000 C   0  0
    4.8414    2.9668    0.0000 O   0  0
    2.8496    0.9751    0.0000 O   0  0
    3.4239    3.2130    0.0000 C   0  0
    4.1338    3.6334    0.0000 C   0  0
    2.6080    2.3788    0.0000 C   0  0
    2.1915    3.0910    0.0000 C   0  0
    4.6575    0.8364    0.0000 C   0  0
    4.2296    0.1320    0.0000 C   0  0
    4.6285   -0.5896    0.0000 C   0  0
    5.4545   -0.6050    0.0000 C   0  0
    5.8800    0.1070    0.0000 C   0  0
    5.4787    0.8258    0.0000 C   0  0
    5.8549   -1.3264    0.0000 C   0  0
    6.6798   -1.3403    0.0000 S   0  0
    7.0803   -2.0617    0.0000 C   0  0
    6.7368   -2.8081    0.0000 O   0  0
    7.9039   -2.1601    0.0000 N   0  0
    8.0619   -2.9699    0.0000 C   0  0
    7.3430   -3.3683    0.0000 C   0  0
    7.3296   -4.1883    0.0000 C   0  0
    8.0343   -4.6108    0.0000 C   0  0
    8.7541   -4.2073    0.0000 C   0  0
    8.7640   -3.3887    0.0000 C   0  0
    9.4634   -4.6286    0.0000 C   0  0
    9.4531   -5.4536    0.0000 O   0  0
   10.1829   -4.2250    0.0000 O   0  0
 14 15  1  0
  1  4  1  0
 15 16  2  0
 16 11  1  0
  7  8  1  0
 14 17  1  0
  4  2  1  0
 17 18  1  0
  2  9  1  0
 18 19  1  0
 19 20  1  0
  2  3  1  0
  9 10  1  0
 20 23  1  0
 22 21  1  0
 21 19  2  0
  4  5  2  0
  1 11  1  0
 22 23  1  0
 23 24  2  0
 11 12  2  0
 24 25  1  0
  3  6  2  0
 25 26  2  0
 12 13  1  0
 26 27  1  0
 27 22  2  0
  3  1  1  0
 26 28  1  0
 13 14  2  0
 28 29  1  0
  2  7  1  0
 28 30  2  0
M  END