
  CDK    6/4/10,11:41

 34 37  0  0  0  0  0  0  0  0999 V2000
    8.8902    0.6834    0.0000 C   0  0  0  0  0  0  0  0  0  0  0  0
    8.8891   -0.1440    0.0000 C   0  0  0  0  0  0  0  0  0  0  0  0
    9.6039   -0.5569    0.0000 C   0  0  0  0  0  0  0  0  0  0  0  0
   10.3203   -0.1435    0.0000 C   0  0  0  0  0  0  0  0  0  0  0  0
   10.3175    0.6870    0.0000 C   0  0  0  0  0  0  0  0  0  0  0  0
    9.6021    1.0961    0.0000 C   0  0  0  0  0  0  0  0  0  0  0  0
    8.1743   -0.5559    0.0000 Cl  0  0  0  0  0  0  0  0  0  0  0  0
   11.0304    1.1022    0.0000 C   0  0  0  0  0  0  0  0  0  0  0  0
   11.7464    0.6924    0.0000 N   0  0  0  0  0  0  0  0  0  0  0  0
   11.0273    1.9272    0.0000 O   0  0  0  0  0  0  0  0  0  0  0  0
   11.8394   -0.1267    0.0000 N   0  0  0  0  0  0  0  0  0  0  0  0
   12.6470   -0.2952    0.0000 C   0  0  0  0  0  0  0  0  0  0  0  0
   13.0569    0.4209    0.0000 C   0  0  0  0  0  0  0  0  0  0  0  0
   12.5025    1.0318    0.0000 C   0  0  0  0  0  0  0  0  0  0  0  0
   12.6712    1.8394    0.0000 O   0  0  0  0  0  0  0  0  0  0  0  0
   12.9854   -1.0476    0.0000 C   0  0  0  0  0  0  0  0  0  0  0  0
   13.8814    0.4313    0.0000 N   0  0  0  0  0  0  0  0  0  0  0  0
   14.3030   -0.2779    0.0000 N   0  0  0  0  0  0  0  0  0  0  0  0
   15.1280   -0.2673    0.0000 C   0  0  0  0  0  0  0  0  0  0  0  0
   15.5449   -0.9765    0.0000 C   0  0  0  0  0  0  0  0  0  0  0  0
   16.3691   -0.9663    0.0000 C   0  0  0  0  0  0  0  0  0  0  0  0
   16.7732   -0.2461    0.0000 C   0  0  0  0  0  0  0  0  0  0  0  0
   16.3471    0.4654    0.0000 C   0  0  0  0  0  0  0  0  0  0  0  0
   15.5243    0.4516    0.0000 C   0  0  0  0  0  0  0  0  0  0  0  0
   17.5981   -0.2344    0.0000 S   0  0  0  0  0  0  0  0  0  0  0  0
   18.4208   -0.2333    0.0000 N   0  0  0  0  0  0  0  0  0  0  0  0
   17.5917    0.5906    0.0000 O   0  0  0  0  0  0  0  0  0  0  0  0
   17.6068   -1.0594    0.0000 O   0  0  0  0  0  0  0  0  0  0  0  0
   18.8343   -0.9473    0.0000 C   0  0  0  0  0  0  0  0  0  0  0  0
   18.4197   -1.6601    0.0000 N   0  0  0  0  0  0  0  0  0  0  0  0
   18.8324   -2.3736    0.0000 C   0  0  0  0  0  0  0  0  0  0  0  0
   19.6583   -2.3729    0.0000 C   0  0  0  0  0  0  0  0  0  0  0  0
   20.0697   -1.6529    0.0000 C   0  0  0  0  0  0  0  0  0  0  0  0
   19.6546   -0.9424    0.0000 N   0  0  0  0  0  0  0  0  0  0  0  0
  5  8  1  0  0  0  0 
 13 17  1  0  0  0  0 
 17 18  2  0  0  0  0 
  8  9  1  0  0  0  0 
 18 19  1  0  0  0  0 
  4  5  1  0  0  0  0 
 19 20  2  0  0  0  0 
  8 10  2  0  0  0  0 
 20 21  1  0  0  0  0 
  9 11  1  0  0  0  0 
 21 22  2  0  0  0  0 
  2  3  1  0  0  0  0 
 22 23  1  0  0  0  0 
  5  6  2  0  0  0  0 
 23 24  2  0  0  0  0 
 24 19  1  0  0  0  0 
  6  1  1  0  0  0  0 
 22 25  1  0  0  0  0 
  1  2  2  0  0  0  0 
 25 26  1  0  0  0  0 
 11 12  2  0  0  0  0 
 25 27  2  0  0  0  0 
 12 13  1  0  0  0  0 
 25 28  2  0  0  0  0 
 13 14  1  0  0  0  0 
 26 29  1  0  0  0  0 
 14  9  1  0  0  0  0 
 29 30  2  0  0  0  0 
  2  7  1  0  0  0  0 
 30 31  1  0  0  0  0 
 14 15  2  0  0  0  0 
 31 32  2  0  0  0  0 
  3  4  2  0  0  0  0 
 32 33  1  0  0  0  0 
 12 16  1  0  0  0  0 
 33 34  2  0  0  0  0 
 34 29  1  0  0  0  0 
M  END