
  Mrv0541 05211314572D          

 36 38  0  0  0  0            999 V2000
   -0.8574    0.3025    0.0000 C   0  0  0  0  0  0  0  0  0  0  0  0
   -0.8574   -0.5225    0.0000 N   0  0  0  0  0  0  0  0  0  0  0  0
   -1.5718   -0.9350    0.0000 C   0  0  0  0  0  0  0  0  0  0  0  0
   -2.2863   -0.5225    0.0000 C   0  0  0  0  0  0  0  0  0  0  0  0
   -3.0008   -0.9350    0.0000 C   0  0  0  0  0  0  0  0  0  0  0  0
   -3.7152   -0.5225    0.0000 O   0  0  0  0  0  0  0  0  0  0  0  0
   -3.7152    0.3025    0.0000 C   0  0  0  0  0  0  0  0  0  0  0  0
   -4.4297    0.7150    0.0000 C   0  0  0  0  0  0  0  0  0  0  0  0
   -4.4297    1.5400    0.0000 C   0  0  0  0  0  0  0  0  0  0  0  0
   -3.7152    1.9525    0.0000 C   0  0  0  0  0  0  0  0  0  0  0  0
   -3.0008    1.5400    0.0000 C   0  0  0  0  0  0  0  0  0  0  0  0
   -3.0008    0.7150    0.0000 C   0  0  0  0  0  0  0  0  0  0  0  0
   -2.2863    0.3025    0.0000 O   0  0  0  0  0  0  0  0  0  0  0  0
   -0.1429   -0.9350    0.0000 C   0  0  0  0  0  0  0  0  0  0  0  0
    0.5716   -0.5225    0.0000 C   0  0  0  0  0  0  0  0  0  0  0  0
    0.5716    0.3025    0.0000 O   0  0  0  0  0  0  0  0  0  0  0  0
    1.2860   -0.9350    0.0000 N   0  0  0  0  0  0  0  0  0  0  0  0
    2.0005   -0.5225    0.0000 C   0  0  0  0  0  0  0  0  0  0  0  0
    2.7150   -0.9350    0.0000 C   0  0  0  0  0  0  0  0  0  0  0  0
    3.4295   -0.5225    0.0000 C   0  0  0  0  0  0  0  0  0  0  0  0
    4.1439   -0.9350    0.0000 C   0  0  0  0  0  0  0  0  0  0  0  0
    4.1439   -1.7600    0.0000 C   0  0  0  0  0  0  0  0  0  0  0  0
    3.4295   -2.1725    0.0000 C   0  0  0  0  0  0  0  0  0  0  0  0
    2.7150   -1.7600    0.0000 C   0  0  0  0  0  0  0  0  0  0  0  0
    2.0005    0.3025    0.0000 C   0  0  0  0  0  0  0  0  0  0  0  0
    1.2860    0.7150    0.0000 C   0  0  0  0  0  0  0  0  0  0  0  0
    1.2860    1.5400    0.0000 C   0  0  0  0  0  0  0  0  0  0  0  0
    2.0005    1.9525    0.0000 C   0  0  0  0  0  0  0  0  0  0  0  0
    2.7150    1.5400    0.0000 C   0  0  0  0  0  0  0  0  0  0  0  0
    2.7150    0.7150    0.0000 C   0  0  0  0  0  0  0  0  0  0  0  0
    7.0904    1.0717    0.0000 O   0  0  0  0  0  0  0  0  0  0  0  0
    7.5029    0.3572    0.0000 C   0  0  0  0  0  0  0  0  0  0  0  0
    8.3279    0.3572    0.0000 O   0  0  0  0  0  0  0  0  0  0  0  0
    7.0904   -0.3572    0.0000 C   0  0  0  0  0  0  0  0  0  0  0  0
    7.5029   -1.0717    0.0000 O   0  0  0  0  0  0  0  0  0  0  0  0
    6.2654   -0.3572    0.0000 O   0  0  0  0  0  0  0  0  0  0  0  0
  1  2  1  0  0  0  0
  2  3  1  0  0  0  0
  3  4  1  0  0  0  0
  4  5  1  0  0  0  0
  5  6  1  0  0  0  0
  6  7  1  0  0  0  0
  7  8  2  0  0  0  0
  8  9  1  0  0  0  0
  9 10  2  0  0  0  0
 10 11  1  0  0  0  0
 11 12  2  0  0  0  0
 12  7  1  0  0  0  0
 12 13  1  0  0  0  0
 13  4  1  0  0  0  0
  2 14  1  0  0  0  0
 14 15  1  0  0  0  0
 15 16  2  0  0  0  0
 15 17  1  0  0  0  0
 17 18  1  0  0  0  0
 18 19  1  0  0  0  0
 19 20  1  0  0  0  0
 20 21  1  0  0  0  0
 21 22  1  0  0  0  0
 22 23  1  0  0  0  0
 23 24  1  0  0  0  0
 24 19  1  0  0  0  0
 18 25  1  0  0  0  0
 25 26  2  0  0  0  0
 26 27  1  0  0  0  0
 27 28  2  0  0  0  0
 28 29  1  0  0  0  0
 29 30  2  0  0  0  0
 30 25  1  0  0  0  0
 31 32  1  0  0  0  0
 32 33  2  0  0  0  0
 32 34  1  0  0  0  0
 34 35  2  0  0  0  0
 34 36  1  0  0  0  0
M  END