
          11280715362D 1   1.00000     0.00000     0

 35 38  0     1  0            999 V2000
    4.5250   -4.1250    0.0000 C   0  0  0  0  0  0           0  0  0
    4.5250   -5.3000    0.0000 C   0  0  0  0  0  0           0  0  0
    5.0292   -4.4250    0.0000 C   0  0  2  0  0  0           0  0  0
    4.0167   -4.4125    0.0000 C   0  0  0  0  0  0           0  0  0
    5.5500   -4.1292    0.0000 N   0  0  3  0  0  0           0  0  0
    4.0167   -5.0000    0.0000 C   0  0  0  0  0  0           0  0  0
    5.0292   -5.0042    0.0000 C   0  0  0  0  0  0           0  0  0
    4.5292   -3.5292    0.0000 C   0  0  0  0  0  0           0  0  0
    4.5167   -5.8875    0.0000 C   0  0  0  0  0  0           0  0  0
    3.5042   -5.8750    0.0000 N   0  0  0  0  0  0           0  0  0
    6.0750   -2.6667    0.0000 C   0  0  0  0  0  0           0  0  0
    3.5125   -5.2875    0.0000 C   0  0  0  0  0  0           0  0  0
    5.0417   -3.2417    0.0000 C   0  0  2  0  0  0           0  0  0
    5.5542   -3.5500    0.0000 C   0  0  0  0  0  0           0  0  0
    8.4667   -5.4000    0.0000 C   0  0  0  0  0  0           0  0  0
    7.2625   -5.3875    0.0000 C   0  0  0  0  0  0           0  0  0
    8.1625   -4.8750    0.0000 C   0  0  0  0  0  0           0  0  0
    7.5625   -4.8750    0.0000 C   0  0  0  0  0  0           0  0  0
    5.5667   -2.3625    0.0000 O   0  0  0  0  0  0           0  0  0
    6.0667   -3.2625    0.0000 O   0  0  0  0  0  0           0  0  0
    9.0667   -5.4000    0.0000 O   0  0  0  0  0  0           0  0  0
    7.5625   -5.9125    0.0000 O   0  0  0  0  0  0           0  0  0
    6.5875   -2.3792    0.0000 C   0  0  3  0  0  0           0  0  0
    5.0500   -2.6500    0.0000 C   0  0  0  0  0  0           0  0  0
    3.5125   -4.1167    0.0000 C   0  0  0  0  0  0           0  0  0
    6.0542   -4.4375    0.0000 C   0  0  0  0  0  0           0  0  0
    8.1625   -5.9125    0.0000 O   0  0  0  0  0  0           0  0  0
    6.6625   -5.3875    0.0000 O   0  0  0  0  0  0           0  0  0
    3.0042   -4.4125    0.0000 C   0  0  0  0  0  0           0  0  0
    3.0042   -5.0000    0.0000 C   0  0  0  0  0  0           0  0  0
    7.1250   -2.6250    0.0000 C   0  0  0  0  0  0           0  0  0
    6.6625   -1.7917    0.0000 C   0  0  0  0  0  0           0  0  0
    7.2375   -1.6792    0.0000 C   0  0  0  0  0  0           0  0  0
    7.5250   -2.2000    0.0000 C   0  0  0  0  0  0           0  0  0
    5.5417   -4.7125    0.0000 H   0  0  0  0  0  0           0  0  0
  2  6  1  0     0  0
  3  1  1  0     0  0
  4  1  1  0     0  0
  5  3  1  0     0  0
  6  4  2  0     0  0
  7  3  1  0     0  0
  8  1  2  0     0  0
  9  2  2  0     0  0
 10 12  1  0     0  0
 11 19  1  0     0  0
 12  6  1  0     0  0
 13  8  1  0     0  0
 14 13  1  0     0  0
 16 18  1  0     0  0
 17 15  1  0     0  0
 18 17  2  0     0  0
 19 24  1  0     0  0
 20 11  2  0     0  0
 21 15  2  0     0  0
 22 16  2  0     0  0
 23 11  1  0     0  0
 13 24  1  1     0  0
 25  4  1  0     0  0
 26  5  1  0     0  0
 27 15  1  0     0  0
 28 16  1  0     0  0
 29 25  2  0     0  0
 30 12  2  0     0  0
 31 23  1  0     0  0
 32 23  1  0     0  0
 33 32  1  0     0  0
 34 31  1  0     0  0
  3 35  1  1     0  0
  7  2  1  0     0  0
 14  5  1  0     0  0
  9 10  1  0     0  0
 29 30  1  0     0  0
 33 34  1  0     0  0
M  END