
  SciTegic01161211212D

 20 21  0  0  0  0            999 V2000
    1.3625   -0.7000    0.0000 C   0  0
   -1.3833   -3.4167    0.0000 N   0  0
    1.0000    0.0458    0.0000 N   0  0
   -2.7208   -3.4667    0.0000 N   0  0
   -2.0333   -3.9292    0.0000 C   0  0
   -1.6625   -2.6417    0.0000 C   0  0
    2.1875   -0.7542    0.0000 N   0  0
   -2.4875   -2.6750    0.0000 C   0  0
    0.9042   -1.3875    0.0000 S   0  0
    2.6417   -0.0667    0.0000 C   0  0
    5.1167   -0.2417    0.0000 C   0  0
    3.4667   -0.1292    0.0000 C   0  0
    5.9375   -0.3000    0.0000 Cl  0  0
    4.7417    0.4958    0.0000 C   0  0
    4.6542   -0.9292    0.0000 C   0  0
    3.9250    0.5458    0.0000 C   0  0
    3.8292   -0.8750    0.0000 C   0  0
   -1.2083   -1.9542    0.0000 C   0  0
    0.0792   -1.3292    0.0000 C   0  0
   -0.3833   -2.0167    0.0000 C   0  0
  2  6  1  0
  3  1  2  0
  4  8  1  0
  5  2  2  0
  6 18  1  0
  7  1  1  0
  8  6  2  0
  9  1  1  0
 10  7  1  0
 11 15  2  0
 12 10  1  0
 13 11  1  0
 14 16  2  0
 15 17  1  0
 16 12  1  0
 17 12  2  0
 18 20  1  0
 19  9  1  0
 20 19  1  0
 11 14  1  0
  5  4  1  0
M  END