
          11280715262D 1   1.00000     0.00000     0

 22 25  0     0  0            999 V2000
    1.0167    0.1583    0.0000 C   0  0  0  0  0  0           0  0  0
   -1.1125   -1.0917    0.0000 C   0  0  3  0  0  0           0  0  0
    0.3042   -0.2542    0.0000 C   0  0  0  0  0  0           0  0  0
   -0.4083    0.1500    0.0000 N   0  0  0  0  0  0           0  0  0
   -0.3958   -2.3292    0.0000 C   0  0  3  0  0  0           0  0  0
   -1.5708   -2.7667    0.0000 C   0  0  3  0  0  0           0  0  0
   -1.8708   -2.3917    0.0000 C   0  0  3  0  0  0           0  0  0
    1.0292    0.9833    0.0000 C   0  0  0  0  0  0           0  0  0
    1.7292   -0.2625    0.0000 C   0  0  0  0  0  0           0  0  0
   -0.3958   -1.5125    0.0000 C   0  0  0  0  0  0           0  0  0
   -1.5708   -1.7250    0.0000 C   0  0  0  0  0  0           0  0  0
   -1.8708   -1.4917    0.0000 C   0  0  0  0  0  0           0  0  0
    0.3167   -1.0792    0.0000 O   0  0  0  0  0  0           0  0  0
   -1.1208   -0.2667    0.0000 C   0  0  0  0  0  0           0  0  0
   -0.7500   -3.0417    0.0000 C   0  0  0  0  0  0           0  0  0
   -2.2125   -3.0417    0.0000 C   0  0  0  0  0  0           0  0  0
   -1.0875   -2.6917    0.0000 C   0  0  0  0  0  0           0  0  0
    1.7167   -1.0875    0.0000 Cl  0  0  0  0  0  0           0  0  0
    0.3250    1.4083    0.0000 Cl  0  0  0  0  0  0           0  0  0
    2.4625    0.9625    0.0000 C   0  0  0  0  0  0           0  0  0
    1.7542    1.3833    0.0000 C   0  0  0  0  0  0           0  0  0
    2.4417    0.1375    0.0000 C   0  0  0  0  0  0           0  0  0
  2 14  1  0     0  0
  3  1  1  0     0  0
  4  3  1  0     0  0
  5 10  1  0     0  0
  6 11  1  0     0  0
  7 12  1  0     0  0
  8  1  1  0     0  0
  9  1  2  0     0  0
 10  2  1  0     0  0
 11  2  1  0     0  0
 12  2  1  0     0  0
 13  3  2  0     0  0
 14  4  1  0     0  0
 15  6  1  0     0  0
 16  7  1  0     0  0
 17  7  1  0     0  0
 18  9  1  0     0  0
 19  8  1  0     0  0
 20 22  2  0     0  0
 21  8  2  0     0  0
 22  9  1  0     0  0
 21 20  1  0     0  0
  5 17  1  0     0  0
  6 16  1  0     0  0
  5 15  1  0     0  0
M  END