
  SciTegic10311316212D

 21 23  0  0  0  0            999 V2000
   19.5435   -5.7278    0.0000 C   0  0
   20.2679   -6.1279    0.0000 O   0  0
   20.2343   -4.4775    0.0000 N   0  0
   19.5231   -4.9006    0.0000 C   0  0
   20.9587   -4.8777    0.0000 C   0  0
   20.9678   -5.7009    0.0000 C   0  0
   21.6814   -6.1024    0.0000 C   0  0
   22.3904   -5.6851    0.0000 C   0  0
   22.3813   -4.8619    0.0000 C   0  0
   21.6631   -4.4559    0.0000 C   0  0
   18.7987   -4.5004    0.0000 O   0  0
   23.0938   -4.4409    0.0000 C   0  0
   23.8146   -4.8474    0.0000 N   0  0
   23.8169   -5.6723    0.0000 C   0  0
   24.5337   -6.0788    0.0000 C   0  0
   25.2487   -5.6613    0.0000 C   0  0
   25.2423   -4.8328    0.0000 C   0  0
   24.5210   -4.4218    0.0000 C   0  0
   25.9679   -6.0706    0.0000 N   0  0
   25.9731   -6.8981    0.0000 C   0  0
   26.6820   -5.6523    0.0000 C   0  0
  1  2  1  0
  1  4  1  0
  2  6  1  0
  5  3  1  0
  3  4  1  0
  5  6  1  0
  5 10  2  0
  6  7  2  0
  7  8  1  0
  8  9  2  0
  9 10  1  0
  4 11  2  0
  9 12  1  0
 12 13  1  0
 13 14  1  0
 13 18  1  0
 14 15  1  0
 15 16  1  0
 16 17  1  0
 17 18  1  0
 16 19  1  0
 19 20  1  0
 19 21  1  0
M  END