
  CDK    9/16/09,9:46

 78 88  0  0  0  0  0  0  0  0999 V2000
   -1.1549  -16.1126    0.0000 C   0  0  0  0  0  0  0  0  0  0  0  0
   -1.1549  -16.9429    0.0000 C   0  0  0  0  0  0  0  0  0  0  0  0
   -0.4398  -17.3557    0.0000 C   0  0  0  0  0  0  0  0  0  0  0  0
    0.2799  -16.9429    0.0000 C   0  0  0  0  0  0  0  0  0  0  0  0
    0.2799  -16.1126    0.0000 C   0  0  0  0  0  0  0  0  0  0  0  0
   -0.4398  -15.6951    0.0000 O   0  0  0  0  0  0  0  0  0  0  0  0
    2.6700  -13.9727    0.0000 C   0  0  0  0  0  0  0  0  0  0  0  0
    2.7615  -14.7912    0.0000 C   0  0  0  0  0  0  0  0  0  0  0  0
    2.0982  -15.2768    0.0000 C   0  0  0  0  0  0  0  0  0  0  0  0
    1.9156  -13.6413    0.0000 C   0  0  0  0  0  0  0  0  0  0  0  0
    1.2511  -14.1283    0.0000 C   0  0  0  0  0  0  0  0  0  0  0  0
    1.3411  -14.9419    0.0000 C   0  0  0  0  0  0  0  0  0  0  0  0
    0.5903  -15.2808    0.0000 N   0  0  0  0  0  0  0  0  0  0  0  0
    0.0441  -14.6770    0.0000 C   0  0  0  0  0  0  0  0  0  0  0  0
    0.4457  -13.9617    0.0000 C   0  0  0  0  0  0  0  0  0  0  0  0
   -3.4333  -14.0657    0.0000 C   0  0  0  0  0  0  0  0  0  0  0  0
   -3.4958  -14.8765    0.0000 C   0  0  0  0  0  0  0  0  0  0  0  0
   -2.8067  -15.3409    0.0000 C   0  0  0  0  0  0  0  0  0  0  0  0
   -2.6923  -13.7028    0.0000 C   0  0  0  0  0  0  0  0  0  0  0  0
   -2.0074  -14.1592    0.0000 C   0  0  0  0  0  0  0  0  0  0  0  0
   -2.0679  -14.9789    0.0000 C   0  0  0  0  0  0  0  0  0  0  0  0
   -1.3305  -15.3056    0.0000 N   0  0  0  0  0  0  0  0  0  0  0  0
   -1.2039  -13.9787    0.0000 C   0  0  0  0  0  0  0  0  0  0  0  0
   -0.7820  -14.6865    0.0000 C   0  0  0  0  0  0  0  0  0  0  0  0
    0.9885  -16.5231    0.0000 H   0  0  0  0  0  0  0  0  0  0  0  0
   -1.8742  -16.5185    0.0000 C   0  0  0  0  0  0  0  0  0  0  0  0
   -1.8700  -17.3557    0.0000 O   0  0  0  0  0  0  0  0  0  0  0  0
   -2.5851  -16.9429    0.0000 C   0  0  0  0  0  0  0  0  0  0  0  0
   -0.4409  -18.1815    0.0000 N   0  0  0  0  0  0  0  0  0  0  0  0
   -1.1566  -18.5934    0.0000 C   0  0  0  0  0  0  0  0  0  0  0  0
   -0.8119  -13.2568    0.0000 C   0  0  0  0  0  0  0  0  0  0  0  0
    0.0251  -13.2477    0.0000 C   0  0  0  0  0  0  0  0  0  0  0  0
    0.2750  -12.4489    0.0000 C   0  0  0  0  0  0  0  0  0  0  0  0
   -0.4075  -11.9645    0.0000 N   0  0  0  0  0  0  0  0  0  0  0  0
   -1.0790  -12.4637    0.0000 C   0  0  0  0  0  0  0  0  0  0  0  0
    1.0575  -12.1852    0.0000 O   0  0  0  0  0  0  0  0  0  0  0  0
    0.2736  -18.5953    0.0000 C   0  0  0  0  0  0  0  0  0  0  0  0
    0.2725  -19.4211    0.0000 O   0  0  0  0  0  0  0  0  0  0  0  0
    0.9893  -18.1834    0.0000 C   0  0  0  0  0  0  0  0  0  0  0  0
    1.7039  -18.5972    0.0000 O   0  0  0  0  0  0  0  0  0  0  0  0
    2.4196  -18.1853    0.0000 C   0  0  0  0  0  0  0  0  0  0  0  0
    3.1342  -18.5991    0.0000 C   0  0  0  0  0  0  0  0  0  0  0  0
    3.8498  -18.1872    0.0000 O   0  0  0  0  0  0  0  0  0  0  0  0
    4.5645  -18.6010    0.0000 C   0  0  0  0  0  0  0  0  0  0  0  0
    5.2801  -18.1891    0.0000 C   0  0  0  0  0  0  0  0  0  0  0  0
    5.9947  -18.6029    0.0000 N   0  0  0  0  0  0  0  0  0  0  0  0
    6.7103  -18.1910    0.0000 C   0  0  0  0  0  0  0  0  0  0  0  0
    7.4250  -18.6048    0.0000 C   0  0  0  0  0  0  0  0  0  0  0  0
    6.7114  -17.3652    0.0000 O   0  0  0  0  0  0  0  0  0  0  0  0
    7.4217  -19.4284    0.0000 C   0  0  0  0  0  0  0  0  0  0  0  0
    8.1355  -19.8421    0.0000 C   0  0  0  0  0  0  0  0  0  0  0  0
    8.8521  -19.4301    0.0000 C   0  0  0  0  0  0  0  0  0  0  0  0
    8.8506  -18.6001    0.0000 C   0  0  0  0  0  0  0  0  0  0  0  0
    8.1363  -18.1901    0.0000 C   0  0  0  0  0  0  0  0  0  0  0  0
    9.5660  -19.8432    0.0000 C   0  0  0  0  0  0  0  0  0  0  0  0
   10.9966  -20.6709    0.0000 O   0  0  0  0  0  0  0  0  0  0  0  0
   10.2783  -19.4305    0.0000 C   0  0  0  0  0  0  0  0  0  0  0  0
   10.9897  -19.8420    0.0000 C   0  0  0  0  0  0  0  0  0  0  0  0
   11.6997  -19.4319    0.0000 C   0  0  0  0  0  0  0  0  0  0  0  0
   11.6995  -18.6102    0.0000 C   0  0  0  0  0  0  0  0  0  0  0  0
   10.9835  -18.2005    0.0000 C   0  0  0  0  0  0  0  0  0  0  0  0
   10.2764  -18.6130    0.0000 C   0  0  0  0  0  0  0  0  0  0  0  0
   10.2797  -21.0842    0.0000 C   0  0  0  0  0  0  0  0  0  0  0  0
    9.5670  -20.6678    0.0000 C   0  0  0  0  0  0  0  0  0  0  0  0
    8.8520  -21.0767    0.0000 C   0  0  0  0  0  0  0  0  0  0  0  0
    8.8486  -21.9020    0.0000 C   0  0  0  0  0  0  0  0  0  0  0  0
    9.5661  -22.3166    0.0000 C   0  0  0  0  0  0  0  0  0  0  0  0
   10.2781  -21.9053    0.0000 C   0  0  0  0  0  0  0  0  0  0  0  0
    9.5661  -23.1454    0.0000 N   0  0  0  0  0  0  0  0  0  0  0  0
    8.8483  -23.5596    0.0000 C   0  0  0  0  0  0  0  0  0  0  0  0
   10.2837  -23.5597    0.0000 C   0  0  0  0  0  0  0  0  0  0  0  0
    9.2590  -17.8764    0.0000 C   0  0  0  0  0  0  0  0  0  0  0  0
   10.0900  -17.8684    0.0000 O   0  0  0  0  0  0  0  0  0  0  0  0
    8.8366  -17.1609    0.0000 O   0  0  0  0  0  0  0  0  0  0  0  0
   12.4103  -18.1979    0.0000 N   0  0  0  0  0  0  0  0  0  0  0  0
   13.1227  -18.6073    0.0000 C   0  0  0  0  0  0  0  0  0  0  0  0
   12.4086  -17.3763    0.0000 C   0  0  0  0  0  0  0  0  0  0  0  0
   10.4175  -22.8268    0.0000 Cl  0  0  0  0  0  0  0  0  0  0  0  0
 35 31  1  0  0  0  0 
  8  9  1  0  0  0  0 
 33 36  2  0  0  0  0 
 29 37  1  0  0  0  0 
 37 38  2  0  0  0  0 
 17 18  1  0  0  0  0 
 37 39  1  0  0  0  0 
 18 21  2  0  0  0  0 
 39 40  1  0  0  0  0 
  9 12  2  0  0  0  0 
 40 41  1  0  0  0  0 
 20 19  2  0  0  0  0 
 41 42  1  0  0  0  0 
 19 16  1  0  0  0  0 
 42 43  1  0  0  0  0 
 20 21  1  0  0  0  0 
 43 44  1  0  0  0  0 
  2  3  1  0  0  0  0 
 44 45  1  0  0  0  0 
 11 10  2  0  0  0  0 
 45 46  1  0  0  0  0 
 10  7  1  0  0  0  0 
 46 47  1  0  0  0  0 
 21 22  1  0  0  0  0 
 47 48  1  0  0  0  0 
 22 24  1  0  0  0  0 
 47 49  2  0  0  0  0 
 23 20  1  0  0  0  0 
 48 50  2  0  0  0  0 
 11 12  1  0  0  0  0 
 50 51  1  0  0  0  0 
  3  4  1  0  0  0  0 
 51 52  2  0  0  0  0 
 23 24  2  0  0  0  0 
 52 53  1  0  0  0  0 
 24 14  1  0  0  0  0 
 53 54  2  0  0  0  0 
 54 48  1  0  0  0  0 
 15 32  1  0  0  0  0 
 55 64  2  0  0  0  0 
 31 23  1  0  0  0  0 
 63 56  1  0  0  0  0 
 56 58  1  0  0  0  0 
 57 55  1  0  0  0  0 
 52 55  1  0  0  0  0 
 22  1  1  0  0  0  0 
  5 13  1  0  0  0  0 
 57 58  1  0  0  0  0 
  4  5  1  0  0  0  0 
 58 59  2  0  0  0  0 
  5 25  1  6  0  0  0 
 59 60  1  0  0  0  0 
  5  6  1  0  0  0  0 
 60 61  2  0  0  0  0 
  1 26  1  6  0  0  0 
 61 62  1  0  0  0  0 
 62 57  2  0  0  0  0 
  2 27  1  1  0  0  0 
  1  2  1  0  0  0  0 
 63 64  1  0  0  0  0 
 27 28  1  0  0  0  0 
 64 65  1  0  0  0  0 
 12 13  1  0  0  0  0 
 65 66  2  0  0  0  0 
  3 29  1  1  0  0  0 
 66 67  1  0  0  0  0 
 13 14  1  0  0  0  0 
 67 68  1  0  0  0  0 
 68 63  2  0  0  0  0 
 29 30  1  0  0  0  0 
 67 69  2  0  0  0  0 
 31 32  2  0  0  0  0 
 69 70  1  0  0  0  0 
 14 15  2  0  0  0  0 
 69 71  1  0  0  0  0 
 15 11  1  0  0  0  0 
 53 72  1  0  0  0  0 
  7  8  2  0  0  0  0 
 72 73  2  0  0  0  0 
  1  6  1  0  0  0  0 
 72 74  1  0  0  0  0 
 16 17  2  0  0  0  0 
 60 75  1  0  0  0  0 
 32 33  1  0  0  0  0 
 75 76  1  0  0  0  0 
 33 34  1  0  0  0  0 
 75 77  1  0  0  0  0 
 34 35  1  0  0  0  0 
M  CHG  1  69   1
M  CHG  1  78  -1
M  END