
  SciTegic01311317052D

 21 22  0  0  0  0            999 V2000
   -3.0676    0.9888    0.0000 N   0  0
   -3.0665    0.1614    0.0000 C   0  0
   -2.3505   -0.2496    0.0000 C   0  0
   -2.3568    1.4034    0.0000 C   0  0
   -1.6404    0.9962    0.0000 C   0  0
   -1.6378    0.1652    0.0000 C   0  0
   -0.8850    1.3277    0.0000 C   0  0
   -0.2201    0.8392    0.0000 N   0  3
   -0.2274    0.0149    0.0000 C   0  0
    0.5558   -0.2443    0.0000 C   0  0
    1.0443    0.4206    0.0000 S   0  0
    0.5629    1.0905    0.0000 C   0  0
   -3.7802   -0.2525    0.0000 C   0  0
   -2.3615    2.2284    0.0000 N   0  0
    0.8065   -1.0303    0.0000 C   0  0
   -0.8983   -0.4653    0.0000 C   0  0
    0.8213    1.8740    0.0000 C   0  0
    1.6290    2.0420    0.0000 C   0  0
    0.2719    2.4895    0.0000 O   0  0
    0.2512   -1.6404    0.0000 C   0  0
    0.5019   -2.4264    0.0000 O   0  0
 12  8  2  0
  2  3  1  0
  3  6  2  0
  5  7  1  0
  1  2  2  0
  7  8  1  0
  2 13  1  0
  8  9  1  0
  4 14  1  0
 10 15  1  0
  5  4  2  0
  9 16  1  0
  4  1  1  0
 12 17  1  0
  5  6  1  0
 17 18  1  0
  9 10  2  0
 17 19  1  0
 10 11  1  0
 15 20  1  0
 11 12  1  0
 20 21  1  0
M  CHG  1   8   1
M  END