
  SciTegic04091414152D

 17 19  0  0  0  0            999 V2000
    4.0529   -6.9296    0.0000 C   0  0
    4.0529   -7.7468    0.0000 C   0  0
    4.7582   -8.1513    0.0000 N   0  0
    4.7582   -6.5169    0.0000 C   0  0
    5.4635   -6.9296    0.0000 N   0  0
    5.4680   -7.7478    0.0000 C   0  0
    6.2476   -7.9964    0.0000 N   0  0
    6.2402   -6.6726    0.0000 C   0  0
    6.7227   -7.3289    0.0000 C   0  0
    7.5304   -7.2385    0.0000 C   0  0
    7.8566   -6.4923    0.0000 C   0  0
    7.3692   -5.8359    0.0000 C   0  0
    6.5632   -5.9296    0.0000 C   0  0
    3.3440   -6.5231    0.0000 C   0  0
    3.3416   -5.7059    0.0000 C   0  0
    4.7582   -5.6997    0.0000 O   0  0
    3.3458   -8.1564    0.0000 O   0  0
  1  2  2  0
  1  4  1  0
  2  3  1  0
  3  6  1  0
  5  4  1  0
  5  6  1  0
  6  7  2  0
  7  9  1  0
  8  5  1  0
  8  9  2  0
  9 10  1  0
 10 11  2  0
 11 12  1  0
 12 13  2  0
 13  8  1  0
  1 14  1  0
 14 15  1  0
  4 16  2  0
  2 17  1  0
M  END