
  Mrv0541 04051115152D          

 30 32  0  0  0  0            999 V2000
   -1.7101   -2.2971    0.0000 N   0  0  0  0  0  0  0  0  0  0  0  0
   -0.9956   -1.8846    0.0000 C   0  0  0  0  0  0  0  0  0  0  0  0
   -0.9956   -1.0596    0.0000 C   0  0  0  0  0  0  0  0  0  0  0  0
   -1.7101   -0.6471    0.0000 C   0  0  0  0  0  0  0  0  0  0  0  0
   -2.4245   -1.0596    0.0000 C   0  0  0  0  0  0  0  0  0  0  0  0
   -2.4245   -1.8846    0.0000 C   0  0  0  0  0  0  0  0  0  0  0  0
   -1.7101    0.1779    0.0000 N   0  0  0  0  0  0  0  0  0  0  0  0
   -0.9956    0.5904    0.0000 C   0  0  0  0  0  0  0  0  0  0  0  0
   -0.2811    0.1779    0.0000 N   0  0  0  0  0  0  0  0  0  0  0  0
    0.4334    0.5904    0.0000 C   0  0  0  0  0  0  0  0  0  0  0  0
    0.4334    1.4154    0.0000 C   0  0  0  0  0  0  0  0  0  0  0  0
   -0.2811    1.8279    0.0000 C   0  0  0  0  0  0  0  0  0  0  0  0
   -0.9956    1.4154    0.0000 N   0  0  0  0  0  0  0  0  0  0  0  0
    1.1478    1.8279    0.0000 C   0  0  0  0  0  0  0  0  0  0  0  0
    1.1478    2.6529    0.0000 O   0  0  0  0  0  0  0  0  0  0  0  0
    1.8623    1.4154    0.0000 C   0  0  0  0  0  0  0  0  0  0  0  0
    2.5768    1.8279    0.0000 C   0  0  0  0  0  0  0  0  0  0  0  0
    3.2912    1.4154    0.0000 C   0  0  0  0  0  0  0  0  0  0  0  0
    3.2912    0.5904    0.0000 C   0  0  0  0  0  0  0  0  0  0  0  0
    2.5768    0.1779    0.0000 C   0  0  0  0  0  0  0  0  0  0  0  0
    1.8623    0.5904    0.0000 C   0  0  0  0  0  0  0  0  0  0  0  0
    1.1478    0.1779    0.0000 O   0  0  0  0  0  0  0  0  0  0  0  0
    1.1478   -0.6471    0.0000 C   0  0  0  0  0  0  0  0  0  0  0  0
    2.5768    2.6529    0.0000 F   0  0  0  0  0  0  0  0  0  0  0  0
    4.0057    1.8279    0.0000 F   0  0  0  0  0  0  0  0  0  0  0  0
   -0.2811    2.6529    0.0000 N   0  0  0  0  0  0  0  0  0  0  0  0
   -1.7101   -3.1221    0.0000 S   0  0  0  0  0  0  0  0  0  0  0  0
   -1.7101   -3.9471    0.0000 C   0  0  0  0  0  0  0  0  0  0  0  0
   -2.5351   -3.1221    0.0000 O   0  0  0  0  0  0  0  0  0  0  0  0
   -0.8851   -3.1221    0.0000 O   0  0  0  0  0  0  0  0  0  0  0  0
  2  1  1  0  0  0  0
  6  1  1  0  0  0  0
  1 27  1  0  0  0  0
  2  3  1  0  0  0  0
  3  4  1  0  0  0  0
  4  5  1  0  0  0  0
  4  7  1  0  0  0  0
  5  6  1  0  0  0  0
  8  7  1  0  0  0  0
  8  9  2  0  0  0  0
  8 13  1  0  0  0  0
 10  9  1  0  0  0  0
 10 11  2  0  0  0  0
 11 12  1  0  0  0  0
 11 14  1  0  0  0  0
 12 13  2  0  0  0  0
 12 26  1  0  0  0  0
 14 15  2  0  0  0  0
 14 16  1  0  0  0  0
 16 17  1  0  0  0  0
 16 21  2  0  0  0  0
 17 18  2  0  0  0  0
 17 24  1  0  0  0  0
 18 19  1  0  0  0  0
 18 25  1  0  0  0  0
 19 20  2  0  0  0  0
 20 21  1  0  0  0  0
 21 22  1  0  0  0  0
 23 22  1  0  0  0  0
 28 27  1  0  0  0  0
 29 27  2  0  0  0  0
 30 27  2  0  0  0  0
M  END