
  SciTegic12011113542D

337377  0  0  0  0            999 V2000
    1.8700   -2.4436    0.0000 O   0  0
    1.3867   -1.7753    0.0000 C   0  0
    0.5661   -1.8526    0.0000 C   0  0  2  0  0  0
    0.1501   -2.5650    0.0000 C   0  0
   -0.6530   -2.3931    0.0000 C   0  0
   -0.7345   -1.5708    0.0000 C   0  0  1  0  0  0
    0.0197   -1.2406    0.0000 O   0  0
   -1.4469   -1.1548    0.0000 N   0  0
   -2.1677   -1.5628    0.0000 C   0  0
   -2.1689   -2.3911    0.0000 O   0  0
   -2.8801   -1.1468    0.0000 N   0  0
   -2.8753   -0.3206    0.0000 C   0  0
   -3.5878    0.0954    0.0000 O   0  0
   -2.1602    0.0860    0.0000 C   0  0
   -1.4478   -0.3301    0.0000 C   0  0
    5.4258    0.4283    0.0000 O   0  0
    4.6952    0.8146    0.0000 C   0  0
    4.0220    0.3423    0.0000 C   0  0  2  0  0  0
    4.0036   -0.4808    0.0000 C   0  0  1  0  0  0
    4.6621   -0.9803    0.0000 O   0  0
    3.2170   -0.7217    0.0000 C   0  0
    2.7457   -0.0444    0.0000 C   0  0  1  0  0  0
    3.2402    0.6110    0.0000 O   0  0
    1.9216   -0.0301    0.0000 N   0  0
    1.4221   -0.6886    0.0000 C   0  0
    0.6403   -0.4200    0.0000 N   0  0
    0.6556    0.4082    0.0000 C   0  0
    0.0557    0.9710    0.0000 C   0  0
   -0.7349    0.7311    0.0000 O   0  0
    0.2423    1.7746    0.0000 N   0  0
    1.0288    2.0155    0.0000 C   0  0
    1.2154    2.8191    0.0000 N   0  0
    1.6328    1.4517    0.0000 N   0  0
    1.4462    0.6481    0.0000 C   0  0
    9.7484   -0.7310    0.0000 O   0  0
    9.7309    0.0953    0.0000 C   0  0
    8.9910    0.4541    0.0000 C   0  0  2  0  0  0
    8.2626    0.0702    0.0000 C   0  0
    7.6699    0.6405    0.0000 C   0  0  1  0  0  0
    6.8560    0.4953    0.0000 O   0  0
    8.0327    1.3816    0.0000 C   0  0  1  0  0  0
    8.8458    1.2679    0.0000 O   0  0
    7.6447    2.1088    0.0000 N   0  0
    6.8264    2.2253    0.0000 C   0  0
    6.6812    3.0391    0.0000 N   0  0
    7.4125    3.4282    0.0000 C   0  0
    7.6127    4.2323    0.0000 C   0  0
    7.0188    4.8079    0.0000 O   0  0
    8.4058    4.4548    0.0000 N   0  0
    8.9985    3.8832    0.0000 C   0  0
    9.7915    4.1143    0.0000 N   0  0
    8.7994    3.0813    0.0000 N   0  0
    8.0064    2.8538    0.0000 C   0  0
   12.0531   -3.2742    0.0000 O   0  0
   11.7621   -2.4966    0.0000 C   0  0
   12.2393   -1.8246    0.0000 C   0  0  2  0  0  0
   11.9715   -1.0443    0.0000 C   0  0  1  0  0  0
   11.1785   -0.7993    0.0000 O   0  0
   12.6262   -0.5477    0.0000 C   0  0
   13.3034   -1.0216    0.0000 C   0  0  1  0  0  0
   13.0597   -1.8104    0.0000 O   0  0
   14.0142   -0.6058    0.0000 N   0  0
   14.0115    0.2225    0.0000 C   0  0
   13.2899    0.6292    0.0000 O   0  0
   14.7231    0.6398    0.0000 N   0  0
   15.4411    0.2310    0.0000 C   0  0
   16.1528    0.6484    0.0000 O   0  0
   15.4453   -0.5916    0.0000 C   0  0
   16.1633   -1.0004    0.0000 C   0  0
   14.7337   -1.0089    0.0000 C   0  0
   13.3588   -5.5667    0.0000 O   0  0
   14.1792   -5.4809    0.0000 C   0  0
   14.5212   -4.7310    0.0000 C   0  0  2  0  0  0
   14.1111   -4.0152    0.0000 C   0  0  1  0  0  0
   13.2823   -4.0035    0.0000 O   0  0
   14.6604   -3.4041    0.0000 C   0  0
   15.4149   -3.7431    0.0000 C   0  0  1  0  0  0
   15.3242   -4.5624    0.0000 O   0  0
   16.1291   -3.3327    0.0000 N   0  0
   16.1333   -2.5044    0.0000 C   0  0
   15.4152   -2.0917    0.0000 O   0  0
   16.8484   -2.0931    0.0000 N   0  0
   17.5629   -2.5079    0.0000 C   0  0
   18.2781   -2.0965    0.0000 O   0  0
   17.5602   -3.3305    0.0000 C   0  0
   16.8451   -3.7419    0.0000 C   0  0
   10.5629   -7.0243    0.0000 C   0  0
   11.2199   -7.5188    0.0000 C   0  0  2  0  0  0
   12.0085   -7.2822    0.0000 C   0  0  1  0  0  0
   12.2803   -6.5016    0.0000 O   0  0
   12.4804   -7.9560    0.0000 C   0  0
   11.9818   -8.6133    0.0000 C   0  0  1  0  0  0
   11.2057   -8.3453    0.0000 O   0  0
   12.2225   -9.4016    0.0000 N   0  0
   13.0031   -9.6734    0.0000 C   0  0
   12.9889  -10.5000    0.0000 N   0  0
   12.1965  -10.7411    0.0000 C   0  0
   11.8464  -11.4854    0.0000 C   0  0
   12.3186  -12.1634    0.0000 O   0  0
   11.0244  -11.5560    0.0000 N   0  0
   10.5525  -10.8823    0.0000 C   0  0
    9.7305  -10.9529    0.0000 N   0  0
   10.9022  -10.1337    0.0000 N   0  0
   11.7242  -10.0631    0.0000 C   0  0
    9.8048   -7.3470    0.0000 O   0  0
    7.5144   -7.5464    0.0000 C   0  0
    7.5523   -8.3678    0.0000 C   0  0  2  0  0  0
    8.2374   -8.8246    0.0000 C   0  0  1  0  0  0
    9.0109   -8.5365    0.0000 O   0  0
    8.0191   -9.6177    0.0000 C   0  0
    7.1947   -9.6526    0.0000 C   0  0  1  0  0  0
    6.9065   -8.8839    0.0000 O   0  0
    6.7409  -10.3407    0.0000 N   0  0
    7.0291  -11.1153    0.0000 C   0  0
    6.3832  -11.6313    0.0000 N   0  0
    5.6923  -11.1745    0.0000 C   0  0
    4.8956  -11.3793    0.0000 C   0  0
    4.6744  -12.1754    0.0000 O   0  0
    4.3172  -10.7911    0.0000 N   0  0
    4.5355   -9.9980    0.0000 C   0  0
    3.9571   -9.4097    0.0000 N   0  0
    5.3351   -9.7902    0.0000 N   0  0
    5.9135  -10.3785    0.0000 C   0  0
    9.0628   -7.7131    0.0000 P   0  0
    6.7818   -7.1670    0.0000 O   0  0
    8.2327   -7.7203    0.0000 O   0  0
    8.6417   -7.0038    0.0000 N   0  0
   13.0907   -6.3470    0.0000 P   0  0
   13.3000   -7.1417    0.0000 N   0  0
   13.9125   -6.3458    0.0000 O   0  0
   12.8797   -3.2834    0.0000 P   0  0
   13.5917   -2.8667    0.0000 O   0  0
   12.8750   -2.4583    0.0000 N   0  0
   10.4454   -1.1778    0.0000 P   0  0
   10.0250   -1.8875    0.0000 N   0  0
   10.8500   -1.8875    0.0000 O   0  0
    6.1226    0.8737    0.0000 P   0  0
    5.5333    1.4625    0.0000 N   0  0
    6.5292    1.5917    0.0000 O   0  0
    6.1773   -7.7284    0.0000 C   0  0
    5.3888   -7.4856    0.0000 C   0  0
    6.3612   -8.5327    0.0000 O   0  0
    4.7843   -8.0470    0.0000 C   0  0
    3.9958   -7.8042    0.0000 C   0  0
    3.8119   -7.0000    0.0000 C   0  0
    4.4162   -6.4392    0.0000 C   0  0  2  0  0  0
    5.1845   -6.7293    0.0000 S   0  0
    5.7017   -6.0865    0.0000 C   0  0
    4.4540   -5.6121    0.0000 C   0  0  2  0  0  0
    5.2454   -5.3950    0.0000 C   0  0  1  0  0  0
    5.2836   -4.5752    0.0000 N   0  0
    4.5157   -4.2856    0.0000 C   0  0
    4.0031   -4.9264    0.0000 N   0  0
    3.6714   -5.8856    0.0000 H   0  0
    6.0184   -5.1164    0.0000 H   0  0
    4.2975   -3.4900    0.0000 O   0  0
    4.5590   -1.7988    0.0000 P   0  0
    5.3833   -1.7958    0.0000 N   0  0
    4.7708   -2.5917    0.0000 O   0  0
   16.8463   -4.5669    0.0000 C   0  0
   14.0899  -15.8754    0.0000 O   0  0
   14.9073  -15.7539    0.0000 C   0  0
   15.1700  -14.9747    0.0000 C   0  0  2  0  0  0
   14.6973  -14.3005    0.0000 C   0  0  1  0  0  0
   13.8709  -14.2881    0.0000 O   0  0
   15.1884  -13.6406    0.0000 C   0  0
   15.9692  -13.9071    0.0000 C   0  0  1  0  0  0
   15.9590  -14.7280    0.0000 O   0  0
   16.6418  -13.4305    0.0000 N   0  0
   16.6541  -12.6041    0.0000 C   0  0
   17.4432  -12.3574    0.0000 N   0  0
   17.9214  -13.0338    0.0000 C   0  0
   18.7381  -13.1319    0.0000 C   0  0
   19.2330  -12.4703    0.0000 O   0  0
   19.0637  -13.8899    0.0000 N   0  0
   18.5727  -14.5498    0.0000 C   0  0
   18.8983  -15.3078    0.0000 N   0  0
   17.7521  -14.4534    0.0000 N   0  0
   17.4265  -13.6954    0.0000 C   0  0
   11.0803  -16.1738    0.0000 O   0  0
   11.2287  -16.9869    0.0000 C   0  0
   12.0162  -17.2237    0.0000 C   0  0  2  0  0  0
   12.6744  -16.7290    0.0000 C   0  0  1  0  0  0
   12.6595  -15.9026    0.0000 O   0  0
   13.3501  -17.1981    0.0000 C   0  0
   13.1095  -17.9873    0.0000 C   0  0  1  0  0  0
   12.2887  -18.0042    0.0000 O   0  0
   13.6080  -18.6438    0.0000 N   0  0
   14.4344  -18.6289    0.0000 C   0  0
   14.7069  -19.4094    0.0000 N   0  0
   14.0467  -19.9096    0.0000 C   0  0
   13.9755  -20.7291    0.0000 C   0  0
   14.6531  -21.2020    0.0000 O   0  0
   13.2287  -21.0796    0.0000 N   0  0
   12.5529  -20.6105    0.0000 C   0  0
   11.8061  -20.9609    0.0000 N   0  0
   12.6223  -19.7872    0.0000 N   0  0
   13.3691  -19.4367    0.0000 C   0  0
    8.0412  -15.7875    0.0000 O   0  0
    8.0463  -16.6123    0.0000 C   0  0
    8.7591  -17.0261    0.0000 C   0  0  2  0  0  0
    9.5116  -16.6880    0.0000 C   0  0  1  0  0  0
    9.6831  -15.8768    0.0000 O   0  0
   10.0660  -17.2945    0.0000 C   0  0
    9.6539  -18.0111    0.0000 C   0  0  1  0  0  0
    8.8483  -17.8417    0.0000 O   0  0
    9.9921  -18.7636    0.0000 N   0  0
   10.8158  -18.8503    0.0000 C   0  0
   11.2980  -18.1768    0.0000 O   0  0
   11.1540  -19.6028    0.0000 N   0  0
   10.6701  -20.2725    0.0000 C   0  0
   11.0082  -21.0250    0.0000 O   0  0
    9.8518  -20.1879    0.0000 C   0  0
    9.3679  -20.8576    0.0000 C   0  0
    9.5137  -19.4354    0.0000 C   0  0
    4.9984  -15.4533    0.0000 O   0  0
    5.0175  -16.2779    0.0000 C   0  0
    5.7372  -16.6796    0.0000 C   0  0  2  0  0  0
    6.4839  -16.3287    0.0000 C   0  0  1  0  0  0
    6.6416  -15.5147    0.0000 O   0  0
    7.0485  -16.9257    0.0000 C   0  0
    6.6487  -17.6492    0.0000 C   0  0  1  0  0  0
    5.8403  -17.4935    0.0000 O   0  0
    6.9996  -18.3959    0.0000 N   0  0
    7.8247  -18.4685    0.0000 C   0  0
    8.2953  -17.7869    0.0000 O   0  0
    8.1755  -19.2152    0.0000 N   0  0
    7.7031  -19.8930    0.0000 C   0  0
    8.0540  -20.6396    0.0000 O   0  0
    6.8835  -19.8223    0.0000 C   0  0
    6.4111  -20.5001    0.0000 C   0  0
    6.5326  -19.0757    0.0000 C   0  0
    2.0248  -14.6998    0.0000 C   0  0
    2.5291  -15.3493    0.0000 C   0  0  2  0  0  0
    3.3522  -15.3278    0.0000 C   0  0  1  0  0  0
    3.8192  -14.6459    0.0000 O   0  0
    3.6308  -16.1018    0.0000 C   0  0
    2.9772  -16.6054    0.0000 C   0  0  1  0  0  0
    2.2986  -16.1432    0.0000 O   0  0
    3.0028  -17.4292    0.0000 N   0  0
    3.6847  -17.8962    0.0000 C   0  0
    3.4543  -18.6901    0.0000 N   0  0
    2.6264  -18.7149    0.0000 C   0  0
    2.0933  -19.3414    0.0000 C   0  0
    2.3712  -20.1195    0.0000 O   0  0
    1.2816  -19.1940    0.0000 N   0  0
    1.0029  -18.4200    0.0000 C   0  0
    0.1912  -18.2726    0.0000 N   0  0
    1.5367  -17.7894    0.0000 N   0  0
    2.3484  -17.9369    0.0000 C   0  0
    4.6417  -14.7092    0.0000 P   0  0
    4.6975  -13.8782    0.0000 O   0  0
    5.3800  -14.3417    0.0000 N   0  0
    2.3361  -13.9358    0.0000 O   0  0
    0.2398  -11.7487    0.0000 O   0  0
   -0.3651  -12.3118    0.0000 C   0  0
   -0.1707  -13.0837    0.0000 C   0  0  2  0  0  0
    0.6054  -13.3587    0.0000 C   0  0  1  0  0  0
    1.3197  -12.9328    0.0000 O   0  0
    0.5881  -14.1812    0.0000 C   0  0
   -0.2026  -14.4170    0.0000 C   0  0  1  0  0  0
   -0.6704  -13.7423    0.0000 O   0  0
   -0.4740  -15.1952    0.0000 N   0  0
   -0.0048  -15.8756    0.0000 C   0  0
   -0.5045  -16.5342    0.0000 N   0  0
   -1.2863  -16.2606    0.0000 C   0  0
   -2.0085  -16.6544    0.0000 C   0  0
   -2.0280  -17.4804    0.0000 O   0  0
   -2.7134  -16.2258    0.0000 N   0  0
   -2.6962  -15.4034    0.0000 C   0  0
   -3.4011  -14.9748    0.0000 N   0  0
   -1.9718  -15.0060    0.0000 N   0  0
   -1.2669  -15.4346    0.0000 C   0  0
   -0.8910   -8.8987    0.0000 O   0  0
   -1.6106   -9.3018    0.0000 C   0  0
   -1.6284  -10.1258    0.0000 C   0  0  2  0  0  0
   -0.9687  -10.6212    0.0000 C   0  0  1  0  0  0
   -0.1757  -10.3793    0.0000 O   0  0
   -1.2318  -11.3997    0.0000 C   0  0
   -2.0583  -11.3852    0.0000 C   0  0  1  0  0  0
   -2.2994  -10.5980    0.0000 O   0  0
   -2.5537  -12.0449    0.0000 N   0  0
   -2.2315  -12.8079    0.0000 C   0  0
   -1.4089  -12.9046    0.0000 O   0  0
   -2.7269  -13.4676    0.0000 N   0  0
   -3.5471  -13.3676    0.0000 C   0  0
   -4.0425  -14.0273    0.0000 O   0  0
   -3.8684  -12.6104    0.0000 C   0  0
   -4.6886  -12.5104    0.0000 C   0  0
   -3.3730  -11.9507    0.0000 C   0  0
   -0.8821   -8.0782    0.0000 P   0  0
   -0.0583   -8.0750    0.0000 O   0  0
    0.4273  -10.9424    0.0000 P   0  0
    1.0083  -10.3542    0.0000 N   0  0
    1.1375  -11.3542    0.0000 O   0  0
    2.1183  -13.1399    0.0000 P   0  0
    2.1713  -12.3094    0.0000 O   0  0
    2.8552  -12.7707    0.0000 N   0  0
    7.4215  -15.2456    0.0000 P   0  0
    7.0042  -14.5250    0.0000 O   0  0
    7.8292  -14.5250    0.0000 N   0  0
   10.4675  -15.6210    0.0000 P   0  0
   10.0500  -14.9042    0.0000 N   0  0
   10.8750  -14.9042    0.0000 O   0  0
   13.3665  -15.4774    0.0000 P   0  0
   12.9458  -14.7583    0.0000 N   0  0
   13.7708  -14.7583    0.0000 O   0  0
    0.4258   -5.1525    0.0000 O   0  0
   -0.3733   -4.9414    0.0000 C   0  0
   -0.9222   -5.5537    0.0000 C   0  0  2  0  0  0
   -0.7539   -6.3597    0.0000 C   0  0  1  0  0  0
    0.0005   -6.6973    0.0000 O   0  0
   -1.4656   -6.7722    0.0000 C   0  0
   -2.0779   -6.2191    0.0000 C   0  0  1  0  0  0
   -1.7445   -5.4689    0.0000 O   0  0
   -2.8839   -6.3915    0.0000 N   0  0
   -3.2215   -7.1460    0.0000 C   0  0
   -4.0438   -7.0611    0.0000 N   0  0
   -4.2162   -6.2509    0.0000 C   0  0
   -4.9279   -5.8384    0.0000 C   0  0
   -5.6438   -6.2509    0.0000 O   0  0
   -4.9279   -5.0134    0.0000 N   0  0
   -4.2162   -4.6009    0.0000 C   0  0
   -4.2162   -3.7759    0.0000 N   0  0
   -3.5004   -5.0134    0.0000 N   0  0
   -3.5004   -5.8384    0.0000 C   0  0
    1.1165   -3.9022    0.0000 O   0  0
    1.1330   -4.7271    0.0000 P   0  0
    1.9542   -4.7250    0.0000 N   0  0
    1.5375   -5.4375    0.0000 O   0  0
   -1.4708   -7.4875    0.0000 N   0  0
   -1.0597   -3.1107    0.0000 N   0  0
   -1.8826   -3.1161    0.0000 C   0  0
   -2.2894   -3.8297    0.0000 C   0  0
   -1.8748   -4.5434    0.0000 N   0  0
   -1.0488   -4.5388    0.0000 C   0  0
   -0.6375   -3.8206    0.0000 C   0  0
  8 15  1  0
 86160  1  0
  1  2  1  0
 71 72  1  0
 73 72  1  6
 73 74  1  0
 74 75  1  1
 76 77  1  0
 77 78  1  0
 73 78  1  0
 77 79  1  6
 79 80  1  0
 80 81  2  0
 80 82  1  0
 82 83  1  0
 83 84  2  0
 83 85  1  0
 85 86  2  0
 79 86  1  0
  3  2  1  6
161162  1  0
163162  1  6
163164  1  0
164165  1  1
164166  1  0
166167  1  0
167168  1  0
163168  1  0
167169  1  6
169170  1  0
170171  2  0
171172  1  0
172173  1  0
173174  2  0
173175  1  0
175176  1  0
176177  1  0
176178  2  0
178179  1  0
172179  2  0
169179  1  0
 16 17  1  0
 18 17  1  6
 18 19  1  0
 35 36  1  0
 37 36  1  6
 37 38  1  0
 38 39  1  0
 39 40  1  1
 39 41  1  0
 41 42  1  0
 37 42  1  0
 41 43  1  6
 43 44  1  0
 44 45  2  0
 45 46  1  0
 46 47  1  0
 47 48  2  0
 88 87  1  6
 88 89  1  0
180181  1  0
182181  1  6
182183  1  0
183184  1  1
183185  1  0
185186  1  0
186187  1  0
182187  1  0
186188  1  6
188189  1  0
189190  2  0
190191  1  0
191192  1  0
192193  2  0
192194  1  0
194195  1  0
195196  1  0
195197  2  0
197198  1  0
191198  2  0
188198  1  0
 89 90  1  1
 89 91  1  0
 91 92  1  0
 92 93  1  0
 88 93  1  0
 92 94  1  6
 94 95  1  0
 95 96  2  0
 96 97  1  0
 97 98  1  0
 98 99  2  0
 98100  1  0
100101  1  0
101102  1  0
101103  2  0
103104  1  0
 97104  2  0
199200  1  0
201200  1  6
201202  1  0
202203  1  1
202204  1  0
204205  1  0
205206  1  0
201206  1  0
205207  1  6
207208  1  0
208209  2  0
208210  1  0
210211  1  0
211212  2  0
211213  1  0
213214  1  0
213215  2  0
207215  1  0
 94104  1  0
 47 49  1  0
 87105  1  0
 49 50  1  0
 50 51  1  0
 50 52  2  0
 52 53  1  0
 46 53  2  0
 43 53  1  0
 19 20  1  1
 19 21  1  0
 21 22  1  0
 22 23  1  0
 18 23  1  0
 22 24  1  6
 24 25  1  0
 25 26  2  0
216217  1  0
218217  1  6
218219  1  0
219220  1  1
219221  1  0
221222  1  0
222223  1  0
218223  1  0
222224  1  6
224225  1  0
225226  2  0
225227  1  0
227228  1  0
228229  2  0
228230  1  0
230231  1  0
230232  2  0
224232  1  0
 26 27  1  0
 27 28  1  0
 28 29  2  0
 28 30  1  0
107106  1  6
107108  1  0
108109  1  1
108110  1  0
110111  1  0
111112  1  0
107112  1  0
111113  1  6
113114  1  0
114115  2  0
115116  1  0
116117  1  0
117118  2  0
117119  1  0
234233  1  6
234235  1  0
235236  1  1
235237  1  0
237238  1  0
238239  1  0
234239  1  0
238240  1  6
240241  1  0
241242  2  0
242243  1  0
243244  1  0
244245  2  0
244246  1  0
246247  1  0
247248  1  0
247249  2  0
249250  1  0
243250  2  0
240250  1  0
119120  1  0
236251  1  0
251216  1  0
120121  1  0
251252  2  0
120122  2  0
251253  1  0
122123  1  0
233254  1  0
116123  2  0
113123  1  0
 30 31  1  0
109124  1  0
124105  1  0
 31 32  1  0
106125  1  0
 31 33  2  0
124126  2  0
 33 34  1  0
124127  1  0
 27 34  2  0
 90128  1  0
128 71  1  0
 54 55  1  0
128129  1  0
 56 55  1  6
128130  2  0
 56 57  1  0
255256  1  0
257256  1  6
257258  1  0
258259  1  1
258260  1  0
260261  1  0
261262  1  0
257262  1  0
261263  1  6
263264  1  0
264265  2  0
265266  1  0
266267  1  0
267268  2  0
267269  1  0
269270  1  0
270271  1  0
270272  2  0
272273  1  0
266273  2  0
263273  1  0
 75131  1  0
131 54  1  0
 57 58  1  1
131132  2  0
 57 59  1  0
131133  1  0
 59 60  1  0
 58134  1  0
134 35  1  0
 60 61  1  0
134135  1  0
 56 61  1  0
134136  2  0
 60 62  1  6
 40137  1  0
137 16  1  0
 62 63  1  0
274275  1  0
276275  1  6
276277  1  0
277278  1  1
277279  1  0
279280  1  0
280281  1  0
276281  1  0
280282  1  6
282283  1  0
283284  2  0
283285  1  0
285286  1  0
286287  2  0
286288  1  0
288289  1  0
288290  2  0
282290  1  0
137138  1  0
 63 64  2  0
291292  2  0
291274  1  0
137139  2  0
278293  1  0
293255  1  0
 63 65  1  0
293294  1  0
125140  1  0
293295  2  0
 65 66  1  0
259296  1  0
296254  1  0
140141  1  0
296297  2  0
 66 67  2  0
296298  1  0
140142  2  0
220299  1  0
299199  1  0
 66 68  1  0
299300  2  0
141143  1  0
299301  1  0
 68 69  1  0
203302  1  0
302180  1  0
143144  1  0
302303  1  0
 68 70  2  0
302304  2  0
144145  1  0
184305  1  0
305161  1  0
 62 70  1  0
305306  1  0
146145  1  1
305307  2  0
146147  1  0
 24 34  1  0
  3  4  1  0
147148  1  0
148150  1  0
149146  1  0
149150  1  0
  5  6  1  0
  6  7  1  0
  3  7  1  0
  6  8  1  6
  8  9  1  0
150151  1  0
151152  1  0
152153  1  0
153149  1  0
  9 10  2  0
149154  1  6
  9 11  1  0
308309  1  0
310309  1  6
310311  1  0
311312  1  1
311313  1  0
313314  1  0
314315  1  0
310315  1  0
314316  1  6
316317  1  0
317318  2  0
318319  1  0
319320  1  0
320321  2  0
320322  1  0
322323  1  0
323324  1  0
323325  2  0
325326  1  0
319326  2  0
316326  1  0
150155  1  6
 11 12  1  0
327328  1  0
328308  1  0
152156  2  0
328329  1  0
 12 13  2  0
328330  2  0
291312  1  0
 20157  1  0
291331  1  0
  4327  1  0
 12 14  1  0
  5332  1  0
332333  1  0
157158  1  0
 14 15  2  0
157159  2  0
  1157  1  0
 74 76  1  0
332337  1  0
333334  1  0
334335  1  0
335336  1  0
336337  1  0
M  END