
  SciTegic11201309402D

 26 27  0  0  1  0            999 V2000
    4.1000   -3.3625    0.0000 C   0  0
    3.3917   -2.9500    0.0000 N   0  0
    6.2417   -2.9542    0.0000 C   0  0
    4.8125   -2.9542    0.0000 C   0  0  1  0  0  0
    7.6750   -2.1375    0.0000 C   0  0
    8.3792   -3.3792    0.0000 C   0  0
    7.6667   -1.3125    0.0000 C   0  0
    9.1000   -2.9667    0.0000 C   0  0
    6.9542   -3.3750    0.0000 N   0  0
    5.5250   -3.3667    0.0000 C   0  0
    7.6667   -2.9625    0.0000 C   0  0  2  0  0  0
    4.0917   -4.1875    0.0000 O   0  0
    2.6750   -3.3625    0.0000 C   0  0
   -0.1833   -4.1792    0.0000 N   0  0
    6.2417   -2.1292    0.0000 O   0  0
    9.1042   -2.1417    0.0000 O   0  0
    9.8125   -3.3792    0.0000 O   0  0
    1.9625   -2.9500    0.0000 C   0  0
    3.3792   -2.1250    0.0000 C   0  0
    4.8167   -2.1292    0.0000 C   0  0
    4.1042   -1.7125    0.0000 C   0  0
    1.2500   -3.3625    0.0000 C   0  0
    0.5292   -4.5917    0.0000 C   0  0
   -0.1833   -3.3542    0.0000 C   0  0
    1.2500   -4.1792    0.0000 C   0  0
    0.5292   -2.9417    0.0000 C   0  0
  2  1  1  0
  3 10  1  0
  4  1  1  0
 11  5  1  6
  6 11  1  0
  7  5  3  0
  8  6  1  0
  9  3  1  0
  4 10  1  6
 11  9  1  0
 12  1  2  0
 13  2  1  0
 14 24  1  0
 15  3  2  0
 16  8  2  0
 17  8  1  0
 18 13  1  0
 19  2  1  0
  4 20  1  0
 21 20  1  0
 22 18  1  0
 23 25  1  0
 24 26  1  0
 25 22  1  0
 26 22  1  0
 19 21  1  0
 23 14  1  0
M  END