
          08180812482D 1   1.00000     0.00000     0

 31 34  0     0  0            999 V2000
    0.3518   -0.6463    0.0000 C   0  0  0  0  0  0           0  0  0
    1.0476   -1.0874    0.0000 C   0  0  0  0  0  0           0  0  0
    1.1077    0.5573    0.0000 C   0  0  0  0  0  0           0  0  0
    0.3818    0.1704    0.0000 C   0  0  0  0  0  0           0  0  0
    1.8086    0.1180    0.0000 C   0  0  0  0  0  0           0  0  0
    1.7742   -0.7086    0.0000 C   0  0  0  0  0  0           0  0  0
    2.4691   -1.1493    0.0000 O   0  0  0  0  0  0           0  0  0
    2.5379    0.5041    0.0000 N   0  0  0  0  0  0           0  0  0
    3.2372    0.0587    0.0000 C   0  0  0  0  0  0           0  0  0
    3.1984   -0.7698    0.0000 C   0  0  0  0  0  0           0  0  0
    3.8927   -1.2152    0.0000 C   0  0  0  0  0  0           0  0  0
    4.6301   -0.8367    0.0000 C   0  0  0  0  0  0           0  0  0
   -0.3748   -1.0287    0.0000 N   0  0  3  0  0  0           0  0  0
   -1.0694   -0.5907    0.0000 C   0  0  0  0  0  0           0  0  0
   -0.4069   -1.8493    0.0000 C   0  0  0  0  0  0           0  0  0
   -1.1335   -2.2318    0.0000 C   0  0  0  0  0  0           0  0  0
   -1.7960   -0.9732    0.0000 C   0  0  0  0  0  0           0  0  0
    5.3207   -1.2810    0.0000 O   0  0  0  0  0  0           0  0  0
    3.9702    0.4419    0.0000 C   0  0  0  0  0  0           0  0  0
    4.6678   -0.0079    0.0000 C   0  0  0  0  0  0           0  0  0
    5.4041    0.3715    0.0000 C   0  0  0  0  0  0           0  0  0
    5.4439    1.2004    0.0000 C   0  0  0  0  0  0           0  0  0
    4.7413    1.6485    0.0000 C   0  0  0  0  0  0           0  0  0
    4.0080    1.2666    0.0000 C   0  0  0  0  0  0           0  0  0
    4.7773    2.4689    0.0000 O   0  0  0  0  0  0           0  0  0
    5.5057    2.8478    0.0000 C   0  0  0  0  0  0           0  0  0
    6.1982    2.4065    0.0000 C   0  0  0  0  0  0           0  0  0
    6.9266    2.7855    0.0000 C   0  0  0  0  0  0           0  0  0
    7.6191    2.3442    0.0000 C   0  0  0  0  0  0           0  0  0
    8.3476    2.7231    0.0000 O   0  0  0  0  0  0           0  0  0
    7.5831    1.5238    0.0000 O   0  0  0  0  0  0           0  0  0
 13 14  1  0     0  0
  1  2  2  0     0  0
 13 15  1  0     0  0
  5  8  1  0     0  0
 15 16  1  0     0  0
  6  7  1  0     0  0
 14 17  1  0     0  0
  7 10  1  0     0  0
 12 18  2  0     0  0
  9  8  2  0     0  0
  9 10  1  0     0  0
 19 20  2  0     0  0
  3  4  2  0     0  0
 20 21  1  0     0  0
  4  1  1  0     0  0
 21 22  2  0     0  0
  5  6  2  0     0  0
 22 23  1  0     0  0
  2  6  1  0     0  0
 23 24  2  0     0  0
 24 19  1  0     0  0
  9 19  1  0     0  0
 23 25  1  0     0  0
 10 11  2  0     0  0
 25 26  1  0     0  0
 11 12  1  0     0  0
 26 27  1  0     0  0
 12 20  1  0     0  0
 27 28  1  0     0  0
 28 29  1  0     0  0
  1 13  1  0     0  0
 29 30  1  0     0  0
  5  3  1  0     0  0
 29 31  2  0     0  0
M  END