
  SciTegic09081514192D

 36 39  0  0  0  0            999 V2000
   13.5861    9.2493    0.0000 O   0  0
   13.2445    8.0989    0.0000 S   0  0
   14.0702    7.2282    0.0000 O   0  0
    4.2010   -3.2956    0.0000 C   0  0
    4.9531   -1.9978    0.0000 C   0  0
    3.9511   -0.8815    0.0000 C   0  0
    2.5987   -1.5004    0.0000 N   0  0
    2.7343   -2.9815    0.0000 N   0  0
    4.8054   -4.6666    0.0000 C   0  0
    5.9984   -4.7960    0.0000 O   0  0
    4.0971   -5.6353    0.0000 O   0  0
    4.2567    0.5878    0.0000 C   0  0
    1.2990   -0.7500    0.0000 C   0  0
    1.2990    0.7500    0.0000 C   0  0
    0.0000    1.5000    0.0000 C   0  0
   -1.2990    0.7500    0.0000 C   0  0
   -1.2990   -0.7500    0.0000 C   0  0
    0.0000   -1.5000    0.0000 C   0  0
    0.0000    2.7000    0.0000 Cl  0  0
   -2.3383    1.3500    0.0000 Cl  0  0
    3.2235    1.6679    0.0000 C   0  0
    3.6446    3.1076    0.0000 C   0  0
    5.1019    3.4627    0.0000 C   0  0
    6.1382    2.3782    0.0000 C   0  0
    5.7171    0.9385    0.0000 C   0  0
    5.5263    4.9023    0.0000 C   0  0
    6.9849    5.2556    0.0000 N   0  0
    7.4092    6.6952    0.0000 C   0  0
    6.5818    7.5643    0.0000 S   0  0
    8.8679    7.0484    0.0000 C   0  0
    9.2941    8.4866    0.0000 C   0  0
   10.7527    8.8367    0.0000 C   0  0
   11.7851    7.7486    0.0000 C   0  0
   11.3590    6.3104    0.0000 C   0  0
    9.9005    5.9603    0.0000 C   0  0
   14.4115    8.3784    0.0000 N   0  0
  2  1  2  0
  3  2  2  0
  4  5  1  0
  5  6  2  0
  6  7  1  0
  7  8  1  0
  8  4  2  0
  9 10  1  0
  9 11  2  0
  4  9  1  0
  6 12  1  0
 13 14  2  0
 14 15  1  0
 15 16  2  0
 16 17  1  0
 17 18  2  0
 18 13  1  0
  7 13  1  0
 15 19  1  0
 16 20  1  0
 12 21  2  0
 21 22  1  0
 22 23  2  0
 23 24  1  0
 24 25  2  0
 25 12  1  0
 23 26  1  0
 26 27  1  0
 27 28  1  0
 28 29  2  0
 28 30  1  0
 30 31  2  0
 31 32  1  0
 32 33  2  0
 33 34  1  0
 34 35  2  0
 35 30  1  0
 33  2  1  0
  2 36  1  0
M  END