
  SciTegic11201309402D

 89 93  0  0  1  0            999 V2000
    5.3125   -4.4292    0.0000 N   0  0
    4.6167   -4.5750    0.0000 C   0  0
    3.0833   -0.1208    0.0000 N   0  0
    4.1333   -4.0458    0.0000 C   0  0  2  0  0  0
    4.3083   -0.8250    0.0000 C   0  0
    4.5875   -3.4875    0.0000 N   0  0
    4.6958   -1.4167    0.0000 N   0  0
    1.0833   -0.6542    0.0000 N   0  0
    2.3750   -0.0792    0.0000 C   0  0
    4.8417   -2.8208    0.0000 C   0  0
    0.6375   -1.2125    0.0000 C   0  0
    5.7625   -5.6042    0.0000 C   0  0
    3.7542   -0.3792    0.0000 C   0  0  2  0  0  0
    4.8792   -2.1083    0.0000 C   0  0  1  0  0  0
    0.3458   -2.5917    0.0000 N   0  0
    5.8375   -4.9042    0.0000 C   0  0
    1.6875   -0.2625    0.0000 C   0  0  1  0  0  0
    0.5292   -3.2750    0.0000 C   0  0
    0.3792   -1.8792    0.0000 C   0  0  2  0  0  0
    6.3417   -6.0333    0.0000 N   0  0
    5.5917   -2.0333    0.0000 C   0  0
    8.3208   -2.9042    0.0000 C   0  0
   12.4750   -9.1583    0.0000 C   0  0
    0.9167   -3.8792    0.0000 C   0  0
    2.8500   -4.6167    0.0000 S   0  0
    7.5708   -6.1542    0.0000 C   0  0
    2.1625   -4.6208    0.0000 S   0  0
   10.6500   -5.9375    0.0000 C   0  0
    6.0958   -1.5250    0.0000 C   0  0
    1.4708   -4.3208    0.0000 C   0  0
    6.9917   -5.7417    0.0000 C   0  0  1  0  0  0
   13.0875   -9.5208    0.0000 N   0  0
    7.7042   -2.5417    0.0000 N   0  0
    4.3958   -5.2542    0.0000 O   0  0
    4.8375   -0.3458    0.0000 O   0  0
    3.5417   -4.4333    0.0000 C   0  0
    5.1167   -5.9042    0.0000 O   0  0
    2.2417    0.4458    0.0000 O   0  0
    0.0125   -0.8542    0.0000 O   0  0
    5.5375   -2.9708    0.0000 O   0  0
   -0.3208   -1.7292    0.0000 C   0  0
    1.3917    0.3833    0.0000 C   0  0
   -0.1250   -3.5667    0.0000 O   0  0
    7.5000   -6.8667    0.0000 O   0  0
   10.6583   -5.2250    0.0000 O   0  0
    5.9333   -0.9875    0.0000 O   0  0
   12.4833   -8.4417    0.0000 N   0  0
    8.3083   -3.6167    0.0000 N   0  0
    8.2250   -5.8625    0.0000 N   0  0
   10.0333   -6.2917    0.0000 N   0  0
   11.2667   -6.2958    0.0000 C   0  0  2  0  0  0
    8.9417   -2.5500    0.0000 N   0  0
   11.8542   -9.5083    0.0000 N   0  0
    4.1083    0.2417    0.0000 C   0  0
    5.6000   -3.7708    0.0000 C   0  0
    6.8000   -1.6000    0.0000 N   0  0
   -0.9333   -2.0750    0.0000 C   0  0
   -2.1750   -2.7792    0.0000 C   0  0
   11.8792   -5.9375    0.0000 N   0  0
    1.8125    0.9667    0.0000 C   0  0
   -0.9375   -2.7875    0.0000 C   0  0
   -1.5500   -1.7167    0.0000 C   0  0
   -2.1667   -2.0667    0.0000 C   0  0
   -1.5583   -3.1417    0.0000 C   0  0
    6.4625   -4.5458    0.0000 C   0  0
   -2.7917   -3.1333    0.0000 O   0  0
    6.3125   -3.8458    0.0000 C   0  0
    0.8000   -4.2417    0.0000 C   0  0
    1.8750   -4.8583    0.0000 C   0  0
    7.0708   -5.0333    0.0000 C   0  0
    9.4208   -5.9292    0.0000 C   0  0
    8.8042   -6.2792    0.0000 C   0  0
    7.6958   -3.9625    0.0000 C   0  0
   11.8708   -8.0833    0.0000 C   0  0
   11.2625   -7.0042    0.0000 C   0  0
    4.8250    0.2417    0.0000 C   0  0
    3.7542    0.8625    0.0000 C   0  0
   -2.8000   -3.8458    0.0000 C   0  0
    2.5250    0.8917    0.0000 C   0  0
    1.5208    1.6125    0.0000 C   0  0
    7.6833   -4.6750    0.0000 C   0  0
   11.8750   -7.3708    0.0000 C   0  0
   -2.1875   -4.2000    0.0000 C   0  0
    1.5125   -5.4833    0.0000 C   0  0
    0.4458   -4.8583    0.0000 C   0  0
    2.9375    1.4708    0.0000 C   0  0
    1.9417    2.1958    0.0000 C   0  0
    0.8000   -5.4833    0.0000 C   0  0
    2.6458    2.1208    0.0000 C   0  0
  2  1  1  0
  3 13  1  0
  4  2  1  1
  5  7  1  0
  6  4  1  0
  7 14  1  0
  8 11  1  0
  9  3  1  0
 10  6  1  0
 11 19  1  0
 12 16  1  0
 13  5  1  0
 14 10  1  0
 15 18  1  0
 16  1  1  0
 17  9  1  0
 18 24  1  0
 19 15  1  0
 20 12  1  0
 14 21  1  6
 22 48  2  0
 23 47  2  0
 24 30  1  0
 25 36  1  0
 26 31  1  0
 27 25  1  0
 28 50  1  0
 29 21  1  0
 30 27  1  0
 31 20  1  6
 32 23  1  0
 33 22  1  0
 34  2  2  0
 35  5  2  0
  4 36  1  0
 37 12  2  0
 38  9  2  0
 39 11  2  0
 40 10  2  0
 19 41  1  6
 17 42  1  6
 43 18  2  0
 44 26  2  0
 45 28  2  0
 46 29  2  0
 47 74  1  0
 48 73  1  0
 49 26  1  0
 50 71  1  0
 51 28  1  0
 52 22  1  0
 53 23  1  0
 13 54  1  1
 55  1  1  0
 56 29  1  0
 57 41  1  0
 58 63  2  0
 51 59  1  6
 60 42  1  0
 61 57  1  0
 62 57  2  0
 63 62  1  0
 64 61  2  0
 65 16  1  0
 66 58  1  0
 67 55  1  0
 68 30  1  0
 69 30  1  0
 31 70  1  0
 71 72  1  0
 72 49  1  0
 73 81  1  0
 74 82  1  0
 51 75  1  0
 76 54  1  0
 77 54  1  0
 78 66  1  0
 79 60  1  0
 80 60  2  0
 81 70  1  0
 82 75  1  0
 83 78  1  0
 84 69  1  0
 85 68  1  0
 86 79  2  0
 87 80  1  0
 88 84  1  0
 89 87  2  0
 67 65  1  0
 88 85  1  0
 17  8  1  0
 58 64  1  0
 89 86  1  0
M  END