
          11280715132D 1   1.00000     0.00000     0

 30 32  0     0  0            999 V2000
   -1.2333   -1.7792    0.0000 C   0  0  0  0  0  0           0  0  0
   -1.2333   -1.1750    0.0000 C   0  0  0  0  0  0           0  0  0
   -1.7500   -2.0750    0.0000 N   0  0  3  0  0  0           0  0  0
   -2.2625   -1.1750    0.0000 N   0  0  3  0  0  0           0  0  0
   -2.2625   -1.7750    0.0000 C   0  0  0  0  0  0           0  0  0
   -0.6583   -1.9625    0.0000 N   0  0  0  0  0  0           0  0  0
   -1.7500   -0.8750    0.0000 C   0  0  0  0  0  0           0  0  0
   -0.3083   -1.4792    0.0000 C   0  0  0  0  0  0           0  0  0
    2.6292   -0.7500    0.0000 S   0  0  3  0  0  0           0  0  0
   -0.6583   -0.9917    0.0000 N   0  0  0  0  0  0           0  0  0
    0.2250   -1.7625    0.0000 N   0  0  0  0  0  0           0  0  0
    0.6375   -1.3292    0.0000 C   0  0  0  0  0  0           0  0  0
    2.2167   -1.1792    0.0000 C   0  0  0  0  0  0           0  0  0
    1.2167   -1.4750    0.0000 C   0  0  0  0  0  0           0  0  0
   -2.7833   -2.0750    0.0000 O   0  0  0  0  0  0           0  0  0
    1.6292   -1.0417    0.0000 C   0  0  0  0  0  0           0  0  0
    2.9375   -1.2625    0.0000 O   0  0  0  0  0  0           0  0  0
    2.3125   -0.2375    0.0000 O   0  0  0  0  0  0           0  0  0
   -1.7583   -0.2750    0.0000 O   0  0  0  0  0  0           0  0  0
    3.1375   -0.4292    0.0000 F   0  0  0  0  0  0           0  0  0
    0.4667   -0.7542    0.0000 O   0  0  0  0  0  0           0  0  0
   -1.7500   -2.6750    0.0000 C   0  0  0  0  0  0           0  0  0
   -2.7833   -0.8792    0.0000 C   0  0  0  0  0  0           0  0  0
    2.3792   -1.7625    0.0000 C   0  0  0  0  0  0           0  0  0
    1.3875   -2.0500    0.0000 C   0  0  0  0  0  0           0  0  0
    1.9667   -2.1917    0.0000 C   0  0  0  0  0  0           0  0  0
   -2.2708   -2.9750    0.0000 C   0  0  0  0  0  0           0  0  0
   -2.7875   -0.2792    0.0000 C   0  0  0  0  0  0           0  0  0
   -2.2708   -3.5750    0.0000 C   0  0  0  0  0  0           0  0  0
   -3.3083    0.0208    0.0000 C   0  0  0  0  0  0           0  0  0
  2  1  2  0     0  0
  3  1  1  0     0  0
  4  5  1  0     0  0
  5  3  1  0     0  0
  6  1  1  0     0  0
  7  2  1  0     0  0
  8  6  1  0     0  0
  9 13  1  0     0  0
 10  2  1  0     0  0
 11  8  1  0     0  0
 12 11  1  0     0  0
 13 16  2  0     0  0
 14 12  1  0     0  0
 15  5  2  0     0  0
 16 14  1  0     0  0
 17  9  2  0     0  0
 18  9  2  0     0  0
 19  7  2  0     0  0
 20  9  1  0     0  0
 21 12  2  0     0  0
 22  3  1  0     0  0
 23  4  1  0     0  0
 24 26  2  0     0  0
 25 14  2  0     0  0
 26 25  1  0     0  0
 27 22  1  0     0  0
 28 23  1  0     0  0
 29 27  1  0     0  0
 30 28  1  0     0  0
 10  8  2  0     0  0
  7  4  1  0     0  0
 24 13  1  0     0  0
M  END