
          11280714572D 1   1.00000     0.00000     0

 21 23  0     0  0            999 V2000
    9.2792    0.5708    0.0000 N   0  0  0  0  0  0           0  0  0
    9.7417    0.1958    0.0000 C   0  0  0  0  0  0           0  0  0
    9.5292   -0.3667    0.0000 N   0  0  0  0  0  0           0  0  0
    8.7792    0.2458    0.0000 C   0  0  0  0  0  0           0  0  0
    6.6917   -0.3667    0.0000 N   0  0  0  0  0  0           0  0  0
    8.9292   -0.3292    0.0000 O   0  0  0  0  0  0           0  0  0
    5.7792   -0.0292    0.0000 N   0  0  0  0  0  0           0  0  0
    6.1167   -0.5292    0.0000 C   0  0  0  0  0  0           0  0  0
    6.7167    0.2333    0.0000 C   0  0  0  0  0  0           0  0  0
    6.1542    0.4333    0.0000 C   0  0  0  0  0  0           0  0  0
   10.2667    0.4958    0.0000 C   0  0  0  0  0  0           0  0  0
   10.7792    0.1958    0.0000 C   0  0  0  0  0  0           0  0  0
   11.8042   -0.4042    0.0000 C   0  0  0  0  0  0           0  0  0
   12.3292   -0.7042    0.0000 Cl  0  0  0  0  0  0           0  0  0
   11.2917   -0.7042    0.0000 C   0  0  0  0  0  0           0  0  0
   11.8167    0.1958    0.0000 C   0  0  0  0  0  0           0  0  0
   10.7792   -0.4042    0.0000 C   0  0  0  0  0  0           0  0  0
   11.2917    0.4958    0.0000 C   0  0  0  0  0  0           0  0  0
    8.2417    0.5208    0.0000 C   0  0  0  0  0  0           0  0  0
    7.2292    0.5458    0.0000 C   0  0  0  0  0  0           0  0  0
    7.7417    0.2458    0.0000 C   0  0  0  0  0  0           0  0  0
  2  1  1  0     0  0
  3  2  2  0     0  0
  4  1  2  0     0  0
  5  9  1  0     0  0
  6  4  1  0     0  0
  7 10  1  0     0  0
  8  5  2  0     0  0
  9 20  1  0     0  0
 10  9  2  0     0  0
 11  2  1  0     0  0
 12 11  1  0     0  0
 13 16  1  0     0  0
 14 13  1  0     0  0
 15 17  1  0     0  0
 16 18  2  0     0  0
 17 12  2  0     0  0
 18 12  1  0     0  0
 19  4  1  0     0  0
 20 21  1  0     0  0
 21 19  1  0     0  0
  6  3  1  0     0  0
 15 13  2  0     0  0
  7  8  1  0     0  0
M  END