
          11280715352D 1   1.00000     0.00000     0

 35 38  0     1  0            999 V2000
   -1.0333   -0.2667    0.0000 S   0  0  3  0  0  0           0  0  0
   -1.0333    0.5583    0.0000 N   0  0  0  0  0  0           0  0  0
   -2.4708    2.2083    0.0000 N   0  0  0  0  0  0           0  0  0
   -1.7500    1.7958    0.0000 N   0  0  3  0  0  0           0  0  0
   -1.7500    0.9708    0.0000 C   0  0  0  0  0  0           0  0  0
   -2.4708    3.0333    0.0000 C   0  0  0  0  0  0           0  0  0
   -1.0458    3.0458    0.0000 C   0  0  1  0  0  0           0  0  0
   -1.0458    2.2125    0.0000 C   0  0  0  0  0  0           0  0  0
   -1.0583   -3.5542    0.0000 C   0  0  3  0  0  0           0  0  0
   -1.0333   -1.0917    0.0000 C   0  0  0  0  0  0           0  0  0
   -1.7458   -0.6750    0.0000 O   0  0  0  0  0  0           0  0  0
   -0.2333   -0.4792    0.0000 O   0  0  0  0  0  0           0  0  0
   -3.0500    3.6208    0.0000 C   0  0  0  0  0  0           0  0  0
   -1.0500   -2.7292    0.0000 C   0  0  0  0  0  0           0  0  0
   -0.4625    3.6208    0.0000 C   0  0  0  0  0  0           0  0  0
   -2.4625    0.5583    0.0000 N   0  0  0  0  0  0           0  0  0
   -0.3333   -1.5000    0.0000 C   0  0  0  0  0  0           0  0  0
   -1.7583   -1.4917    0.0000 C   0  0  0  0  0  0           0  0  0
   -1.7583   -2.3167    0.0000 C   0  0  0  0  0  0           0  0  0
   -0.3333   -2.3167    0.0000 C   0  0  0  0  0  0           0  0  0
   -1.0583   -4.3042    0.0000 F   0  0  0  0  0  0           0  0  0
   -1.7250   -4.1000    0.0000 F   0  0  0  0  0  0           0  0  0
   -0.3875   -4.1042    0.0000 F   0  0  0  0  0  0           0  0  0
   -3.8458    3.4083    0.0000 C   0  0  0  0  0  0           0  0  0
   -2.8333    4.4167    0.0000 C   0  0  0  0  0  0           0  0  0
   -4.2208    4.7792    0.0000 C   0  0  0  0  0  0           0  0  0
   -3.4208    4.9917    0.0000 C   0  0  0  0  0  0           0  0  0
   -4.4333    3.9833    0.0000 C   0  0  0  0  0  0           0  0  0
   -4.8000    5.3667    0.0000 Cl  0  0  0  0  0  0           0  0  0
   -0.6833    4.4042    0.0000 C   0  0  0  0  0  0           0  0  0
    0.3292    3.4083    0.0000 C   0  0  0  0  0  0           0  0  0
   -2.4583   -0.2667    0.0000 C   0  0  0  0  0  0           0  0  0
   -0.1000    4.9917    0.0000 C   0  0  0  0  0  0           0  0  0
    0.9167    3.9875    0.0000 C   0  0  0  0  0  0           0  0  0
    0.7042    4.7792    0.0000 C   0  0  0  0  0  0           0  0  0
  2  1  1  0     0  0
  3  4  1  0     0  0
  4  5  1  0     0  0
  5  2  1  0     0  0
  6  3  2  0     0  0
  7  8  1  0     0  0
  8  4  1  0     0  0
  9 14  1  0     0  0
 10  1  1  0     0  0
 11  1  2  0     0  0
 12  1  2  0     0  0
 13  6  1  0     0  0
 14 19  2  0     0  0
  7 15  1  6     0  0
 16  5  2  0     0  0
 17 10  1  0     0  0
 18 10  2  0     0  0
 19 18  1  0     0  0
 20 17  2  0     0  0
 21  9  1  0     0  0
 22  9  1  0     0  0
 23  9  1  0     0  0
 24 13  1  0     0  0
 25 13  2  0     0  0
 26 27  2  0     0  0
 27 25  1  0     0  0
 28 24  2  0     0  0
 29 26  1  0     0  0
 30 15  1  0     0  0
 31 15  2  0     0  0
 32 16  1  0     0  0
 33 30  2  0     0  0
 34 31  1  0     0  0
 35 34  2  0     0  0
 14 20  1  0     0  0
  6  7  1  0     0  0
 26 28  1  0     0  0
 35 33  1  0     0  0
M  END