
  SciTegic05071316162D

 18 19  0  0  0  0            999 V2000
   19.6442  -14.3338    0.0000 C   0  0
   19.6430  -15.1534    0.0000 C   0  0
   20.3511  -15.5623    0.0000 C   0  0
   21.0608  -15.1529    0.0000 C   0  0
   21.0579  -14.3302    0.0000 C   0  0
   20.3493  -13.9250    0.0000 C   0  0
   18.9364  -13.9254    0.0000 C   0  0  1  0  0  0
   18.2288  -14.3342    0.0000 C   0  0
   17.5210  -13.9257    0.0000 C   0  0
   16.8134  -14.3345    0.0000 N   0  0
   16.0674  -13.9984    0.0000 N   0  0
   15.5207  -14.6058    0.0000 C   0  0
   15.9295  -15.3135    0.0000 N   0  0
   16.7287  -15.1433    0.0000 C   0  0
   18.9362  -13.1082    0.0000 C   0  0
   19.6438  -12.6994    0.0000 C   0  0
   20.3516  -13.1079    0.0000 C   0  0
   21.0592  -12.6991    0.0000 C   0  0
  1  2  2  0
  2  3  1  0
  3  4  2  0
  4  5  1  0
  5  6  2  0
  6  1  1  0
  1  7  1  0
  7  8  1  0
  8  9  1  0
  9 10  1  0
 10 11  1  0
 11 12  2  0
 12 13  1  0
 13 14  2  0
 14 10  1  0
  7 15  1  1
 15 16  1  0
 16 17  1  0
 17 18  1  0
M  END