
          11280715322D 1   1.00000     0.00000     0

 36 40  0     0  0            999 V2000
    8.9125   -0.8292    0.0000 C   0  0  0  0  0  0           0  0  0
    8.1917   -1.2542    0.0000 S   0  0  3  0  0  0           0  0  0
    9.6917    0.2500    0.0000 N   0  3  0  0  0  0           0  0  0
    8.9042   -0.0042    0.0000 C   0  0  0  0  0  0           0  0  0
    9.6917   -1.0875    0.0000 N   0  0  0  0  0  0           0  0  0
    5.3250   -2.9167    0.0000 C   0  0  0  0  0  0           0  0  0
    5.3250   -3.7417    0.0000 N   0  0  0  0  0  0           0  0  0
   10.1792   -0.4167    0.0000 O   0  0  0  0  0  0           0  0  0
    3.8917   -3.7417    0.0000 C   0  0  0  0  0  0           0  0  0
    7.4667   -1.6750    0.0000 N   0  0  3  0  0  0           0  0  0
    4.6042   -4.1542    0.0000 C   0  0  0  0  0  0           0  0  0
    4.6042   -2.5042    0.0000 N   0  0  0  0  0  0           0  0  0
    3.8917   -2.9167    0.0000 C   0  0  0  0  0  0           0  0  0
    6.0417   -2.5042    0.0000 N   0  0  3  0  0  0           0  0  0
    3.1792   -4.1542    0.0000 C   0  0  0  0  0  0           0  0  0
    3.1792   -2.5042    0.0000 C   0  0  0  0  0  0           0  0  0
    7.7667   -0.5292    0.0000 O   0  0  0  0  0  0           0  0  0
    8.6125   -1.9750    0.0000 O   0  0  0  0  0  0           0  0  0
    2.4667   -3.7417    0.0000 C   0  0  0  0  0  0           0  0  0
    9.9417    1.0375    0.0000 O   0  5  0  0  0  0           0  0  0
    2.4667   -2.9167    0.0000 C   0  0  0  0  0  0           0  0  0
    6.7542   -1.2625    0.0000 C   0  0  0  0  0  0           0  0  0
    7.4667   -2.5042    0.0000 C   0  0  0  0  0  0           0  0  0
    8.2375    0.4875    0.0000 C   0  0  0  0  0  0           0  0  0
    6.7542   -2.9167    0.0000 C   0  0  0  0  0  0           0  0  0
    6.0417   -1.6750    0.0000 C   0  0  0  0  0  0           0  0  0
    4.6042   -4.9792    0.0000 N   0  0  0  0  0  0           0  0  0
    1.7417   -4.1625    0.0000 O   0  0  0  0  0  0           0  0  0
    1.7417   -2.5042    0.0000 O   0  0  0  0  0  0           0  0  0
    8.3292    1.3125    0.0000 C   0  0  0  0  0  0           0  0  0
    7.4792    0.1500    0.0000 C   0  0  0  0  0  0           0  0  0
    1.0250   -3.7500    0.0000 C   0  0  0  0  0  0           0  0  0
    1.0292   -2.9167    0.0000 C   0  0  0  0  0  0           0  0  0
    6.8125    0.6333    0.0000 C   0  0  0  0  0  0           0  0  0
    7.6542    1.8083    0.0000 C   0  0  0  0  0  0           0  0  0
    6.8917    1.4708    0.0000 C   0  0  0  0  0  0           0  0  0
  2  1  1  0     0  0
  3  4  2  0     0  0
  4  1  1  0     0  0
  5  1  2  0     0  0
  6 14  1  0     0  0
  7  6  1  0     0  0
  8  5  1  0     0  0
  9 13  2  0     0  0
 10  2  1  0     0  0
 11  7  2  0     0  0
 12  6  2  0     0  0
 13 12  1  0     0  0
 14 25  1  0     0  0
 15  9  1  0     0  0
 16 13  1  0     0  0
 17  2  2  0     0  0
 18  2  2  0     0  0
 19 21  1  0     0  0
 20  3  1  0     0  0
 21 16  2  0     0  0
 22 10  1  0     0  0
 23 10  1  0     0  0
 24  4  1  0     0  0
 25 23  1  0     0  0
 26 22  1  0     0  0
 27 11  1  0     0  0
 28 19  1  0     0  0
 29 21  1  0     0  0
 30 24  2  0     0  0
 31 24  1  0     0  0
 32 28  1  0     0  0
 33 29  1  0     0  0
 34 31  2  0     0  0
 35 30  1  0     0  0
 36 34  1  0     0  0
  3  8  1  0     0  0
 14 26  1  0     0  0
 36 35  2  0     0  0
 11  9  1  0     0  0
 15 19  2  0     0  0
M  CHG  2   3   1  20  -1
M  END