
          11280714582D 1   1.00000     0.00000     0

 46 48  0     1  0            999 V2000
    2.9042   -4.3542    0.0000 C   0  0  0  0  0  0           0  0  0
    0.3125   -1.6542    0.0000 C   0  0  0  0  0  0           0  0  0
    3.4292   -4.0542    0.0000 N   0  0  0  0  0  0           0  0  0
    0.8292   -1.3500    0.0000 C   0  0  0  0  0  0           0  0  0
    4.4667   -4.0542    0.0000 C   0  0  0  0  0  0           0  0  0
    2.3792   -4.0542    0.0000 C   0  0  1  0  0  0           0  0  0
    1.8667   -4.3542    0.0000 N   0  0  0  0  0  0           0  0  0
    0.3125   -2.2542    0.0000 N   0  0  0  0  0  0           0  0  0
    3.9417   -4.3542    0.0000 C   0  0  2  0  0  0           0  0  0
    1.8667   -4.9542    0.0000 C   0  0  0  0  0  0           0  0  0
    4.9875   -4.3542    0.0000 N   0  0  0  0  0  0           0  0  0
    3.4292   -5.8542    0.0000 C   0  0  0  0  0  0           0  0  0
   -0.2083   -1.3542    0.0000 O   0  0  0  0  0  0           0  0  0
    2.9042   -4.9542    0.0000 O   0  0  0  0  0  0           0  0  0
    2.3792   -3.4542    0.0000 C   0  0  0  0  0  0           0  0  0
    1.3500   -1.6500    0.0000 O   0  0  0  0  0  0           0  0  0
    4.4667   -3.4542    0.0000 O   0  0  0  0  0  0           0  0  0
    2.3792   -5.2542    0.0000 O   0  0  0  0  0  0           0  0  0
    2.9042   -6.1542    0.0000 O   0  0  0  0  0  0           0  0  0
    3.9417   -4.9542    0.0000 C   0  0  0  0  0  0           0  0  0
    0.8292   -2.5500    0.0000 C   0  0  0  0  0  0           0  0  0
    3.4292   -5.2542    0.0000 C   0  0  0  0  0  0           0  0  0
    1.8667   -3.1542    0.0000 C   0  0  0  0  0  0           0  0  0
    5.5042   -4.0542    0.0000 C   0  0  0  0  0  0           0  0  0
    0.8292   -0.7500    0.0000 O   0  0  0  0  0  0           0  0  0
    1.3500   -5.2542    0.0000 C   0  0  0  0  0  0           0  0  0
    6.0250   -4.3542    0.0000 C   0  0  0  0  0  0           0  0  0
    7.0625   -4.9542    0.0000 C   0  0  0  0  0  0           0  0  0
    3.9417   -6.1542    0.0000 O   0  0  0  0  0  0           0  0  0
    0.8292   -4.9542    0.0000 C   0  0  0  0  0  0           0  0  0
    1.3500   -2.2500    0.0000 C   0  0  0  0  0  0           0  0  0
    0.8292   -3.1542    0.0000 C   0  0  0  0  0  0           0  0  0
    1.8667   -2.5500    0.0000 C   0  0  0  0  0  0           0  0  0
    1.3542   -3.4500    0.0000 C   0  0  0  0  0  0           0  0  0
    6.0250   -4.9542    0.0000 C   0  0  0  0  0  0           0  0  0
    6.5417   -4.0542    0.0000 C   0  0  0  0  0  0           0  0  0
    7.0625   -4.3500    0.0000 C   0  0  0  0  0  0           0  0  0
    6.5417   -5.2542    0.0000 C   0  0  0  0  0  0           0  0  0
    0.3042   -5.2542    0.0000 C   0  0  0  0  0  0           0  0  0
    7.5792   -5.2542    0.0000 O   0  0  0  0  0  0           0  0  0
   -0.2083   -4.9500    0.0000 C   0  0  0  0  0  0           0  0  0
    0.3125   -5.8500    0.0000 C   0  0  0  0  0  0           0  0  0
    7.5792   -5.8542    0.0000 C   0  0  0  0  0  0           0  0  0
   -0.2083   -6.1500    0.0000 C   0  0  0  0  0  0           0  0  0
   -0.7333   -5.2500    0.0000 C   0  0  0  0  0  0           0  0  0
   -0.7333   -5.8500    0.0000 C   0  0  0  0  0  0           0  0  0
  2  8  1  0     0  0
  3  1  1  0     0  0
  4  2  1  0     0  0
  5  9  1  0     0  0
  6  1  1  0     0  0
  7  6  1  0     0  0
  8 21  1  0     0  0
  9  3  1  0     0  0
 10  7  1  0     0  0
 11  5  1  0     0  0
 12 22  1  0     0  0
 13  2  2  0     0  0
 14  1  2  0     0  0
  6 15  1  1     0  0
 16  4  2  0     0  0
 17  5  2  0     0  0
 18 10  2  0     0  0
 19 12  2  0     0  0
  9 20  1  6     0  0
 21 32  1  0     0  0
 22 20  1  0     0  0
 23 15  1  0     0  0
 24 11  1  0     0  0
 25  4  1  0     0  0
 26 10  1  0     0  0
 27 24  1  0     0  0
 28 37  1  0     0  0
 29 12  1  0     0  0
 30 26  1  0     0  0
 31 33  1  0     0  0
 32 34  2  0     0  0
 33 23  2  0     0  0
 34 23  1  0     0  0
 35 27  2  0     0  0
 36 27  1  0     0  0
 37 36  2  0     0  0
 38 35  1  0     0  0
 39 30  1  0     0  0
 40 28  1  0     0  0
 41 39  2  0     0  0
 42 39  1  0     0  0
 43 40  1  0     0  0
 44 42  2  0     0  0
 45 41  1  0     0  0
 46 44  1  0     0  0
 31 21  2  0     0  0
 38 28  2  0     0  0
 45 46  2  0     0  0
M  END