
  SciTegic01161211262D

 19 21  0  0  0  0            999 V2000
   -5.0077    0.7063    0.0000 C   0  0
   -5.0088   -0.1187    0.0000 C   0  0
   -4.2961   -0.5304    0.0000 C   0  0
   -4.2979    1.1178    0.0000 C   0  0
   -3.5846    0.7099    0.0000 C   0  0
   -3.5812   -0.1162    0.0000 C   0  0
   -2.8681   -0.5240    0.0000 C   0  0
   -2.8748    1.1282    0.0000 C   0  0
   -2.1571    0.7158    0.0000 C   0  0  1  0  0  0
   -2.1512   -0.1121    0.0000 C   0  0  1  0  0  0
   -1.3620   -0.3623    0.0000 C   0  0
   -0.8801    0.3109    0.0000 C   0  0
   -1.3716    0.9772    0.0000 N   0  0
   -2.1645    1.5413    0.0000 H   0  0
   -2.1562   -0.9306    0.0000 H   0  0
   -0.9812    1.7003    0.0000 C   0  0
   -0.1589    1.7235    0.0000 C   0  0
    0.2320    2.4473    0.0000 C   0  0
   -4.2956   -1.3530    0.0000 O   0  0
  9 10  1  0
  5  4  2  0
  4  1  1  0
  5  6  1  0
  2  3  1  0
 10 11  1  0
 11 12  1  0
 12 13  1  0
 13  9  1  0
  3  6  2  0
  9 14  1  1
  1  2  2  0
 10 15  1  6
  5  8  1  0
 13 16  1  0
  6  7  1  0
 16 17  1  0
  7 10  1  0
 17 18  2  0
  9  8  1  0
  3 19  1  0
M  END