
          11280715122D 1   1.00000     0.00000     0

 32 35  0     0  0            999 V2000
    4.7042   -4.3667    0.0000 C   0  0  0  0  0  0           0  0  0
    4.7042   -3.5375    0.0000 C   0  0  0  0  0  0           0  0  0
    7.7125   -8.7000    0.0000 C   0  0  0  0  0  0           0  0  0
    7.1792   -9.9250    0.0000 N   0  0  0  0  0  0           0  0  0
    3.9875   -3.1250    0.0000 N   0  0  0  0  0  0           0  0  0
    3.9875   -4.7792    0.0000 N   0  0  0  0  0  0           0  0  0
    7.8917   -9.5042    0.0000 N   0  0  0  0  0  0           0  0  0
    6.5667   -9.3917    0.0000 N   0  0  0  0  0  0           0  0  0
    6.8917   -8.6167    0.0000 N   0  0  0  0  0  0           0  0  0
    5.4167   -4.7792    0.0000 N   0  0  3  0  0  0           0  0  0
    8.2625   -8.0792    0.0000 C   0  0  0  0  0  0           0  0  0
    5.4167   -3.1167    0.0000 C   0  0  0  0  0  0           0  0  0
    3.2750   -3.5375    0.0000 N   0  0  0  0  0  0           0  0  0
    8.2625   -7.2500    0.0000 C   0  0  0  0  0  0           0  0  0
    3.2750   -4.3667    0.0000 C   0  0  0  0  0  0           0  0  0
    7.5542   -6.8417    0.0000 C   0  0  0  0  0  0           0  0  0
    5.4125   -5.6042    0.0000 C   0  0  0  0  0  0           0  0  0
    5.4125   -2.2917    0.0000 O   0  0  0  0  0  0           0  0  0
    7.5500   -6.0125    0.0000 C   0  0  0  0  0  0           0  0  0
    6.8375   -7.2542    0.0000 C   0  0  0  0  0  0           0  0  0
    6.1292   -6.0167    0.0000 C   0  0  0  0  0  0           0  0  0
    6.1292   -3.5292    0.0000 O   0  0  0  0  0  0           0  0  0
    6.8375   -5.6042    0.0000 C   0  0  0  0  0  0           0  0  0
    6.1250   -6.8417    0.0000 C   0  0  0  0  0  0           0  0  0
    6.1250   -4.3667    0.0000 C   0  0  0  0  0  0           0  0  0
    8.9750   -8.4917    0.0000 C   0  0  0  0  0  0           0  0  0
    8.9750   -6.8417    0.0000 C   0  0  0  0  0  0           0  0  0
    2.5542   -4.7792    0.0000 C   0  0  0  0  0  0           0  0  0
    6.8292   -4.7792    0.0000 C   0  0  0  0  0  0           0  0  0
    9.6917   -8.0792    0.0000 C   0  0  0  0  0  0           0  0  0
    9.6875   -7.2500    0.0000 C   0  0  0  0  0  0           0  0  0
    7.5417   -4.3667    0.0000 C   0  0  0  0  0  0           0  0  0
  2  1  1  0     0  0
  3 11  1  0     0  0
  4  7  2  0     0  0
  5  2  2  0     0  0
  6  1  2  0     0  0
  7  3  1  0     0  0
  8  9  1  0     0  0
  9  3  2  0     0  0
 10  1  1  0     0  0
 11 14  2  0     0  0
 12  2  1  0     0  0
 13 15  2  0     0  0
 14 16  1  0     0  0
 15  6  1  0     0  0
 16 20  2  0     0  0
 17 10  1  0     0  0
 18 12  2  0     0  0
 19 23  2  0     0  0
 20 24  1  0     0  0
 21 17  1  0     0  0
 22 12  1  0     0  0
 23 21  1  0     0  0
 24 21  2  0     0  0
 25 10  1  0     0  0
 26 11  1  0     0  0
 27 14  1  0     0  0
 28 15  1  0     0  0
 29 25  1  0     0  0
 30 31  1  0     0  0
 31 27  2  0     0  0
 32 29  1  0     0  0
 13  5  1  0     0  0
 16 19  1  0     0  0
 30 26  2  0     0  0
  4  8  1  0     0  0
M  END