
  SciTegic09081514172D

 40 43  0  0  0  0            999 V2000
   -3.6378    0.9001    0.0000 O   0  0
   -2.5988    1.5004    0.0000 P   0  0
   -3.6383    2.0999    0.0000 O   0  0
   11.0322  -10.5125    0.0000 O   0  0
   11.1356   -9.3169    0.0000 P   0  0
   12.1192  -10.0044    0.0000 O   0  0
    1.8372   -5.2877    0.0000 C   0  0
    1.3786   -3.8595    0.0000 C   0  0
    2.5951   -3.0039    0.0000 C   0  0
    3.8056   -3.8679    0.0000 N   0  0
    3.3372   -5.2929    0.0000 C   0  0
    1.1285   -6.2561    0.0000 Cl  0  0
    4.0391   -6.2662    0.0000 Cl  0  0
    2.5973   -1.5031    0.0000 C   0  0
    1.2990   -0.7500    0.0000 C   0  0
    3.6375   -0.9049    0.0000 O   0  0
    1.2990    0.7500    0.0000 C   0  0
    0.0000    1.5000    0.0000 C   0  0
   -1.2990    0.7500    0.0000 C   0  0
   -1.2990   -0.7500    0.0000 C   0  0
    0.0000   -1.5000    0.0000 C   0  0
    5.2318   -3.4007    0.0000 C   0  0
    5.7843   -2.0252    0.0000 C   0  0
    7.2795   -2.1454    0.0000 C   0  0
    7.6272   -3.6045    0.0000 N   0  0
    6.3470   -4.3862    0.0000 C   0  0
    8.0603   -1.2342    0.0000 Cl  0  0
    5.1526   -1.0049    0.0000 Cl  0  0
    6.2164   -5.8786    0.0000 C   0  0
    7.4452   -6.7403    0.0000 C   0  0
    5.1286   -6.3853    0.0000 O   0  0
    8.8039   -6.1046    0.0000 C   0  0
    9.9050   -8.4578    0.0000 C   0  0
    8.5464   -9.0935    0.0000 C   0  0
    7.3165   -8.2348    0.0000 C   0  0
    6.2297   -8.7435    0.0000 O   0  0
    2.3383    1.3500    0.0000 O   0  0
   10.0337   -6.9633    0.0000 C   0  0
   12.2228   -8.8090    0.0000 O   0  0
   -2.5996    2.7004    0.0000 O   0  0
  2  1  1  0
  3  2  1  0
  5  4  1  0
  6  5  1  0
  7  8  1  0
  8  9  2  0
  9 10  1  0
 10 11  1  0
 11  7  2  0
  7 12  1  0
 11 13  1  0
  9 14  1  0
 14 15  1  0
 14 16  2  0
 15 17  2  0
 17 18  1  0
 18 19  2  0
 19 20  1  0
 20 21  2  0
 21 15  1  0
 22 23  1  0
 23 24  2  0
 24 25  1  0
 25 26  1  0
 26 22  2  0
 10 22  1  0
 24 27  1  0
 23 28  1  0
 26 29  1  0
 29 30  1  0
 29 31  2  0
 30 32  2  0
 32 38  1  0
 38 33  2  0
 33 34  1  0
 34 35  2  0
 35 30  1  0
 35 36  1  0
 17 37  1  0
 33  5  1  0
 19  2  1  0
  5 39  2  0
  2 40  2  0
M  END