
  SciTegic12011114592D

 34 38  0  0  0  0            999 V2000
   18.0102   -5.2837    0.0000 N   0  0
   18.7255   -4.8739    0.0000 C   0  0
   18.7284   -4.0479    0.0000 N   0  0
   18.0100   -3.6335    0.0000 C   0  0
   18.0095   -2.8084    0.0000 N   0  0
   18.7242   -2.3952    0.0000 C   0  0
   19.4386   -5.2889    0.0000 S   0  0
   20.1545   -4.8788    0.0000 C   0  0
   20.8635   -5.2969    0.0000 C   0  0
   21.5790   -4.8874    0.0000 C   0  0
   21.5822   -4.0615    0.0000 C   0  0
   20.8641   -3.6467    0.0000 C   0  0
   20.1515   -4.0584    0.0000 C   0  0
   22.2977   -3.6505    0.0000 N   0  0
   19.5100   -2.6434    0.0000 C   0  0
   19.9891   -1.9716    0.0000 C   0  0
   19.4984   -1.3084    0.0000 N   0  0
   18.7159   -1.5702    0.0000 N   0  0
   20.8142   -1.9644    0.0000 C   0  0
   16.5232   -3.7943    0.0000 C   0  0
   16.0421   -4.4556    0.0000 C   0  0
   16.5224   -5.1173    0.0000 C   0  0
   17.3002   -4.8652    0.0000 N   0  0
   17.3008   -4.0474    0.0000 C   0  0
   23.0114   -4.0644    0.0000 C   0  0
   23.7268   -3.6534    0.0000 C   0  0
   24.4405   -4.0679    0.0000 N   0  0
   23.0097   -4.8895    0.0000 O   0  0
   24.4318   -4.8884    0.0000 C   0  0
   25.2138   -5.1518    0.0000 C   0  0  1  0  0  0
   25.7059   -4.4896    0.0000 C   0  0  2  0  0  0
   25.2282   -3.8170    0.0000 C   0  0
   26.5310   -4.4985    0.0000 O   0  0
   25.4602   -5.9393    0.0000 F   0  0
  2  7  1  0
  7  8  1  0
  6 15  1  0
 16 17  1  0
 18  6  2  0
  3  4  2  0
 16 19  1  0
 23 24  1  0
  8  9  2  0
  4 24  1  0
 21 22  2  0
  9 10  1  0
  1  2  2  0
 10 11  2  0
 20 21  1  0
 22 23  1  0
 24 20  2  0
  4  5  1  0
 14 25  1  0
 11 12  1  0
 25 26  1  0
 23  1  1  0
 26 27  1  0
 12 13  2  0
 25 28  2  0
 27 29  1  0
 13  8  1  0
  5  6  1  0
 11 14  1  0
 17 18  1  0
 29 30  1  0
 30 31  1  0
 31 32  1  0
 32 27  1  0
  2  3  1  0
 31 33  1  6
 15 16  2  0
 30 34  1  1
M  END