
  SciTegic03291108572D

 16 17  0  0  0  0            999 V2000
    0.4088   -5.1333    0.0000 Cl  0  0
    1.3717    0.7546    0.0000 S   0  0
    1.2662   -1.4512    0.0000 S   0  0
    0.2918   -0.0300    0.0000 N   0  0
    0.0369    0.7546    0.0000 N   0  0
    0.7043    2.0645    0.0000 N   0  0
    1.1168   -0.0300    0.0000 C   0  0
    0.7043    1.2395    0.0000 C   0  0
    1.6017   -0.6975    0.0000 C   0  0
    1.4155   -2.8723    0.0000 C   0  0
    1.7511   -2.1186    0.0000 C   0  0
    1.9004   -3.5397    0.0000 C   0  0
    0.5950   -2.9585    0.0000 C   0  0
    0.7444   -4.3796    0.0000 C   0  0
    1.5649   -4.2934    0.0000 C   0  0
    0.2595   -3.7122    0.0000 C   0  0
  1 14  1  0
  2  7  1  0
  2  8  1  0
  3  9  1  0
  3 11  1  0
  4  5  1  0
  4  7  2  0
  5  8  2  0
  6  8  1  0
  7  9  1  0
 10 11  1  0
 10 12  2  0
 10 13  1  0
 12 15  1  0
 13 16  2  0
 14 15  2  0
 14 16  1  0
M  END