
  SciTegic12011114592D

 38 43  0  0  0  0            999 V2000
    6.3692   -5.5059    0.0000 C   0  0
    6.0010   -4.7676    0.0000 N   0  0
    6.4848   -4.1029    0.0000 C   0  0
    6.0029   -3.4332    0.0000 C   0  0
    5.2169   -3.6846    0.0000 C   0  0
    5.2134   -4.5097    0.0000 C   0  0
   10.4003   -5.6209    0.0000 N   0  0
   11.1155   -5.2111    0.0000 C   0  0
   11.1183   -4.3852    0.0000 N   0  0
   10.4001   -3.9708    0.0000 C   0  0
   10.3996   -3.1457    0.0000 N   0  0
   11.1142   -2.7326    0.0000 C   0  0
   11.8286   -5.6261    0.0000 S   0  0
   12.5445   -5.2160    0.0000 C   0  0
   13.2535   -5.6341    0.0000 C   0  0
   13.9688   -5.2246    0.0000 C   0  0
   13.9721   -4.3988    0.0000 C   0  0
   13.2540   -3.9840    0.0000 C   0  0
   12.5415   -4.3957    0.0000 C   0  0
   14.6875   -3.9878    0.0000 N   0  0
   15.4011   -4.4017    0.0000 C   0  0
   16.1166   -3.9907    0.0000 C   0  0
   15.3994   -5.2267    0.0000 O   0  0
   16.9383   -3.9892    0.0000 C   0  0
   16.5273   -3.2738    0.0000 C   0  0
   11.9000   -2.9808    0.0000 C   0  0
   12.3791   -2.3091    0.0000 C   0  0
   11.8883   -1.6458    0.0000 N   0  0
   11.1059   -1.9076    0.0000 N   0  0
   13.2041   -2.3019    0.0000 C   0  0
    8.9134   -4.1316    0.0000 C   0  0
    8.4323   -4.7928    0.0000 C   0  0
    8.9125   -5.4546    0.0000 C   0  0
    9.6903   -5.2024    0.0000 N   0  0
    9.6909   -4.3847    0.0000 C   0  0
    7.6072   -4.7922    0.0000 N   0  0
    7.1943   -5.5065    0.0000 C   0  0
    7.6063   -6.2212    0.0000 O   0  0
  8  9  1  0
 18 19  2  0
 19 14  1  0
  3  4  1  0
 17 20  1  0
  9 10  2  0
 20 21  1  0
 10 35  1  0
 21 22  1  0
  4  5  1  0
 21 23  2  0
 24 22  1  0
 25 24  1  0
 22 25  1  0
 10 11  1  0
  5  6  1  0
 28 29  1  0
 11 12  1  0
 26 27  2  0
  6  2  1  0
  8 13  1  0
  1  2  1  0
 12 26  1  0
 27 28  1  0
 29 12  2  0
 13 14  1  0
 27 30  1  0
 34 35  1  0
 34  7  1  0
 14 15  2  0
 32 33  2  0
  2  3  1  0
 15 16  1  0
  7  8  2  0
 31 32  1  0
 33 34  1  0
 35 31  2  0
 16 17  2  0
 32 36  1  0
 36 37  1  0
 37  1  1  0
 17 18  1  0
 37 38  2  0
M  END