
  SciTegic01161211252D

 40 40  0  0  0  0            999 V2000
   -1.0958    0.9458    0.0000 C   0  0  1  0  0  0
   -1.8083    1.3583    0.0000 C   0  0
    1.0667    1.3583    0.0000 C   0  0  1  0  0  0
    1.7792    0.9458    0.0000 C   0  0
   -0.3708    1.3583    0.0000 C   0  0  1  0  0  0
   -2.5208    0.9458    0.0000 N   0  0
    2.5042    1.3583    0.0000 N   0  0
    0.3417    0.9458    0.0000 C   0  0  1  0  0  0
   -3.2458    1.3583    0.0000 C   0  0
    3.2167    0.9458    0.0000 C   0  0
   -1.0958    0.1083    0.0000 O   0  0
    0.1167   -3.4417    0.0000 C   0  0
    0.5292   -4.1542    0.0000 C   0  0
    3.9417    1.3583    0.0000 C   0  0  2  0  0  0
   -3.9583    0.9458    0.0000 C   0  0  2  0  0  0
    1.0667    2.1875    0.0000 O   0  0
    0.5292   -2.7292    0.0000 C   0  0
   -1.8083    2.1875    0.0000 O   0  0
    1.7792    0.1083    0.0000 O   0  0
    3.2167    0.1083    0.0000 O   0  0
   -3.2458    2.1750    0.0000 O   0  0
    1.3542   -4.1542    0.0000 O   0  0
   -0.3708    2.1875    0.0000 O   0  0
    0.3417    0.1083    0.0000 O   0  0
   -0.6833   -0.5917    0.0000 C   0  0
    0.1250   -2.0042    0.0000 C   0  0
    3.9417    2.1875    0.0000 C   0  0
   -3.9583    0.1083    0.0000 C   0  0
    0.1167   -4.8667    0.0000 O   0  0
    0.1292   -0.5917    0.0000 C   0  0
   -1.0958   -1.2917    0.0000 C   0  0
   -0.6958   -2.0042    0.0000 C   0  0
    0.5375   -1.3042    0.0000 C   0  0
   -4.6833    1.3583    0.0000 C   0  0
    4.6542    0.9458    0.0000 C   0  0
   -4.6833   -0.3042    0.0000 C   0  0
   -3.2458   -0.3042    0.0000 C   0  0
    3.2167    2.6000    0.0000 C   0  0
    4.6542    2.6000    0.0000 C   0  0
   -0.7083   -4.8667    0.0000 C   0  0
  2  1  1  0
  3  8  1  0
  4  3  1  0
  5  1  1  0
  6  2  1  0
  7  4  1  0
  8  5  1  0
  9  6  1  0
 10  7  1  0
  1 11  1  1
 12 17  2  0
 13 12  1  0
 14 10  1  0
 15  9  1  0
  3 16  1  1
 17 26  1  0
 18  2  2  0
 19  4  2  0
 20 10  2  0
 21  9  2  0
 22 13  2  0
  5 23  1  6
  8 24  1  6
 25 11  1  0
 26 32  2  0
 14 27  1  6
 15 28  1  6
 29 13  1  0
 30 25  1  0
 31 25  2  0
 32 31  1  0
 33 30  2  0
 34 15  1  0
 35 14  1  0
 36 28  1  0
 37 28  1  0
 38 27  1  0
 39 27  1  0
 40 29  1  0
 33 26  1  0
M  END