
  SciTegic02271515152D

 29 31  0  0  0  0            999 V2000
    4.1877   -7.0658    0.0000 C   0  0
    4.1866   -7.8853    0.0000 C   0  0
    4.8946   -8.2943    0.0000 C   0  0
    5.6043   -7.8848    0.0000 C   0  0
    5.6015   -7.0622    0.0000 C   0  0
    4.8928   -6.6569    0.0000 C   0  0
    3.4799   -6.6574    0.0000 C   0  0
    2.7723   -7.0661    0.0000 N   0  0
    6.3086   -8.2904    0.0000 C   0  0
    6.3953   -9.1030    0.0000 C   0  0
    7.1950   -9.2716    0.0000 N   0  0
    7.6025   -8.5632    0.0000 C   0  0
    7.0546   -7.9569    0.0000 S   0  0
    2.0645   -6.6577    0.0000 C   0  0
    1.3569   -7.0665    0.0000 O   0  0
    2.0643   -5.8405    0.0000 C   0  0  2  0  0  0
    2.7307   -5.3611    0.0000 C   0  0
    2.4780   -4.5839    0.0000 C   0  0  2  0  0  0
    1.6607   -4.5841    0.0000 C   0  0
    1.4085   -5.3614    0.0000 N   0  0
    0.6310   -5.6130    0.0000 C   0  0
    0.0244   -5.0656    0.0000 C   0  0
    0.4602   -6.4122    0.0000 O   0  0
   -0.7575   -5.3172    0.0000 C   0  0
    2.9582   -3.9227    0.0000 O   0  0
   -1.3642   -4.7697    0.0000 C   0  0
   -0.9251   -6.1163    0.0000 C   0  0
   -1.5477   -5.5264    0.0000 C   0  0
    5.7889   -9.6507    0.0000 C   0  0
  1  2  2  0
  2  3  1  0
  3  4  2  0
  4  5  1  0
  5  6  2  0
  6  1  1  0
  1  7  1  0
  7  8  1  0
  9 10  2  0
 10 11  1  0
 11 12  2  0
 12 13  1  0
 13  9  1  0
  4  9  1  0
  8 14  1  0
 14 15  2  0
 16 14  1  1
 16 17  1  0
 17 18  1  0
 18 19  1  0
 19 20  1  0
 20 16  1  0
 20 21  1  0
 21 22  1  0
 21 23  2  0
 22 24  1  0
 18 25  1  6
 24 26  1  0
 24 27  1  0
 24 28  1  0
 10 29  1  0
M  END