
  Mrv0541 04051115152D          

 36 40  0  0  0  0            999 V2000
   -1.6924   -1.1078    0.0000 C   0  0  0  0  0  0  0  0  0  0  0  0
   -0.2634   -0.2828    0.0000 C   0  0  0  0  0  0  0  0  0  0  0  0
   -0.2634   -1.1078    0.0000 C   0  0  0  0  0  0  0  0  0  0  0  0
   -2.3452   -2.3430    0.0000 C   0  0  0  0  0  0  0  0  0  0  0  0
   -2.9500   -2.9041    0.0000 C   0  0  0  0  0  0  0  0  0  0  0  0
   -3.7657   -2.7812    0.0000 C   0  0  0  0  0  0  0  0  0  0  0  0
   -4.1782   -2.0667    0.0000 N   0  0  0  0  0  0  0  0  0  0  0  0
   -5.0009   -2.1283    0.0000 C   0  0  0  0  0  0  0  0  0  0  0  0
   -3.8768   -1.2987    0.0000 C   0  0  0  0  0  0  0  0  0  0  0  0
   -3.0885   -1.0555    0.0000 C   0  0  0  0  0  0  0  0  0  0  0  0
   -2.4068   -1.5203    0.0000 N   0  0  0  0  0  0  0  0  0  0  0  0
   -1.6924   -0.2828    0.0000 N   0  0  0  0  0  0  0  0  0  0  0  0
   -0.9779   -1.5203    0.0000 N   0  0  0  0  0  0  0  0  0  0  0  0
    0.4510   -1.5203    0.0000 C   0  0  0  0  0  0  0  0  0  0  0  0
    1.1655   -1.1078    0.0000 C   0  0  0  0  0  0  0  0  0  0  0  0
    1.8800   -1.5203    0.0000 O   0  0  0  0  0  0  0  0  0  0  0  0
    2.5945   -1.1078    0.0000 C   0  0  0  0  0  0  0  0  0  0  0  0
    1.1655   -0.2828    0.0000 C   0  0  0  0  0  0  0  0  0  0  0  0
    1.8800    0.1297    0.0000 O   0  0  0  0  0  0  0  0  0  0  0  0
    1.8800    0.9547    0.0000 C   0  0  0  0  0  0  0  0  0  0  0  0
    0.4510    0.1297    0.0000 C   0  0  0  0  0  0  0  0  0  0  0  0
   -0.9779    0.1297    0.0000 C   0  0  0  0  0  0  0  0  0  0  0  0
   -0.9779    0.9547    0.0000 N   0  0  0  0  0  0  0  0  0  0  0  0
   -0.2634    1.3672    0.0000 C   0  0  0  0  0  0  0  0  0  0  0  0
   -0.2634    2.1922    0.0000 C   0  0  0  0  0  0  0  0  0  0  0  0
    0.4510    2.6047    0.0000 C   0  0  0  0  0  0  0  0  0  0  0  0
    0.4510    0.9547    0.0000 C   0  0  0  0  0  0  0  0  0  0  0  0
    1.1655    1.3672    0.0000 C   0  0  0  0  0  0  0  0  0  0  0  0
    1.1655    2.1922    0.0000 N   0  0  0  0  0  0  0  0  0  0  0  0
    1.8800    2.6047    0.0000 C   0  0  0  0  0  0  0  0  0  0  0  0
    2.5945    2.1922    0.0000 C   0  0  0  0  0  0  0  0  0  0  0  0
    3.3089    2.6047    0.0000 C   0  0  0  0  0  0  0  0  0  0  0  0
    4.0234    2.1922    0.0000 C   0  0  0  0  0  0  0  0  0  0  0  0
    4.0234    1.3672    0.0000 C   0  0  0  0  0  0  0  0  0  0  0  0
    3.3089    0.9547    0.0000 C   0  0  0  0  0  0  0  0  0  0  0  0
    2.5945    1.3672    0.0000 C   0  0  0  0  0  0  0  0  0  0  0  0
  1 11  1  0  0  0  0
  1 12  2  0  0  0  0
  1 13  1  0  0  0  0
  3  2  1  0  0  0  0
  2 21  1  0  0  0  0
  2 22  2  0  0  0  0
  3 13  2  0  0  0  0
  3 14  1  0  0  0  0
  4  5  1  0  0  0  0
  4 11  1  0  0  0  0
  5  6  1  0  0  0  0
  6  7  1  0  0  0  0
  8  7  1  0  0  0  0
  9  7  1  0  0  0  0
  9 10  1  0  0  0  0
 10 11  1  0  0  0  0
 22 12  1  0  0  0  0
 14 15  2  0  0  0  0
 15 16  1  0  0  0  0
 15 18  1  0  0  0  0
 17 16  1  0  0  0  0
 18 19  1  0  0  0  0
 18 21  2  0  0  0  0
 20 19  1  0  0  0  0
 22 23  1  0  0  0  0
 24 23  1  0  0  0  0
 24 25  1  0  0  0  0
 24 27  1  0  0  0  0
 26 25  1  0  0  0  0
 26 29  1  0  0  0  0
 27 28  1  0  0  0  0
 28 29  1  0  0  0  0
 30 29  1  0  0  0  0
 30 31  1  0  0  0  0
 31 32  2  0  0  0  0
 31 36  1  0  0  0  0
 32 33  1  0  0  0  0
 33 34  2  0  0  0  0
 34 35  1  0  0  0  0
 35 36  2  0  0  0  0
M  END