
  CDK    9/16/09,9:52

 32 36  0  0  0  0  0  0  0  0999 V2000
   -5.0087   -4.0711    0.0000 C   0  0  0  0  0  0  0  0  0  0  0  0
   -5.0087   -4.8962    0.0000 C   0  0  0  0  0  0  0  0  0  0  0  0
   -4.2967   -5.3046    0.0000 C   0  0  0  0  0  0  0  0  0  0  0  0
   -4.2967   -3.6545    0.0000 C   0  0  0  0  0  0  0  0  0  0  0  0
   -3.5846   -4.0711    0.0000 C   0  0  0  0  0  0  0  0  0  0  0  0
   -3.5881   -4.8962    0.0000 C   0  0  0  0  0  0  0  0  0  0  0  0
   -2.8792   -5.3095    0.0000 C   0  0  0  0  0  0  0  0  0  0  0  0
   -2.1624   -4.9023    0.0000 N   0  0  0  0  0  0  0  0  0  0  0  0
   -2.1589   -4.0772    0.0000 N   0  0  0  0  0  0  0  0  0  0  0  0
   -2.8722   -3.6594    0.0000 C   0  0  0  0  0  0  0  0  0  0  0  0
   -2.8699   -2.8343    0.0000 O   0  0  0  0  0  0  0  0  0  0  0  0
   -2.8839   -6.1345    0.0000 C   0  0  0  0  0  0  0  0  0  0  0  0
   -2.1717   -6.5511    0.0000 C   0  0  0  0  0  0  0  0  0  0  0  0
   -2.1785   -7.3767    0.0000 C   0  0  0  0  0  0  0  0  0  0  0  0
   -1.4671   -7.7932    0.0000 C   0  0  0  0  0  0  0  0  0  0  0  0
   -0.7493   -7.3846    0.0000 C   0  0  0  0  0  0  0  0  0  0  0  0
   -0.7473   -6.5552    0.0000 C   0  0  0  0  0  0  0  0  0  0  0  0
   -1.4592   -6.1425    0.0000 C   0  0  0  0  0  0  0  0  0  0  0  0
   -0.0318   -6.1442    0.0000 C   0  0  0  0  0  0  0  0  0  0  0  0
    0.6819   -6.5582    0.0000 N   0  0  0  0  0  0  0  0  0  0  0  0
   -0.0301   -5.3191    0.0000 O   0  0  0  0  0  0  0  0  0  0  0  0
    0.6753   -7.3849    0.0000 C   0  0  0  0  0  0  0  0  0  0  0  0
    1.3848   -7.7989    0.0000 C   0  0  0  0  0  0  0  0  0  0  0  0
    2.1027   -7.3914    0.0000 N   0  0  0  0  0  0  0  0  0  0  0  0
    2.1064   -6.5653    0.0000 C   0  0  0  0  0  0  0  0  0  0  0  0
    1.3922   -6.1468    0.0000 C   0  0  0  0  0  0  0  0  0  0  0  0
   -0.0365   -7.8002    0.0000 F   0  0  0  0  0  0  0  0  0  0  0  0
    2.8147   -7.8082    0.0000 C   0  0  0  0  0  0  0  0  0  0  0  0
    2.8098   -8.6331    0.0000 O   0  0  0  0  0  0  0  0  0  0  0  0
    3.5317   -7.3998    0.0000 C   0  0  0  0  0  0  0  0  0  0  0  0
    4.3544   -7.4009    0.0000 C   0  0  0  0  0  0  0  0  0  0  0  0
    3.9460   -6.6841    0.0000 C   0  0  0  0  0  0  0  0  0  0  0  0
  3  6  2  0  0  0  0 
 15 16  2  0  0  0  0 
  5  4  2  0  0  0  0 
 16 17  1  0  0  0  0 
  5 10  1  0  0  0  0 
 17 18  2  0  0  0  0 
 18 13  1  0  0  0  0 
  6  7  1  0  0  0  0 
 17 19  1  0  0  0  0 
  7  8  2  0  0  0  0 
 19 20  1  0  0  0  0 
  8  9  1  0  0  0  0 
 19 21  2  0  0  0  0 
 20 22  1  0  0  0  0 
  9 10  1  0  0  0  0 
  5  6  1  0  0  0  0 
 10 11  2  0  0  0  0 
  7 12  1  0  0  0  0 
 20 26  1  0  0  0  0 
 22 23  1  0  0  0  0 
 23 24  1  0  0  0  0 
 24 25  1  0  0  0  0 
 25 26  1  0  0  0  0 
  1  2  2  0  0  0  0 
 16 27  1  0  0  0  0 
 12 13  1  0  0  0  0 
 24 28  1  0  0  0  0 
  1  4  1  0  0  0  0 
 28 29  2  0  0  0  0 
 13 14  2  0  0  0  0 
 28 30  1  0  0  0  0 
 31 30  1  0  0  0  0 
 32 31  1  0  0  0  0 
 30 32  1  0  0  0  0 
  2  3  1  0  0  0  0 
 14 15  1  0  0  0  0 
M  END