
  SciTegic01181116592D

  9  9  0  0  0  0            999 V2000
    6.0200  -18.2966    0.0000 C   0  0
    5.6014  -19.0075    0.0000 C   0  0
    4.7771  -18.9968    0.0000 C   0  0
    4.3586  -19.7070    0.0000 C   0  0
    4.7651  -20.4261    0.0000 C   0  0
    5.5945  -20.4304    0.0000 N   0  0
    6.0092  -19.7196    0.0000 C   0  0
    5.6135  -17.5785    0.0000 C   0  0
    4.7885  -17.5716    0.0000 N   0  0
  4  5  2  0
  2  3  2  0
  5  6  1  0
  1  2  1  0
  6  7  2  0
  7  2  1  0
  3  4  1  0
  1  8  1  0
  8  9  1  0
M  END