
  SciTegic07291412072D

 60 66  0  0  0  0            999 V2000
   -1.4167   -7.8810    0.0000 N   0  0
    3.3412   -3.4724    0.0000 N   0  0
   -0.5918   -7.8909    0.0000 C   0  0
   -1.3995   -6.4521    0.0000 C   0  0
    2.3386   -4.3536    0.0000 C   0  0
    3.1600   -4.2772    0.0000 C   0  0
   -0.5746   -6.4620    0.0000 N   0  0
   -0.1707   -7.1814    0.0000 C   0  0  1  0  0  0
   -1.8206   -7.1616    0.0000 C   0  0  2  0  0  0
    2.6318   -3.0513    0.0000 C   0  0
    4.5369   -7.3306    0.0000 C   0  0
    2.0121   -3.5959    0.0000 C   0  0
    3.1463   -5.7923    0.0000 C   0  0
    4.3751   -6.5217    0.0000 C   0  0  1  0  0  0
    3.5501   -6.5117    0.0000 N   0  0
    0.6543   -7.1914    0.0000 C   0  0
    4.0989   -3.1459    0.0000 C   0  0
    5.3184   -7.5950    0.0000 N   0  0
    1.0753   -6.4819    0.0000 C   0  0
    2.3213   -5.7824    0.0000 C   0  0  1  0  0  0
    1.9175   -5.0630    0.0000 C   0  0
    1.9003   -6.4919    0.0000 N   0  0
   -2.2358   -7.7823    0.0000 C   0  0
   -1.8034   -5.7327    0.0000 O   0  0
   -0.1879   -8.6103    0.0000 O   0  0
   -2.6027   -7.1147    0.0000 C   0  0
    5.4802   -8.4040    0.0000 C   0  0
    4.9948   -5.9771    0.0000 C   0  0
    3.9172   -7.8753    0.0000 O   0  0
    3.5674   -5.0829    0.0000 O   0  0
    4.8804   -3.4103    0.0000 O   0  0
    0.6715   -5.7625    0.0000 O   0  0
   -2.4238   -6.7514    0.0000 C   0  0
   -2.9231   -8.3830    0.0000 C   0  0
   -3.2585   -7.6977    0.0000 C   0  0
   -2.8438   -6.2508    0.0000 C   0  0
    6.2617   -8.6684    0.0000 C   0  0
    4.8330   -5.1681    0.0000 C   0  0
    2.4700   -2.2423    0.0000 C   0  0
    5.9381   -7.0504    0.0000 C   0  0
    1.2306   -3.3315    0.0000 C   0  0
    4.1950   -2.3265    0.0000 C   0  0
    6.4235   -9.4773    0.0000 C   0  0
    5.4527   -4.6235    0.0000 C   0  0
    4.0515   -4.9037    0.0000 C   0  0
    6.8814   -8.1238    0.0000 C   0  0
    4.9527   -2.0001    0.0000 C   0  0
    6.6602    0.2916    0.0000 C   0  0
    5.9026   -0.0349    0.0000 C   0  0
    5.0488   -1.1807    0.0000 C   0  0
    5.8065   -0.8542    0.0000 C   0  0
    1.6885   -1.9779    0.0000 C   0  0
    1.0688   -2.5226    0.0000 C   0  0
    6.7563    1.1110    0.0000 C   0  0
    7.2050   -9.7417    0.0000 C   0  0
    7.6629   -8.3881    0.0000 C   0  0
    5.2909   -3.8145    0.0000 C   0  0
    3.8897   -4.0947    0.0000 C   0  0
    4.5094   -3.5501    0.0000 C   0  0
    7.8247   -9.1971    0.0000 C   0  0
  2  6  1  0
  3  1  1  0
  9  4  1  1
  5 21  1  0
  6  5  2  0
  7  4  1  0
  8  3  1  0
  9  1  1  0
 10 12  2  0
 11 14  1  0
 12  5  1  0
 13 20  1  0
 14 15  1  0
 15 13  1  0
 16  8  1  0
 17  2  1  0
 18 11  1  0
 19 16  1  0
 20 22  1  0
 20 21  1  6
 22 19  1  0
 23  1  1  0
 24  4  2  0
 25  3  2  0
 26  9  1  0
 27 18  1  0
 14 28  1  1
 29 11  2  0
 30 13  2  0
 31 17  2  0
 32 19  2  0
 33 23  1  0
 34 23  1  0
 35 34  1  0
 36 33  1  0
 37 27  1  0
 38 28  1  0
 39 10  1  0
 40 18  1  0
 41 12  1  0
 42 17  1  0
 43 37  1  0
 44 38  2  0
 45 38  1  0
 46 37  2  0
 47 42  1  0
 48 49  1  0
 49 51  1  0
 50 47  1  0
 51 50  1  0
 52 53  1  0
 53 41  2  0
 54 48  1  0
 55 43  2  0
 56 46  1  0
 57 44  1  0
 58 45  2  0
 59 58  1  0
 60 56  2  0
  8  7  1  1
 35 26  1  0
 36 26  1  0
  2 10  1  0
 52 39  2  0
 59 57  2  0
 55 60  1  0
M  END