
          11280715022D 1   1.00000     0.00000     0

 33 36  0     0  0            999 V2000
    0.4292   -0.8625    0.0000 C   0  0  0  0  0  0           0  0  0
    1.8542   -0.8625    0.0000 N   0  0  3  0  0  0           0  0  0
    1.1417   -1.2750    0.0000 C   0  0  0  0  0  0           0  0  0
    7.5750   -0.0292    0.0000 C   0  0  0  0  0  0           0  0  0
    3.2875   -0.0292    0.0000 N   0  0  3  0  0  0           0  0  0
    8.2875    0.3833    0.0000 C   0  0  0  0  0  0           0  0  0
   -0.2833   -1.2750    0.0000 C   0  0  0  0  0  0           0  0  0
    9.7042    1.2083    0.0000 C   0  0  0  0  0  0           0  0  0
    1.8542   -0.0292    0.0000 C   0  0  0  0  0  0           0  0  0
    2.5750   -1.2667    0.0000 C   0  0  0  0  0  0           0  0  0
    7.5792   -0.8542    0.0000 O   0  0  0  0  0  0           0  0  0
    9.0000   -0.0292    0.0000 C   0  0  0  0  0  0           0  0  0
    8.2792    1.2083    0.0000 C   0  0  0  0  0  0           0  0  0
    8.9875    1.6208    0.0000 C   0  0  0  0  0  0           0  0  0
    9.7125    0.3833    0.0000 C   0  0  0  0  0  0           0  0  0
    0.4250   -0.0292    0.0000 Cl  0  0  0  0  0  0           0  0  0
    6.8542    0.3750    0.0000 N   0  0  0  0  0  0           0  0  0
   10.4167    1.6250    0.0000 C   0  0  0  0  0  0           0  0  0
    3.2875   -0.8625    0.0000 C   0  0  0  0  0  0           0  0  0
    2.5667    0.3750    0.0000 C   0  0  0  0  0  0           0  0  0
   -1.0000   -0.8625    0.0000 Cl  0  0  0  0  0  0           0  0  0
    1.1417   -2.1042    0.0000 C   0  0  0  0  0  0           0  0  0
    4.0000    0.3750    0.0000 C   0  0  0  0  0  0           0  0  0
    0.4292   -2.5167    0.0000 C   0  0  0  0  0  0           0  0  0
   -0.2833   -2.1042    0.0000 C   0  0  0  0  0  0           0  0  0
    6.1417   -0.0292    0.0000 C   0  0  0  0  0  0           0  0  0
   11.1375    1.2208    0.0000 C   0  0  0  0  0  0           0  0  0
   10.4167    2.4583    0.0000 C   0  0  0  0  0  0           0  0  0
    4.7167   -0.0292    0.0000 C   0  0  0  0  0  0           0  0  0
    5.4292    0.3750    0.0000 C   0  0  0  0  0  0           0  0  0
   11.1250    2.8708    0.0000 C   0  0  0  0  0  0           0  0  0
   11.8500    1.6333    0.0000 C   0  0  0  0  0  0           0  0  0
   11.8417    2.4583    0.0000 C   0  0  0  0  0  0           0  0  0
  2  3  1  0     0  0
  3  1  2  0     0  0
  4 17  1  0     0  0
  5 19  1  0     0  0
  6  4  1  0     0  0
  7  1  1  0     0  0
  8 14  1  0     0  0
  9  2  1  0     0  0
 10  2  1  0     0  0
 11  4  2  0     0  0
 12  6  2  0     0  0
 13  6  1  0     0  0
 14 13  2  0     0  0
 15 12  1  0     0  0
 16  1  1  0     0  0
 17 26  1  0     0  0
 18  8  1  0     0  0
 19 10  1  0     0  0
 20  9  1  0     0  0
 21  7  1  0     0  0
 22  3  1  0     0  0
 23  5  1  0     0  0
 24 25  1  0     0  0
 25  7  2  0     0  0
 26 30  1  0     0  0
 27 18  2  0     0  0
 28 18  1  0     0  0
 29 23  1  0     0  0
 30 29  1  0     0  0
 31 28  2  0     0  0
 32 27  1  0     0  0
 33 31  1  0     0  0
 22 24  2  0     0  0
 20  5  1  0     0  0
  8 15  2  0     0  0
 33 32  2  0     0  0
M  END