
  SciTegic10311217562D

 26 27  0  0  0  0            999 V2000
   -2.9598    1.7209    0.0000 C   0  0
   -2.9609    0.8935    0.0000 C   0  0
   -2.2461    0.4806    0.0000 C   0  0
   -1.5297    0.8940    0.0000 C   0  0
   -1.5325    1.7245    0.0000 C   0  0
   -2.2479    2.1336    0.0000 C   0  0
   -2.2504    2.9586    0.0000 O   0  0
   -0.8196    2.1397    0.0000 O   0  0
   -0.8145    0.4826    0.0000 O   0  0
   -3.6757    0.4816    0.0000 C   0  0
   -4.3899    0.8946    0.0000 O   0  0
   -3.6764   -0.3434    0.0000 O   0  0
   -5.1047    0.4827    0.0000 C   0  0
   -5.1053   -0.3423    0.0000 C   0  0
   -4.3912   -0.7554    0.0000 O   0  0
   -4.3918   -1.5804    0.0000 C   0  0
   -5.1066   -1.9923    0.0000 O   0  0
   -3.6777   -1.9934    0.0000 C   0  0
   -3.6826   -2.8177    0.0000 C   0  0
   -2.9693   -3.2307    0.0000 C   0  0
   -2.2535   -2.8187    0.0000 C   0  0
   -2.2555   -1.9895    0.0000 C   0  0
   -2.9694   -1.5802    0.0000 C   0  0
   -1.5422   -1.5750    0.0000 O   0  0
   -1.5388   -3.2309    0.0000 O   0  0
   -2.9703   -4.0557    0.0000 O   0  0
 11 13  1  0
  1  2  2  0
 13 14  1  0
  6  7  1  0
 14 15  1  0
  3  4  2  0
 15 16  1  0
  5  8  1  0
 16 17  2  0
 16 18  1  0
  4  9  1  0
 18 19  2  0
  4  5  1  0
 19 20  1  0
  2 10  1  0
 20 21  2  0
  2  3  1  0
 21 22  1  0
 10 11  1  0
 22 23  2  0
 23 18  1  0
  5  6  2  0
 22 24  1  0
 10 12  2  0
 21 25  1  0
  6  1  1  0
 20 26  1  0
M  END