
  SciTegic11201309402D

 25 27  0  0  0  0            999 V2000
    2.0375    1.4256    0.0000 S   0  0
    2.5224    2.0930    0.0000 N   0  0
    1.3700    1.9105    0.0000 O   0  0
    2.7049    0.9406    0.0000 O   0  0
    1.5526    0.7581    0.0000 O   0  0
    0.7321    0.8443    0.0000 C   0  0
    0.2472    0.1769    0.0000 C   0  0  2  0  0  0
   -0.1653   -0.5376    0.0000 C   0  0  2  0  0  0
   -0.9903   -0.5376    0.0000 C   0  0  1  0  0  0
   -1.4028    0.1769    0.0000 C   0  0  1  0  0  0
   -0.9903    0.8914    0.0000 C   0  0
   -0.1653    0.8914    0.0000 O   0  0
   -2.2098    0.0054    0.0000 O   0  0
   -2.2960   -0.8151    0.0000 S   0  0
   -3.1030   -0.6436    0.0000 O   0  0
   -2.5510   -1.5997    0.0000 O   0  0
   -1.5424   -1.1507    0.0000 O   0  0
    0.3867   -1.1507    0.0000 O   0  0
    1.1404   -0.8151    0.0000 C   0  0
    1.3953   -1.5997    0.0000 C   0  0
    1.9473   -0.6436    0.0000 C   0  0
    1.0541    0.0054    0.0000 O   0  0
   -1.9906    0.9859    0.0000 H   0  0
   -0.5836   -1.4512    0.0000 H   0  0
   -0.5721   -1.4511    0.0000 H   0  0
  2  1  1  0
  3  1  2  0
  4  1  2  0
  5  1  1  0
  6  5  1  0
  7  6  1  6
  7  8  1  0
  7 12  1  0
  7 22  1  0
  8  9  1  0
  8 18  1  0
  9 10  1  0
  9 17  1  0
 10 11  1  0
 10 13  1  0
 11 12  1  0
 13 14  1  0
 15 14  2  0
 16 14  2  0
 17 14  1  0
 19 18  1  0
 19 20  1  0
 19 21  1  0
 19 22  1  0
 10 23  1  1
  9 24  1  1
  8 25  1  6
M  END