
          11280715192D 1   1.00000     0.00000     0

 38 40  0     1  0            999 V2000
    5.1167   -3.9417    0.0000 C   0  0  1  0  0  0           0  0  0
    5.8292   -4.3542    0.0000 C   0  0  1  0  0  0           0  0  0
    4.3917   -4.3542    0.0000 C   0  0  2  0  0  0           0  0  0
    5.8292   -5.1750    0.0000 C   0  0  2  0  0  0           0  0  0
    4.3917   -5.1750    0.0000 C   0  0  1  0  0  0           0  0  0
    5.1167   -5.5917    0.0000 C   0  0  2  0  0  0           0  0  0
    5.1167   -3.1042    0.0000 C   0  0  0  0  0  0           0  0  0
    6.5500   -3.9417    0.0000 O   0  0  0  0  0  0           0  0  0
    6.5500   -3.1042    0.0000 C   0  0  2  0  0  0           0  0  0
    5.8375   -6.8417    0.0000 C   0  0  0  0  0  0           0  0  0
    3.6792   -5.5917    0.0000 C   0  0  3  0  0  0           0  0  0
    5.8292   -2.6917    0.0000 C   0  0  0  0  0  0           0  0  0
    7.9750   -9.7250    0.0000 C   0  0  0  0  0  0           0  0  0
    5.1167   -6.4292    0.0000 O   0  0  0  0  0  0           0  0  0
    6.5500   -5.5917    0.0000 O   0  0  0  0  0  0           0  0  0
    3.6792   -3.9417    0.0000 C   0  0  2  0  0  0           0  0  0
    7.2625   -5.1750    0.0000 C   0  0  0  0  0  0           0  0  0
    8.6917  -10.1375    0.0000 S   0  0  0  0  0  0           0  0  0
    7.2667   -9.3167    0.0000 N   0  0  0  0  0  0           0  0  0
    4.3917   -2.6917    0.0000 O   0  0  0  0  0  0           0  0  0
    5.1250   -4.7375    0.0000 O   0  0  0  0  0  0           0  0  0
    7.2917   -3.5542    0.0000 C   0  0  0  0  0  0           0  0  0
    6.5500   -6.4292    0.0000 O   0  0  0  0  0  0           0  0  0
    2.9625   -5.1750    0.0000 C   0  0  0  0  0  0           0  0  0
    7.2625   -4.3375    0.0000 O   0  0  0  0  0  0           0  0  0
    2.9625   -4.3542    0.0000 C   0  0  0  0  0  0           0  0  0
    5.8292   -3.5750    0.0000 C   0  0  0  0  0  0           0  0  0
    5.8375   -7.6667    0.0000 N   0  0  0  0  0  0           0  0  0
    4.3917   -3.5250    0.0000 C   0  0  0  0  0  0           0  0  0
    8.0875   -3.1792    0.0000 C   0  0  0  0  0  0           0  0  0
    3.6792   -3.1042    0.0000 O   0  0  0  0  0  0           0  0  0
    7.2750   -2.6875    0.0000 C   0  0  0  0  0  0           0  0  0
    3.6792   -6.4292    0.0000 C   0  0  0  0  0  0           0  0  0
    3.0542   -6.0500    0.0000 C   0  0  0  0  0  0           0  0  0
    6.5500   -8.9042    0.0000 C   0  0  0  0  0  0           0  0  0
    7.9875   -5.6000    0.0000 C   0  0  0  0  0  0           0  0  0
    6.5500   -8.0792    0.0000 C   0  0  0  0  0  0           0  0  0
    4.3917   -5.9792    0.0000 H   0  0  0  0  0  0           0  0  0
  2  1  1  0     0  0
  3  1  1  0     0  0
  4  2  1  0     0  0
  5  3  1  0     0  0
  6  5  1  0     0  0
  7  1  1  0     0  0
  8  2  1  0     0  0
  9 12  1  0     0  0
 10 14  1  0     0  0
 11  5  1  0     0  0
 12  7  1  0     0  0
 13 19  2  0     0  0
  6 14  1  1     0  0
  4 15  1  1     0  0
 16  3  1  0     0  0
 17 15  1  0     0  0
 18 13  2  0     0  0
 19 35  1  0     0  0
 20  7  2  0     0  0
  1 21  1  6     0  0
  9 22  1  6     0  0
 23 10  2  0     0  0
 24 26  1  0     0  0
 25 17  2  0     0  0
 26 16  1  0     0  0
  2 27  1  1     0  0
 28 10  1  0     0  0
  3 29  1  1     0  0
 30 22  2  0     0  0
 16 31  1  6     0  0
  9 32  1  1     0  0
 11 33  1  0     0  0
 11 34  1  0     0  0
 35 37  1  0     0  0
 36 17  1  0     0  0
 37 28  1  0     0  0
  5 38  1  6     0  0
  9  8  1  0     0  0
  6  4  1  0     0  0
 24 11  1  0     0  0
M  END