
  SciTegic02011310462D

 16 17  0  0  0  0            999 V2000
   12.0596   -4.0196    0.0000 C   0  0
   12.0584   -4.8464    0.0000 C   0  0
   12.7728   -5.2590    0.0000 C   0  0
   13.4887   -4.8460    0.0000 C   0  0
   13.4859   -4.0160    0.0000 C   0  0
   12.7710   -3.6072    0.0000 C   0  0
   11.2790   -3.7587    0.0000 N   0  0
   10.7887   -4.4238    0.0000 C   0  0
   11.2707   -5.0941    0.0000 C   0  0
   14.2034   -5.2571    0.0000 O   0  0
   14.2047   -6.0816    0.0000 C   0  0
    9.9643   -4.4189    0.0000 C   0  0
   10.8784   -3.0381    0.0000 C   0  0
   11.3022   -2.3309    0.0000 C   0  0
   10.9016   -1.6103    0.0000 O   0  0
   12.1265   -2.3444    0.0000 O   0  0
  1  2  2  0
  2  3  1  0
  3  4  2  0
  4  5  1  0
  5  6  2  0
  6  1  1  0
  7  8  1  0
  1  7  1  0
  8  9  2  0
  9  2  1  0
  4 10  1  0
 10 11  1  0
  8 12  1  0
  7 13  1  0
 13 14  1  0
 14 15  2  0
 14 16  1  0
M  END