
  SciTegic01161211222D

 18 20  0  0  0  0            999 V2000
    5.9626   -2.5066    0.0000 C   0  0
    5.9626   -3.3310    0.0000 C   0  0
    5.2514   -3.7432    0.0000 C   0  0
    5.2514   -4.5676    0.0000 O   0  0
    4.5360   -3.3310    0.0000 C   0  0
    3.8248   -3.7432    0.0000 C   0  0
    3.1094   -3.3310    0.0000 C   0  0
    3.1094   -2.5066    0.0000 C   0  0
    3.8248   -2.0943    0.0000 C   0  0
    4.5360   -2.5066    0.0000 C   0  0
    5.2514   -2.0943    0.0000 O   0  0
    6.6779   -2.0943    0.0000 C   0  0
    6.6779   -1.2699    0.0000 C   0  0
    7.3933   -0.8577    0.0000 C   0  0
    8.1087   -1.2699    0.0000 C   0  0
    8.1087   -2.0943    0.0000 C   0  0
    7.3933   -2.5066    0.0000 C   0  0
    2.3941   -2.0943    0.0000 O   0  0
  1  2  2  0
  2  3  1  0
  3  4  2  0
  3  5  1  0
  5  6  1  0
  6  7  2  0
  7  8  1  0
  8  9  2  0
  9 10  1  0
  5 10  2  0
 10 11  1  0
  1 11  1  0
  1 12  1  0
 12 13  1  0
 13 14  2  0
 14 15  1  0
 15 16  2  0
 16 17  1  0
 12 17  2  0
  8 18  1  0
M  END