
  SciTegic12171313032D

 28 30  0  0  0  0            999 V2000
   32.7605  -12.5426    0.0000 C   0  0
   32.7594  -13.3621    0.0000 C   0  0
   33.4674  -13.7711    0.0000 N   0  0
   34.1771  -13.3617    0.0000 C   0  0
   34.1743  -12.5390    0.0000 C   0  0
   33.4656  -12.1337    0.0000 N   0  0
   34.8854  -13.7692    0.0000 N   0  0
   34.8804  -12.1278    0.0000 N   0  0
   34.8773  -11.3106    0.0000 C   0  0  1  0  0  0
   35.5835  -10.8993    0.0000 C   0  0
   34.1681  -10.9046    0.0000 C   0  0
   36.2880  -11.3088    0.0000 C   0  0
   36.9937  -10.8982    0.0000 C   0  0
   36.9911  -10.0801    0.0000 C   0  0
   36.2768   -9.6744    0.0000 C   0  0
   35.5741  -10.0873    0.0000 C   0  0
   32.0548  -12.1344    0.0000 C   0  0
   32.0559  -11.3161    0.0000 C   0  0
   31.3490  -10.9077    0.0000 C   0  0
   30.6404  -11.3165    0.0000 C   0  0
   30.6432  -12.1379    0.0000 C   0  0
   31.3507  -12.5426    0.0000 C   0  0
   29.9351  -12.5470    0.0000 C   0  0
   29.2259  -12.1411    0.0000 O   0  0
   29.9382  -13.3642    0.0000 O   0  0
   32.7640  -10.9080    0.0000 C   0  0
   32.7646  -10.0908    0.0000 C   0  0
   33.4713  -11.3172    0.0000 C   0  0
  1  2  2  0
  2  3  1  0
  3  4  2  0
  4  5  1  0
  5  6  2  0
  6  1  1  0
  4  7  1  0
  5  8  1  0
  8  9  1  0
  9 10  1  0
  9 11  1  6
 10 12  2  0
 12 13  1  0
 13 14  2  0
 14 15  1  0
 15 16  2  0
 16 10  1  0
 17 18  2  0
 18 19  1  0
 19 20  2  0
 20 21  1  0
 21 22  2  0
 22 17  1  0
  1 17  1  0
 23 24  1  0
 23 25  2  0
 21 23  1  0
 18 26  1  0
 26 27  1  0
 26 28  1  0
M  END