
  SciTegic10301317112D

 37 38  0  0  0  0            999 V2000
   -3.4375    1.0583    0.0000 S   0  0
   -0.1458    1.0708    0.0000 C   0  0
    6.7250   -2.9292    0.0000 C   0  0  1  0  0  0
    7.5375   -2.7875    0.0000 C   0  0
    6.1917   -2.2917    0.0000 N   0  0
   -2.6208    1.0583    0.0000 C   0  0
    5.3667   -2.3000    0.0000 C   0  0
    0.2667    0.3583    0.0000 N   0  0
   -3.4458    0.2333    0.0000 O   0  0
   -3.4375    1.8833    0.0000 O   0  0
    1.5125   -0.3500    0.0000 C   0  0
    3.6417   -0.9250    0.0000 C   0  0
   -0.9708    1.0625    0.0000 C   0  0
   -4.2708    1.0625    0.0000 N   0  0
    4.1292   -1.5917    0.0000 N   0  0
    2.3375   -0.3417    0.0000 N   0  0
    6.4375   -3.7000    0.0000 C   0  0
    0.2625    1.7833    0.0000 O   0  0
    7.8250   -2.0125    0.0000 O   0  0
    4.9667   -3.0167    0.0000 O   0  0
    1.1042   -1.0667    0.0000 O   0  0
    3.9792   -0.1667    0.0000 O   0  0
   -2.2125    1.7708    0.0000 C   0  0
   -2.2000    0.3458    0.0000 C   0  0
   -1.3833    0.3458    0.0000 C   0  0
   -1.3958    1.7750    0.0000 C   0  0
    1.0917    0.3625    0.0000 C   0  0
    4.9542   -1.5875    0.0000 C   0  0
    2.8250   -1.0125    0.0000 C   0  0
    6.9667   -4.3375    0.0000 C   0  0
    8.0667   -3.4167    0.0000 O   0  0
    8.0167   -5.6000    0.0000 C   0  0
    8.5417   -6.2292    0.0000 F   0  0
    6.6792   -5.1042    0.0000 C   0  0
    7.7792   -4.1917    0.0000 C   0  0
    8.3042   -4.8250    0.0000 C   0  0
    7.2000   -5.7375    0.0000 C   0  0
  2 13  1  0
  3  5  1  0
  4  3  1  0
  5  7  1  0
  6  1  1  0
  7 28  1  0
  8  2  1  0
  9  1  2  0
 10  1  2  0
 11 27  1  0
 12 29  1  0
 13 25  2  0
 14  1  1  0
 15 12  1  0
 16 11  1  0
  3 17  1  6
 18  2  2  0
 19  4  2  0
 20  7  2  0
 21 11  2  0
 22 12  2  0
 23  6  1  0
 24  6  2  0
 25 24  1  0
 26 23  2  0
 27  8  1  0
 28 15  1  0
 29 16  1  0
 30 17  1  0
 31  4  1  0
 32 36  2  0
 33 32  1  0
 34 30  1  0
 35 30  2  0
 36 35  1  0
 37 34  2  0
 13 26  1  0
 32 37  1  0
M  END