
          08180812472D 1   1.00000     0.00000     0

 24 26  0     0  0            999 V2000
   -3.8745   -1.0274    0.0000 C   0  0  0  0  0  0           0  0  0
   -3.0505   -1.0286    0.0000 C   0  0  0  0  0  0           0  0  0
   -2.6393   -0.3167    0.0000 C   0  0  0  0  0  0           0  0  0
   -3.0510    0.3969    0.0000 C   0  0  0  0  0  0           0  0  0
   -3.8781    0.3940    0.0000 C   0  0  0  0  0  0           0  0  0
   -4.2856   -0.3185    0.0000 C   0  0  0  0  0  0           0  0  0
   -2.6381   -1.7440    0.0000 O   0  0  0  0  0  0           0  0  0
   -1.8136   -0.3169    0.0000 C   0  0  0  0  0  0           0  0  0
   -3.0516   -2.4588    0.0000 C   0  0  0  0  0  0           0  0  0
   -3.8761   -2.4542    0.0000 C   0  0  0  0  0  0           0  0  0
   -4.2895   -3.1681    0.0000 C   0  0  0  0  0  0           0  0  0
   -3.8771   -3.8846    0.0000 C   0  0  0  0  0  0           0  0  0
   -3.0470   -3.8826    0.0000 C   0  0  0  0  0  0           0  0  0
   -2.6374   -3.1680    0.0000 C   0  0  0  0  0  0           0  0  0
   -1.4009   -1.0321    0.0000 O   0  0  0  0  0  0           0  0  0
   -1.4005    0.3982    0.0000 N   0  0  0  0  0  0           0  0  0
   -0.5747    0.3980    0.0000 N   0  0  0  0  0  0           0  0  0
   -0.1616    1.1130    0.0000 C   0  0  0  0  0  0           0  0  0
    0.6641    1.1128    0.0000 C   0  0  0  0  0  0           0  0  0
    1.1456    0.4433    0.0000 O   0  0  0  0  0  0           0  0  0
    1.9310    0.6982    0.0000 C   0  0  0  0  0  0           0  0  0
    1.9312    1.5241    0.0000 C   0  0  0  0  0  0           0  0  0
    1.1459    1.7793    0.0000 C   0  0  0  0  0  0           0  0  0
    2.5989    0.2127    0.0000 C   0  0  0  0  0  0           0  0  0
 11 12  2  0     0  0
  6  1  1  0     0  0
 12 13  1  0     0  0
  1  2  2  0     0  0
 13 14  2  0     0  0
 14  9  1  0     0  0
  2  7  1  0     0  0
  8 15  2  0     0  0
  3  4  2  0     0  0
  8 16  1  0     0  0
  3  8  1  0     0  0
 16 17  1  0     0  0
 17 18  2  0     0  0
  7  9  1  0     0  0
 18 19  1  0     0  0
 19 20  1  0     0  0
  4  5  1  0     0  0
  9 10  2  0     0  0
  2  3  1  0     0  0
 10 11  1  0     0  0
 20 21  1  0     0  0
 21 22  2  0     0  0
 22 23  1  0     0  0
 23 19  2  0     0  0
  5  6  2  0     0  0
 21 24  1  0     0  0
M  END