
  SciTegic01161211252D

 35 35  0  0  0  0            999 V2000
    0.0667   -9.3625    0.0000 S   0  0
    8.6500   -2.7167    0.0000 C   0  0  2  0  0  0
    9.3667   -3.1292    0.0000 C   0  0
    7.9375   -3.1292    0.0000 C   0  0
    2.9375   -7.6875    0.0000 C   0  0
    0.7875   -8.9375    0.0000 C   0  0
    8.6500   -1.8917    0.0000 N   0  0
   -0.3583   -8.6417    0.0000 O   0  0
    0.4917  -10.0792    0.0000 O   0  0
    2.2167   -8.1042    0.0000 C   0  0
    9.0292   -3.8667    0.0000 O   0  0
   -0.6583   -9.7875    0.0000 N   0  0
    7.9375   -3.9625    0.0000 O   0  0
    2.9292   -6.8625    0.0000 O   0  0
   10.1792   -3.2042    0.0000 C   0  0
    0.7875   -8.1042    0.0000 C   0  0
    1.5000   -9.3500    0.0000 C   0  0
    1.5000   -7.6917    0.0000 C   0  0
    2.2167   -8.9375    0.0000 C   0  0
    7.2167   -2.7167    0.0000 N   0  0
    3.6542   -8.1000    0.0000 N   0  0
   10.5125   -2.4125    0.0000 N   0  0
   12.6667   -5.6292    0.0000 N   0  0
    5.0792   -6.4417    0.0000 O   0  0
    5.7917   -4.3750    0.0000 O   0  0
    4.3667   -7.6875    0.0000 C   0  0
    6.5042   -3.1292    0.0000 C   0  0
   10.6042   -3.9000    0.0000 C   0  0
   12.4542   -4.8292    0.0000 C   0  0
    6.5042   -3.9625    0.0000 C   0  0
    4.3667   -6.8542    0.0000 C   0  0
    5.7917   -5.2042    0.0000 C   0  0
    5.0792   -5.6167    0.0000 C   0  0
   11.6417   -4.7667    0.0000 C   0  0
   11.4292   -3.9667    0.0000 C   0  0
  2  4  1  0
  2  3  1  6
  4 20  1  0
  5 10  1  0
  6  1  1  0
  7  2  1  0
  8  1  2  0
  9  1  2  0
 10 19  1  0
 11  3  2  0
 12  1  1  0
 13  4  2  0
 14  5  2  0
 15  3  1  0
 16  6  2  0
 17  6  1  0
 18 16  1  0
 19 17  2  0
 20 27  1  0
 21  5  1  0
 22 15  1  0
 23 29  1  0
 24 31  1  0
 25 32  1  0
 26 21  1  0
 27 30  1  0
 28 15  1  0
 29 34  1  0
 30 25  1  0
 31 26  1  0
 32 33  1  0
 33 24  1  0
 34 35  1  0
 35 28  1  0
 10 18  2  0
M  END