
  SciTegic06051315212D

 20 20  0  0  0  0            999 V2000
   29.7600   -1.9975    0.0000 C   0  0
   29.7589   -2.8171    0.0000 C   0  0
   30.4669   -3.2260    0.0000 C   0  0
   31.1766   -2.8166    0.0000 C   0  0
   31.1738   -1.9939    0.0000 C   0  0
   30.4651   -1.5887    0.0000 C   0  0
   30.4627   -0.7715    0.0000 S   0  0
   31.1692   -0.3608    0.0000 N   0  0
   29.6665   -0.9782    0.0000 O   0  0
   30.0462   -0.0578    0.0000 O   0  0
   31.8799   -1.5827    0.0000 F   0  0
   29.0522   -1.5891    0.0000 F   0  0
   29.0509   -3.2251    0.0000 F   0  0
   31.8849   -3.2241    0.0000 F   0  0
   30.4667   -4.0432    0.0000 S   0  0
   29.7589   -4.4517    0.0000 C   0  0
   29.7587   -5.2688    0.0000 C   0  0
   29.0509   -5.6773    0.0000 O   0  0
   31.2514   -3.8259    0.0000 O   0  0
   31.0409   -4.6184    0.0000 O   0  0
  1  2  2  0
  2  3  1  0
  3  4  2  0
  4  5  1  0
  5  6  2  0
  6  1  1  0
  6  7  1  0
  7  8  1  0
  7  9  2  0
  7 10  2  0
  5 11  1  0
  1 12  1  0
  2 13  1  0
  4 14  1  0
  3 15  1  0
 15 16  1  0
 16 17  1  0
 17 18  1  0
 15 19  2  0
 15 20  2  0
M  END