
  SciTegic01181116592D

 72 77  0  0  0  0            999 V2000
   20.0267  -26.1037    0.0000 C   0  0
   20.4479  -26.8158    0.0000 C   0  0
   20.0418  -27.5345    0.0000 C   0  0
   19.2147  -27.5423    0.0000 C   0  0
   18.7954  -26.8254    0.0000 C   0  0
   19.2039  -26.1096    0.0000 C   0  0
   18.7866  -25.3980    0.0000 N   0  0
   17.9656  -25.3167    0.0000 N   0  0
   17.7892  -24.5108    0.0000 C   0  0
   18.5012  -24.0939    0.0000 C   0  0
   19.1175  -24.6423    0.0000 C   0  0
   19.9380  -24.6439    0.0000 C   0  0
   20.3504  -23.9281    0.0000 C   0  0
   21.1746  -23.9284    0.0000 C   0  0
   21.5874  -24.6437    0.0000 C   0  0
   21.1699  -25.3603    0.0000 C   0  0
   20.3471  -25.3564    0.0000 C   0  0
   18.5825  -23.2730    0.0000 C   0  0
   17.0695  -24.1069    0.0000 C   0  0
   16.3600  -24.5278    0.0000 N   0  0
   17.0598  -23.2820    0.0000 O   0  0
   17.9704  -26.8298    0.0000 Cl  0  0
   20.4609  -28.2451    0.0000 Cl  0  0
   22.4124  -24.6455    0.0000 Cl  0  0
    9.9350  -24.0396    0.0000 C   0  0
   10.6446  -24.4605    0.0000 C   0  0
   11.3639  -24.0564    0.0000 C   0  0
   12.0734  -24.4773    0.0000 C   0  0
   12.7927  -24.0732    0.0000 C   0  0
   13.5023  -24.4941    0.0000 C   0  0
   14.2216  -24.0901    0.0000 C   0  0
   14.9311  -24.5110    0.0000 C   0  0
   15.6504  -24.1069    0.0000 C   0  0
   -4.4529  -25.9016    0.0000 C   0  0
   -4.8741  -26.6138    0.0000 C   0  0
   -4.4680  -27.3325    0.0000 C   0  0
   -3.6409  -27.3402    0.0000 C   0  0
   -3.2215  -26.6233    0.0000 C   0  0
   -3.6300  -25.9076    0.0000 C   0  0
   -3.2128  -25.1960    0.0000 N   0  0
   -2.3918  -25.1147    0.0000 N   0  0
   -2.2154  -24.3088    0.0000 C   0  0
   -2.9274  -23.8919    0.0000 C   0  0
   -3.5437  -24.4403    0.0000 C   0  0
   -4.3641  -24.4419    0.0000 C   0  0
   -4.7766  -23.7261    0.0000 C   0  0
   -5.6008  -23.7264    0.0000 C   0  0
   -6.0197  -24.4417    0.0000 C   0  0
   -5.5961  -25.1582    0.0000 C   0  0
   -4.7732  -25.1544    0.0000 C   0  0
   -3.0086  -23.0709    0.0000 C   0  0
   -1.4957  -23.9049    0.0000 C   0  0
   -0.7861  -24.3258    0.0000 N   0  0
   -1.4860  -23.0799    0.0000 O   0  0
   -2.3966  -26.6277    0.0000 Cl  0  0
   -4.8871  -28.0431    0.0000 Cl  0  0
   -6.8447  -24.4434    0.0000 Cl  0  0
   -0.0669  -23.9217    0.0000 C   0  0
    0.6427  -24.3426    0.0000 C   0  0
    1.3620  -23.9385    0.0000 C   0  0
    2.0715  -24.3594    0.0000 C   0  0
    2.7908  -23.9554    0.0000 C   0  0
    3.5004  -24.3763    0.0000 C   0  0
    4.2197  -23.9722    0.0000 C   0  0
    4.9292  -24.3931    0.0000 C   0  0
    5.6485  -23.9891    0.0000 C   0  0
    6.3581  -24.4099    0.0000 C   0  0
    7.0774  -24.0059    0.0000 C   0  0
    7.7869  -24.4268    0.0000 N   0  0
    8.5062  -24.0227    0.0000 C   0  0
    9.2158  -24.4436    0.0000 C   0  0
    7.7772  -25.2517    0.0000 C   0  0
 17 12  1  0
 35 36  1  0
 11 12  1  0
 36 37  2  0
  4  5  1  0
 37 38  1  0
 10 18  1  0
 38 39  2  0
 39 34  1  0
 40 41  1  0
  2  3  1  0
  9 19  1  0
  8  9  2  0
 19 20  1  0
  9 10  1  0
 41 42  2  0
 42 43  1  0
 43 44  2  0
 44 40  1  0
 39 40  1  0
 19 21  2  0
 10 11  2  0
 45 46  2  0
  5 22  1  0
 46 47  1  0
 11  7  1  0
 47 48  2  0
  3 23  1  0
 48 49  1  0
  6  7  1  0
 49 50  2  0
 50 45  1  0
 44 45  1  0
 15 24  1  0
 43 51  1  0
  5  6  2  0
 42 52  1  0
  6  1  1  0
 52 53  1  0
 25 26  1  0
 52 54  2  0
 12 13  2  0
 38 55  1  0
 26 27  1  0
 36 56  1  0
  7  8  1  0
 48 57  1  0
 27 28  1  0
 53 58  1  0
 13 14  1  0
 58 59  1  0
 28 29  1  0
 59 60  1  0
  1  2  2  0
 60 61  1  0
 29 30  1  0
 61 62  1  0
 14 15  2  0
 62 63  1  0
 30 31  1  0
 63 64  1  0
  3  4  2  0
 64 65  1  0
 31 32  1  0
 65 66  1  0
 15 16  1  0
 66 67  1  0
 32 33  1  0
 67 68  1  0
 33 20  1  0
 68 69  1  0
 69 70  1  0
 16 17  2  0
 70 71  1  0
 71 25  1  0
 34 35  2  0
 69 72  1  0
M  END