
          11280715142D 1   1.00000     0.00000     0

 63 69  0     1  0            999 V2000
   12.0667   -3.7500    0.0000 O   0  0  0  0  0  0           0  0  0
    0.5000  -10.1792    0.0000 O   0  0  0  0  0  0           0  0  0
   11.3417   -4.1292    0.0000 C   0  0  2  0  0  0           0  0  0
   12.1000   -2.9250    0.0000 C   0  0  2  0  0  0           0  0  0
   -0.2125   -9.7667    0.0000 C   0  0  2  0  0  0           0  0  0
   11.3125   -4.9542    0.0000 C   0  0  0  0  0  0           0  0  0
    1.2125   -9.7667    0.0000 C   0  0  1  0  0  0           0  0  0
   11.4042   -2.4792    0.0000 O   0  0  0  0  0  0           0  0  0
   -0.2208   -8.9417    0.0000 O   0  0  0  0  0  0           0  0  0
   -3.7875  -11.8292    0.0000 N   0  0  0  0  0  0           0  0  0
   15.7292   -0.9750    0.0000 N   0  0  0  0  0  0           0  0  0
   10.6417   -3.6917    0.0000 C   0  0  1  0  0  0           0  0  0
    7.6375   -7.7042    0.0000 O   0  0  0  0  0  0           0  0  0
    6.2125   -8.5292    0.0000 O   0  0  0  0  0  0           0  0  0
    7.6375   -8.5292    0.0000 C   0  0  0  0  0  0           0  0  0
    6.9292   -8.9417    0.0000 C   0  0  0  0  0  0           0  0  0
   15.0167   -1.3917    0.0000 C   0  0  0  0  0  0           0  0  0
   -3.0750  -11.4250    0.0000 C   0  0  0  0  0  0           0  0  0
    1.2125   -8.9417    0.0000 C   0  0  1  0  0  0           0  0  0
    1.9250  -10.1792    0.0000 C   0  0  0  0  0  0           0  0  0
    5.5000   -8.9417    0.0000 C   0  0  0  0  0  0           0  0  0
    8.3667   -7.3167    0.0000 C   0  0  0  0  0  0           0  0  0
   12.8292   -2.5417    0.0000 C   0  0  0  0  0  0           0  0  0
   -0.9250  -10.1792    0.0000 C   0  0  0  0  0  0           0  0  0
   12.0125   -5.3917    0.0000 C   0  0  0  0  0  0           0  0  0
   10.6750   -2.8667    0.0000 C   0  0  0  0  0  0           0  0  0
    0.5000   -8.5292    0.0000 C   0  0  0  0  0  0           0  0  0
    2.6375  -11.4167    0.0000 N   0  0  0  0  0  0           0  0  0
    5.5000   -9.7667    0.0000 O   0  0  0  0  0  0           0  0  0
    9.0625   -7.7542    0.0000 O   0  0  0  0  0  0           0  0  0
   -0.9250  -11.0125    0.0000 C   0  0  0  0  0  0           0  0  0
   12.8625   -1.7167    0.0000 C   0  0  0  0  0  0           0  0  0
   -1.6458   -9.7667    0.0000 C   0  0  0  0  0  0           0  0  0
   13.5292   -2.9875    0.0000 C   0  0  0  0  0  0           0  0  0
    9.1375   -4.3042    0.0000 C   0  0  0  0  0  0           0  0  0
    2.6417   -8.9417    0.0000 C   0  0  0  0  0  0           0  0  0
    8.7625   -5.0875    0.0000 C   0  0  0  0  0  0           0  0  0
    3.3000   -8.9292    0.0000 C   0  0  0  0  0  0           0  0  0
   14.2875   -1.7750    0.0000 C   0  0  0  0  0  0           0  0  0
   -2.3583  -11.0125    0.0000 C   0  0  0  0  0  0           0  0  0
   13.5875   -1.3375    0.0000 C   0  0  0  0  0  0           0  0  0
   -1.6458  -11.4250    0.0000 C   0  0  0  0  0  0           0  0  0
   14.2625   -2.6000    0.0000 C   0  0  0  0  0  0           0  0  0
   -2.3583  -10.1875    0.0000 C   0  0  0  0  0  0           0  0  0
    1.9250  -11.0042    0.0000 C   0  0  0  0  0  0           0  0  0
   12.7417   -5.0042    0.0000 O   0  0  0  0  0  0           0  0  0
   10.5792   -5.3375    0.0000 C   0  0  0  0  0  0           0  0  0
    9.9125   -4.0792    0.0000 C   0  0  0  0  0  0           0  0  0
    1.9250   -8.5292    0.0000 C   0  0  0  0  0  0           0  0  0
    4.7875   -8.5292    0.0000 C   0  0  0  0  0  0           0  0  0
    8.4000   -6.5000    0.0000 C   0  0  0  0  0  0           0  0  0
    2.6375   -9.7667    0.0000 C   0  0  0  0  0  0           0  0  0
    8.3500   -8.9417    0.0000 C   0  0  0  0  0  0           0  0  0
    6.9250   -9.7667    0.0000 C   0  0  0  0  0  0           0  0  0
    3.3500  -11.0042    0.0000 C   0  0  0  0  0  0           0  0  0
    9.1250   -6.1125    0.0000 C   0  0  0  0  0  0           0  0  0
    4.0167   -8.5167    0.0000 C   0  0  0  0  0  0           0  0  0
   11.9875   -6.2167    0.0000 C   0  0  0  0  0  0           0  0  0
    3.3500  -10.1792    0.0000 C   0  0  0  0  0  0           0  0  0
   10.5542   -6.1542    0.0000 C   0  0  0  0  0  0           0  0  0
    7.6375  -10.1792    0.0000 C   0  0  0  0  0  0           0  0  0
    8.3542   -9.7667    0.0000 C   0  0  0  0  0  0           0  0  0
   11.2542   -6.6000    0.0000 C   0  0  0  0  0  0           0  0  0
  2  7  1  0     0  0
  3  1  1  0     0  0
  4  1  1  0     0  0
  5  9  1  0     0  0
  3  6  1  6     0  0
  7 19  1  0     0  0
  8  4  1  0     0  0
  9 27  1  0     0  0
 10 18  3  0     0  0
 11 17  3  0     0  0
 12  3  1  0     0  0
 13 22  1  0     0  0
 14 16  1  0     0  0
 15 13  1  0     0  0
 16 15  1  0     0  0
 17 39  1  0     0  0
 18 40  1  0     0  0
 19 49  1  1     0  0
  7 20  1  1     0  0
 21 14  1  0     0  0
 22 51  1  0     0  0
  4 23  1  6     0  0
  5 24  1  1     0  0
 25  6  2  0     0  0
 26  8  1  0     0  0
 27 19  1  0     0  0
 28 45  1  0     0  0
 29 21  2  0     0  0
 30 22  2  0     0  0
 31 24  1  0     0  0
 32 23  2  0     0  0
 33 24  2  0     0  0
 34 23  1  0     0  0
 35 48  1  0     0  0
 36 38  2  0     0  0
 37 35  2  0     0  0
 38 57  1  0     0  0
 39 43  1  0     0  0
 40 44  2  0     0  0
 41 32  1  0     0  0
 42 31  2  0     0  0
 43 34  2  0     0  0
 44 33  1  0     0  0
 45 20  2  0     0  0
 46 25  1  0     0  0
 47  6  1  0     0  0
 12 48  1  6     0  0
 49 36  1  0     0  0
 50 21  1  0     0  0
 51 56  1  0     0  0
 52 20  1  0     0  0
 53 15  2  0     0  0
 54 16  2  0     0  0
 55 59  1  0     0  0
 56 37  1  0     0  0
 57 50  1  0     0  0
 58 25  1  0     0  0
 59 52  2  0     0  0
 60 47  2  0     0  0
 61 62  2  0     0  0
 62 53  1  0     0  0
 63 60  1  0     0  0
 12 26  1  0     0  0
 41 39  2  0     0  0
 58 63  2  0     0  0
 54 61  1  0     0  0
  5  2  1  0     0  0
 28 55  2  0     0  0
 40 42  1  0     0  0
M  END