
  SciTegic04021211102D

 28 31  0  0  0  0            999 V2000
   17.6154    1.4361    0.0000 C   0  0
   17.6142    0.6130    0.0000 C   0  0
   18.3282    0.2023    0.0000 C   0  0
   19.0438    0.6135    0.0000 C   0  0
   19.0407    1.4399    0.0000 C   0  0
   18.3263    1.8511    0.0000 C   0  0
   19.7451    1.8560    0.0000 C   0  0
   20.4605    1.4424    0.0000 C   0  0
   21.1720    1.8592    0.0000 C   0  0
   21.2317    2.6807    0.0000 N   0  0
   20.4488    3.0880    0.0000 C   0  0
   19.7091    2.6731    0.0000 N   0  0
   18.3280   -0.6227    0.0000 O   0  0
   19.0414   -1.0331    0.0000 C   0  0
   19.7507   -0.6230    0.0000 C   0  0
   20.4641   -1.0335    0.0000 C   0  0
   18.3237    2.6717    0.0000 C   0  0
   20.4424    3.9129    0.0000 N   0  0
   21.1777   -0.6234    0.0000 C   0  0
   21.9254   -1.0570    0.0000 C   0  0
   22.6747   -0.6264    0.0000 O   0  0
   23.4155   -0.1886    0.0000 C   0  0
   24.1655   -0.6159    0.0000 C   0  0
   24.9092   -0.1773    0.0000 C   0  0
   24.9013    0.6880    0.0000 C   0  0
   24.1433    1.1125    0.0000 C   0  0
   23.4027    0.6714    0.0000 C   0  0
   24.1319    1.9767    0.0000 S   0  0
  1  2  2  0
 13 14  1  0
  3  4  2  0
 14 15  1  0
  7  8  2  0
 15 16  1  0
  6 17  1  0
  8  9  1  0
 11 18  1  0
  4  5  1  0
 16 19  1  0
  9 10  2  0
 19 20  1  0
  2  3  1  0
 20 21  1  0
 10 11  1  0
 21 22  1  0
  5  6  2  0
 22 23  2  0
 11 12  2  0
 23 24  1  0
 12  7  1  0
 24 25  2  0
  5  7  1  0
 25 26  1  0
  6  1  1  0
 26 27  2  0
 27 22  1  0
  3 13  1  0
 26 28  1  0
  9 28  1  0
M  END