
  SciTegic04071410272D

 29 31  0  0  0  0            999 V2000
    1.4856    0.5677    0.0000 C   0  0  2  0  0  0
    0.4397   -0.2349    0.0000 C   0  0  2  0  0  0
    0.9442    0.1894    0.0000 C   0  0
    1.9042    0.2001    0.0000 C   0  0  2  0  0  0
    2.0354    1.0037    0.0000 N   0  3
    0.5666    0.5670    0.0000 C   0  0
    1.9512   -0.7868    0.0000 C   0  0
    1.5470   -0.3854    0.0000 C   0  0
    0.0339   -0.9532    0.0000 C   0  0
   -0.7911   -0.9609    0.0000 C   0  0
   -0.7988   -0.1359    0.0000 C   0  0
   -1.6161   -0.9686    0.0000 C   0  0
    1.8097    1.3264    0.0000 H   0  0
    2.4701    0.8003    0.0000 H   0  0
    2.7975    1.3195    0.0000 C   0  0
    1.9400    1.8232    0.0000 C   0  0
   -0.7834   -1.7859    0.0000 O   0  0
    1.1349   -0.9663    0.0000 C   0  0
   -2.0219   -1.6869    0.0000 C   0  0
   -2.8468   -1.6947    0.0000 C   0  0
   -3.2660   -0.9841    0.0000 C   0  0
   -2.8602   -0.2658    0.0000 C   0  0
   -2.0352   -0.2581    0.0000 C   0  0
   -1.5171    0.2698    0.0000 C   0  0
   -1.5248    1.0948    0.0000 C   0  0
   -0.8143    1.5140    0.0000 C   0  0
   -0.0960    1.1082    0.0000 C   0  0
   -0.0882    0.2832    0.0000 C   0  0
    5.0368    0.0000    0.0000 Br  0  5
  4  5  1  0
  4 14  1  1
  1  5  1  0
  5 15  1  0
  1  6  1  0
  5 16  1  0
  6  2  1  0
 10 17  1  0
  4  7  1  0
  7 18  1  0
  8 18  1  0
  1  8  1  0
 12 19  2  0
 19 20  1  0
  2  9  1  1
 20 21  2  0
 21 22  1  0
  9 10  1  0
 22 23  2  0
 23 12  1  0
 11 24  2  0
 10 11  1  0
 24 25  1  0
  2  3  1  0
 25 26  2  0
 10 12  1  0
 26 27  1  0
  3  4  1  0
 27 28  2  0
 28 11  1  0
  1 13  1  6
M  CHG  2   5   1  29  -1
M  END