
  SciTegic11081110012D

 22 23  0  0  0  0            999 V2000
   13.8282  -12.6001    0.0000 C   0  0
   13.2762  -11.9870    0.0000 S   0  0
   12.5225  -12.3226    0.0000 C   0  0
   12.6087  -13.1430    0.0000 C   0  0
   13.4157  -13.3146    0.0000 C   0  0
   11.8080  -11.9100    0.0000 C   0  0
   11.8080  -11.0850    0.0000 O   0  0
   11.0936  -12.3226    0.0000 N   0  0
   10.3791  -11.9100    0.0000 C   0  0
    9.6646  -12.3226    0.0000 C   0  0
    9.6646  -13.1475    0.0000 N   0  0
   10.3791  -13.5600    0.0000 C   0  0
   11.0936  -13.1475    0.0000 C   0  0
    8.9501  -13.5600    0.0000 C   0  0
    8.2357  -13.1475    0.0000 C   0  0
    8.9501  -14.3851    0.0000 C   0  0
   14.6527  -12.5809    0.0000 C   0  0
   15.0818  -13.2855    0.0000 N   0  0
   16.3356  -13.9709    0.0000 C   0  0
   15.9065  -13.2663    0.0000 C   0  0
   17.1583  -13.9518    0.0000 O   0  0
   17.5863  -14.6547    0.0000 C   0  0
  2  3  1  0
  3  4  2  0
  4  5  1  0
  5  1  2  0
  3  6  1  0
  6  7  2  0
  6  8  1  0
  8  9  1  0
  8 13  1  0
  9 10  1  0
 10 11  1  0
 11 12  1  0
 12 13  1  0
 11 14  1  0
 14 15  1  0
 14 16  1  0
  1 17  1  0
 17 18  1  0
 18 20  1  0
 19 20  1  0
 19 21  1  0
  1  2  1  0
 21 22  1  0
M  END