
          11280715132D 1   1.00000     0.00000     0

 23 24  0     0  0            999 V2000
    0.1375   -1.1417    0.0000 N   0  0  0  0  0  0           0  0  0
   -0.5750   -1.5625    0.0000 C   0  0  0  0  0  0           0  0  0
    0.8542   -1.5542    0.0000 C   0  0  0  0  0  0           0  0  0
    2.2542    0.1083    0.0000 C   0  0  0  0  0  0           0  0  0
    1.5542   -1.1375    0.0000 C   0  0  0  0  0  0           0  0  0
    4.4042   -0.2875    0.0000 C   0  0  0  0  0  0           0  0  0
   -1.2958   -1.1500    0.0000 C   0  0  0  0  0  0           0  0  0
   -0.5750   -2.3917    0.0000 C   0  0  0  0  0  0           0  0  0
    1.5542   -0.3125    0.0000 C   0  0  0  0  0  0           0  0  0
    2.2542    0.9333    0.0000 O   0  0  0  0  0  0           0  0  0
    5.1250    0.1333    0.0000 O   0  0  0  0  0  0           0  0  0
    2.9792   -0.3000    0.0000 O   0  0  0  0  0  0           0  0  0
    3.6917    0.1208    0.0000 C   0  0  0  0  0  0           0  0  0
   -1.2958   -0.3250    0.0000 Cl  0  0  0  0  0  0           0  0  0
    0.1417   -2.8042    0.0000 Cl  0  0  0  0  0  0           0  0  0
    4.4167   -1.1125    0.0000 O   0  0  0  0  0  0           0  0  0
   -2.0083   -2.3917    0.0000 C   0  0  0  0  0  0           0  0  0
    0.8542   -2.3792    0.0000 C   0  0  0  0  0  0           0  0  0
   -1.2958   -2.8042    0.0000 C   0  0  0  0  0  0           0  0  0
   -2.0083   -1.5625    0.0000 C   0  0  0  0  0  0           0  0  0
    2.2750   -1.5417    0.0000 C   0  0  0  0  0  0           0  0  0
    1.5667   -2.7875    0.0000 C   0  0  0  0  0  0           0  0  0
    2.2792   -2.3667    0.0000 C   0  0  0  0  0  0           0  0  0
  2  1  1  0     0  0
  3  1  1  0     0  0
  4  9  1  0     0  0
  5  3  1  0     0  0
  6 13  1  0     0  0
  7  2  2  0     0  0
  8  2  1  0     0  0
  9  5  1  0     0  0
 10  4  2  0     0  0
 11  6  2  0     0  0
 12  4  1  0     0  0
 13 12  1  0     0  0
 14  7  1  0     0  0
 15  8  1  0     0  0
 16  6  1  0     0  0
 17 19  1  0     0  0
 18  3  2  0     0  0
 19  8  2  0     0  0
 20  7  1  0     0  0
 21  5  2  0     0  0
 22 18  1  0     0  0
 23 22  2  0     0  0
 20 17  2  0     0  0
 23 21  1  0     0  0
M  END