
  SciTegic01161211222D

 18 19  0  0  0  0            999 V2000
    7.3555   -5.5837    0.0000 C   0  0
    8.0898   -5.9599    0.0000 C   0  0
    8.7458   -4.6921    0.0000 C   0  0
    7.3178   -4.7561    0.0000 C   0  0
    8.7814   -5.5164    0.0000 C   0  0
    8.0094   -4.3124    0.0000 C   0  0
    8.1255   -6.7841    0.0000 C   0  0
    5.2360   -6.0947    0.0000 N   0  0
    5.9277   -5.6511    0.0000 C   0  0
    4.5017   -5.7185    0.0000 C   0  0
    3.8101   -6.1622    0.0000 C   0  0
    3.0379   -4.9584    0.0000 C   0  0
    4.4661   -4.8944    0.0000 C   0  0
    3.0759   -5.7863    0.0000 C   0  0
    3.7296   -4.5147    0.0000 C   0  0
    3.8458   -6.9865    0.0000 C   0  0
    6.6611   -6.0291    0.0000 N   0  0
    5.8921   -4.8268    0.0000 N   0  0
  1  4  2  0
  2  5  2  0
  3  5  1  0
  3  6  2  0
  4  6  1  0
  2  7  1  0
  8  9  1  0
 10 11  1  0
 10 13  2  0
 11 14  2  0
 12 14  1  0
 12 15  2  0
 13 15  1  0
 11 16  1  0
  8 10  1  0
  1  2  1  0
  9 17  1  0
  1 17  1  0
  9 18  2  0
M  END