
  SciTegic06051315212D

 26 28  0  0  0  0            999 V2000
   22.7190  -16.6121    0.0000 C   0  0
   22.7178  -17.4316    0.0000 C   0  0
   23.4259  -17.8406    0.0000 C   0  0
   24.1355  -17.4311    0.0000 C   0  0
   24.1327  -16.6085    0.0000 C   0  0
   23.4241  -16.2032    0.0000 C   0  0
   23.4223  -18.6551    0.0000 N   0  0
   22.7127  -19.0623    0.0000 C   0  0
   22.7105  -19.8759    0.0000 C   0  0
   23.4163  -20.2885    0.0000 N   0  0
   24.1259  -19.8813    0.0000 C   0  0
   24.1298  -19.0615    0.0000 C   0  0
   23.4130  -21.1057    0.0000 C   0  0
   23.4179  -15.3843    0.0000 N   0  3
   22.7090  -14.9778    0.0000 O   0  0
   24.1244  -14.9736    0.0000 O   0  5
   24.8439  -17.8386    0.0000 N   0  0
   25.5510  -17.4289    0.0000 C   0  0
   26.2593  -17.8364    0.0000 C   0  0
   25.5497  -16.6117    0.0000 O   0  0
   26.2560  -18.6520    0.0000 C   0  0
   26.9635  -19.0594    0.0000 C   0  0
   27.6715  -18.6497    0.0000 C   0  0
   27.6676  -17.8283    0.0000 C   0  0
   26.9595  -17.4245    0.0000 C   0  0
   28.3732  -17.4161    0.0000 Cl  0  0
  1  2  2  0
  2  3  1  0
  3  4  2  0
  4  5  1  0
  5  6  2  0
  6  1  1  0
  7  8  1  0
  7 12  1  0
  8  9  1  0
  9 10  1  0
 10 11  1  0
 11 12  1  0
  3  7  1  0
 10 13  1  0
 14 15  2  0
 14 16  1  0
  6 14  1  0
  4 17  1  0
 17 18  1  0
 18 19  1  0
 18 20  2  0
 19 21  2  0
 21 22  1  0
 22 23  2  0
 23 24  1  0
 24 25  2  0
 25 19  1  0
 24 26  1  0
M  CHG  2  14   1  16  -1
M  END