
  SciTegic03291108482D

 17 18  0  0  0  0            999 V2000
    0.9852   -2.7112    0.0000 O   0  0
   -0.4438   -0.2362    0.0000 O   0  0
    0.2707   -1.4737    0.0000 N   0  0
    2.4141   -0.2362    0.0000 N   0  0
    0.9852   -0.2362    0.0000 N   0  0
    2.4141   -1.8862    0.0000 N   0  0
    3.1286   -0.6487    0.0000 N   0  0
    1.6997   -1.4737    0.0000 C   0  0
    1.6997   -0.6487    0.0000 C   0  0
    0.9852   -1.8862    0.0000 C   0  0
    0.2707   -0.6487    0.0000 C   0  0
    3.1286   -1.4737    0.0000 C   0  0
    3.8431   -1.8862    0.0000 C   0  0
   -0.4438   -1.8862    0.0000 C   0  0
    2.4141    0.5888    0.0000 C   0  0
    3.8431   -2.7112    0.0000 C   0  0
    4.5575   -3.1237    0.0000 C   0  0
  1 10  2  0
  2 11  2  0
  3 10  1  0
  3 11  1  0
  3 14  1  0
  4  7  1  0
  4  9  1  0
  4 15  1  0
  5  9  2  0
  5 11  1  0
  6  8  2  0
  6 12  1  0
  7 12  2  0
  8  9  1  0
  8 10  1  0
 12 13  1  0
 13 16  1  0
 16 17  1  0
M  END