
          11280714442D 1   1.00000     0.00000     0

 20 20  0     0  0            999 V2000
    3.3917   -5.0667    0.0000 N   0  3  0  0  0  0           0  0  0
    6.1667   -3.2917    0.0000 C   0  0  0  0  0  0           0  0  0
    4.0875   -4.6292    0.0000 C   0  0  0  0  0  0           0  0  0
    2.6542   -4.6917    0.0000 O   0  5  0  0  0  0           0  0  0
    3.4292   -5.8917    0.0000 O   0  0  0  0  0  0           0  0  0
    5.4750   -3.7417    0.0000 C   0  0  0  0  0  0           0  0  0
    6.9000   -3.6750    0.0000 O   0  0  0  0  0  0           0  0  0
    6.1292   -2.4750    0.0000 O   0  0  0  0  0  0           0  0  0
    4.0500   -3.8042    0.0000 C   0  0  0  0  0  0           0  0  0
    4.8250   -5.0042    0.0000 C   0  0  0  0  0  0           0  0  0
    5.5167   -4.5625    0.0000 C   0  0  0  0  0  0           0  0  0
    4.7417   -3.3542    0.0000 C   0  0  0  0  0  0           0  0  0
    9.7542   -3.5417    0.0000 N   0  0  0  0  0  0           0  0  0
    8.3292   -3.6125    0.0000 C   0  0  3  0  0  0           0  0  0
    7.5917   -3.2292    0.0000 C   0  0  0  0  0  0           0  0  0
    9.0250   -3.1667    0.0000 C   0  0  0  0  0  0           0  0  0
    8.3667   -4.4375    0.0000 O   0  0  0  0  0  0           0  0  0
   10.4500   -3.1042    0.0000 C   0  0  3  0  0  0           0  0  0
   10.4167   -2.2792    0.0000 C   0  0  0  0  0  0           0  0  0
   11.1792   -3.4792    0.0000 C   0  0  0  0  0  0           0  0  0
  2  6  1  0     0  0
  3  1  1  0     0  0
  4  1  1  0     0  0
  5  1  2  0     0  0
  6 11  1  0     0  0
  7  2  1  0     0  0
  8  2  2  0     0  0
  9  3  2  0     0  0
 10  3  1  0     0  0
 11 10  2  0     0  0
 12  9  1  0     0  0
 13 16  1  0     0  0
 14 15  1  0     0  0
 15  7  1  0     0  0
 16 14  1  0     0  0
 17 14  1  0     0  0
 18 13  1  0     0  0
 19 18  1  0     0  0
 20 18  1  0     0  0
 12  6  2  0     0  0
M  CHG  2   1   1   4  -1
M  END