
  SciTegic11201309402D

 95 99  0  0  1  0            999 V2000
    1.0792   -1.1542    0.0000 N   0  0
    0.3625   -1.5375    0.0000 C   0  0
   -7.8042   -1.5375    0.0000 C   0  0
    2.4042   -1.1667    0.0000 C   0  0
   -9.9292   -1.1417    0.0000 C   0  0
  -14.6917    0.4208    0.0000 N   0  3
   -8.4875   -1.0792    0.0000 C   0  0  1  0  0  0
   -9.1292   -1.5542    0.0000 N   0  0
    1.7250   -1.6250    0.0000 C   0  0  2  0  0  0
   -1.6833   -1.1667    0.0000 C   0  0
   -5.7708   -1.1667    0.0000 C   0  0
   -3.7208   -1.5375    0.0000 C   0  0
    4.4417   -1.5375    0.0000 C   0  0
   -7.0792   -1.1542    0.0000 N   0  0
   -3.0000   -1.1542    0.0000 N   0  0
   -0.9583   -1.5542    0.0000 N   0  0
    3.1292   -1.5542    0.0000 N   0  0
    5.1667   -1.1542    0.0000 N   0  0
   -2.3583   -1.6250    0.0000 C   0  0  1  0  0  0
   -5.0458   -1.5542    0.0000 N   0  0
   -2.3583   -2.4417    0.0000 C   0  0
   -6.4417   -1.6250    0.0000 C   0  0  1  0  0  0
  -15.4917    0.8333    0.0000 N   0  5
   -0.3208   -1.0792    0.0000 C   0  0  1  0  0  0
    1.8042    1.7833    0.0000 C   0  0
    5.8917    1.7833    0.0000 C   0  0
    5.8125   -1.6250    0.0000 C   0  0  2  0  0  0
    6.4917   -1.1667    0.0000 C   0  0
   -4.3958   -1.0792    0.0000 C   0  0  1  0  0  0
   -1.6500   -2.8542    0.0000 C   0  0
  -13.8792    0.0083    0.0000 N   0  0
    3.7667   -1.0792    0.0000 C   0  0  1  0  0  0
   -3.6958    0.9625    0.0000 C   0  0
    6.5917    1.3708    0.0000 N   0  0
    2.5042    1.3708    0.0000 N   0  0
  -10.6792   -1.6292    0.0000 C   0  0
    0.3667   -2.3542    0.0000 O   0  0
   -8.4875   -0.2625    0.0000 C   0  0
   -7.8042   -2.3542    0.0000 O   0  0
    2.4042   -0.3417    0.0000 O   0  0
   -9.9667   -0.2417    0.0000 O   0  0
   -1.6750   -0.3417    0.0000 O   0  0
   -5.7708   -0.3417    0.0000 O   0  0
    4.4500   -2.3542    0.0000 O   0  0
   -3.7208   -2.3542    0.0000 O   0  0
    5.8125   -2.4417    0.0000 C   0  0
   -6.4417   -2.4417    0.0000 C   0  0
    6.4917   -0.3417    0.0000 O   0  0
   -1.6500   -3.6667    0.0000 O   0  0
   -2.9833    1.3708    0.0000 O   0  0
   -4.3958   -0.2625    0.0000 C   0  0
    1.0917    1.3458    0.0000 N   0  0
    5.1792    1.3458    0.0000 N   0  0
    5.8917    2.5958    0.0000 N   0  0
    1.8042    2.5958    0.0000 N   0  0
    7.2125   -1.5542    0.0000 N   0  0
    0.4500   -1.7792    0.0000 C   0  0
  -13.0875   -0.4000    0.0000 C   0  0
   -0.9458   -2.4417    0.0000 N   0  0
   -3.6958    0.1458    0.0000 C   0  0
  -11.4792   -1.2167    0.0000 C   0  0
   -7.7792    0.1500    0.0000 C   0  0
   -4.3958    1.3708    0.0000 N   0  0
    6.5167   -2.8542    0.0000 C   0  0
    7.9292   -3.6750    0.0000 C   0  0
   -6.3667    0.9708    0.0000 C   0  0
   -5.7333   -2.8542    0.0000 C   0  0
  -13.0375   -1.3042    0.0000 C   0  0
  -12.3292    0.0875    0.0000 C   0  0
    7.2250   -2.4500    0.0000 C   0  0
   -7.0667   -0.2542    0.0000 C   0  0
  -12.2375   -1.7042    0.0000 C   0  0
    6.5167   -3.6750    0.0000 C   0  0
  -11.5292   -0.3167    0.0000 C   0  0
   -7.7792    0.9708    0.0000 C   0  0
    7.9292   -2.8542    0.0000 C   0  0
   -6.3667    0.1500    0.0000 C   0  0
    7.2250   -4.0792    0.0000 C   0  0
   -7.0667    1.3750    0.0000 C   0  0
   -9.1292   -2.4500    0.0000 C   0  0
    1.7250   -2.4500    0.0000 C   0  0
   -5.6583    1.3750    0.0000 O   0  0
    8.6375   -4.0792    0.0000 O   0  0
    0.8417   -2.5792    0.0000 C   0  0
   -0.3208   -0.2625    0.0000 C   0  0
    3.7667   -0.2625    0.0000 C   0  0
    0.3875    0.9625    0.0000 C   0  0
    4.4792    0.9625    0.0000 C   0  0
   -5.7333   -3.6750    0.0000 C   0  0
   -5.0333   -2.4500    0.0000 C   0  0
    0.3875    0.1458    0.0000 C   0  0
    4.4792    0.1458    0.0000 C   0  0
   -5.0333   -4.0792    0.0000 C   0  0
   -4.3208   -2.8542    0.0000 C   0  0
   -4.3208   -3.6750    0.0000 C   0  0
  2  1  1  0
  3 14  1  0
  9  4  1  6
  5  8  1  0
  6 31  2  0
  7  3  1  0
  8  7  1  0
  9  1  1  0
 10 16  1  0
 11 20  1  0
 12 15  1  0
 13 32  1  0
 22 14  1  6
 19 15  1  6
 24 16  1  1
 17  4  1  0
 18 13  1  0
 19 10  1  0
 29 20  1  1
 19 21  1  0
 22 11  1  0
 23  6  2  0
 24  2  1  0
 25 52  2  0
 26 53  2  0
 27 18  1  6
 28 27  1  0
 29 12  1  0
 30 21  1  0
 31 58  1  0
 32 17  1  1
 33 60  1  0
 34 26  1  0
 35 25  1  0
 36  5  1  0
 37  2  2  0
  7 38  1  1
 39  3  2  0
 40  4  2  0
 41  5  2  0
 42 10  2  0
 43 11  2  0
 44 13  2  0
 45 12  2  0
 27 46  1  0
 22 47  1  0
 48 28  2  0
 49 30  2  0
 50 33  2  0
 29 51  1  0
 52 87  1  0
 53 88  1  0
 54 26  1  0
 55 25  1  0
 56 28  1  0
 57  1  1  0
 58 69  2  0
 59 30  1  0
 60 51  1  0
 61 36  1  0
 62 38  1  0
 63 33  1  0
 64 46  1  0
 65 78  2  0
 66 79  2  0
 67 47  1  0
 68 72  2  0
 69 74  1  0
 70 64  1  0
 71 62  1  0
 72 61  1  0
 73 64  2  0
 74 61  2  0
 75 62  2  0
 76 70  2  0
 77 71  2  0
 78 73  1  0
 79 75  1  0
 80  8  1  0
  9 81  1  0
 82 66  1  0
 83 65  1  0
 84 57  1  0
 24 85  1  0
 32 86  1  0
 87 91  1  0
 88 92  1  0
 89 67  2  0
 90 67  1  0
 91 85  1  0
 92 86  1  0
 93 89  1  0
 94 90  2  0
 95 94  1  0
 84 81  1  0
 76 65  1  0
 95 93  2  0
 77 66  1  0
 68 58  1  0
M  CHG  2   6   1  23  -1
M  END