
  SciTegic02011310442D

 40 45  0  0  0  0            999 V2000
    2.9920  -19.4295    0.0000 N   0  0
    3.7016  -19.0201    0.0000 C   0  0
    3.6988  -18.1974    0.0000 N   0  0
    2.9902  -17.7922    0.0000 C   0  0
    2.2839  -19.0206    0.0000 N   0  0
    2.2851  -18.1995    0.0000 C   0  0
    1.5046  -17.9446    0.0000 C   0  0
    1.0210  -18.6082    0.0000 C   0  0
    1.5027  -19.2731    0.0000 C   0  0
    4.4100  -19.4276    0.0000 S   0  0
    5.1170  -19.0179    0.0000 C   0  0
    2.9884  -16.9750    0.0000 N   0  0
    3.6952  -16.5648    0.0000 C   0  0
    5.8221  -19.4258    0.0000 C   0  0
    6.5286  -19.0168    0.0000 C   0  0
    6.5278  -18.1987    0.0000 C   0  0
    5.8145  -17.7914    0.0000 C   0  0
    5.1108  -18.2028    0.0000 C   0  0
    4.4403  -16.8968    0.0000 C   0  0
    4.9857  -16.2883    0.0000 C   0  0
    4.5756  -15.5815    0.0000 N   0  0
    3.7767  -15.7533    0.0000 N   0  0
    5.7986  -16.3720    0.0000 C   0  0
    7.2343  -17.7881    0.0000 N   0  0
    7.9432  -18.1946    0.0000 C   0  0
    8.6497  -17.7840    0.0000 C   0  0
    9.3586  -18.1905    0.0000 N   0  0
    7.9456  -19.0118    0.0000 O   0  0
    9.4436  -19.0008    0.0000 C   0  0
   10.2434  -19.1684    0.0000 C   0  0  1  0  0  0
   10.6500  -18.4594    0.0000 C   0  0
   10.1014  -17.8538    0.0000 C   0  0
   10.5780  -19.9140    0.0000 C   0  0
   10.0996  -20.5765    0.0000 O   0  0
   11.3909  -19.9970    0.0000 N   0  0
   11.7199  -20.7454    0.0000 C   0  0
   12.5291  -20.8301    0.0000 C   0  0
   13.0111  -20.1697    0.0000 O   0  0
   12.6780  -19.4225    0.0000 C   0  0
   11.8628  -19.3356    0.0000 C   0  0
  5  1  1  0
  1  2  2  0
  2  3  1  0
  3  4  2  0
  4  6  1  0
  5  6  1  0
  6  7  2  0
  7  8  1  0
  8  9  2  0
  9  5  1  0
  2 10  1  0
 10 11  1  0
  4 12  1  0
 12 13  1  0
 11 14  2  0
 14 15  1  0
 15 16  2  0
 16 17  1  0
 17 18  2  0
 18 11  1  0
 13 19  1  0
 19 20  2  0
 20 21  1  0
 21 22  1  0
 22 13  2  0
 20 23  1  0
 16 24  1  0
 24 25  1  0
 25 26  1  0
 26 27  1  0
 25 28  2  0
 27 29  1  0
 29 30  1  0
 30 31  1  0
 31 32  1  0
 32 27  1  0
 30 33  1  1
 33 34  2  0
 33 35  1  0
 35 36  1  0
 35 40  1  0
 36 37  1  0
 37 38  1  0
 38 39  1  0
 39 40  1  0
M  END