
          01230816042D 1   1.00000     0.00000     0

 39 43  0     0  0            999 V2000
   -5.8556   -9.7750    0.0000 C   0  0  0  0  0  0           0  0  0
   -5.8568  -10.6023    0.0000 C   0  0  0  0  0  0           0  0  0
   -5.1419  -11.0152    0.0000 C   0  0  0  0  0  0           0  0  0
   -5.1437   -9.3622    0.0000 C   0  0  0  0  0  0           0  0  0
   -3.7626  -11.1183    0.0000 C   0  0  0  0  0  0           0  0  0
   -2.9295  -10.8992    0.0000 N   0  0  0  0  0  0           0  0  0
   -2.6108  -10.1480    0.0000 N   0  0  3  0  0  0           0  0  0
   -4.4281  -10.6040    0.0000 C   0  0  0  0  0  0           0  0  0
   -4.4284   -9.7713    0.0000 C   0  0  0  0  0  0           0  0  0
   -3.7492   -9.2297    0.0000 N   0  0  3  0  0  0           0  0  0
   -2.9695   -9.4094    0.0000 C   0  0  0  0  0  0           0  0  0
   -2.4555   -8.7641    0.0000 O   0  0  0  0  0  0           0  0  0
   -1.7861  -10.1270    0.0000 C   0  0  0  0  0  0           0  0  0
   -1.3555  -10.8307    0.0000 C   0  0  0  0  0  0           0  0  0
   -0.5308  -10.8097    0.0000 N   0  0  0  0  0  0           0  0  0
   -1.7497  -11.5555    0.0000 O   0  0  0  0  0  0           0  0  0
   -0.1002  -11.5135    0.0000 C   0  0  0  0  0  0           0  0  0
   -0.4967  -12.2371    0.0000 C   0  0  0  0  0  0           0  0  0
   -0.0669  -12.9404    0.0000 C   0  0  0  0  0  0           0  0  0
    0.7588  -12.9198    0.0000 C   0  0  0  0  0  0           0  0  0
    1.1527  -12.1900    0.0000 C   0  0  0  0  0  0           0  0  0
    0.7205  -11.4898    0.0000 C   0  0  0  0  0  0           0  0  0
   -3.7843   -8.4054    0.0000 C   0  0  0  0  0  0           0  0  0
    1.9773  -12.1661    0.0000 C   0  0  0  0  0  0           0  0  0
    2.4103  -12.8684    0.0000 O   0  0  0  0  0  0           0  0  0
    2.3689  -11.4400    0.0000 O   0  0  0  0  0  0           0  0  0
   -3.9268  -11.9268    0.0000 C   0  0  3  0  0  0           0  0  0
   -4.7096  -12.1841    0.0000 C   0  0  0  0  0  0           0  0  0
   -4.8750  -12.9887    0.0000 C   0  0  0  0  0  0           0  0  0
   -4.2594  -13.5386    0.0000 C   0  0  0  0  0  0           0  0  0
   -3.4756  -13.2781    0.0000 C   0  0  0  0  0  0           0  0  0
   -3.3073  -12.4677    0.0000 C   0  0  0  0  0  0           0  0  0
   -4.5157   -8.0237    0.0000 C   0  0  0  0  0  0           0  0  0
   -5.2119   -8.4662    0.0000 O   0  0  0  0  0  0           0  0  0
   -4.5508   -7.1994    0.0000 C   0  0  3  0  0  0           0  0  0
   -3.9064   -6.6830    0.0000 C   0  0  0  0  0  0           0  0  0
   -4.1945   -5.9099    0.0000 C   0  0  0  0  0  0           0  0  0
   -5.0188   -5.9450    0.0000 C   0  0  0  0  0  0           0  0  0
   -5.2400   -6.7398    0.0000 C   0  0  0  0  0  0           0  0  0
 18 19  1  0     0  0
  5  8  1  0     0  0
 19 20  2  0     0  0
  9 10  1  0     0  0
 20 21  1  0     0  0
 10 11  1  0     0  0
 21 22  2  0     0  0
 22 17  1  0     0  0
 11  7  1  0     0  0
 10 23  1  0     0  0
  8  9  1  0     0  0
 21 24  1  0     0  0
  2  3  1  0     0  0
 24 25  2  0     0  0
 11 12  2  0     0  0
 24 26  1  0     0  0
  3  8  2  0     0  0
  5 27  1  0     0  0
 27 28  1  0     0  0
  7 13  1  0     0  0
  1  2  2  0     0  0
 13 14  1  0     0  0
  9  4  2  0     0  0
 14 15  1  0     0  0
 27 32  1  0     0  0
 28 29  1  0     0  0
 29 30  1  0     0  0
 30 31  1  0     0  0
 31 32  1  0     0  0
  4  1  1  0     0  0
 23 33  1  0     0  0
 14 16  2  0     0  0
 33 34  2  0     0  0
 33 35  1  0     0  0
 35 36  1  0     0  0
 15 17  1  0     0  0
  5  6  2  0     0  0
 17 18  2  0     0  0
  6  7  1  0     0  0
 36 37  1  0     0  0
 37 38  1  0     0  0
 38 39  1  0     0  0
 39 35  1  0     0  0
M  END