
          11280715332D 1   1.00000     0.00000     0

 34 38  0     0  0            999 V2000
    3.3875   -3.1167    0.0000 N   0  0  3  0  0  0           0  0  0
   10.7917   -0.4417    0.0000 C   0  0  0  0  0  0           0  0  0
   10.0792   -0.8542    0.0000 N   0  0  3  0  0  0           0  0  0
    8.6625   -1.6875    0.0000 N   0  0  3  0  0  0           0  0  0
    4.8042   -3.1250    0.0000 C   0  0  3  0  0  0           0  0  0
    3.3792   -2.2917    0.0000 C   0  0  0  0  0  0           0  0  0
    7.9500   -2.1042    0.0000 C   0  0  3  0  0  0           0  0  0
    6.9417   -2.6917    0.0000 N   0  0  3  0  0  0           0  0  0
    4.1000   -3.5292    0.0000 C   0  0  0  0  0  0           0  0  0
    4.8042   -3.9500    0.0000 C   0  0  0  0  0  0           0  0  0
    2.6750   -3.5292    0.0000 C   0  0  0  0  0  0           0  0  0
    7.7417   -2.9042    0.0000 C   0  0  0  0  0  0           0  0  0
    7.1542   -1.9000    0.0000 C   0  0  0  0  0  0           0  0  0
    5.5042   -5.1875    0.0000 C   0  0  0  0  0  0           0  0  0
    5.5042   -4.3625    0.0000 C   0  0  0  0  0  0           0  0  0
    1.9542   -3.1167    0.0000 C   0  0  3  0  0  0           0  0  0
    1.1292   -3.1292    0.0000 C   0  0  0  0  0  0           0  0  0
    1.5417   -2.4125    0.0000 C   0  0  0  0  0  0           0  0  0
    9.3625   -0.4500    0.0000 C   0  0  0  0  0  0           0  0  0
   10.0792   -1.6792    0.0000 C   0  0  0  0  0  0           0  0  0
    8.6500   -0.8667    0.0000 C   0  0  0  0  0  0           0  0  0
    9.3750   -2.0917    0.0000 C   0  0  0  0  0  0           0  0  0
    4.7792   -5.5917    0.0000 C   0  0  0  0  0  0           0  0  0
   10.7917    0.3833    0.0000 O   0  0  0  0  0  0           0  0  0
    4.8125   -2.2917    0.0000 C   0  0  0  0  0  0           0  0  0
    4.1000   -1.8792    0.0000 C   0  0  0  0  0  0           0  0  0
    2.6667   -1.8750    0.0000 O   0  0  0  0  0  0           0  0  0
    5.5167   -2.7042    0.0000 C   0  0  0  0  0  0           0  0  0
    4.0792   -4.3500    0.0000 C   0  0  0  0  0  0           0  0  0
   11.5125   -0.8500    0.0000 N   0  0  0  0  0  0           0  0  0
    4.0750   -5.1750    0.0000 C   0  0  0  0  0  0           0  0  0
    6.2375   -3.1125    0.0000 C   0  0  0  0  0  0           0  0  0
    6.2167   -5.6042    0.0000 Cl  0  0  0  0  0  0           0  0  0
    4.7792   -6.4167    0.0000 Cl  0  0  0  0  0  0           0  0  0
  2  3  1  0     0  0
  3 20  1  0     0  0
  4  7  1  0     0  0
  5  9  1  0     0  0
  6  1  1  0     0  0
  7 13  1  0     0  0
  8 32  1  0     0  0
  9  1  1  0     0  0
 10  5  1  0     0  0
 11  1  1  0     0  0
 12  8  1  0     0  0
 13  8  1  0     0  0
 14 15  2  0     0  0
 15 10  1  0     0  0
 16 11  1  0     0  0
 17 16  1  0     0  0
 18 16  1  0     0  0
 19 21  1  0     0  0
 20 22  1  0     0  0
 21  4  1  0     0  0
 22  4  1  0     0  0
 23 31  2  0     0  0
 24  2  2  0     0  0
 25  5  1  0     0  0
 26  6  1  0     0  0
 27  6  2  0     0  0
 28  5  1  0     0  0
 29 10  2  0     0  0
 30  2  1  0     0  0
 31 29  1  0     0  0
 32 28  1  0     0  0
 33 14  1  0     0  0
 34 23  1  0     0  0
 25 26  1  0     0  0
 17 18  1  0     0  0
 12  7  1  0     0  0
 14 23  1  0     0  0
 19  3  1  0     0  0
M  END