
  SciTegic05061116452D

 24 25  0  0  0  0            999 V2000
   -3.1293  -15.5973    0.0000 N   0  0
   -2.4176  -15.1887    0.0000 C   0  0
   -2.4176  -14.3637    0.0000 N   0  0
   -3.1293  -13.9472    0.0000 C   0  0
   -3.8409  -15.1887    0.0000 C   0  0
   -3.8409  -14.3591    0.0000 C   0  0
   -4.6299  -14.1026    0.0000 N   0  0
   -5.1176  -14.7738    0.0000 C   0  0
   -4.6300  -15.4449    0.0000 N   0  0
   -4.8849  -16.2296    0.0000 C   0  0
   -5.6948  -16.4010    0.0000 C   0  0
   -5.9535  -17.1857    0.0000 O   0  0
   -6.2480  -15.7879    0.0000 O   0  0
   -3.1273  -13.1223    0.0000 N   0  0
   -1.7036  -15.6020    0.0000 N   0  0
   -0.9886  -15.1903    0.0000 C   0  0
   -0.2746  -15.6037    0.0000 C   0  0
    0.4404  -15.1921    0.0000 C   0  0
    1.1543  -15.6055    0.0000 C   0  0
    1.8693  -15.1938    0.0000 C   0  0
   -2.4118  -12.7115    0.0000 C   0  0
   -1.6983  -13.1257    0.0000 C   0  0
   -0.9829  -12.7149    0.0000 C   0  0
   -1.7003  -13.9507    0.0000 C   0  0
 11 12  1  0
  6  4  1  0
 11 13  2  0
  5  1  1  0
  4 14  1  0
  1  2  2  0
  2 15  1  0
  2  3  1  0
 15 16  1  0
  6  7  1  0
 16 17  1  0
  7  8  2  0
 17 18  1  0
  8  9  1  0
 18 19  1  0
  9  5  1  0
 19 20  1  0
  3  4  2  0
 14 21  1  0
  9 10  1  0
 21 22  1  0
  5  6  2  0
 22 23  1  0
 10 11  1  0
 22 24  1  0
M  END