
  SciTegic06051315212D

 19 20  0  0  0  0            999 V2000
   36.6154  -24.1814    0.0000 C   0  0
   36.6142  -25.0009    0.0000 C   0  0
   37.3223  -25.4099    0.0000 C   0  0
   38.0319  -25.0005    0.0000 C   0  0
   38.0291  -24.1778    0.0000 C   0  0
   37.3205  -23.7725    0.0000 C   0  0
   37.3180  -22.9553    0.0000 S   0  0
   38.0245  -22.5446    0.0000 N   0  0
   36.5218  -23.1620    0.0000 O   0  0
   36.9016  -22.2416    0.0000 O   0  0
   37.3221  -26.2271    0.0000 S   0  0
   36.6142  -26.6355    0.0000 C   0  0
   36.6140  -27.4527    0.0000 C   0  0
   35.9062  -27.8611    0.0000 C   0  0
   35.2008  -27.4512    0.0000 C   0  0
   34.4935  -27.8589    0.0000 C   0  0
   34.4928  -28.6770    0.0000 C   0  0
   35.2054  -29.0856    0.0000 C   0  0
   35.9098  -28.6755    0.0000 C   0  0
  1  2  2  0
  2  3  1  0
  3  4  2  0
  4  5  1  0
  5  6  2  0
  6  1  1  0
  6  7  1  0
  7  8  1  0
  7  9  2  0
  7 10  2  0
  3 11  1  0
 11 12  1  0
 12 13  1  0
 13 14  1  0
 14 15  2  0
 15 16  1  0
 16 17  2  0
 17 18  1  0
 18 19  2  0
 19 14  1  0
M  END