
  SciTegic02271514512D

 40 44  0  0  0  0            999 V2000
    8.0582  -20.7552    0.0000 C   0  0
    9.1328  -19.9528    0.0000 N   0  0
    8.6132  -20.3811    0.0000 C   0  0
    7.6368  -20.3811    0.0000 C   0  0
    7.4983  -21.1978    0.0000 C   0  0
    8.9916  -20.7733    0.0000 C   0  0
    7.1138  -19.6679    0.0000 C   0  0
    7.7399  -20.0453    0.0000 C   0  0
    9.8420  -18.7252    0.0000 C   0  0
    9.8409  -19.5447    0.0000 C   0  0
   10.5489  -19.9537    0.0000 C   0  0
   11.2586  -19.5443    0.0000 C   0  0
   11.2558  -18.7216    0.0000 C   0  0
   10.5471  -18.3163    0.0000 C   0  0
   11.9619  -18.3103    0.0000 C   0  0
   12.6712  -18.7163    0.0000 N   0  0
   11.9588  -17.4932    0.0000 O   0  0
   13.3773  -18.3050    0.0000 C   0  0
   14.0866  -18.7109    0.0000 C   0  0
   14.0866  -19.5270    0.0000 C   0  0
   14.7950  -19.9328    0.0000 C   0  0
   15.5021  -19.5215    0.0000 C   0  0
   15.4964  -18.7001    0.0000 C   0  0
   14.7874  -18.2980    0.0000 C   0  0
   16.2011  -18.2864    0.0000 C   0  0
   16.9118  -18.6898    0.0000 C   0  0  2  0  0  0
   17.6165  -18.2760    0.0000 C   0  0
   13.3795  -19.9368    0.0000 O   0  0
   13.3809  -20.7540    0.0000 C   0  0
   12.6739  -21.1637    0.0000 C   0  0
   12.6752  -21.9809    0.0000 C   0  0
   18.3277  -18.6790    0.0000 O   0  0
   17.6110  -17.4584    0.0000 O   0  0
   16.9177  -19.5070    0.0000 C   0  0
   17.6284  -19.9104    0.0000 C   0  0
   17.6306  -20.7280    0.0000 C   0  0
   18.3404  -21.1314    0.0000 C   0  0
   19.0461  -20.7176    0.0000 C   0  0
   19.0375  -19.8962    0.0000 C   0  0
   18.3271  -19.4965    0.0000 C   0  0
  2  3  1  0
  3  4  1  0
  4  5  1  0
  5  1  1  0
  1  6  1  0
  6  2  1  0
  4  7  1  0
  1  8  1  0
  7  8  1  0
  9 10  2  0
 10 11  1  0
 11 12  2  0
 12 13  1  0
 13 14  2  0
 14  9  1  0
 13 15  1  0
 15 16  1  0
 15 17  2  0
 16 18  1  0
 18 19  1  0
 19 20  2  0
 20 21  1  0
 21 22  2  0
 22 23  1  0
 23 24  2  0
 24 19  1  0
 23 25  1  0
 25 26  1  0
 26 27  1  0
 20 28  1  0
 28 29  1  0
 29 30  1  0
 30 31  1  0
 27 32  1  0
 27 33  2  0
 26 34  1  6
 34 35  1  0
 35 36  2  0
 36 37  1  0
 37 38  2  0
 38 39  1  0
 39 40  2  0
 40 35  1  0
 10  2  1  0
M  END