
          08180812492D 1   1.00000     0.00000     0

 29 31  0     0  0            999 V2000
    0.2486   -9.7791    0.0000 C   0  0  0  0  0  0           0  0  0
    0.2474  -10.6065    0.0000 C   0  0  0  0  0  0           0  0  0
    0.9622  -11.0194    0.0000 C   0  0  0  0  0  0           0  0  0
    1.6787  -10.6060    0.0000 C   0  0  0  0  0  0           0  0  0
    1.6758   -9.7755    0.0000 C   0  0  0  0  0  0           0  0  0
    0.9604   -9.3664    0.0000 C   0  0  0  0  0  0           0  0  0
   -0.4673  -11.0182    0.0000 C   0  0  0  0  0  0           0  0  0
   -1.2098  -10.6586    0.0000 N   0  0  3  0  0  0           0  0  0
   -0.4680  -11.8434    0.0000 O   0  0  0  0  0  0           0  0  0
    2.3887   -9.3603    0.0000 O   0  0  0  0  0  0           0  0  0
    2.3856   -8.5353    0.0000 C   0  0  0  0  0  0           0  0  0
    3.1003   -8.1249    0.0000 C   0  0  0  0  0  0           0  0  0
    3.0975   -7.3007    0.0000 C   0  0  0  0  0  0           0  0  0
    2.3810   -6.8901    0.0000 C   0  0  0  0  0  0           0  0  0
    1.6657   -7.3097    0.0000 C   0  0  0  0  0  0           0  0  0
    1.6720   -8.1326    0.0000 C   0  0  0  0  0  0           0  0  0
    2.3938  -11.0174    0.0000 C   0  0  0  0  0  0           0  0  0
    3.1076  -10.6038    0.0000 N   0  0  0  0  0  0           0  0  0
    3.8227  -11.0152    0.0000 C   0  0  0  0  0  0           0  0  0
   -1.8536  -11.1712    0.0000 C   0  0  0  0  0  0           0  0  0
   -2.6598  -10.9872    0.0000 C   0  0  0  0  0  0           0  0  0
   -1.2090   -9.8345    0.0000 C   0  0  0  0  0  0           0  0  0
   -3.0200  -10.2463    0.0000 C   0  0  0  0  0  0           0  0  0
   -1.8551   -9.3193    0.0000 C   0  0  0  0  0  0           0  0  0
   -2.6599   -9.5053    0.0000 N   0  0  3  0  0  0           0  0  0
   -3.1740   -8.8601    0.0000 C   0  0  3  0  0  0           0  0  0
   -2.8724   -8.0923    0.0000 C   0  0  0  0  0  0           0  0  0
   -3.9899   -8.9828    0.0000 C   0  0  0  0  0  0           0  0  0
    2.3768   -6.0651    0.0000 Cl  0  0  0  0  0  0           0  0  0
  2  7  1  0     0  0
 14 15  1  0     0  0
  3  4  2  0     0  0
 15 16  2  0     0  0
 16 11  1  0     0  0
  7  8  1  0     0  0
  4 17  1  0     0  0
 17 18  1  0     0  0
  7  9  2  0     0  0
 18 19  1  0     0  0
  4  5  1  0     0  0
  8 20  1  0     0  0
  5 10  1  0     0  0
 20 21  1  0     0  0
  2  3  1  0     0  0
  8 22  1  0     0  0
 10 11  1  0     0  0
 21 23  1  0     0  0
  5  6  2  0     0  0
 22 24  1  0     0  0
 11 12  2  0     0  0
 23 25  1  0     0  0
 24 25  1  0     0  0
  6  1  1  0     0  0
 25 26  1  0     0  0
 12 13  1  0     0  0
 26 27  1  0     0  0
  1  2  2  0     0  0
 26 28  1  0     0  0
 13 14  2  0     0  0
 14 29  1  0     0  0
M  END