
  SciTegic08171211382D

120111  0  0  0  0            999 V2000
    0.0000    0.0000    0.0000 Na  0  3
    1.0018    0.0000    0.0000 Na  0  3
    2.0036    0.0000    0.0000 Na  0  3
    3.0054    0.0000    0.0000 Na  0  3
    0.0000   -1.6500    0.0000 Na  0  3
    1.0018   -1.6500    0.0000 Na  0  3
    2.0036   -1.6500    0.0000 Na  0  3
    3.0054   -1.6500    0.0000 Na  0  3
    0.0000   -3.3000    0.0000 Na  0  3
    1.0018   -3.3000    0.0000 Na  0  3
    2.0036   -3.3000    0.0000 Na  0  3
    3.0054   -3.3000    0.0000 Na  0  3
    0.0000   -9.6093    0.0000 Na  0  3
   13.4351   -7.8375    0.0000 O   0  0
   13.4351   -8.6625    0.0000 C   0  0  2  0  0  0
   12.7206   -9.0750    0.0000 C   0  0  1  0  0  0
   12.0062   -8.6625    0.0000 O   0  0
   12.7206   -9.9000    0.0000 C   0  0  1  0  0  0
   12.0062  -10.3125    0.0000 O   0  0
   13.4351  -10.3125    0.0000 C   0  0  2  0  0  0
   13.4351  -11.1375    0.0000 O   0  0
   14.1496   -9.9000    0.0000 C   0  0  2  0  0  0
   14.1496   -9.0750    0.0000 O   0  0
   14.8640  -10.3125    0.0000 C   0  0
   15.5785   -9.9000    0.0000 O   0  0
   16.2930  -10.3125    0.0000 S   0  0
   15.8805  -11.0270    0.0000 O   0  0
   16.7055   -9.5980    0.0000 O   0  0
   17.0075  -10.7250    0.0000 O   0  5
   14.1496  -11.5500    0.0000 S   0  0
   14.5621  -10.8355    0.0000 O   0  0
   13.7371  -12.2645    0.0000 O   0  0
   14.8640  -11.9625    0.0000 O   0  5
   12.0062  -11.1375    0.0000 S   0  0
   11.1812  -11.1375    0.0000 O   0  0
   12.0062  -11.9625    0.0000 O   0  0
   12.8312  -11.1375    0.0000 O   0  5
   11.2917   -9.0750    0.0000 C   0  0  2  0  0  0
   10.5772   -8.6625    0.0000 C   0  0  1  0  0  0
   10.5772   -7.8375    0.0000 O   0  0
    9.8628   -9.0750    0.0000 C   0  0  1  0  0  0
    9.1483   -8.6625    0.0000 O   0  0
    9.8628   -9.9000    0.0000 C   0  0  2  0  0  0
    9.1483  -10.3125    0.0000 O   0  0
   10.5772  -10.3125    0.0000 C   0  0  2  0  0  0
   11.2917   -9.9000    0.0000 O   0  0
   10.5772  -11.1375    0.0000 C   0  0
    9.8628  -11.5500    0.0000 O   0  0
    9.8628  -12.3750    0.0000 S   0  0
    9.0378  -12.3750    0.0000 O   0  0
    9.8628  -13.2000    0.0000 O   0  0
   10.6878  -12.3750    0.0000 O   0  5
    8.6813  -10.1475    0.0000 S   0  0
    8.8463   -9.1855    0.0000 O   0  0
    7.7193   -9.4875    0.0000 O   0  0
    8.0213  -10.6145    0.0000 O   0  5
    9.8628   -7.4250    0.0000 S   0  0
    9.1483   -7.0125    0.0000 O   0  0
    9.4503   -8.1395    0.0000 O   0  0
   10.2753   -6.7105    0.0000 O   0  5
    8.4338   -9.0750    0.0000 C   0  0  2  0  0  0
    7.7193   -8.6625    0.0000 C   0  0  1  0  0  0
    7.7193   -7.8375    0.0000 O   0  0
    7.0049   -9.0750    0.0000 C   0  0  1  0  0  0
    6.2904   -8.6625    0.0000 O   0  0
    7.0049   -9.9000    0.0000 C   0  0  2  0  0  0
    6.2904  -10.3125    0.0000 O   0  0
    7.7193  -10.3125    0.0000 C   0  0  2  0  0  0
    8.4338   -9.9000    0.0000 O   0  0
    7.7193  -11.1375    0.0000 C   0  0
    7.0049  -11.5500    0.0000 O   0  0
    7.0049  -12.3750    0.0000 S   0  0
    6.1799  -12.3750    0.0000 O   0  0
    7.0049  -13.2000    0.0000 O   0  0
    7.8299  -12.3750    0.0000 O   0  5
    5.8234  -10.1475    0.0000 S   0  0
    5.9884   -9.1855    0.0000 O   0  0
    4.8615   -9.4875    0.0000 O   0  0
    5.1634  -10.6145    0.0000 O   0  5
    7.0049   -7.4250    0.0000 S   0  0
    6.2904   -7.0125    0.0000 O   0  0
    6.5924   -8.1395    0.0000 O   0  0
    7.4174   -6.7105    0.0000 O   0  5
    5.5759   -9.0750    0.0000 C   0  0  2  0  0  0
    4.8615   -8.6625    0.0000 C   0  0  1  0  0  0
    4.8615   -7.8375    0.0000 O   0  0
    4.1470   -9.0750    0.0000 C   0  0  1  0  0  0
    3.4325   -8.6625    0.0000 O   0  0
    4.1470   -9.9000    0.0000 C   0  0  2  0  0  0
    3.4325  -10.3125    0.0000 O   0  0
    4.8615  -10.3125    0.0000 C   0  0  2  0  0  0
    5.5759   -9.9000    0.0000 O   0  0
    4.8615  -11.1375    0.0000 C   0  0
    4.1470  -11.5500    0.0000 O   0  0
    4.1470  -12.3750    0.0000 S   0  0
    4.1470  -13.2000    0.0000 O   0  0
    4.9720  -12.3750    0.0000 O   0  0
    3.3220  -12.3750    0.0000 O   0  5
    2.7180   -9.9000    0.0000 S   0  0
    3.1305   -9.1855    0.0000 O   0  0
    2.2511   -9.2400    0.0000 O   0  0
    2.3055  -10.6145    0.0000 O   0  5
    2.7180   -9.0750    0.0000 S   0  0
    2.0036   -9.4875    0.0000 O   0  0
    3.1305   -9.7895    0.0000 O   0  0
    2.3055   -8.3605    0.0000 O   0  5
    4.1470   -7.4250    0.0000 S   0  0
    3.4325   -7.0125    0.0000 O   0  0
    3.7345   -8.1395    0.0000 O   0  0
    4.5595   -6.7105    0.0000 O   0  5
   14.1496   -7.4250    0.0000 C   0  0
   14.1496   -6.6000    0.0000 C   0  0
   13.4351   -6.1875    0.0000 C   0  0
   13.4351   -5.3625    0.0000 C   0  0
   14.1496   -4.9500    0.0000 C   0  0
   14.8640   -5.3625    0.0000 C   0  0
   14.8640   -6.1875    0.0000 C   0  0
    7.0049   -8.2500    0.0000 H   0  0
   11.2917   -8.2500    0.0000 H   0  0
    8.4338   -8.2500    0.0000 H   0  0
 15 14  1  1
 15 16  1  0
 16 17  1  6
 16 18  1  0
 18 19  1  6
 18 20  1  0
 20 21  1  1
 20 22  1  0
 22 23  1  0
 22 24  1  6
 24 25  1  0
 15 23  1  0
 26 27  2  0
 26 28  2  0
 26 29  1  0
 25 26  1  0
 30 31  2  0
 30 32  2  0
 30 33  1  0
 21 30  1  0
 34 35  2  0
 34 36  2  0
 34 37  1  0
 19 34  1  0
 38 39  1  0
 39 40  1  6
 39 41  1  0
 41 42  1  6
 41 43  1  0
 43 44  1  1
 43 45  1  0
 45 46  1  0
 45 47  1  6
 47 48  1  0
 38 46  1  0
 49 50  2  0
 49 51  2  0
 49 52  1  0
 48 49  1  0
 53 54  2  0
 53 55  2  0
 53 56  1  0
 44 53  1  0
 57 58  2  0
 57 59  2  0
 57 60  1  0
 40 57  1  0
 61 62  1  0
 62 63  1  6
 62 64  1  0
 64 65  1  0
 64 66  1  0
 66 67  1  1
 66 68  1  0
 68 69  1  0
 68 70  1  6
 70 71  1  0
 61 69  1  0
 72 73  2  0
 72 74  2  0
 72 75  1  0
 71 72  1  0
 76 77  2  0
 76 78  2  0
 76 79  1  0
 67 76  1  0
 80 81  2  0
 80 82  2  0
 80 83  1  0
 63 80  1  0
 84 85  1  0
 85 86  1  6
 85 87  1  0
 87 88  1  6
 87 89  1  0
 89 90  1  1
 89 91  1  0
 91 92  1  0
 91 93  1  6
 93 94  1  0
 84 92  1  0
 95 96  2  0
 95 97  2  0
 95 98  1  0
 94 95  1  0
 99100  2  0
 99101  2  0
 99102  1  0
 90 99  1  0
103104  2  0
103105  2  0
103106  1  0
 88103  1  0
107108  2  0
107109  2  0
107110  1  0
 86107  1  0
 84 65  1  1
 42 61  1  0
 38 17  1  1
111112  1  0
112113  1  0
113114  2  0
114115  1  0
115116  2  0
116117  1  0
112117  2  0
 14111  1  0
 64118  1  1
 38119  1  6
 61120  1  6
M  CHG  8   1   1   2   1   3   1   4   1   5   1   6   1   7   1   8   1
M  CHG  8   9   1  10   1  11   1  12   1  13   1  29  -1  33  -1  37  -1
M  CHG  8  52  -1  56  -1  60  -1  75  -1  79  -1  83  -1  98  -1 102  -1
M  CHG  2 106  -1 110  -1
M  END