
          11280714522D 1   1.00000     0.00000     0

 14 14  0     0  0            999 V2000
    5.3250   -5.1500    0.0000 C   0  0  0  0  0  0           0  0  0
    5.3250   -4.5417    0.0000 C   0  0  0  0  0  0           0  0  0
    4.8042   -5.4500    0.0000 C   0  0  0  0  0  0           0  0  0
    5.8417   -4.2417    0.0000 C   0  0  0  0  0  0           0  0  0
    4.8042   -4.2417    0.0000 C   0  0  0  0  0  0           0  0  0
    4.2875   -5.1500    0.0000 C   0  0  0  0  0  0           0  0  0
    4.2875   -4.5500    0.0000 C   0  0  0  0  0  0           0  0  0
    5.8417   -5.4500    0.0000 O   0  0  0  0  0  0           0  0  0
    6.8792   -4.2375    0.0000 N   0  0  0  0  0  0           0  0  0
    6.3625   -4.5375    0.0000 C   0  0  3  0  0  0           0  0  0
    3.7667   -5.4417    0.0000 O   0  0  0  0  0  0           0  0  0
    5.8417   -6.0500    0.0000 C   0  0  0  0  0  0           0  0  0
    3.7667   -6.0417    0.0000 C   0  0  0  0  0  0           0  0  0
    6.3625   -5.1500    0.0000 C   0  0  0  0  0  0           0  0  0
  2  1  1  0     0  0
  3  1  2  0     0  0
  4  2  1  0     0  0
  5  2  2  0     0  0
  6  3  1  0     0  0
  7  6  2  0     0  0
  8  1  1  0     0  0
  9 10  1  0     0  0
 10  4  1  0     0  0
 11  6  1  0     0  0
 12  8  1  0     0  0
 13 11  1  0     0  0
 14 10  1  0     0  0
  5  7  1  0     0  0
M  END