
  SciTegic11081110012D

 58 61  0  0  0  0            999 V2000
    6.9574  -13.1150    0.0000 C   0  0
    7.1675  -13.8907    0.0000 C   0  0  1  0  0  0
    8.8069  -13.0752    0.0000 C   0  0
    8.6132  -13.9095    0.0000 N   0  0
    7.8958  -14.2463    0.0000 C   0  0
    7.8895  -15.0712    0.0000 O   0  0
    6.4564  -14.3101    0.0000 N   0  0
    5.7381  -13.9043    0.0000 C   0  0
    5.0275  -14.3235    0.0000 C   0  0  2  0  0  0
    5.7303  -13.0794    0.0000 O   0  0
    9.3229  -14.3301    0.0000 C   0  0
   10.0420  -13.9257    0.0000 C   0  0
   10.7518  -14.3463    0.0000 N   0  0
   10.0514  -13.1007    0.0000 O   0  0
    7.4712  -12.4354    0.0000 C   0  0
    8.3004  -12.4311    0.0000 C   0  0
    8.7095  -11.7120    0.0000 C   0  0
    8.2905  -10.9967    0.0000 C   0  0
    7.4582  -11.0051    0.0000 C   0  0
    7.0529  -11.7247    0.0000 C   0  0
    4.3092  -13.9178    0.0000 N   0  0
    5.0353  -15.1485    0.0000 C   0  0
    5.7536  -15.5542    0.0000 C   0  0
    5.7614  -16.3792    0.0000 C   0  0
    5.0509  -16.7984    0.0000 N   0  0
    4.3325  -16.3927    0.0000 C   0  0
    3.6220  -16.8119    0.0000 N   0  0
    4.3248  -15.5677    0.0000 N   0  0
    3.5986  -14.3370    0.0000 C   0  0
    2.8803  -13.9313    0.0000 C   0  0  2  0  0  0
    3.6064  -15.1620    0.0000 O   0  0
    2.8725  -13.1063    0.0000 C   0  0
    2.1542  -12.7006    0.0000 C   0  0
    2.1492  -11.8751    0.0000 C   0  0
    1.4317  -11.4695    0.0000 C   0  0
    0.7202  -11.8887    0.0000 C   0  0
    0.7306  -12.7179    0.0000 C   0  0
    1.4487  -13.1199    0.0000 C   0  0
    2.1698  -14.3505    0.0000 N   0  0
    1.4594  -13.9448    0.0000 C   0  0
    2.8605  -11.4572    0.0000 C   0  0
    0.0013  -11.4840    0.0000 O   0  0
   10.7424  -15.1712    0.0000 C   0  0
   11.4709  -13.9419    0.0000 C   0  0
   12.1806  -14.3625    0.0000 C   0  0
   12.1671  -15.1843    0.0000 C   0  0
   12.8760  -15.6048    0.0000 C   0  0
   13.5961  -15.2004    0.0000 C   0  0
   13.6028  -14.3711    0.0000 C   0  0
   12.8933  -13.9544    0.0000 C   0  0
   14.3205  -13.9642    0.0000 C   0  0
   15.0317  -14.3823    0.0000 F   0  0
   14.3269  -13.1393    0.0000 F   0  0
   15.0292  -13.5458    0.0000 F   0  0
   12.8662  -16.4297    0.0000 C   0  0
   12.1469  -16.8338    0.0000 F   0  0
   13.5758  -16.8507    0.0000 F   0  0
   12.8583  -17.2542    0.0000 F   0  0
  5  6  2  0
 21 29  1  0
 12 14  2  0
 29 30  1  0
 15  1  1  0
 29 31  2  0
  2  7  1  1
 30 32  1  0
 15 16  2  0
 32 33  1  0
  2  1  1  0
 33 34  2  0
 16 17  1  0
 34 35  1  0
  7  8  1  0
 35 36  2  0
 17 18  2  0
 36 37  1  0
  3  4  1  0
 37 38  2  0
 38 33  1  0
 18 19  1  0
 30 39  1  1
  8  9  1  0
 38 40  1  0
 19 20  2  0
 34 41  1  0
 20 15  1  0
 36 42  1  0
  4  5  1  0
 13 43  1  0
  9 21  1  0
 13 44  1  0
  8 10  2  0
 44 45  1  0
  9 22  1  1
 45 46  2  0
  5  2  1  0
 46 47  1  0
 22 23  1  0
 47 48  2  0
  4 11  1  0
 48 49  1  0
 23 24  1  0
 49 50  2  0
 50 45  1  0
 16  3  1  0
 49 51  1  0
 24 25  1  0
 51 52  1  0
 11 12  1  0
 51 53  1  0
 25 26  1  0
 51 54  1  0
 47 55  1  0
 26 27  1  0
 55 56  1  0
 12 13  1  0
 55 57  1  0
 26 28  2  0
 55 58  1  0
M  END