
          11280714452D 1   1.00000     0.00000     0

 32 35  0     0  0            999 V2000
    9.2917   -3.8667    0.0000 C   0  0  0  0  0  0           0  0  0
    8.5792   -4.2792    0.0000 C   0  0  0  0  0  0           0  0  0
    7.8667   -3.8667    0.0000 C   0  0  0  0  0  0           0  0  0
   10.0125   -4.2792    0.0000 C   0  0  0  0  0  0           0  0  0
    0.7292   -3.8750    0.0000 N   0  0  0  0  0  0           0  0  0
    7.1500   -4.2792    0.0000 C   0  0  0  0  0  0           0  0  0
    6.4375   -3.8667    0.0000 C   0  0  0  0  0  0           0  0  0
    0.0167   -4.2875    0.0000 C   0  0  0  0  0  0           0  0  0
    5.7167   -4.2792    0.0000 C   0  0  0  0  0  0           0  0  0
    2.1542   -3.8750    0.0000 C   0  0  0  0  0  0           0  0  0
    2.8750   -4.2792    0.0000 C   0  0  0  0  0  0           0  0  0
    1.4417   -4.2875    0.0000 C   0  0  0  0  0  0           0  0  0
   10.7250   -3.8667    0.0000 O   0  0  0  0  0  0           0  0  0
    7.1500   -5.1042    0.0000 O   0  0  0  0  0  0           0  0  0
    0.0167   -5.1125    0.0000 C   0  0  0  0  0  0           0  0  0
    8.5792   -5.1042    0.0000 O   0  0  0  0  0  0           0  0  0
    0.7375   -5.5250    0.0000 C   0  0  0  0  0  0           0  0  0
    5.0042   -3.8667    0.0000 C   0  0  0  0  0  0           0  0  0
    3.5875   -3.8667    0.0000 C   0  0  0  0  0  0           0  0  0
   10.0125   -5.1042    0.0000 O   0  0  0  0  0  0           0  0  0
    9.2917   -3.0417    0.0000 C   0  0  0  0  0  0           0  0  0
    4.3000   -4.2792    0.0000 C   0  0  0  0  0  0           0  0  0
    1.4500   -5.1042    0.0000 C   0  0  0  0  0  0           0  0  0
    7.8667   -3.0417    0.0000 C   0  0  0  0  0  0           0  0  0
    8.5792   -2.6292    0.0000 C   0  0  0  0  0  0           0  0  0
    4.3000   -2.6292    0.0000 C   0  0  0  0  0  0           0  0  0
   -0.6958   -3.8792    0.0000 C   0  0  0  0  0  0           0  0  0
    3.5875   -3.0417    0.0000 C   0  0  0  0  0  0           0  0  0
    5.0125   -3.0417    0.0000 C   0  0  0  0  0  0           0  0  0
   -0.6875   -5.5250    0.0000 C   0  0  0  0  0  0           0  0  0
   -1.4083   -4.2917    0.0000 C   0  0  0  0  0  0           0  0  0
   -1.4000   -5.1167    0.0000 C   0  0  0  0  0  0           0  0  0
  2  1  2  0     0  0
  3  2  1  0     0  0
  4  1  1  0     0  0
  5 12  2  0     0  0
  6  3  1  0     0  0
  7  6  1  0     0  0
  8  5  1  0     0  0
  9  7  2  0     0  0
 10 11  2  0     0  0
 11 19  1  0     0  0
 12 10  1  0     0  0
 13  4  2  0     0  0
 14  6  2  0     0  0
 15 17  1  0     0  0
 16  2  1  0     0  0
 17 23  2  0     0  0
 18  9  1  0     0  0
 19 22  2  0     0  0
 20  4  1  0     0  0
 21  1  1  0     0  0
 22 18  1  0     0  0
 23 12  1  0     0  0
 24 25  1  0     0  0
 25 21  2  0     0  0
 26 29  1  0     0  0
 27  8  2  0     0  0
 28 26  2  0     0  0
 29 18  2  0     0  0
 30 15  2  0     0  0
 31 27  1  0     0  0
 32 30  1  0     0  0
  3 24  2  0     0  0
 28 19  1  0     0  0
  8 15  1  0     0  0
 32 31  2  0     0  0
M  END