
  Mrv0541 05211314572D          

 14 15  0  0  0  0            999 V2000
    2.3905    1.1554    0.0000 C   0  0  0  0  0  0  0  0  0  0  0  0
    1.6761    0.7429    0.0000 C   0  0  0  0  0  0  0  0  0  0  0  0
    1.6761   -0.0821    0.0000 O   0  0  0  0  0  0  0  0  0  0  0  0
    0.9616    1.1554    0.0000 N   0  0  0  0  0  0  0  0  0  0  0  0
    0.2471    0.7429    0.0000 C   0  0  0  0  0  0  0  0  0  0  0  0
    0.2471   -0.0821    0.0000 C   0  0  0  0  0  0  0  0  0  0  0  0
   -0.4673   -0.4946    0.0000 C   0  0  0  0  0  0  0  0  0  0  0  0
   -1.1818   -0.0821    0.0000 C   0  0  0  0  0  0  0  0  0  0  0  0
   -1.9664   -0.3370    0.0000 N   0  0  0  0  0  0  0  0  0  0  0  0
   -2.4514    0.3304    0.0000 C   0  0  0  0  0  0  0  0  0  0  0  0
   -3.2764    0.3304    0.0000 C   0  0  0  0  0  0  0  0  0  0  0  0
   -1.9664    0.9979    0.0000 S   0  0  0  0  0  0  0  0  0  0  0  0
   -1.1818    0.7429    0.0000 C   0  0  0  0  0  0  0  0  0  0  0  0
   -0.4673    1.1554    0.0000 C   0  0  0  0  0  0  0  0  0  0  0  0
  1  2  1  0  0  0  0
  2  3  2  0  0  0  0
  2  4  1  0  0  0  0
  4  5  1  0  0  0  0
  5  6  2  0  0  0  0
  6  7  1  0  0  0  0
  7  8  2  0  0  0  0
  8  9  1  0  0  0  0
  9 10  2  0  0  0  0
 10 11  1  0  0  0  0
 10 12  1  0  0  0  0
 12 13  1  0  0  0  0
 13  8  1  0  0  0  0
 13 14  2  0  0  0  0
 14  5  1  0  0  0  0
M  END