
  SciTegic04091415222D

 24 26  0  0  0  0            999 V2000
   27.1750   -4.2540    0.0000 C   0  0
   27.8877   -3.8453    0.0000 C   0  0
   27.8877   -3.0195    0.0000 C   0  0
   27.1750   -2.6025    0.0000 C   0  0
   27.1750   -5.0798    0.0000 O   0  0
   27.1750   -1.7767    0.0000 O   0  0
   26.4624   -3.8453    0.0000 C   0  0
   26.4649   -3.0213    0.0000 C   0  0
   25.7538   -2.6089    0.0000 C   0  0
   25.0396   -3.0194    0.0000 C   0  0
   25.0410   -3.8465    0.0000 N   0  0
   25.7527   -4.2551    0.0000 C   0  0
   28.6022   -4.2592    0.0000 N   0  0
   29.3180   -3.8474    0.0000 C   0  0
   30.0326   -4.2613    0.0000 C   0  0
   30.7483   -3.8494    0.0000 C   0  0
   31.4631   -4.2651    0.0000 C   0  0
   32.1783   -3.8540    0.0000 C   0  0
   32.1800   -3.0273    0.0000 C   0  0
   31.4604   -2.6135    0.0000 C   0  0
   30.7481   -3.0271    0.0000 C   0  0
   32.8951   -2.6145    0.0000 O   0  0
   32.8927   -4.2682    0.0000 Br  0  0
   31.4587   -1.7877    0.0000 Br  0  0
  8  4  1  0
  7  1  1  0
  1  2  1  0
  2  3  2  0
  3  4  1  0
  1  5  2  0
  4  6  2  0
  7  8  2  0
  8  9  1  0
  9 10  2  0
 10 11  1  0
 11 12  2  0
 12  7  1  0
  2 13  1  0
 13 14  1  0
 14 15  1  0
 15 16  1  0
 16 17  2  0
 17 18  1  0
 18 19  2  0
 19 20  1  0
 20 21  2  0
 21 16  1  0
 19 22  1  0
 18 23  1  0
 20 24  1  0
M  END