
  SciTegic11201309402D

 78 82  0  0  1  0            999 V2000
    6.6101   -5.8146    0.0000 N   0  0
    5.8021   -5.9895    0.0000 C   0  0
    4.0277   -0.8289    0.0000 N   0  0
    5.2481   -5.3772    0.0000 C   0  0  1  0  0  0
    5.4397   -1.6536    0.0000 C   0  0
    5.7646   -4.7400    0.0000 N   0  0
    5.8896   -2.3408    0.0000 N   0  0
    1.7119   -1.4537    0.0000 N   0  0
    3.2030   -0.7914    0.0000 C   0  0
    6.0645   -3.9653    0.0000 C   0  0
    1.1913   -2.1034    0.0000 C   0  0
    7.1391   -7.1891    0.0000 C   0  0
    4.8024   -1.1288    0.0000 C   0  0  2  0  0  0
    6.1103   -3.1406    0.0000 C   0  0  2  0  0  0
    0.8539   -3.6904    0.0000 N   0  0
    7.2224   -6.3644    0.0000 C   0  0  2  0  0  0
    2.4033   -1.0038    0.0000 C   0  0  2  0  0  0
    1.0663   -4.4901    0.0000 C   0  0
    0.8914   -2.8657    0.0000 C   0  0  2  0  0  0
    7.8096   -7.6764    0.0000 N   0  0
    6.9267   -3.0531    0.0000 C   0  0
    9.2841   -7.7389    0.0000 C   0  0
    9.7256   -3.9028    0.0000 C   0  0
    1.5161   -5.1898    0.0000 C   0  0
    3.7528   -6.0395    0.0000 S   0  0
    2.9531   -6.0520    0.0000 S   0  0
    7.5140   -3.6404    0.0000 C   0  0
    9.9964   -7.3265    0.0000 N   0  0
    2.1534   -5.7021    0.0000 C   0  0
    8.5636   -7.3265    0.0000 C   0  0  2  0  0  0
   11.3750   -7.2516    0.0000 C   0  0
    5.5397   -6.7767    0.0000 O   0  0
    9.8131   -4.7275    0.0000 N   0  0
    6.0603   -1.0913    0.0000 O   0  0
    4.5525   -5.8271    0.0000 C   0  0
    6.3894   -7.5265    0.0000 O   0  0
    3.0531   -0.1791    0.0000 O   0  0
    6.8725   -4.1402    0.0000 O   0  0
    0.4748   -1.6786    0.0000 O   0  0
    2.0659   -0.2541    0.0000 C   0  0
    0.0875   -2.6907    0.0000 C   0  0
    0.3041   -4.8274    0.0000 O   0  0
    9.2883   -8.5636    0.0000 O   0  0
    7.3265   -4.2526    0.0000 O   0  0
   11.2959   -6.4269    0.0000 O   0  0
   10.7128   -7.7264    0.0000 C   0  0
    8.9759   -3.5654    0.0000 N   0  0
   10.4004   -3.4155    0.0000 N   0  0
    5.2148   -0.4165    0.0000 C   0  0  2  0  0  0
    6.9475   -5.0649    0.0000 C   0  0
    8.3262   -3.5529    0.0000 N   0  0
   12.1331   -7.5764    0.0000 N   0  0
    2.5533    0.4206    0.0000 C   0  0
   -0.6331   -3.1031    0.0000 C   0  0
    7.9388   -5.9520    0.0000 C   0  0
    7.7639   -5.1523    0.0000 C   0  0
    9.1467   -5.2023    0.0000 C   0  0
    1.3870   -5.6022    0.0000 C   0  0
    2.6282   -6.3269    0.0000 C   0  0
    8.5594   -6.5018    0.0000 C   0  0
    6.0395   -0.4165    0.0000 C   0  0
    4.8024    0.3082    0.0000 C   0  0
    3.3780    0.3332    0.0000 C   0  0
    2.2159    1.1704    0.0000 C   0  0
   -1.3453   -2.6782    0.0000 C   0  0
   -0.6331   -3.9278    0.0000 C   0  0
    9.2258   -6.0270    0.0000 C   0  0
    6.4518    0.2957    0.0000 C   0  0
    2.2117   -7.0391    0.0000 C   0  0
    0.9746   -6.3269    0.0000 C   0  0
   -2.0575   -3.0906    0.0000 C   0  0
   -1.3495   -4.3276    0.0000 C   0  0
    3.8611    1.0079    0.0000 C   0  0
    2.7032    1.8451    0.0000 C   0  0
   -2.0700   -3.9153    0.0000 C   0  0
    3.5237    1.7577    0.0000 C   0  0
    1.3870   -7.0391    0.0000 C   0  0
    4.4705   -0.1855    0.0000 H   0  0
  2  1  1  0
  3 13  1  0
  4  2  1  6
  5  7  1  0
  6  4  1  0
  7 14  1  0
  8 11  1  0
  9  3  1  0
 10  6  1  0
 11 19  1  0
 16 12  1  1
 13  5  1  0
 14 10  1  0
 15 18  1  0
 16  1  1  0
 17  9  1  0
 18 24  1  0
 19 15  1  0
 20 12  1  0
 14 21  1  1
 22 30  1  0
 23 33  2  0
 24 29  1  0
 25 35  1  0
 26 25  1  0
 27 21  1  0
 28 22  1  0
 29 26  1  0
 30 20  1  1
 31 46  1  0
 32  2  2  0
 33 57  1  0
 34  5  2  0
  4 35  1  0
 36 12  2  0
 37  9  2  0
 38 10  2  0
 39 11  2  0
 17 40  1  1
 19 41  1  6
 42 18  2  0
 43 22  2  0
 44 27  2  0
 45 31  2  0
 46 28  1  0
 47 23  1  0
 48 23  1  0
 13 49  1  0
 50  1  1  0
 51 27  1  0
 52 31  1  0
 53 40  1  0
 54 41  1  0
 55 16  1  0
 56 50  1  0
 57 67  1  0
 58 29  1  0
 59 29  1  0
 30 60  1  0
 61 49  1  0
 49 62  1  1
 63 53  1  0
 64 53  2  0
 65 54  2  0
 66 54  1  0
 67 60  1  0
 68 61  1  0
 69 59  1  0
 70 58  1  0
 71 65  1  0
 72 66  2  0
 73 63  2  0
 74 64  1  0
 75 72  1  0
 76 74  2  0
 77 69  1  0
 55 56  1  0
 70 77  1  0
  8 17  1  0
 71 75  2  0
 73 76  1  0
 13 78  1  6
M  END