
  SciTegic11201309402D

 33 37  0  0  1  0            999 V2000
    2.6167   -0.5792    0.0000 N   0  0
    2.3167   -1.0917    0.0000 C   0  0
    3.2250   -0.5792    0.0000 C   0  0
    3.5250   -1.0917    0.0000 C   0  0
    2.6250   -1.6167    0.0000 N   0  0
    3.2167   -1.6167    0.0000 C   0  0
    0.6875    1.1125    0.0000 C   0  0  1  0  0  0
    0.1750    1.4125    0.0000 C   0  0
    0.1750    2.0208    0.0000 C   0  0
    1.4125    0.4708    0.0000 N   0  0
    2.3167   -0.0625    0.0000 C   0  0
    1.2125    1.4208    0.0000 C   0  0  2  0  0  0
    4.7292   -3.1750    0.0000 N   0  0
    4.1250   -1.0917    0.0000 C   0  0
    0.8167    0.5250    0.0000 C   0  0
    0.6875    2.3125    0.0000 C   0  0
    4.4250   -2.6542    0.0000 C   0  0
    1.6625    1.0125    0.0000 C   0  0
    1.7167   -1.0875    0.0000 O   0  0
    3.5375   -0.0542    0.0000 O   0  0
    3.5250   -2.1417    0.0000 C   0  0
    1.2125    2.0083    0.0000 C   0  0
   -0.3458    2.3125    0.0000 C   0  0
    1.7125   -0.0542    0.0000 C   0  0
    4.1250   -2.1417    0.0000 C   0  0
    4.4250   -1.6125    0.0000 C   0  0
   -0.3458    1.1125    0.0000 C   0  0
   -0.3375    2.9125    0.0000 O   0  0
   -0.8708    1.4208    0.0000 C   0  0
   -0.8708    2.0083    0.0000 C   0  0
    0.1875    3.2083    0.0000 C   0  0
    2.1268    1.8258    0.0000 H   0  0
   -0.1212    0.5243    0.0000 H   0  0
  2  1  1  0
  3  1  1  0
  4  3  1  0
  5  2  1  0
  6  4  2  0
  7 15  1  0
  8  7  1  0
  9  8  1  0
 10 24  1  0
 11  1  1  0
 12 18  1  0
 13 17  3  0
 14  4  1  0
 15 10  1  0
 16 22  1  0
 17 25  1  0
 18 10  1  0
 19  2  2  0
 20  3  2  0
 21  6  1  0
 22 12  1  0
 23  9  2  0
 24 11  1  0
 25 26  1  0
 26 14  2  0
 27  8  2  0
 28 23  1  0
 29 27  1  0
 30 29  2  0
 31 28  1  0
  5  6  1  0
 12  7  1  0
 25 21  2  0
  9 16  1  0
 23 30  1  0
 12 32  1  6
  7 33  1  6
M  END