
          11280714452D 1   1.00000     0.00000     0

 14 14  0     0  0            999 V2000
   -1.1458   -4.2542    0.0000 N   0  0  0  0  0  0           0  0  0
    1.3792   -2.2292    0.0000 C   0  0  0  0  0  0           0  0  0
   -2.1083   -4.3292    0.0000 N   0  0  0  0  0  0           0  0  0
   -1.6000   -4.6500    0.0000 C   0  0  0  0  0  0           0  0  0
   -1.3708   -3.7042    0.0000 C   0  0  0  0  0  0           0  0  0
    1.6625   -2.7542    0.0000 S   0  0  0  0  0  0           0  0  0
   -1.9708   -3.7500    0.0000 C   0  0  0  0  0  0           0  0  0
    1.6917   -1.7167    0.0000 N   0  0  0  0  0  0           0  0  0
    0.7792   -2.2042    0.0000 N   0  0  0  0  0  0           0  0  0
   -1.0500   -3.1917    0.0000 C   0  0  0  0  0  0           0  0  0
    0.4625   -2.7167    0.0000 C   0  0  0  0  0  0           0  0  0
    2.2917   -1.7292    0.0000 C   0  0  0  0  0  0           0  0  0
   -0.4500   -3.2125    0.0000 C   0  0  0  0  0  0           0  0  0
   -0.1375   -2.7000    0.0000 C   0  0  0  0  0  0           0  0  0
  2  9  1  0     0  0
  3  4  1  0     0  0
  4  1  2  0     0  0
  5  1  1  0     0  0
  6  2  1  0     0  0
  7  5  2  0     0  0
  8  2  2  0     0  0
  9 11  1  0     0  0
 10  5  1  0     0  0
 11 14  1  0     0  0
 12  8  1  0     0  0
 13 10  1  0     0  0
 14 13  1  0     0  0
  3  7  1  0     0  0
M  END