
  SciTegic11201309402D

 77 81  0  0  0  0            999 V2000
   -7.4839   -5.2741    0.0000 C   0  0
   -6.7695   -4.8616    0.0000 C   0  0
   -6.0550   -5.2741    0.0000 C   0  0  1  0  0  0
   -5.3405   -4.8616    0.0000 N   0  0
   -4.6260   -5.2741    0.0000 C   0  0
   -3.9116   -4.8616    0.0000 C   0  0
   -4.6260   -6.0991    0.0000 O   0  0
   -6.0550   -6.0991    0.0000 C   0  0
   -5.3405   -6.5116    0.0000 O   0  0
   -6.7695   -6.5116    0.0000 N   0  0
   -6.7695   -7.3366    0.0000 C   0  0  1  0  0  0
   -7.4839   -7.7491    0.0000 C   0  0
   -6.0550   -7.7491    0.0000 C   0  0
   -6.0550   -8.5741    0.0000 N   0  0
   -5.3405   -7.3366    0.0000 O   0  0
   -7.4839   -8.5741    0.0000 C   0  0
   -5.3405   -8.9866    0.0000 C   0  0  1  0  0  0
   -5.3405   -9.8116    0.0000 C   0  0
   -4.6260   -8.5741    0.0000 C   0  0
   -4.6260  -10.2241    0.0000 C   0  0
   -6.0550  -10.2241    0.0000 C   0  0
   -3.9116   -8.9866    0.0000 N   0  0
   -4.6260   -7.7491    0.0000 O   0  0
   -3.1971   -8.5741    0.0000 C   0  0  1  0  0  0
   -2.4826   -8.9866    0.0000 C   0  0
   -3.1971   -7.7491    0.0000 C   0  0
   -2.4826   -9.8116    0.0000 C   0  0
   -1.7682  -10.2241    0.0000 O   0  0
   -3.1971  -10.2241    0.0000 N   0  0
   -2.4826   -7.3366    0.0000 N   0  0
   -3.9116   -7.3366    0.0000 O   0  0
   -2.4826   -6.5116    0.0000 C   0  0  2  0  0  0
   -1.7682   -6.0991    0.0000 C   0  0
   -3.1971   -6.0991    0.0000 C   0  0
   -1.7682   -5.2741    0.0000 N   0  0
   -1.0537   -6.5116    0.0000 O   0  0
   -1.1007   -4.7892    0.0000 C   0  0  1  0  0  0
   -1.3557   -4.0046    0.0000 C   0  0
   -2.1807   -4.0046    0.0000 C   0  0
   -2.4356   -4.7892    0.0000 C   0  0
   -0.3161   -5.0441    0.0000 C   0  0
    0.2970   -4.4921    0.0000 N   0  0
   -0.1446   -5.8511    0.0000 O   0  0
    1.0816   -4.7470    0.0000 C   0  0  1  0  0  0
    1.6947   -4.1949    0.0000 C   0  0
    2.4793   -4.4499    0.0000 N   0  0
    1.5232   -3.3880    0.0000 O   0  0
    1.2531   -5.5540    0.0000 C   0  0
    2.0378   -5.8089    0.0000 C   0  0
    2.2093   -6.6159    0.0000 C   0  0
    2.9939   -6.8708    0.0000 N   0  0
    3.1655   -7.6778    0.0000 C   0  0
    3.9501   -7.9327    0.0000 N   0  0
    2.5524   -8.2298    0.0000 N   0  0
    3.0924   -3.8978    0.0000 C   0  0
    3.8770   -4.1528    0.0000 C   0  0
    4.4901   -3.6007    0.0000 N   0  0
    4.0486   -4.9597    0.0000 O   0  0
   -6.7695   -4.0366    0.0000 C   0  0
   -8.1984   -4.8616    0.0000 C   0  0
   -8.9129   -5.2741    0.0000 C   0  0
   -8.9129   -6.0991    0.0000 C   0  0
   -8.1984   -6.5116    0.0000 C   0  0
   -7.4839   -6.0991    0.0000 C   0  0
   -6.0550   -3.6241    0.0000 C   0  0
   -6.0550   -2.7991    0.0000 C   0  0
   -6.7695   -2.3866    0.0000 C   0  0
   -7.4840   -2.7991    0.0000 C   0  0
   -7.4840   -3.6241    0.0000 C   0  0
   -8.1984   -8.9866    0.0000 C   0  0
   -8.1984   -9.8116    0.0000 C   0  0
   -7.4839  -10.2241    0.0000 C   0  0
   -6.7694   -9.8116    0.0000 C   0  0
   -6.7694   -8.9866    0.0000 C   0  0
   -3.9116   -4.0366    0.0000 C   0  0
   -3.0866   -4.0366    0.0000 S   0  0
   -3.1971   -5.2741    0.0000 S   0  0
  1  2  1  0
  3  2  1  1
  3  4  1  0
  4  5  1  0
  5  6  1  0
  5  7  2  0
  3  8  1  0
  8  9  2  0
  8 10  1  0
 10 11  1  0
 11 12  1  6
 11 13  1  0
 13 14  1  0
 13 15  2  0
 12 16  1  0
 14 17  1  0
 17 18  1  6
 17 19  1  0
 18 20  1  0
 18 21  1  0
 19 22  1  0
 19 23  2  0
 22 24  1  0
 24 25  1  6
 24 26  1  0
 25 27  1  0
 27 28  2  0
 27 29  1  0
 26 30  1  0
 26 31  2  0
 32 30  1  0
 32 33  1  1
 32 34  1  0
 33 35  1  0
 33 36  2  0
 35 37  1  0
 35 40  1  0
 37 38  1  0
 38 39  1  0
 39 40  1  0
 37 41  1  1
 41 42  1  0
 41 43  2  0
 44 42  1  1
 44 45  1  0
 45 46  1  0
 45 47  2  0
 44 48  1  0
 48 49  1  0
 49 50  1  0
 50 51  1  0
 51 52  1  0
 52 53  1  0
 52 54  2  0
 46 55  1  0
 55 56  1  0
 56 57  1  0
 56 58  2  0
  2 59  1  0
  1 60  1  0
  1 64  2  0
 60 61  2  0
 61 62  1  0
 62 63  2  0
 63 64  1  0
 59 65  1  0
 59 69  2  0
 65 66  2  0
 66 67  1  0
 67 68  2  0
 68 69  1  0
 16 70  1  0
 16 74  2  0
 70 71  2  0
 71 72  1  0
 72 73  2  0
 73 74  1  0
  6 75  1  0
 75 76  1  0
 34 77  1  0
 77 76  1  0
M  END