
  SciTegic01161211262D

 62 63  0  0  0  0            999 V2000
    0.9716   -1.4071    0.0000 N   0  0
    1.6862   -0.9946    0.0000 C   0  0  1  0  0  0
    2.4006   -1.4071    0.0000 C   0  0
    1.6862   -0.1696    0.0000 C   0  0
    0.9716    0.2429    0.0000 C   0  0
    0.9716    1.0679    0.0000 C   0  0
    1.6862    1.4804    0.0000 C   0  0
    1.6862    2.3054    0.0000 N   0  0
    2.4006   -2.2321    0.0000 O   0  0
    3.1151   -0.9946    0.0000 N   0  0
    3.8295   -1.4071    0.0000 C   0  0
    4.5440   -0.9946    0.0000 C   0  0
    5.2584   -1.4071    0.0000 C   0  0
    5.9730   -0.9946    0.0000 C   0  0
    6.6875   -1.4071    0.0000 C   0  0
    7.4019   -0.9946    0.0000 C   0  0
    8.1163   -1.4071    0.0000 N   0  0
    7.4019   -0.1696    0.0000 O   0  0
    8.8308   -0.9946    0.0000 C   0  0  1  0  0  0
    9.5454   -1.4071    0.0000 C   0  0
    8.8308   -0.1696    0.0000 C   0  0
    9.5454    0.2429    0.0000 C   0  0
    9.5454    1.0679    0.0000 C   0  0
    8.8308    1.4804    0.0000 N   0  0
    8.8308    2.3054    0.0000 C   0  0
    8.1163    2.7179    0.0000 N   0  0
    9.5454    2.7179    0.0000 N   0  0
    9.5454   -2.2321    0.0000 O   0  0
   10.2598   -0.9946    0.0000 N   0  0
   10.9743   -1.4071    0.0000 C   0  0  1  0  0  0
   11.6887   -0.9946    0.0000 C   0  0
   10.9743   -2.2321    0.0000 C   0  0
   11.6887   -2.6446    0.0000 C   0  0
   11.6887   -3.4696    0.0000 C   0  0
   12.4032   -3.8821    0.0000 N   0  0
   12.4032   -4.7071    0.0000 C   0  0
   13.1177   -5.1196    0.0000 N   0  0
   11.6887   -5.1196    0.0000 N   0  0
   12.4032   -1.4071    0.0000 N   0  0
   11.6887   -0.1696    0.0000 O   0  0
    0.2572   -0.9946    0.0000 C   0  0
   -0.4573   -1.4071    0.0000 C   0  0
    0.2572   -0.1696    0.0000 O   0  0
   -0.4573   -2.2321    0.0000 C   0  0
    0.2572   -2.6446    0.0000 C   0  0
    0.2572   -3.4696    0.0000 C   0  0
    0.9716   -3.8821    0.0000 C   0  0
    0.9716   -4.7071    0.0000 N   0  0
    1.6862   -5.1196    0.0000 C   0  0
    1.6862   -5.9446    0.0000 O   0  0
    2.4006   -4.7071    0.0000 C   0  0
    3.1151   -5.1217    0.0000 C   0  0
    3.8291   -4.7099    0.0000 C   0  0
    3.8295   -3.8840    0.0000 C   0  0
    3.1100   -3.4717    0.0000 C   0  0
    2.3990   -3.8859    0.0000 C   0  0
    4.5408   -5.1198    0.0000 C   0  0
    4.5390   -5.9459    0.0000 C   0  0
    5.2525   -6.3587    0.0000 C   0  0
    5.9682   -5.9465    0.0000 N   0  0
    5.9658   -5.1172    0.0000 C   0  0
    5.2518   -4.7082    0.0000 C   0  0
 15 16  1  0
 30 32  1  1
 32 33  1  0
 16 17  1  0
 33 34  1  0
  3  9  2  0
 34 35  1  0
 16 18  2  0
 35 36  1  0
  4  5  1  0
 36 37  1  0
 17 19  1  0
 36 38  2  0
  3 10  1  0
 31 39  1  0
 19 20  1  0
 31 40  2  0
  2  3  1  0
  1 41  1  0
 19 21  1  6
 41 42  1  0
 10 11  1  0
 41 43  2  0
 21 22  1  0
 42 44  1  0
  5  6  1  0
 44 45  1  0
 22 23  1  0
 45 46  1  0
 11 12  1  0
 46 47  1  0
 23 24  1  0
 47 48  1  0
  1  2  1  0
 48 49  1  0
 24 25  1  0
 49 50  2  0
 12 13  1  0
 49 51  1  0
 25 26  2  0
 51 52  2  0
  6  7  1  0
 52 53  1  0
 25 27  1  0
 53 54  2  0
 13 14  1  0
 54 55  1  0
 20 28  2  0
 55 56  2  0
 56 51  1  0
  2  4  1  6
 20 29  1  0
 57 58  2  0
 14 15  1  0
 58 59  1  0
 29 30  1  0
 59 60  2  0
  7  8  1  0
 60 61  1  0
 30 31  1  0
 61 62  2  0
 62 57  1  0
 53 57  1  0
M  END