
          11280715062D 1   1.00000     0.00000     0

 18 19  0     0  0            999 V2000
    5.4167   -3.1500    0.0000 C   0  0  0  0  0  0           0  0  0
    1.0417   -2.9292    0.0000 N   0  0  0  0  0  0           0  0  0
    1.1375   -1.6042    0.0000 N   0  0  0  0  0  0           0  0  0
    0.6042   -2.2292    0.0000 C   0  0  0  0  0  0           0  0  0
    1.8417   -2.7375    0.0000 C   0  0  0  0  0  0           0  0  0
    6.1292   -2.7375    0.0000 N   0  0  0  0  0  0           0  0  0
    5.4167   -3.9750    0.0000 S   0  0  0  0  0  0           0  0  0
    1.9042   -1.9125    0.0000 C   0  0  0  0  0  0           0  0  0
    4.7042   -2.7375    0.0000 N   0  0  0  0  0  0           0  0  0
    6.8417   -3.1500    0.0000 C   0  0  0  0  0  0           0  0  0
    2.5625   -3.1500    0.0000 C   0  0  0  0  0  0           0  0  0
    3.9875   -3.1500    0.0000 C   0  0  0  0  0  0           0  0  0
    6.8417   -3.9667    0.0000 C   0  0  0  0  0  0           0  0  0
    7.5542   -2.7292    0.0000 C   0  0  0  0  0  0           0  0  0
    3.2750   -2.7375    0.0000 C   0  0  0  0  0  0           0  0  0
    8.2667   -3.1417    0.0000 C   0  0  0  0  0  0           0  0  0
    7.5500   -4.3792    0.0000 C   0  0  0  0  0  0           0  0  0
    8.2667   -3.9667    0.0000 C   0  0  0  0  0  0           0  0  0
  2  5  1  0     0  0
  3  8  1  0     0  0
  4  2  2  0     0  0
  5 11  1  0     0  0
  6  1  1  0     0  0
  7  1  2  0     0  0
  8  5  2  0     0  0
  9  1  1  0     0  0
 10  6  1  0     0  0
 11 15  1  0     0  0
 12  9  1  0     0  0
 13 10  2  0     0  0
 14 10  1  0     0  0
 15 12  1  0     0  0
 16 14  2  0     0  0
 17 13  1  0     0  0
 18 16  1  0     0  0
 17 18  2  0     0  0
  3  4  1  0     0  0
M  END