
          11280715242D 1   1.00000     0.00000     0

 60 63  0     1  0            999 V2000
    1.2500   -3.0292    0.0000 C   0  0  1  0  0  0           0  0  0
    3.3917   -2.6167    0.0000 C   0  0  1  0  0  0           0  0  0
    0.5375   -2.6167    0.0000 C   0  0  0  0  0  0           0  0  0
    4.1042   -3.0292    0.0000 C   0  0  0  0  0  0           0  0  0
    1.9667   -2.6167    0.0000 C   0  0  1  0  0  0           0  0  0
    2.6792   -3.0292    0.0000 C   0  0  1  0  0  0           0  0  0
    1.2500   -7.9667    0.0000 C   0  0  0  0  0  0           0  0  0
    4.8292    2.3333    0.0000 C   0  0  0  0  0  0           0  0  0
   -0.1833   -3.0292    0.0000 N   0  0  0  0  0  0           0  0  0
    4.8250   -2.6167    0.0000 N   0  0  0  0  0  0           0  0  0
    4.1042    1.9208    0.0000 C   0  0  0  0  0  0           0  0  0
    0.5292   -7.5667    0.0000 C   0  0  0  0  0  0           0  0  0
   -0.8958   -2.6167    0.0000 C   0  0  2  0  0  0           0  0  0
    5.5375   -3.0292    0.0000 C   0  0  2  0  0  0           0  0  0
   -1.6083   -3.0292    0.0000 C   0  0  0  0  0  0           0  0  0
    6.2542   -2.6167    0.0000 C   0  0  0  0  0  0           0  0  0
    3.3917   -1.7917    0.0000 O   0  0  0  0  0  0           0  0  0
    1.2500   -3.8542    0.0000 O   0  0  0  0  0  0           0  0  0
    1.2417   -8.8000    0.0000 C   0  0  0  0  0  0           0  0  0
    4.8292    3.1500    0.0000 C   0  0  0  0  0  0           0  0  0
    0.5292   -6.7417    0.0000 C   0  0  0  0  0  0           0  0  0
    4.1125    1.0958    0.0000 C   0  0  0  0  0  0           0  0  0
    4.1042   -3.8542    0.0000 O   0  0  0  0  0  0           0  0  0
    0.5375   -1.7917    0.0000 O   0  0  0  0  0  0           0  0  0
   -1.6083   -3.8542    0.0000 O   0  0  0  0  0  0           0  0  0
    6.2542   -1.7917    0.0000 O   0  0  0  0  0  0           0  0  0
    1.9542   -9.2125    0.0000 O   0  0  0  0  0  0           0  0  0
    5.5417    3.5625    0.0000 O   0  0  0  0  0  0           0  0  0
    6.9667   -3.0292    0.0000 N   0  0  0  0  0  0           0  0  0
   -2.3208   -2.6167    0.0000 N   0  0  0  0  0  0           0  0  0
    4.8250    0.6833    0.0000 C   0  0  0  0  0  0           0  0  0
    3.3917    0.6750    0.0000 C   0  0  0  0  0  0           0  0  0
   -0.1833   -6.3292    0.0000 C   0  0  0  0  0  0           0  0  0
    1.2500   -6.3250    0.0000 C   0  0  0  0  0  0           0  0  0
    5.5417    1.9125    0.0000 O   0  0  0  0  0  0           0  0  0
    1.9625   -7.5542    0.0000 O   0  0  0  0  0  0           0  0  0
    2.6792   -3.8542    0.0000 O   0  0  0  0  0  0           0  0  0
    1.9667   -1.7917    0.0000 O   0  0  0  0  0  0           0  0  0
    0.5375   -4.2667    0.0000 C   0  0  0  0  0  0           0  0  0
    4.1042   -1.3792    0.0000 C   0  0  0  0  0  0           0  0  0
    5.5375   -3.8542    0.0000 C   0  0  3  0  0  0           0  0  0
   -0.8958   -1.7917    0.0000 C   0  0  3  0  0  0           0  0  0
    0.5375   -5.0917    0.0000 C   0  0  0  0  0  0           0  0  0
    4.1042   -0.5542    0.0000 C   0  0  0  0  0  0           0  0  0
   -0.1833   -7.9750    0.0000 C   0  0  0  0  0  0           0  0  0
    3.4000    2.3333    0.0000 C   0  0  0  0  0  0           0  0  0
    1.2417   -5.5000    0.0000 C   0  0  0  0  0  0           0  0  0
    3.3917   -0.1417    0.0000 C   0  0  0  0  0  0           0  0  0
    4.8250   -0.1417    0.0000 C   0  0  0  0  0  0           0  0  0
   -0.1833   -5.5042    0.0000 C   0  0  0  0  0  0           0  0  0
    4.1167    3.5625    0.0000 C   0  0  0  0  0  0           0  0  0
    0.5292   -9.2125    0.0000 C   0  0  0  0  0  0           0  0  0
    3.4042    3.1583    0.0000 C   0  0  0  0  0  0           0  0  0
   -0.1833   -8.7917    0.0000 C   0  0  0  0  0  0           0  0  0
   -3.0333   -3.0292    0.0000 C   0  0  0  0  0  0           0  0  0
    7.6792   -2.6167    0.0000 C   0  0  0  0  0  0           0  0  0
    4.8250   -4.2667    0.0000 C   0  0  0  0  0  0           0  0  0
    6.2542   -4.2667    0.0000 C   0  0  0  0  0  0           0  0  0
   -1.6083   -1.3792    0.0000 C   0  0  0  0  0  0           0  0  0
   -0.1833   -1.3792    0.0000 C   0  0  0  0  0  0           0  0  0
  2  6  1  0     0  0
  3  1  1  0     0  0
  4  2  1  0     0  0
  5  1  1  0     0  0
  6  5  1  0     0  0
  7 12  2  0     0  0
  8 11  2  0     0  0
  9  3  1  0     0  0
 10  4  1  0     0  0
 11 22  1  0     0  0
 12 21  1  0     0  0
 13  9  1  0     0  0
 14 10  1  0     0  0
 15 13  1  0     0  0
 16 14  1  0     0  0
  2 17  1  1     0  0
  1 18  1  1     0  0
 19  7  1  0     0  0
 20  8  1  0     0  0
 21 33  2  0     0  0
 22 31  2  0     0  0
 23  4  2  0     0  0
 24  3  2  0     0  0
 25 15  2  0     0  0
 26 16  2  0     0  0
 27 19  2  0     0  0
 28 20  2  0     0  0
 29 16  1  0     0  0
 30 15  1  0     0  0
 31 49  1  0     0  0
 32 48  2  0     0  0
 33 50  1  0     0  0
 34 47  2  0     0  0
 35  8  1  0     0  0
 36  7  1  0     0  0
  6 37  1  6     0  0
  5 38  1  6     0  0
 39 18  1  0     0  0
 40 17  1  0     0  0
 14 41  1  6     0  0
 13 42  1  6     0  0
 43 39  1  0     0  0
 44 40  1  0     0  0
 45 12  1  0     0  0
 46 11  1  0     0  0
 47 43  1  0     0  0
 48 44  1  0     0  0
 49 44  2  0     0  0
 50 43  2  0     0  0
 51 53  1  0     0  0
 52 54  1  0     0  0
 53 46  1  0     0  0
 54 45  1  0     0  0
 55 30  1  0     0  0
 56 29  1  0     0  0
 57 41  1  0     0  0
 58 41  1  0     0  0
 59 42  1  0     0  0
 60 42  1  0     0  0
 34 21  1  0     0  0
 32 22  1  0     0  0
 19 52  1  0     0  0
 20 51  1  0     0  0
M  END