
  SciTegic09261410572D

 77 72  0  0  0  0            999 V2000
   -5.7770   -0.0471    0.0000 C   0  0  2  0  0  0
    5.6545   -0.0471    0.0000 C   0  0  2  0  0  0
    5.6545    0.7779    0.0000 C   0  0  2  0  0  0
   -5.0625   -0.4596    0.0000 C   0  0  2  0  0  0
   -5.7770    0.7779    0.0000 C   0  0  1  0  0  0
    4.9401   -0.4596    0.0000 C   0  0  1  0  0  0
   -6.4915   -1.2846    0.0000 S   0  0
    7.0835   -0.0471    0.0000 S   0  0
   -4.3481   -1.6971    0.0000 S   0  0
   -7.2059    0.7779    0.0000 S   0  0
    6.3690    2.0154    0.0000 S   0  0
    5.6545   -1.6971    0.0000 S   0  0
   -4.3481    3.2529    0.0000 S   0  0
   -5.0625    1.1904    0.0000 C   0  0  1  0  0  0
    4.9401    1.1904    0.0000 C   0  0  2  0  0  0
   -4.3481   -0.0471    0.0000 C   0  0  2  0  0  0
   -4.3481    0.7779    0.0000 O   0  0
    4.2256    0.7779    0.0000 O   0  0
    4.2256   -0.0471    0.0000 C   0  0  1  0  0  0
    6.3690   -0.4596    0.0000 O   0  0
   -6.4915   -0.4596    0.0000 O   0  0
   -5.0625   -1.2846    0.0000 O   0  0
    6.3690    1.1904    0.0000 O   0  0
    4.9401   -1.2846    0.0000 O   0  0
   -6.4915    1.1904    0.0000 O   0  0
    0.6532   -0.4596    0.0000 N   0  0
    1.3677   -0.0471    0.0000 C   0  0
   -5.0625    2.0154    0.0000 C   0  0
   -4.3481    2.4279    0.0000 O   0  0
    6.3690    2.8404    0.0000 O   0  5
   -7.9204    0.3654    0.0000 O   0  5
    7.7979    0.3654    0.0000 O   0  5
   -6.4915   -2.1096    0.0000 O   0  5
   -3.6336   -2.1096    0.0000 O   0  5
    6.3690   -2.1096    0.0000 O   0  5
   -4.3481    4.0779    0.0000 O   0  5
   -0.7757   -0.4596    0.0000 C   0  0
   -7.6184    1.4923    0.0000 O   0  0
   -4.7606   -2.4116    0.0000 O   0  0
    7.4960   -0.7616    0.0000 O   0  0
   -7.3165   -1.2846    0.0000 O   0  0
    5.5440    2.0154    0.0000 O   0  0
   -5.6665   -1.2846    0.0000 O   0  0
   -6.7934    0.0634    0.0000 O   0  0
    5.2420   -2.4116    0.0000 O   0  0
   -3.9356   -0.9827    0.0000 O   0  0
    6.0670   -0.9827    0.0000 O   0  0
    6.6710    0.6673    0.0000 O   0  0
    7.1940    2.0154    0.0000 O   0  0
   -3.5231    3.2529    0.0000 O   0  0
   -5.1731    3.2529    0.0000 O   0  0
   -0.0612   -0.0471    0.0000 C   0  0
    0.6532   -1.2846    0.0000 C   0  0
    1.3677    0.7779    0.0000 O   0  0
   -0.7757   -1.2846    0.0000 O   0  0
   -1.4902   -0.0471    0.0000 N   0  0
    4.9401    2.0154    0.0000 O   0  0
   -3.6336   -0.4596    0.0000 O   0  0
    2.7966   -0.0471    0.0000 O   0  0
    3.5111   -0.4596    0.0000 C   0  0
    1.3677   -1.6971    0.0000 C   0  0
    2.0822   -0.4596    0.0000 C   0  0
   10.0372    0.0000    0.0000 Na  0  3
   11.0390    0.0000    0.0000 Na  0  3
    0.0000   -4.5846    0.0000 Na  0  3
    1.0018   -4.5846    0.0000 Na  0  3
    2.0036   -4.5846    0.0000 Na  0  3
    0.0000   -6.2346    0.0000 Na  0  3
    1.0018   -6.2346    0.0000 Na  0  3
   -2.2047   -0.4596    0.0000 C   0  0
   -2.9191   -0.0471    0.0000 C   0  0
    4.2256    2.4279    0.0000 C   0  0
    1.3677   -2.5221    0.0000 C   0  0
    2.0822   -1.2846    0.0000 C   0  0
    2.7966   -1.6971    0.0000 C   0  0
    2.0822   -2.9346    0.0000 C   0  0
    2.7966   -2.5221    0.0000 C   0  0
  2  6  1  0
  3 15  1  0
  4  1  1  0
  5  1  1  0
  6 19  1  0
  7 21  1  0
  8 20  1  0
  9 22  1  0
 10 25  1  0
 11 23  1  0
 12 24  1  0
 13 29  1  0
 14  5  1  0
 15 18  1  0
 16  4  1  0
 17 14  1  0
 18 19  1  0
 19 60  1  6
  2 20  1  1
  1 21  1  1
  4 22  1  6
  3 23  1  6
  6 24  1  6
  5 25  1  6
 26 52  1  0
 27 26  1  0
 14 28  1  6
 29 28  1  0
 30 11  1  0
 31 10  1  0
 32  8  1  0
 33  7  1  0
 34  9  1  0
 35 12  1  0
 36 13  1  0
 37 56  1  0
 38 10  2  0
 39  9  2  0
 40  8  2  0
 41  7  2  0
 42 11  2  0
 43  7  2  0
 44 10  2  0
 45 12  2  0
 46  9  2  0
 47 12  2  0
 48  8  2  0
 49 11  2  0
 50 13  2  0
 51 13  2  0
 52 37  1  0
 53 26  1  0
 54 27  2  0
 55 37  2  0
 56 70  1  0
 15 57  1  6
 16 58  1  6
 59 62  1  0
 60 59  1  0
 61 53  1  0
 62 27  1  0
 70 71  1  0
 71 58  1  0
 72 57  1  0
 73 61  2  0
 74 61  1  0
 75 74  2  0
 76 73  1  0
 77 76  2  0
 17 16  1  0
 75 77  1  0
  2  3  1  0
M  CHG  8  30  -1  31  -1  32  -1  33  -1  34  -1  35  -1  36  -1  63   1
M  CHG  6  64   1  65   1  66   1  67   1  68   1  69   1
M  END