
  SciTegic06051313522D

 25 28  0  0  0  0            999 V2000
    0.3942   -1.1867    0.0000 C   0  0
    0.3930   -2.0137    0.0000 C   0  0
    1.1074   -2.4262    0.0000 C   0  0
    1.1056   -0.7743    0.0000 C   0  0
    1.8205   -1.1831    0.0000 C   0  0
    1.8254   -2.0137    0.0000 C   0  0
    2.6168   -2.2657    0.0000 N   0  0
    3.1011   -1.5909    0.0000 O   0  0
    2.6089   -0.9219    0.0000 N   0  0
    1.1016    0.0605    0.0000 N   0  3
    0.3863    0.4666    0.0000 O   0  0
    1.8144    0.4707    0.0000 O   0  5
    1.1065   -3.2507    0.0000 N   0  0
    1.8200   -3.6638    0.0000 C   0  0
    1.8160   -4.4859    0.0000 C   0  0
    2.5288   -4.8989    0.0000 C   0  0
    3.2443   -4.4873    0.0000 C   0  0
    3.2426   -3.6585    0.0000 C   0  0
    2.5292   -3.2493    0.0000 C   0  0
    1.1047   -4.8949    0.0000 C   0  0
    0.3917   -4.4787    0.0000 C   0  0
   -0.3264   -4.8880    0.0000 C   0  0
   -0.3316   -5.7134    0.0000 C   0  0
    0.3915   -6.1278    0.0000 C   0  0
    1.1034   -5.7161    0.0000 C   0  0
  1  2  1  0
  2  3  2  0
  3  6  1  0
  5  4  1  0
  4  1  2  0
  5  6  1  0
  6  7  2  0
  7  8  1  0
  8  9  1  0
  9  5  2  0
 10 11  2  0
 10 12  1  0
  4 10  1  0
  3 13  1  0
 13 14  1  0
 14 15  2  0
 15 16  1  0
 16 17  2  0
 17 18  1  0
 18 19  2  0
 19 14  1  0
 20 21  2  0
 21 22  1  0
 22 23  2  0
 23 24  1  0
 24 25  2  0
 25 20  1  0
 15 20  1  0
M  CHG  2  10   1  12  -1
M  END