
          11280714542D 1   1.00000     0.00000     0

  9  9  0     0  0            999 V2000
    2.8792   -1.8542    0.0000 Se  0  0  0  0  0  0           0  0  0
    2.4542   -1.1292    0.0000 O   0  0  0  0  0  0           0  0  0
    2.1542   -2.2750    0.0000 C   0  0  0  0  0  0           0  0  0
    3.3000   -2.5750    0.0000 O   0  0  0  0  0  0           0  0  0
    1.4417   -1.8625    0.0000 C   0  0  0  0  0  0           0  0  0
    2.1542   -3.1042    0.0000 C   0  0  0  0  0  0           0  0  0
    0.7292   -2.2750    0.0000 C   0  0  0  0  0  0           0  0  0
    1.4417   -3.5167    0.0000 C   0  0  0  0  0  0           0  0  0
    0.7292   -3.1042    0.0000 C   0  0  0  0  0  0           0  0  0
  2  1  2  0     0  0
  3  1  1  0     0  0
  4  1  1  0     0  0
  5  3  2  0     0  0
  6  3  1  0     0  0
  7  5  1  0     0  0
  8  6  2  0     0  0
  9  8  1  0     0  0
  9  7  2  0     0  0
M  END