
          11280715082D 1   1.00000     0.00000     0

 17 17  0     0  0            999 V2000
    4.6875   -5.3917    0.0000 P   0  0  3  0  0  0           0  0  0
    8.3042   -5.4042    0.0000 C   0  0  0  0  0  0           0  0  0
    5.2125   -5.8917    0.0000 O   0  0  0  0  0  0           0  0  0
    7.7000   -5.3917    0.0000 C   0  0  3  0  0  0           0  0  0
    5.2042   -5.0875    0.0000 O   0  0  0  0  0  0           0  0  0
    8.6042   -5.9167    0.0000 O   0  0  0  0  0  0           0  0  0
    7.3917   -5.9042    0.0000 C   0  0  0  0  0  0           0  0  0
    4.1667   -5.7042    0.0000 O   0  0  0  0  0  0           0  0  0
    4.3792   -4.8750    0.0000 O   0  0  0  0  0  0           0  0  0
    5.5917   -5.9000    0.0000 C   0  0  0  0  0  0           0  0  0
    6.7917   -5.9000    0.0000 C   0  0  0  0  0  0           0  0  0
    7.4000   -4.8792    0.0000 N   0  0  0  0  0  0           0  0  0
    8.6042   -4.8792    0.0000 O   0  0  0  0  0  0           0  0  0
    6.4917   -6.4167    0.0000 C   0  0  0  0  0  0           0  0  0
    6.5000   -5.3750    0.0000 C   0  0  0  0  0  0           0  0  0
    5.8917   -6.4167    0.0000 C   0  0  0  0  0  0           0  0  0
    5.8917   -5.3750    0.0000 C   0  0  0  0  0  0           0  0  0
  2  4  1  0     0  0
  3  1  1  0     0  0
  4  7  1  0     0  0
  5  1  2  0     0  0
  6  2  2  0     0  0
  7 11  1  0     0  0
  8  1  1  0     0  0
  9  1  1  0     0  0
 10  3  1  0     0  0
 11 15  2  0     0  0
 12  4  1  0     0  0
 13  2  1  0     0  0
 14 16  2  0     0  0
 15 17  1  0     0  0
 16 10  1  0     0  0
 17 10  2  0     0  0
 14 11  1  0     0  0
M  END