
  SciTegic09261415472D

  8  8  0  0  0  0            999 V2000
   12.2842   -9.9220    0.0000 N   0  0
   12.7410  -10.6110    0.0000 N   0  0
   12.2294  -11.2582    0.0000 C   0  0
   11.4548  -10.9742    0.0000 C   0  0
   11.4879  -10.1469    0.0000 C   0  0
   10.7706  -11.4321    0.0000 C   0  0
   10.0319  -11.0685    0.0000 C   0  0
    9.3477  -11.5264    0.0000 O   0  0
  1  2  1  0
  2  3  2  0
  3  4  1  0
  4  5  2  0
  1  5  1  0
  4  6  1  0
  6  7  1  0
  7  8  1  0
M  END