
  SciTegic01161211222D

 23 25  0  0  0  0            999 V2000
   -5.2083  -26.1792    0.0000 C   0  0
   -5.2083  -27.0042    0.0000 C   0  0
   -4.4963  -27.4125    0.0000 C   0  0
   -3.7843  -27.0042    0.0000 C   0  0
   -3.7843  -26.1792    0.0000 N   0  0
   -4.4963  -25.7625    0.0000 C   0  0
   -3.0686  -25.7688    0.0000 C   0  0
   -2.3554  -26.1834    0.0000 C   0  0
   -1.6397  -25.7729    0.0000 C   0  0
   -0.9264  -26.1875    0.0000 O   0  0
   -0.2107  -25.7771    0.0000 C   0  0
    0.4993  -26.1951    0.0000 C   0  0
    1.2145  -25.7854    0.0000 C   0  0
    1.2174  -24.9595    0.0000 C   0  0
    0.4991  -24.5451    0.0000 C   0  0
   -0.2132  -24.9572    0.0000 C   0  0
    1.9325  -24.5482    0.0000 C   0  0
    2.6463  -24.9618    0.0000 N   0  0
    2.6425  -25.7885    0.0000 C   0  0
    3.3522  -26.2021    0.0000 C   0  0
    4.0697  -25.7942    0.0000 C   0  0
    4.0730  -24.9683    0.0000 C   0  0
    3.3588  -24.5501    0.0000 C   0  0
  4  5  1  0
 11 12  2  0
  5  6  1  0
 12 13  1  0
 13 14  2  0
  5  7  1  0
 14 15  1  0
  1  2  1  0
 15 16  2  0
 16 11  1  0
  7  8  1  0
 14 17  1  0
  1  6  1  0
 17 18  1  0
 18 19  1  0
  8  9  1  0
  2  3  1  0
  9 10  1  0
  3  4  1  0
 10 11  1  0
 18 23  1  0
 19 20  1  0
 20 21  1  0
 21 22  1  0
 22 23  1  0
M  END