
          11280715462D 1   1.00000     0.00000     0

 36 39  0     1  0            999 V2000
    6.2917   -2.5542    0.0000 C   0  0  0  0  0  0           0  0  0
    7.0042   -2.1417    0.0000 N   0  0  3  0  0  0           0  0  0
    5.5792   -2.1417    0.0000 C   0  0  2  0  0  0           0  0  0
    6.2875   -0.0667    0.0000 P   0  0  3  0  0  0           0  0  0
    3.1792   -4.7750    0.0000 C   0  0  3  0  0  0           0  0  0
    2.1292   -5.6042    0.0000 C   0  0  0  0  0  0           0  0  0
    1.8500   -4.8375    0.0000 C   0  0  0  0  0  0           0  0  0
    2.9542   -5.5750    0.0000 C   0  0  0  0  0  0           0  0  0
    2.4917   -4.3167    0.0000 C   0  0  0  0  0  0           0  0  0
    7.7250   -2.5542    0.0000 C   0  0  2  0  0  0           0  0  0
    5.5792   -1.3125    0.0000 C   0  0  2  0  0  0           0  0  0
    4.8667   -2.5542    0.0000 N   0  0  0  0  0  0           0  0  0
    4.8625   -3.3875    0.0000 C   0  0  0  0  0  0           0  0  0
    7.8042   -3.3792    0.0000 C   0  0  0  0  0  0           0  0  0
    6.2917   -0.9000    0.0000 O   0  0  0  0  0  0           0  0  0
    3.9542   -4.4875    0.0000 C   0  0  0  0  0  0           0  0  0
    6.2917   -3.3792    0.0000 O   0  0  0  0  0  0           0  0  0
    7.1167   -0.0667    0.0000 O   0  0  0  0  0  0           0  0  0
    8.3417   -1.9917    0.0000 C   0  0  0  0  0  0           0  0  0
    4.0875   -3.6750    0.0000 O   0  0  0  0  0  0           0  0  0
    8.0000   -1.2500    0.0000 C   0  0  0  0  0  0           0  0  0
    5.5667   -3.8042    0.0000 O   0  0  0  0  0  0           0  0  0
    7.1375   -3.8625    0.0000 O   0  0  0  0  0  0           0  0  0
    7.1792   -1.3292    0.0000 C   0  0  0  0  0  0           0  0  0
    5.4667   -0.0667    0.0000 O   0  0  0  0  0  0           0  0  0
    6.2917    0.7583    0.0000 O   0  0  0  0  0  0           0  0  0
    8.5667   -3.7167    0.0000 N   0  0  0  0  0  0           0  0  0
    1.7625   -6.3417    0.0000 C   0  0  0  0  0  0           0  0  0
    1.0792   -4.5292    0.0000 C   0  0  0  0  0  0           0  0  0
    2.3792   -3.5042    0.0000 C   0  0  0  0  0  0           0  0  0
    3.4042   -6.2667    0.0000 C   0  0  0  0  0  0           0  0  0
    4.8625   -0.9000    0.0000 C   0  0  0  0  0  0           0  0  0
    2.2042   -7.0292    0.0000 C   0  0  0  0  0  0           0  0  0
    3.0250   -7.0000    0.0000 C   0  0  0  0  0  0           0  0  0
    1.6125   -3.2042    0.0000 C   0  0  0  0  0  0           0  0  0
    0.9667   -3.7167    0.0000 C   0  0  0  0  0  0           0  0  0
  2  1  1  0     0  0
  3  1  1  1     0  0
  4 15  1  0     0  0
  5 16  1  0     0  0
  6  8  1  0     0  0
  7  9  2  0     0  0
  8  5  1  0     0  0
  9  5  1  0     0  0
 10  2  1  0     0  0
 11  3  1  0     0  0
 12  3  1  0     0  0
 13 12  1  0     0  0
 10 14  1  1     0  0
 11 15  1  1     0  0
 16 20  1  0     0  0
 17  1  2  0     0  0
 18  4  2  0     0  0
 19 10  1  0     0  0
 20 13  1  0     0  0
 21 24  1  0     0  0
 22 13  2  0     0  0
 23 14  2  0     0  0
 24  2  1  0     0  0
 25  4  1  0     0  0
 26  4  1  0     0  0
 27 14  1  0     0  0
 28  6  2  0     0  0
 29  7  1  0     0  0
 30  9  1  0     0  0
 31  8  2  0     0  0
 32 11  1  0     0  0
 33 34  2  0     0  0
 34 31  1  0     0  0
 35 30  2  0     0  0
 36 35  1  0     0  0
 21 19  2  0     0  0
  6  7  1  0     0  0
 36 29  2  0     0  0
 33 28  1  0     0  0
M  END