
          11280715342D 1   1.00000     0.00000     0

 23 23  0     0  0            999 V2000
    0.4750   -2.9375    0.0000 S   0  0  3  0  0  0           0  0  0
    6.7167   -5.0125    0.0000 C   0  0  3  0  0  0           0  0  0
    7.5417   -4.9375    0.0000 C   0  0  0  0  0  0           0  0  0
    3.7667   -2.9167    0.0000 C   0  0  0  0  0  0           0  0  0
    6.2500   -4.3375    0.0000 N   0  0  0  0  0  0           0  0  0
    1.3000   -2.9292    0.0000 C   0  0  0  0  0  0           0  0  0
    5.4250   -4.3375    0.0000 C   0  0  0  0  0  0           0  0  0
    4.1792   -3.6292    0.0000 N   0  0  0  0  0  0           0  0  0
    0.4667   -3.7542    0.0000 O   0  0  0  0  0  0           0  0  0
    0.4750   -2.1125    0.0000 O   0  0  0  0  0  0           0  0  0
    2.9417   -2.9250    0.0000 C   0  0  0  0  0  0           0  0  0
   -0.3500   -2.9292    0.0000 N   0  0  0  0  0  0           0  0  0
    7.8917   -4.1917    0.0000 O   0  0  0  0  0  0           0  0  0
    4.1750   -2.2042    0.0000 O   0  0  0  0  0  0           0  0  0
    5.0167   -5.0542    0.0000 O   0  0  0  0  0  0           0  0  0
    1.7000   -2.2167    0.0000 C   0  0  0  0  0  0           0  0  0
    1.7125   -3.6417    0.0000 C   0  0  0  0  0  0           0  0  0
    2.5292   -3.6417    0.0000 C   0  0  0  0  0  0           0  0  0
    2.5167   -2.2125    0.0000 C   0  0  0  0  0  0           0  0  0
    5.0042   -3.6250    0.0000 C   0  0  0  0  0  0           0  0  0
    8.0167   -5.6167    0.0000 O   0  0  0  0  0  0           0  0  0
    6.3750   -5.7542    0.0000 C   0  0  0  0  0  0           0  0  0
    6.8500   -6.4375    0.0000 O   0  0  0  0  0  0           0  0  0
  2  5  1  0     0  0
  3  2  1  0     0  0
  4 11  1  0     0  0
  5  7  1  0     0  0
  6  1  1  0     0  0
  7 20  1  0     0  0
  8  4  1  0     0  0
  9  1  2  0     0  0
 10  1  2  0     0  0
 11 18  2  0     0  0
 12  1  1  0     0  0
 13  3  2  0     0  0
 14  4  2  0     0  0
 15  7  2  0     0  0
 16  6  1  0     0  0
 17  6  2  0     0  0
 18 17  1  0     0  0
 19 16  2  0     0  0
 20  8  1  0     0  0
 21  3  1  0     0  0
 22  2  1  0     0  0
 23 22  1  0     0  0
 19 11  1  0     0  0
M  END