
  SciTegic11201309402D

 53 57  0  0  0  0            999 V2000
   10.4184   -8.4774    0.0000 N   0  0
    9.3394  -10.6067    0.0000 N   0  0
   10.2985   -9.2880    0.0000 C   0  0
    9.9217  -10.0245    0.0000 C   0  0  1  0  0  0
   10.2985   -7.6611    0.0000 C   0  0  2  0  0  0
    8.6030  -10.9835    0.0000 C   0  0
    9.9217   -6.9247    0.0000 C   0  0
    6.9760  -10.9835    0.0000 N   0  0
    7.7923  -11.1034    0.0000 C   0  0  1  0  0  0
    9.3394   -6.3424    0.0000 N   0  0
    6.2396  -10.6067    0.0000 C   0  0
    9.5449  -11.4059    0.0000 C   0  0
   11.2347   -8.6030    0.0000 C   0  0
    5.2806   -9.2880    0.0000 N   0  0
   11.0291   -7.2843    0.0000 C   0  0
   10.7095  -10.2300    0.0000 C   0  0
    7.7923   -5.8286    0.0000 C   0  0
   11.6114   -7.8666    0.0000 C   0  0
    7.1987   -3.3453    0.0000 C   0  0
    5.6573  -10.0245    0.0000 C   0  0  1  0  0  0
    8.6030   -5.9656    0.0000 C   0  0  2  0  0  0
    5.1549   -8.4774    0.0000 C   0  0
   10.3441  -11.6172    0.0000 C   0  0
   10.9321  -11.0349    0.0000 C   0  0
   11.0805   -9.5449    0.0000 O   0  0
    6.9760   -5.9656    0.0000 N   0  0
    8.8541  -11.7656    0.0000 O   0  0
    6.6506   -2.7402    0.0000 N   0  0
   10.5896   -6.4451    0.0000 O   0  0
    5.7543  -11.2689    0.0000 O   0  0
    7.7923   -5.0179    0.0000 O   0  0
    4.3329   -8.4774    0.0000 O   0  0
    8.0036   -3.1741    0.0000 N   0  0
    6.7134   -3.8420    0.0000 N   0  0
    7.7923  -11.9368    0.0000 C   0  0
   11.6857   -9.2994    0.0000 C   0  0
    8.5002  -12.3365    0.0000 O   0  0
   12.4335   -7.8266    0.0000 C   0  0
    5.2806   -7.6611    0.0000 C   0  0
    6.2396   -6.3424    0.0000 C   0  0
    8.8541   -5.1892    0.0000 C   0  0
   11.7199  -11.2404    0.0000 C   0  0
   10.5554  -12.4050    0.0000 C   0  0
    4.9894  -10.5040    0.0000 C   0  0
    8.5630   -3.7906    0.0000 C   0  0
    8.3061   -4.5784    0.0000 C   0  0
    5.6573   -6.9247    0.0000 C   0  0
   12.5077   -9.2538    0.0000 C   0  0
   12.8845   -8.5174    0.0000 C   0  0
   11.3545  -12.6276    0.0000 C   0  0
   11.9426  -12.0396    0.0000 C   0  0
   10.6044   -6.7090    0.0000 H   0  0
   10.8342   -9.6155    0.0000 H   0  0
  4  2  1  0
  3  1  1  0
  4  3  1  0
  5  1  1  0
  6  2  1  0
  7  5  1  0
  8  9  1  0
  9  6  1  0
 10  7  1  0
 11  8  1  0
 12  2  1  0
 13  1  1  0
 14 20  1  0
 15  5  1  0
 16  4  1  0
 17 21  1  0
 18 13  1  0
 19 33  2  0
 20 11  1  0
 21 10  1  0
 22 39  1  0
 23 24  2  0
 24 16  1  0
 25  3  2  0
 26 17  1  0
 27  6  2  0
 28 19  1  0
 29  7  2  0
 30 11  2  0
 31 17  2  0
 32 22  2  0
 33 45  1  0
 34 19  1  0
  9 35  1  6
 36 13  1  0
 37 35  1  0
 38 18  1  0
 39 47  1  0
 40 26  1  0
 21 41  1  6
 42 24  1  0
 43 23  1  0
 20 44  1  6
 45 46  1  0
 46 41  1  0
 47 40  1  0
 48 36  1  0
 49 48  1  0
 50 51  1  0
 51 42  2  0
 15 18  1  0
 38 49  1  0
 12 23  1  0
 43 50  2  0
 14 22  1  0
  5 52  1  1
  4 53  1  6
M  END