
          11280715482D 1   1.00000     0.00000     0

 32 36  0     0  0            999 V2000
    3.5625   -0.9667    0.0000 C   0  0  0  0  0  0           0  0  0
    2.8042   -0.6250    0.0000 N   0  0  0  0  0  0           0  0  0
    2.2542   -1.2375    0.0000 C   0  0  0  0  0  0           0  0  0
    3.4667   -1.7875    0.0000 C   0  0  0  0  0  0           0  0  0
    2.6542   -1.9542    0.0000 N   0  0  0  0  0  0           0  0  0
    4.2792   -0.5542    0.0000 C   0  0  0  0  0  0           0  0  0
    4.5042   -3.7042    0.0000 C   0  0  3  0  0  0           0  0  0
    4.9917   -0.9750    0.0000 N   0  0  0  0  0  0           0  0  0
    7.8417   -1.0000    0.0000 C   0  0  0  0  0  0           0  0  0
    7.1292   -0.5792    0.0000 C   0  0  0  0  0  0           0  0  0
    5.1125   -5.1917    0.0000 C   0  0  3  0  0  0           0  0  0
    5.8167   -4.0417    0.0000 C   0  0  3  0  0  0           0  0  0
    4.6875   -4.9625    0.0000 C   0  0  3  0  0  0           0  0  0
    4.2792    0.2708    0.0000 O   0  0  0  0  0  0           0  0  0
    4.0750   -2.3417    0.0000 C   0  0  0  0  0  0           0  0  0
    5.7042   -0.5667    0.0000 C   0  0  0  0  0  0           0  0  0
    6.4167   -0.9917    0.0000 C   0  0  0  0  0  0           0  0  0
    4.1417   -4.3792    0.0000 C   0  0  0  0  0  0           0  0  0
    5.2667   -3.4292    0.0000 C   0  0  0  0  0  0           0  0  0
    4.5375   -4.5667    0.0000 C   0  0  0  0  0  0           0  0  0
    7.8375   -1.8250    0.0000 O   0  0  0  0  0  0           0  0  0
    1.4292   -1.1417    0.0000 C   0  0  3  0  0  0           0  0  0
    3.9000   -3.1500    0.0000 C   0  0  0  0  0  0           0  0  0
    4.6667   -5.9000    0.0000 C   0  0  0  0  0  0           0  0  0
    5.3875   -4.6792    0.0000 C   0  0  0  0  0  0           0  0  0
    5.8750   -4.9125    0.0000 C   0  0  0  0  0  0           0  0  0
    8.5625   -0.5917    0.0000 O   0  0  0  0  0  0           0  0  0
    7.1375    0.2458    0.0000 C   0  0  0  0  0  0           0  0  0
    6.4167    0.6583    0.0000 C   0  0  0  0  0  0           0  0  0
    5.7042    0.2500    0.0000 C   0  0  0  0  0  0           0  0  0
    1.1042   -0.3917    0.0000 C   0  0  0  0  0  0           0  0  0
    0.9417   -1.8125    0.0000 C   0  0  0  0  0  0           0  0  0
  2  1  1  0     0  0
  3  2  2  0     0  0
  4  1  2  0     0  0
  5  4  1  0     0  0
  6  1  1  0     0  0
  7 23  1  0     0  0
  8  6  1  0     0  0
  9 10  1  0     0  0
 10 17  1  0     0  0
 11 20  1  0     0  0
 12 19  1  0     0  0
 13 18  1  0     0  0
 14  6  2  0     0  0
 15  4  1  0     0  0
 16  8  1  0     0  0
 17 16  2  0     0  0
 18  7  1  0     0  0
 19  7  1  0     0  0
 20  7  1  0     0  0
 21  9  2  0     0  0
 22  3  1  0     0  0
 23 15  1  0     0  0
 24 11  1  0     0  0
 25 12  1  0     0  0
 26 11  1  0     0  0
 27  9  1  0     0  0
 28 29  1  0     0  0
 29 30  2  0     0  0
 30 16  1  0     0  0
 31 22  1  0     0  0
 32 22  1  0     0  0
  3  5  1  0     0  0
 10 28  2  0     0  0
 12 26  1  0     0  0
 13 24  1  0     0  0
 13 25  1  0     0  0
M  END