
  SciTegic11201309402D

 52 56  0  0  0  0            999 V2000
    7.7500  -14.3000    0.0000 N   0  0
    8.4645  -13.8875    0.0000 C   0  0  2  0  0  0
    9.1789  -14.3000    0.0000 C   0  0
    9.8934  -13.8875    0.0000 N   0  0
    9.1789  -15.1250    0.0000 O   0  0
   10.6051  -14.2976    0.0000 C   0  0  1  0  0  0
   11.3174  -13.8886    0.0000 C   0  0
    9.8888  -13.0592    0.0000 C   0  0
   10.6074  -12.6486    0.0000 C   0  0
   11.3177  -13.0649    0.0000 C   0  0
   12.0313  -12.6580    0.0000 C   0  0
   12.0358  -11.8349    0.0000 C   0  0
   11.3208  -11.4204    0.0000 C   0  0
   10.6101  -11.8297    0.0000 C   0  0
   10.6045  -15.1226    0.0000 C   0  0
    9.8897  -15.5345    0.0000 O   0  0
   11.3186  -15.5357    0.0000 N   0  0
   12.0334  -15.1237    0.0000 C   0  0  2  0  0  0
   12.7475  -15.5368    0.0000 C   0  0
   13.4623  -15.1249    0.0000 N   0  0
   12.7469  -16.3618    0.0000 O   0  0
   12.0340  -14.2987    0.0000 C   0  0
   12.7488  -13.8868    0.0000 C   0  0
   12.7495  -13.0618    0.0000 C   0  0
   13.4643  -12.6499    0.0000 C   0  0
   14.1784  -13.0629    0.0000 N   0  0
    8.4645  -13.0625    0.0000 C   0  0
    7.7500  -12.6500    0.0000 C   0  0
    7.7528  -11.8239    0.0000 C   0  0
    7.0391  -11.4115    0.0000 C   0  0
    6.3237  -11.8241    0.0000 C   0  0
    6.3263  -12.6533    0.0000 C   0  0
    7.0406  -13.0620    0.0000 C   0  0
    7.0432  -13.8870    0.0000 C   0  0
    8.4680  -11.4128    0.0000 C   0  0
    5.6087  -11.4125    0.0000 O   0  0
   14.1765  -15.5379    0.0000 C   0  0
   14.8932  -12.6510    0.0000 C   0  0
   15.6074  -13.0640    0.0000 O   0  0
   14.8939  -11.8260    0.0000 O   0  0
   16.3222  -12.6521    0.0000 C   0  0
   17.0363  -13.0652    0.0000 C   0  0
   17.0341  -13.8886    0.0000 C   0  0
   17.7474  -14.3016    0.0000 C   0  0
   18.4632  -13.8896    0.0000 C   0  0
   18.4612  -13.0603    0.0000 C   0  0
   17.7473  -12.6510    0.0000 C   0  0
   14.1716  -16.3636    0.0000 C   0  0
   14.8849  -16.7766    0.0000 C   0  0
   15.6007  -16.3646    0.0000 C   0  0
   15.5987  -15.5353    0.0000 C   0  0
   14.8848  -15.1260    0.0000 C   0  0
  2  1  1  1
 25 26  1  0
 12 13  1  0
  2 27  1  0
  3  4  1  0
 27 28  1  0
 13 14  2  0
 28 29  2  0
 14  9  1  0
 29 30  1  0
  4  8  1  0
 30 31  2  0
  6 15  1  1
 31 32  1  0
  6  7  1  0
 32 33  2  0
 33 28  1  0
 15 16  2  0
 33 34  1  0
  7 10  1  0
 29 35  1  0
 15 17  1  0
 31 36  1  0
  9  8  1  0
 20 37  1  0
 18 17  1  1
 26 38  1  0
 38 39  1  0
 18 19  1  0
 38 40  2  0
  3  5  2  0
 39 41  1  0
 19 20  1  0
 41 42  1  0
  9 10  2  0
 42 43  2  0
 19 21  2  0
 43 44  1  0
  6  4  1  0
 44 45  2  0
 18 22  1  0
 45 46  1  0
 10 11  1  0
 46 47  2  0
 47 42  1  0
 22 23  1  0
 37 48  2  0
  2  3  1  0
 48 49  1  0
 23 24  1  0
 49 50  2  0
 11 12  2  0
 50 51  1  0
 24 25  1  0
 51 52  2  0
 52 37  1  0
M  END