
          11280715112D 1   1.00000     0.00000     0

 11 10  0     0  0            999 V2000
    3.8167    0.1208    0.0000 P   0  0  3  0  0  0           0  0  0
    1.3417    0.1208    0.0000 C   0  0  0  0  0  0           0  0  0
    1.7542    0.8333    0.0000 C   0  0  3  0  0  0           0  0  0
    2.5792    0.8333    0.0000 C   0  0  0  0  0  0           0  0  0
    2.9917    0.1208    0.0000 O   0  0  0  0  0  0           0  0  0
    3.8167    0.9458    0.0000 O   0  0  0  0  0  0           0  0  0
    1.7542   -0.6000    0.0000 O   0  0  0  0  0  0           0  0  0
    4.6417    0.1208    0.0000 O   0  0  0  0  0  0           0  0  0
    3.8167   -0.7042    0.0000 O   0  0  0  0  0  0           0  0  0
    0.5167    0.1208    0.0000 O   0  0  0  0  0  0           0  0  0
    1.3417    1.5458    0.0000 O   0  0  0  0  0  0           0  0  0
  2  3  1  0     0  0
  3  4  1  0     0  0
  4  5  1  0     0  0
  5  1  1  0     0  0
  6  1  2  0     0  0
  7  2  2  0     0  0
  8  1  1  0     0  0
  9  1  1  0     0  0
 10  2  1  0     0  0
 11  3  1  0     0  0
M  END