
  SciTegic02011310462D

 37 40  0  0  0  0            999 V2000
   12.3741  -29.4179    0.0000 C   0  0
   13.0846  -29.8417    0.0000 C   0  0
   13.8048  -29.4383    0.0000 N   0  0
   13.8156  -28.6113    0.0000 C   0  0
   13.1003  -28.1893    0.0000 C   0  0
   12.3831  -28.5951    0.0000 C   0  0
   14.5347  -28.2068    0.0000 C   0  0
   14.5440  -27.3818    0.0000 N   0  0
   15.2630  -26.9774    0.0000 O   0  0
   13.1078  -27.3643    0.0000 O   0  0
    4.5110  -27.5043    0.0000 C   0  0
    4.5125  -28.3317    0.0000 C   0  0
    5.2287  -28.7422    0.0000 C   0  0
    5.2215  -27.0893    0.0000 C   0  0
    5.9382  -27.4960    0.0000 C   0  0
    5.9442  -28.3245    0.0000 C   0  0
    6.6608  -28.7312    0.0000 C   0  0
    7.3758  -28.3140    0.0000 N   0  0
    7.3698  -27.4855    0.0000 C   0  0
    6.6486  -27.0742    0.0000 C   0  0
    6.6651  -29.5540    0.0000 C   0  0
    5.9514  -29.9701    0.0000 C   0  0
    5.9561  -30.7943    0.0000 C   0  0
    6.6734  -31.2033    0.0000 C   0  0
    7.3878  -30.7822    0.0000 C   0  0
    7.3797  -29.9593    0.0000 C   0  0
    3.7951  -27.0943    0.0000 O   0  0
    3.7922  -26.2693    0.0000 C   0  0
    3.7991  -28.7459    0.0000 O   0  0
    3.0836  -28.3352    0.0000 C   0  0
    8.1008  -28.7078    0.0000 C   0  0
    8.8044  -28.2770    0.0000 C   0  0
    9.5292  -28.6708    0.0000 C   0  0
   10.2328  -28.2399    0.0000 C   0  0
   10.9577  -28.6339    0.0000 C   0  0
   11.6612  -28.2030    0.0000 C   0  0
   13.0734  -30.6666    0.0000 C   0  0
  1  2  2  0
  2  3  1  0
  3  4  2  0
  4  5  1  0
  5  6  2  0
  6  1  1  0
  4  7  1  0
  7  8  2  0
  8  9  1  0
  5 10  1  0
 11 12  2  0
 12 13  1  0
 13 16  2  0
 15 14  2  0
 14 11  1  0
 15 16  1  0
 15 20  1  0
 16 17  1  0
 17 18  1  0
 18 19  1  0
 19 20  1  0
 21 22  2  0
 22 23  1  0
 23 24  2  0
 24 25  1  0
 25 26  2  0
 26 21  1  0
 17 21  1  0
 11 27  1  0
 27 28  1  0
 12 29  1  0
 29 30  1  0
 18 31  1  0
 31 32  1  0
 32 33  1  0
 33 34  1  0
 34 35  1  0
 35 36  1  0
 36  6  1  0
  2 37  1  0
M  END