
          11280714452D 1   1.00000     0.00000     0

 16 17  0     0  0            999 V2000
    5.9292   -3.0542    0.0000 C   0  0  0  0  0  0           0  0  0
    5.4125   -3.9667    0.0000 C   0  0  0  0  0  0           0  0  0
    5.9292   -4.2667    0.0000 O   0  0  0  0  0  0           0  0  0
    5.4125   -3.3625    0.0000 C   0  0  0  0  0  0           0  0  0
    6.4625   -3.9667    0.0000 C   0  0  0  0  0  0           0  0  0
    6.4625   -3.3625    0.0000 C   0  0  0  0  0  0           0  0  0
    4.8917   -4.2667    0.0000 C   0  0  0  0  0  0           0  0  0
    5.9292   -2.4542    0.0000 C   0  0  0  0  0  0           0  0  0
    6.4542   -2.1542    0.0000 C   0  0  0  0  0  0           0  0  0
    4.8917   -3.0625    0.0000 C   0  0  0  0  0  0           0  0  0
    6.9792   -4.2667    0.0000 O   0  0  0  0  0  0           0  0  0
    6.4500   -1.5542    0.0000 O   0  0  0  0  0  0           0  0  0
    4.3750   -3.9667    0.0000 C   0  0  0  0  0  0           0  0  0
    4.3750   -3.3625    0.0000 C   0  0  0  0  0  0           0  0  0
    6.9667   -2.4542    0.0000 O   0  0  0  0  0  0           0  0  0
    3.8542   -4.2667    0.0000 O   0  0  0  0  0  0           0  0  0
  2  4  1  0     0  0
  3  5  1  0     0  0
  4  1  1  0     0  0
  5  6  1  0     0  0
  6  1  2  0     0  0
  7  2  2  0     0  0
  8  1  1  0     0  0
  9  8  1  0     0  0
 10  4  2  0     0  0
 11  5  2  0     0  0
 12  9  2  0     0  0
 13 14  2  0     0  0
 14 10  1  0     0  0
 15  9  1  0     0  0
 16 13  1  0     0  0
  3  2  1  0     0  0
  7 13  1  0     0  0
M  END