
  SciTegic12131016252D

 35 40  0  0  0  0            999 V2000
    5.6527   -3.9250    0.0000 C   0  0
    5.6516   -4.7523    0.0000 C   0  0
    6.3664   -5.1652    0.0000 C   0  0
    6.3646   -3.5122    0.0000 C   0  0
    7.0800   -3.9213    0.0000 C   0  0
    7.0807   -4.7482    0.0000 C   0  0
    7.7960   -5.1591    0.0000 N   0  0
    8.5111   -4.7444    0.0000 C   0  0
    8.5063   -3.9144    0.0000 C   0  0
    7.7904   -3.5072    0.0000 C   0  0
    9.2271   -5.1541    0.0000 C   0  0
    6.3621   -2.6872    0.0000 N   0  0
    7.0756   -2.2795    0.0000 C   0  0
    7.0751   -1.4581    0.0000 C   0  0
    6.3612   -1.0439    0.0000 N   0  0
    5.6462   -1.4573    0.0000 C   0  0
    5.6450   -2.2849    0.0000 C   0  0
    6.3619   -0.2189    0.0000 C   0  0
    7.0767    0.1931    0.0000 C   0  0
    7.0774    1.0181    0.0000 C   0  0
    6.3624    2.2465    0.0000 C   0  0
    6.3649    1.4236    0.0000 C   0  0
    7.0796    2.6628    0.0000 C   0  0
    7.7958    2.2448    0.0000 C   0  0
    7.7961    1.4250    0.0000 C   0  0
    8.5022    1.0177    0.0000 O   0  0
    9.2126    1.4256    0.0000 C   0  0
    8.5016    2.6572    0.0000 N   0  0
    9.2088    2.2479    0.0000 C   0  0
    9.8166    2.7941    0.0000 C   0  0
    9.4850    3.5409    0.0000 N   0  0
    8.6723    3.4562    0.0000 C   0  0
   10.6234    2.6217    0.0000 C   0  0
   10.8775    1.8368    0.0000 N   0  0
   11.1760    3.2343    0.0000 O   0  0
 15 16  1  0
 16 17  1  0
  5  4  2  0
 15 18  1  0
  8  9  1  0
 18 19  1  0
  4  1  1  0
 19 20  1  0
 20 25  2  0
  9 10  2  0
 23 21  1  0
 10  5  1  0
 21 22  2  0
 22 20  1  0
 23 24  2  0
 24 25  1  0
  8 11  1  0
  2  3  1  0
  4 12  1  0
 12 13  1  0
 24 28  1  0
 25 26  1  0
 26 27  1  0
 27 29  1  0
 28 29  1  0
  5  6  1  0
  3  6  2  0
  6  7  1  0
  1  2  2  0
  7  8  2  0
 29 30  2  0
 30 31  1  0
 31 32  2  0
 32 28  1  0
 12 17  1  0
 30 33  1  0
 13 14  1  0
 33 34  1  0
 14 15  1  0
 33 35  2  0
M  END