
  SciTegic01161211252D

 30 30  0  0  0  0            999 V2000
   -0.3958   -7.4792    0.0000 S   0  0
    8.1917   -0.8417    0.0000 C   0  0  1  0  0  0
    7.4792   -1.2542    0.0000 C   0  0
    8.9042   -1.2542    0.0000 C   0  0
    2.4792   -5.8042    0.0000 C   0  0
    0.3292   -7.0542    0.0000 C   0  0
    8.1917   -0.0125    0.0000 N   0  0
   -0.8208   -6.7625    0.0000 O   0  0
    0.0292   -8.2042    0.0000 O   0  0
    1.7542   -6.2292    0.0000 C   0  0
   -1.1125   -7.9042    0.0000 N   0  0
    7.4792   -2.0792    0.0000 O   0  0
    2.4750   -4.9792    0.0000 O   0  0
    8.5250   -1.9542    0.0000 O   0  0
    0.3292   -6.2292    0.0000 C   0  0
    1.0417   -7.4667    0.0000 C   0  0
    1.0417   -5.8167    0.0000 C   0  0
    1.7542   -7.0542    0.0000 C   0  0
    6.7625   -0.8417    0.0000 N   0  0
    3.2000   -6.2167    0.0000 N   0  0
   10.1250   -0.6250    0.0000 N   0  0
    9.7042   -1.3792    0.0000 C   0  0
    4.6250   -4.5667    0.0000 O   0  0
    5.3375   -2.4917    0.0000 O   0  0
    3.9125   -5.8042    0.0000 C   0  0
    6.0500   -1.2542    0.0000 C   0  0
    6.0500   -2.0792    0.0000 C   0  0
    3.9125   -4.9792    0.0000 C   0  0
    5.3375   -3.3250    0.0000 C   0  0
    4.6250   -3.7375    0.0000 C   0  0
  2  3  1  0
  3 19  1  0
  2  4  1  6
  5 10  1  0
  6  1  1  0
  7  2  1  0
  8  1  2  0
  9  1  2  0
 10 18  1  0
 11  1  1  0
 12  3  2  0
 13  5  2  0
 14  4  2  0
 15  6  2  0
 16  6  1  0
 17 15  1  0
 18 16  2  0
 19 26  1  0
 20  5  1  0
 21 22  1  0
 22  4  1  0
 23 28  1  0
 24 29  1  0
 25 20  1  0
 26 27  1  0
 27 24  1  0
 28 25  1  0
 29 30  1  0
 30 23  1  0
 10 17  2  0
M  END