
  SciTegic06271217572D

 23 24  0  0  0  0            999 V2000
    6.0870   -6.0652    0.0000 S   0  0
    6.4993   -6.7798    0.0000 O   0  0
    6.9120   -6.0654    0.0000 O   0  0
    5.3736   -4.0000    0.0000 C   0  0
    5.3724   -4.8273    0.0000 C   0  0
    6.0872   -5.2402    0.0000 C   0  0
    6.8037   -4.8269    0.0000 C   0  0
    6.8008   -3.9963    0.0000 C   0  0
    6.0854   -3.5872    0.0000 C   0  0
    7.5137   -3.5811    0.0000 C   0  0
    8.2297   -3.9909    0.0000 C   0  0
    7.5106   -2.7561    0.0000 O   0  0
    8.9427   -3.5758    0.0000 S   0  0
    9.6587   -3.9856    0.0000 C   0  0
    9.6587   -4.8094    0.0000 N   0  0
   10.3738   -5.2191    0.0000 C   0  0
   11.0877   -4.8039    0.0000 C   0  0
   11.0820   -3.9746    0.0000 C   0  0
   10.3662   -3.5687    0.0000 N   0  0
    4.6576   -5.2393    0.0000 Cl  0  0
    5.3725   -6.4775    0.0000 N   0  0
   11.7934   -3.5569    0.0000 C   0  0
   10.3765   -6.0441    0.0000 C   0  0
 10 12  2  0
  6  7  2  0
 11 13  1  0
  2  1  2  0
 13 14  1  0
  7  8  1  0
 14 15  2  0
  4  5  2  0
 15 16  1  0
  8  9  2  0
 16 17  2  0
  9  4  1  0
 17 18  1  0
  1  3  2  0
 18 19  2  0
 19 14  1  0
  8 10  1  0
  5 20  1  0
  6  1  1  0
  5  6  1  0
  1 21  1  0
 10 11  1  0
 18 22  1  0
 16 23  1  0
M  END