
  Mrv0541 04051115152D          

 34 36  0  0  0  0            999 V2000
   -4.8579  -14.7946    0.0000 N   0  0  0  0  0  0  0  0  0  0  0  0
   -4.1434  -14.3821    0.0000 C   0  0  0  0  0  0  0  0  0  0  0  0
   -3.4290  -13.9696    0.0000 C   0  0  0  0  0  0  0  0  0  0  0  0
   -3.4290  -13.1446    0.0000 C   0  0  0  0  0  0  0  0  0  0  0  0
   -2.7145  -12.7321    0.0000 C   0  0  0  0  0  0  0  0  0  0  0  0
   -2.7145  -14.3821    0.0000 C   0  0  0  0  0  0  0  0  0  0  0  0
   -2.0000  -13.9696    0.0000 C   0  0  0  0  0  0  0  0  0  0  0  0
   -2.0000  -13.1446    0.0000 C   0  0  0  0  0  0  0  0  0  0  0  0
   -1.2856  -12.7321    0.0000 C   0  0  0  0  0  0  0  0  0  0  0  0
   -1.2856  -11.9071    0.0000 O   0  0  0  0  0  0  0  0  0  0  0  0
   -0.5711  -11.4946    0.0000 C   0  0  0  0  0  0  0  0  0  0  0  0
   -0.5711  -10.6696    0.0000 C   0  0  0  0  0  0  0  0  0  0  0  0
    0.1434  -10.2571    0.0000 C   0  0  0  0  0  0  0  0  0  0  0  0
    0.1434  -11.9071    0.0000 C   0  0  0  0  0  0  0  0  0  0  0  0
    0.8579  -11.4946    0.0000 C   0  0  0  0  0  0  0  0  0  0  0  0
    0.8579  -10.6696    0.0000 C   0  0  0  0  0  0  0  0  0  0  0  0
    1.5723  -10.2571    0.0000 C   0  0  0  0  0  0  0  0  0  0  0  0
    1.5723  -11.9071    0.0000 C   0  0  0  0  0  0  0  0  0  0  0  0
    2.2868  -11.4946    0.0000 C   0  0  0  0  0  0  0  0  0  0  0  0
    2.2868  -10.6696    0.0000 C   0  0  0  0  0  0  0  0  0  0  0  0
    3.0013  -10.2571    0.0000 S   0  0  0  0  0  0  0  0  0  0  0  0
    3.4138  -10.9716    0.0000 O   0  0  0  0  0  0  0  0  0  0  0  0
    2.5888   -9.5427    0.0000 O   0  0  0  0  0  0  0  0  0  0  0  0
    3.7157   -9.8446    0.0000 N   0  0  0  0  0  0  0  0  0  0  0  0
    3.7157   -9.0196    0.0000 C   0  0  1  0  0  0  0  0  0  0  0  0
    3.0013   -8.6071    0.0000 C   0  0  0  0  0  0  0  0  0  0  0  0
    3.0013   -7.7821    0.0000 O   0  0  0  0  0  0  0  0  0  0  0  0
    2.2868   -9.0196    0.0000 O   0  0  0  0  0  0  0  0  0  0  0  0
    4.4302   -8.6071    0.0000 C   0  0  0  0  0  0  0  0  0  0  0  0
    4.4302   -7.7821    0.0000 C   0  0  0  0  0  0  0  0  0  0  0  0
    5.1447   -7.3696    0.0000 C   0  0  0  0  0  0  0  0  0  0  0  0
    5.1447   -6.5446    0.0000 O   0  0  0  0  0  0  0  0  0  0  0  0
    5.8591   -7.7821    0.0000 O   0  0  0  0  0  0  0  0  0  0  0  0
   -1.2856  -14.3821    0.0000 F   0  0  0  0  0  0  0  0  0  0  0  0
  2  1  3  0  0  0  0
  3  2  1  0  0  0  0
  3  4  1  0  0  0  0
  6  3  2  0  0  0  0
  4  5  2  0  0  0  0
  8  5  1  0  0  0  0
  7  6  1  0  0  0  0
  8  7  2  0  0  0  0
  7 34  1  0  0  0  0
  9  8  1  0  0  0  0
  9 10  1  0  0  0  0
 11 10  1  0  0  0  0
 12 11  1  0  0  0  0
 11 14  2  0  0  0  0
 13 12  2  0  0  0  0
 16 13  1  0  0  0  0
 15 14  1  0  0  0  0
 15 16  2  0  0  0  0
 18 15  1  0  0  0  0
 16 17  1  0  0  0  0
 20 17  2  0  0  0  0
 19 18  2  0  0  0  0
 20 19  1  0  0  0  0
 20 21  1  0  0  0  0
 22 21  2  0  0  0  0
 23 21  2  0  0  0  0
 24 21  1  0  0  0  0
 25 24  1  1  0  0  0
 26 25  1  0  0  0  0
 25 29  1  0  0  0  0
 26 27  1  0  0  0  0
 26 28  2  0  0  0  0
 29 30  1  0  0  0  0
 31 30  1  0  0  0  0
 31 32  1  0  0  0  0
 31 33  2  0  0  0  0
M  END