
  SciTegic06051313522D

 48 51  0  0  0  0            999 V2000
   29.6833  -18.6621    0.0000 O   0  0
   30.3926  -18.2561    0.0000 C   0  0
   30.3932  -17.4406    0.0000 C   0  0
   31.1016  -17.0347    0.0000 C   0  0
   31.8088  -17.4461    0.0000 C   0  0
   31.8031  -18.2675    0.0000 C   0  0
   31.0941  -18.6696    0.0000 C   0  0
   31.1043  -16.2176    0.0000 F   0  0
   32.5038  -18.6799    0.0000 C   0  0
   33.2148  -18.2747    0.0000 N   0  0
   33.9190  -18.6878    0.0000 C   0  0
   33.9135  -19.5058    0.0000 C   0  0
   33.1978  -19.9091    0.0000 C   0  0
   32.4965  -19.4937    0.0000 C   0  0
   34.6189  -19.9218    0.0000 C   0  0
   35.3301  -19.5194    0.0000 O   0  0
   34.6118  -20.7390    0.0000 O   0  0
   22.6075  -18.6839    0.0000 C   0  0
   22.6064  -19.5035    0.0000 C   0  0
   23.3144  -19.9124    0.0000 C   0  0
   24.0241  -19.5030    0.0000 C   0  0
   24.0213  -18.6803    0.0000 C   0  0
   23.3127  -18.2751    0.0000 C   0  0
   24.7325  -19.9105    0.0000 Cl  0  0
   21.8997  -18.2755    0.0000 O   0  0
   21.8995  -17.4583    0.0000 C   0  0
   21.8984  -19.9115    0.0000 N   0  0
   21.8977  -20.7287    0.0000 C   0  0
   21.1897  -21.1367    0.0000 C   0  0
   22.6051  -21.1378    0.0000 O   0  0
   21.1890  -21.9539    0.0000 S   0  0
   20.4810  -22.3620    0.0000 C   0  0
   19.7755  -21.9487    0.0000 N   0  0
   19.0679  -22.3561    0.0000 C   0  0
   19.0668  -23.1741    0.0000 C   0  0
   19.7792  -23.5831    0.0000 C   0  0
   20.4838  -23.1734    0.0000 C   0  0
   18.3592  -23.5803    0.0000 C   0  0
   17.6513  -23.1721    0.0000 O   0  0
   18.3597  -24.3975    0.0000 O   0  0
   24.7274  -18.2691    0.0000 O   0  0
   25.4367  -18.6750    0.0000 C   0  0
   26.1428  -18.2637    0.0000 C   0  0
   26.8521  -18.6697    0.0000 C   0  0
   27.5583  -18.2584    0.0000 N   0  0
   28.2675  -18.6643    0.0000 C   0  0
   28.9737  -18.2531    0.0000 C   0  0
   28.2706  -19.4815    0.0000 O   0  0
  1  2  1  0
  2  3  2  0
  3  4  1  0
  4  5  2  0
  5  6  1  0
  6  7  2  0
  7  2  1  0
  4  8  1  0
  9 10  2  0
 10 11  1  0
 11 12  2  0
 12 13  1  0
 13 14  2  0
 14  9  1  0
  6  9  1  0
 15 16  1  0
 15 17  2  0
 12 15  1  0
 18 19  2  0
 19 20  1  0
 20 21  2  0
 21 22  1  0
 22 23  2  0
 23 18  1  0
 21 24  1  0
 18 25  1  0
 25 26  1  0
 19 27  1  0
 27 28  1  0
 28 29  1  0
 28 30  2  0
 29 31  1  0
 31 32  1  0
 32 33  2  0
 33 34  1  0
 34 35  2  0
 35 36  1  0
 36 37  2  0
 37 32  1  0
 38 39  1  0
 38 40  2  0
 35 38  1  0
 22 41  1  0
 41 42  1  0
 42 43  1  0
 43 44  1  0
 44 45  1  0
 45 46  1  0
 46 47  1  0
 47  1  1  0
 46 48  2  0
M  END