
  CDK    9/16/09,9:55

 45 50  0  0  0  0  0  0  0  0999 V2000
   10.9699    2.2706    0.0000 C   0  0  0  0  0  0  0  0  0  0  0  0
   10.9699    1.4457    0.0000 C   0  0  0  0  0  0  0  0  0  0  0  0
   11.6819    1.0374    0.0000 C   0  0  0  0  0  0  0  0  0  0  0  0
   11.6819    2.6873    0.0000 O   0  0  0  0  0  0  0  0  0  0  0  0
   10.2544    2.6810    0.0000 C   0  0  0  0  0  0  0  0  0  0  0  0
   10.2562    1.0322    0.0000 O   0  0  0  0  0  0  0  0  0  0  0  0
    9.5411    2.2664    0.0000 O   0  0  0  0  0  0  0  0  0  0  0  0
   12.3956    1.4410    0.0000 C   0  0  0  0  0  0  0  0  0  0  0  0
   12.3939    2.2706    0.0000 C   0  0  0  0  0  0  0  0  0  0  0  0
   13.0441    2.7951    0.0000 C   0  0  0  0  0  0  0  0  0  0  0  0
   13.0510    0.9231    0.0000 O   0  0  0  0  0  0  0  0  0  0  0  0
   13.8572    2.6174    0.0000 C   0  0  0  0  0  0  0  0  0  0  0  0
   14.2197    1.8682    0.0000 C   0  0  0  0  0  0  0  0  0  0  0  0
   13.8609    1.1136    0.0000 C   0  0  0  0  0  0  0  0  0  0  0  0
   14.3323    0.4294    0.0000 C   0  0  0  0  0  0  0  0  0  0  0  0
   15.0501    1.9385    0.0000 O   0  0  0  0  0  0  0  0  0  0  0  0
   15.5237    1.2481    0.0000 C   0  0  0  0  0  0  0  0  0  0  0  0
   15.1604    0.4934    0.0000 C   0  0  0  0  0  0  0  0  0  0  0  0
   15.6297   -0.1949    0.0000 O   0  0  0  0  0  0  0  0  0  0  0  0
   16.4646   -0.1346    0.0000 C   0  0  0  0  0  0  0  0  0  0  0  0
   16.8279    0.6201    0.0000 C   0  0  0  0  0  0  0  0  0  0  0  0
   16.3565    1.3146    0.0000 C   0  0  0  0  0  0  0  0  0  0  0  0
   16.9283   -0.8167    0.0000 C   0  0  0  0  0  0  0  0  0  0  0  0
   17.6506    0.6810    0.0000 O   0  0  0  0  0  0  0  0  0  0  0  0
   14.7405   -0.2167    0.0000 H   0  0  0  0  0  0  0  0  0  0  0  0
   15.9320    1.9665    0.0000 H   0  0  0  0  0  0  0  0  0  0  0  0
   13.4406    0.4042    0.0000 H   0  0  0  0  0  0  0  0  0  0  0  0
   14.6280    2.5873    0.0000 C   0  0  0  0  0  0  0  0  0  0  0  0
   12.3907    0.6166    0.0000 H   0  0  0  0  0  0  0  0  0  0  0  0
   12.3865    3.0955    0.0000 H   0  0  0  0  0  0  0  0  0  0  0  0
   18.1146   -0.0010    0.0000 C   0  0  0  0  0  0  0  0  0  0  0  0
   18.9373    0.0599    0.0000 C   0  0  0  0  0  0  0  0  0  0  0  0
   19.3971   -0.6232    0.0000 C   0  0  0  0  0  0  0  0  0  0  0  0
   20.2190   -0.5628    0.0000 C   0  0  0  0  0  0  0  0  0  0  0  0
   20.5785    0.1808    0.0000 C   0  0  0  0  0  0  0  0  0  0  0  0
   20.1098    0.8648    0.0000 C   0  0  0  0  0  0  0  0  0  0  0  0
   19.2895    0.8009    0.0000 C   0  0  0  0  0  0  0  0  0  0  0  0
   16.5694   -1.5595    0.0000 O   0  0  0  0  0  0  0  0  0  0  0  0
   17.0333   -2.2417    0.0000 C   0  0  0  0  0  0  0  0  0  0  0  0
   16.6744   -2.9845    0.0000 C   0  0  0  0  0  0  0  0  0  0  0  0
   15.8518   -3.0416    0.0000 C   0  0  0  0  0  0  0  0  0  0  0  0
   15.4929   -3.7835    0.0000 C   0  0  0  0  0  0  0  0  0  0  0  0
   15.9568   -4.4666    0.0000 C   0  0  0  0  0  0  0  0  0  0  0  0
   16.7836   -4.4030    0.0000 C   0  0  0  0  0  0  0  0  0  0  0  0
   17.1387   -3.6608    0.0000 C   0  0  0  0  0  0  0  0  0  0  0  0
 19 20  1  0  0  0  0 
 20 21  1  0  0  0  0 
 21 22  1  0  0  0  0 
  8 11  1  0  0  0  0 
 20 23  1  6  0  0  0 
  1  5  1  1  0  0  0 
 21 24  1  1  0  0  0 
 10 12  1  0  0  0  0 
 18 25  1  1  0  0  0 
 11 14  1  0  0  0  0 
 17 26  1  6  0  0  0 
 12 13  1  0  0  0  0 
 14 27  1  1  0  0  0 
 13 14  1  0  0  0  0 
 13 28  1  6  0  0  0 
  1  2  1  0  0  0  0 
  8 29  1  1  0  0  0 
  2  6  1  6  0  0  0 
  9 30  1  6  0  0  0 
  1  4  1  0  0  0  0 
 24 31  1  0  0  0  0 
  5  7  1  0  0  0  0 
 31 32  1  0  0  0  0 
 13 16  1  0  0  0  0 
 32 33  2  0  0  0  0 
 14 15  1  0  0  0  0 
 33 34  1  0  0  0  0 
 15 18  1  0  0  0  0 
 34 35  2  0  0  0  0 
 17 16  1  0  0  0  0 
 35 36  1  0  0  0  0 
 17 18  1  0  0  0  0 
 36 37  2  0  0  0  0 
 37 32  1  0  0  0  0 
  2  3  1  0  0  0  0 
 23 38  1  0  0  0  0 
  3  8  1  0  0  0  0 
 38 39  1  0  0  0  0 
  8  9  1  0  0  0  0 
 39 40  1  0  0  0  0 
  9  4  1  0  0  0  0 
 40 41  2  0  0  0  0 
  9 10  1  0  0  0  0 
 41 42  1  0  0  0  0 
 42 43  2  0  0  0  0 
 17 22  1  0  0  0  0 
 43 44  1  0  0  0  0 
 18 19  1  0  0  0  0 
 44 45  2  0  0  0  0 
 45 40  1  0  0  0  0 
M  END