
          11280714572D 1   1.00000     0.00000     0

 32 35  0     0  0            999 V2000
    4.1167   -4.6250    0.0000 S   0  0  3  0  0  0           0  0  0
    8.3917   -4.5875    0.0000 C   0  0  0  0  0  0           0  0  0
    7.6875   -5.8292    0.0000 N   0  0  3  0  0  0           0  0  0
    6.9667   -4.5917    0.0000 C   0  0  0  0  0  0           0  0  0
    8.4000   -5.4125    0.0000 C   0  0  0  0  0  0           0  0  0
    6.9667   -5.4167    0.0000 C   0  0  0  0  0  0           0  0  0
    4.8292   -4.2042    0.0000 N   0  0  0  0  0  0           0  0  0
    3.4000   -4.2125    0.0000 C   0  0  0  0  0  0           0  0  0
    3.5292   -5.2042    0.0000 O   0  0  0  0  0  0           0  0  0
    4.5250   -5.3375    0.0000 O   0  0  0  0  0  0           0  0  0
    8.4125   -7.0625    0.0000 C   0  0  0  0  0  0           0  0  0
    7.6917   -6.6542    0.0000 C   0  0  0  0  0  0           0  0  0
    8.4167   -7.8875    0.0000 C   0  0  0  0  0  0           0  0  0
    6.2625   -5.8417    0.0000 C   0  0  0  0  0  0           0  0  0
    8.9792   -4.0000    0.0000 C   0  0  0  0  0  0           0  0  0
    6.2500   -4.1917    0.0000 C   0  0  0  0  0  0           0  0  0
    5.5417   -4.6125    0.0000 C   0  0  0  0  0  0           0  0  0
   10.7917   -5.2167    0.0000 N   0  0  0  0  0  0           0  0  0
    7.7042   -8.3042    0.0000 O   0  0  0  0  0  0           0  0  0
    2.6792   -4.6250    0.0000 C   0  0  0  0  0  0           0  0  0
    3.4000   -3.3792    0.0000 C   0  0  0  0  0  0           0  0  0
    5.5417   -5.4375    0.0000 C   0  0  0  0  0  0           0  0  0
    1.9667   -3.3875    0.0000 C   0  0  0  0  0  0           0  0  0
    9.7750   -4.2125    0.0000 C   0  0  0  0  0  0           0  0  0
    9.1292   -8.2917    0.0000 O   0  0  0  0  0  0           0  0  0
    2.6792   -2.9667    0.0000 C   0  0  0  0  0  0           0  0  0
    1.9667   -4.2125    0.0000 C   0  0  0  0  0  0           0  0  0
    1.2542   -2.9750    0.0000 F   0  0  0  0  0  0           0  0  0
    9.9917   -5.0125    0.0000 C   0  0  0  0  0  0           0  0  0
   11.3750   -4.6250    0.0000 C   0  0  0  0  0  0           0  0  0
   10.3542   -3.6250    0.0000 C   0  0  0  0  0  0           0  0  0
   11.1542   -3.8292    0.0000 C   0  0  0  0  0  0           0  0  0
  2  4  1  0     0  0
  3  6  1  0     0  0
  4 16  2  0     0  0
  5  2  2  0     0  0
  6 14  2  0     0  0
  7  1  1  0     0  0
  8  1  1  0     0  0
  9  1  2  0     0  0
 10  1  2  0     0  0
 11 12  1  0     0  0
 12  3  1  0     0  0
 13 11  1  0     0  0
 14 22  1  0     0  0
 15  2  1  0     0  0
 16 17  1  0     0  0
 17  7  1  0     0  0
 18 29  2  0     0  0
 19 13  2  0     0  0
 20  8  2  0     0  0
 21  8  1  0     0  0
 22 17  2  0     0  0
 23 26  1  0     0  0
 24 15  1  0     0  0
 25 13  1  0     0  0
 26 21  2  0     0  0
 27 20  1  0     0  0
 28 23  1  0     0  0
 29 24  1  0     0  0
 30 32  2  0     0  0
 31 24  2  0     0  0
 32 31  1  0     0  0
 27 23  2  0     0  0
  4  6  1  0     0  0
  3  5  1  0     0  0
 18 30  1  0     0  0
M  END