
  SciTegic05171617292D

 48 53  0  0  0  0            999 V2000
   -2.5563    9.4552    0.0000 C   0  0
   -2.5634    8.2553    0.0000 C   0  0
   -3.8669    7.5130    0.0000 C   0  0
   -3.8757    6.0130    0.0000 C   0  0
   -2.5812    5.2552    0.0000 C   0  0
   -2.5870    3.7544    0.0000 C   0  0
   -1.2907    2.9981    0.0000 C   0  0
   -0.2489    3.5938    0.0000 O   0  0
   -1.2964    1.4973    0.0000 C   0  0
   -2.6111    0.7486    0.0000 C   0  0
   -3.6486    1.3517    0.0000 O   0  0
   -2.6111   -0.7486    0.0000 C   0  0
   -3.6486   -1.3517    0.0000 O   0  0
   -1.2964   -1.4973    0.0000 C   0  0
    0.0000   -0.7486    0.0000 C   0  0
    1.2964   -1.4973    0.0000 C   0  0
    1.2964   -2.6973    0.0000 O   0  0
    2.5929   -0.7486    0.0000 C   0  0
    2.5929    0.7486    0.0000 C   0  0
    3.6321    1.3486    0.0000 C   0  0
    1.2964    1.4973    0.0000 C   0  0
    0.0000    0.7486    0.0000 C   0  0
    3.8926   -1.4990    0.0000 C   0  0
    5.1908   -0.7524    0.0000 C   0  0
    5.1970    0.4475    0.0000 C   0  0
    6.4945   -1.5201    0.0000 C   0  0
    6.4905   -3.0171    0.0000 C   0  0
    7.7851   -3.7689    0.0000 C   0  0
    9.0884   -3.0245    0.0000 C   0  0
    9.0936   -1.8245    0.0000 O   0  0
   10.3851   -3.7802    0.0000 C   0  0
   11.6883   -3.0358    0.0000 C   0  0
   12.9855   -3.7892    0.0000 C   0  0
   14.2865   -3.0426    0.0000 C   0  0
   14.2904   -1.5426    0.0000 C   0  0
   15.3312   -0.9453    0.0000 C   0  0
   12.9933   -0.7892    0.0000 C   0  0
   11.6923   -1.5358    0.0000 C   0  0
    7.7811   -5.2660    0.0000 C   0  0
    8.8187   -5.8687    0.0000 O   0  0
    6.4825   -6.0112    0.0000 C   0  0
    6.4794   -7.2112    0.0000 O   0  0
    5.1878   -5.2594    0.0000 C   0  0
    5.1919   -3.7624    0.0000 C   0  0
    3.8973   -3.0106    0.0000 C   0  0
    2.8582   -3.6109    0.0000 O   0  0
   -1.2777    5.9976    0.0000 C   0  0
   -1.2688    7.4976    0.0000 C   0  0
  1  2  1  0
  2  3  2  0
  3  4  1  0
  4  5  2  0
  5  6  1  0
  6  7  1  0
  7  8  2  0
  7  9  1  0
  9 10  1  0
 10 11  1  0
 10 12  2  0
 12 13  1  0
 12 14  1  0
 14 15  2  0
 15 16  1  0
 16 17  1  0
 16 18  2  0
 18 19  1  0
 19 20  1  0
 19 21  2  0
 21 22  1  0
  9 22  2  0
 15 22  1  0
 18 23  1  0
 23 24  2  0
 24 25  1  0
 24 26  1  0
 26 27  2  0
 27 28  1  0
 28 29  1  0
 29 30  2  0
 29 31  1  0
 31 32  1  0
 32 33  2  0
 33 34  1  0
 34 35  2  0
 35 36  1  0
 35 37  1  0
 37 38  2  0
 32 38  1  0
 28 39  2  0
 39 40  1  0
 39 41  1  0
 41 42  1  0
 41 43  2  0
 43 44  1  0
 27 44  1  0
 44 45  2  0
 23 45  1  0
 45 46  1  0
  5 47  1  0
 47 48  2  0
  2 48  1  0
M  END