
  SciTegic01161211252D

 27 30  0  0  0  0            999 V2000
   -3.1340  -14.0367    0.0000 C   0  0
   -0.5348  -14.5874    0.0000 N   0  0
    0.1798  -15.0013    0.0000 C   0  0
    0.1786  -15.8270    0.0000 O   0  0
    0.8954  -14.5896    0.0000 C   0  0
    1.6083  -15.0043    0.0000 C   0  0
    2.3234  -14.5932    0.0000 N   0  0
    2.3251  -13.7665    0.0000 C   0  0
    1.6056  -13.3529    0.0000 C   0  0
    0.8933  -13.7663    0.0000 C   0  0
    3.0402  -13.3538    0.0000 O   0  0
    3.7552  -13.7667    0.0000 C   0  0
    3.7503  -14.5927    0.0000 C   0  0
    4.4645  -15.0056    0.0000 C   0  0
    5.1806  -14.5928    0.0000 C   0  0
    5.1781  -13.7627    0.0000 C   0  0
    4.4633  -13.3536    0.0000 C   0  0
   -1.2182  -15.0507    0.0000 C   0  0
   -2.0093  -14.8073    0.0000 C   0  0
   -0.4759  -13.7642    0.0000 C   0  0
   -2.3140  -14.0412    0.0000 N   0  0
   -1.0827  -13.2022    0.0000 C   0  0
   -1.8997  -13.3283    0.0000 C   0  0
   -3.7106  -13.4536    0.0000 C   0  0
   -4.2937  -14.0302    0.0000 C   0  0
   -3.7171  -14.6133    0.0000 C   0  0
    5.8917  -13.3475    0.0000 Cl  0  0
 13 14  1  0
  7  8  2  0
 14 15  2  0
  3  5  1  0
 15 16  1  0
  8  9  1  0
 16 17  2  0
 17 12  1  0
  2 18  1  0
  9 10  2  0
 18 19  1  0
 10  5  1  0
  2 20  1  0
  5  6  2  0
 19 21  1  0
  8 11  1  0
 20 22  1  0
  3  4  2  0
 21 23  1  0
 22 23  1  0
 21  1  1  0
  1 24  1  0
 11 12  1  0
  6  7  1  0
 12 13  2  0
 24 25  1  0
 25 26  1  0
 26  1  1  0
  2  3  1  0
 16 27  1  0
M  END