
          11280714442D 1   1.00000     0.00000     0

 27 27  0     0  0            999 V2000
    3.7917   -1.4792    0.0000 C   0  0  0  0  0  0           0  0  0
    4.6167   -1.4667    0.0000 C   0  0  0  0  0  0           0  0  0
   10.4042   -2.8125    0.0000 C   0  0  0  0  0  0           0  0  0
    5.0417   -2.1667    0.0000 O   0  0  0  0  0  0           0  0  0
    9.5792   -2.8125    0.0000 N   0  0  0  0  0  0           0  0  0
    3.3667   -0.7792    0.0000 C   0  0  0  0  0  0           0  0  0
   10.8167   -2.0917    0.0000 O   0  0  0  0  0  0           0  0  0
    5.0167   -0.7417    0.0000 O   0  0  0  0  0  0           0  0  0
    7.5167   -2.1167    0.0000 N   0  0  0  0  0  0           0  0  0
    8.3417   -2.1000    0.0000 C   0  0  3  0  0  0           0  0  0
    9.1667   -2.1000    0.0000 C   0  0  0  0  0  0           0  0  0
    6.3000   -2.8542    0.0000 C   0  0  3  0  0  0           0  0  0
    5.8667   -2.1542    0.0000 C   0  0  0  0  0  0           0  0  0
   10.8167   -3.5250    0.0000 O   0  0  0  0  0  0           0  0  0
    7.1250   -2.8417    0.0000 C   0  0  0  0  0  0           0  0  0
    3.7667   -0.0542    0.0000 F   0  0  0  0  0  0           0  0  0
    3.4000   -2.2042    0.0000 C   0  0  0  0  0  0           0  0  0
    5.9042   -3.5792    0.0000 O   0  0  0  0  0  0           0  0  0
   10.4042   -5.6667    0.0000 O   0  0  0  0  0  0           0  0  0
    2.5417   -0.7917    0.0000 C   0  0  0  0  0  0           0  0  0
    8.7750   -2.8042    0.0000 C   0  0  0  0  0  0           0  0  0
    8.7417   -1.3750    0.0000 C   0  0  0  0  0  0           0  0  0
   10.4042   -4.2417    0.0000 C   0  0  0  0  0  0           0  0  0
   10.8167   -4.9542    0.0000 C   0  0  0  0  0  0           0  0  0
   10.8167   -6.3792    0.0000 C   0  0  0  0  0  0           0  0  0
    2.5667   -2.2250    0.0000 C   0  0  0  0  0  0           0  0  0
    2.1417   -1.5167    0.0000 C   0  0  0  0  0  0           0  0  0
  2  1  1  0     0  0
  3  5  1  0     0  0
  4  2  1  0     0  0
  5 11  1  0     0  0
  6  1  1  0     0  0
  7  3  2  0     0  0
  8  2  2  0     0  0
  9 15  1  0     0  0
 10  9  1  0     0  0
 11 10  1  0     0  0
 12 13  1  0     0  0
 13  4  1  0     0  0
 14  3  1  0     0  0
 15 12  1  0     0  0
 16  6  1  0     0  0
 17  1  2  0     0  0
 18 12  1  0     0  0
 19 24  1  0     0  0
 20  6  2  0     0  0
 21 10  1  0     0  0
 22 10  1  0     0  0
 23 14  1  0     0  0
 24 23  1  0     0  0
 25 19  1  0     0  0
 26 17  1  0     0  0
 27 26  2  0     0  0
 27 20  1  0     0  0
M  END