
          11280715252D 1   1.00000     0.00000     0

 24 26  0     0  0            999 V2000
    0.2750   -6.9375    0.0000 N   0  0  3  0  0  0           0  0  0
    3.9042   -3.0750    0.0000 N   0  0  3  0  0  0           0  0  0
    0.9875   -6.5250    0.0000 C   0  0  0  0  0  0           0  0  0
   -1.1500   -6.9292    0.0000 C   0  0  0  0  0  0           0  0  0
   -0.4375   -8.1667    0.0000 C   0  0  0  0  0  0           0  0  0
   -0.4375   -6.5250    0.0000 C   0  0  0  0  0  0           0  0  0
    0.2792   -7.7625    0.0000 C   0  0  0  0  0  0           0  0  0
   -1.1583   -7.7542    0.0000 C   0  0  3  0  0  0           0  0  0
    0.9875   -5.7000    0.0000 C   0  0  0  0  0  0           0  0  0
    0.9875   -4.0417    0.0000 C   0  0  0  0  0  0           0  0  0
    0.2750   -5.2875    0.0000 C   0  0  0  0  0  0           0  0  0
    1.7042   -5.2875    0.0000 C   0  0  0  0  0  0           0  0  0
    0.2750   -4.4625    0.0000 C   0  0  0  0  0  0           0  0  0
    1.7042   -4.4542    0.0000 C   0  0  0  0  0  0           0  0  0
    3.1250   -2.8042    0.0000 C   0  0  0  0  0  0           0  0  0
    2.4125   -3.2167    0.0000 C   0  0  0  0  0  0           0  0  0
   -1.8708   -8.1667    0.0000 O   0  0  0  0  0  0           0  0  0
    0.9792   -3.2167    0.0000 O   0  0  0  0  0  0           0  0  0
    4.0625   -3.8875    0.0000 C   0  0  0  0  0  0           0  0  0
    4.5250   -2.5292    0.0000 C   0  0  0  0  0  0           0  0  0
    1.7000   -2.8042    0.0000 C   0  0  0  0  0  0           0  0  0
    4.8417   -4.1542    0.0000 C   0  0  0  0  0  0           0  0  0
    5.3042   -2.8042    0.0000 C   0  0  0  0  0  0           0  0  0
    5.4625   -3.6167    0.0000 C   0  0  0  0  0  0           0  0  0
  2 15  1  0     0  0
  3  1  1  0     0  0
  4  6  1  0     0  0
  5  7  1  0     0  0
  6  1  1  0     0  0
  7  1  1  0     0  0
  8  5  1  0     0  0
  9  3  1  0     0  0
 10 14  2  0     0  0
 11  9  1  0     0  0
 12  9  2  0     0  0
 13 11  2  0     0  0
 14 12  1  0     0  0
 15 16  1  0     0  0
 16 21  1  0     0  0
 17  8  1  0     0  0
 18 10  1  0     0  0
 19  2  1  0     0  0
 20  2  1  0     0  0
 21 18  1  0     0  0
 22 19  1  0     0  0
 23 20  1  0     0  0
 24 23  1  0     0  0
  4  8  1  0     0  0
 10 13  1  0     0  0
 22 24  1  0     0  0
M  END