
  SciTegic01311317052D

 26 29  0  0  1  0            999 V2000
    7.7545    2.3230    0.0000 C   0  0
    7.0398    1.9083    0.0000 C   0  0
    7.0398    1.0833    0.0000 C   0  0
    6.3251    0.6731    0.0000 O   0  0
    7.7545    0.6731    0.0000 C   0  0
    8.4692    1.0833    0.0000 C   0  0
    9.1884    0.6731    0.0000 C   0  0
    9.9032    1.0833    0.0000 C   0  0  2  0  0  0
    9.9032    1.9083    0.0000 C   0  0  1  0  0  0
   10.6178    2.3230    0.0000 C   0  0  2  0  0  0
   11.4032    2.0691    0.0000 C   0  0
   11.8833    2.7332    0.0000 C   0  0
   11.4032    3.3972    0.0000 C   0  0  1  0  0  0
   10.6178    3.1480    0.0000 C   0  0  2  0  0  0
   10.6178    3.9730    0.0000 C   0  0
    9.9032    3.5582    0.0000 C   0  0
    9.1884    3.1480    0.0000 C   0  0
    9.1884    2.3230    0.0000 C   0  0  2  0  0  0
    8.4692    1.9083    0.0000 C   0  0  1  0  0  0
    8.4692    2.7332    0.0000 C   0  0
    9.1884    1.4981    0.0000 H   0  0
    9.9032    2.7332    0.0000 H   0  0
   10.6178    1.4981    0.0000 H   0  0
   10.6182    0.6732    0.0000 C   0  0
   11.1803    4.1977    0.0000 O   0  0
   12.2240    3.4001    0.0000 C   0  0
  3  4  1  0
  3  5  1  0
  5  6  1  0
  6  7  2  0
  7  8  1  0
  8  9  1  0
  9 10  1  0
 10 11  1  0
 11 12  1  0
 12 13  1  0
 13 14  1  0
 10 14  1  0
 14 15  1  1
 14 16  1  0
 16 17  1  0
 17 18  1  0
  9 18  1  0
 18 19  1  0
  1 19  1  0
  6 19  1  0
 19 20  1  1
 18 21  1  6
  9 22  1  1
 10 23  1  6
  8 24  1  6
  1  2  1  0
 13 25  1  1
  2  3  1  0
 13 26  1  0
M  END