
  SciTegic05061116452D

 36 40  0  0  0  0            999 V2000
    8.8374    0.0506    0.0000 N   0  0
    9.5491    0.4592    0.0000 C   0  0
    9.5491    1.2842    0.0000 N   0  0
    8.8374    1.7006    0.0000 C   0  0
    8.1257    0.4592    0.0000 C   0  0
    8.1257    1.2888    0.0000 C   0  0
    7.3368    1.5453    0.0000 N   0  0
    6.8490    0.8740    0.0000 C   0  0
    7.3367    0.2030    0.0000 N   0  0
    7.0817   -0.5817    0.0000 C   0  0
    6.2747   -0.7532    0.0000 C   0  0
    6.0197   -1.5378    0.0000 O   0  0
    5.7227   -0.1401    0.0000 O   0  0
    8.8394    2.5257    0.0000 N   0  0
   10.2631    0.0459    0.0000 N   0  0
   10.9781    0.4575    0.0000 C   0  0
   11.6921    0.0441    0.0000 C   0  0
    9.5549    2.9365    0.0000 C   0  0
   11.6865   -0.7792    0.0000 C   0  0
   12.3997   -1.1925    0.0000 C   0  0
   13.1156   -0.7808    0.0000 C   0  0
   13.1140    0.0485    0.0000 C   0  0
   12.4003    0.4580    0.0000 C   0  0
   13.8264   -1.1904    0.0000 C   0  0
   13.8245   -2.0164    0.0000 C   0  0
   14.5349   -2.4287    0.0000 C   0  0
   15.2517   -2.0197    0.0000 C   0  0
   15.2536   -1.1936    0.0000 C   0  0
   14.5386   -0.7768    0.0000 C   0  0
   10.2684    2.5222    0.0000 C   0  0
   10.2612    1.6957    0.0000 C   0  0
   10.9738    1.2815    0.0000 C   0  0
   11.6903    1.6924    0.0000 C   0  0
   11.6896    2.5217    0.0000 C   0  0
   10.9764    2.9321    0.0000 C   0  0
    8.1259    2.9399    0.0000 C   0  0
  7  8  2  0
 14 18  1  0
  8  9  1  0
 17 19  2  0
  9  5  1  0
 19 20  1  0
  3  4  2  0
 20 21  2  0
  9 10  1  0
 21 22  1  0
  5  6  2  0
 22 23  2  0
 23 17  1  0
 24 25  1  0
 10 11  1  0
 11 12  1  0
  6  4  1  0
 11 13  2  0
  5  1  1  0
 24 29  1  0
 25 26  1  0
 26 27  1  0
 27 28  1  0
 28 29  1  0
 21 24  1  0
  4 14  1  0
 18 30  1  0
  1  2  2  0
 30 31  2  0
  2 15  1  0
 31 32  1  0
  2  3  1  0
 32 33  2  0
 15 16  1  0
 33 34  1  0
  6  7  1  0
 34 35  2  0
 35 30  1  0
 16 17  1  0
 14 36  1  0
M  END