
  CDK    9/16/09,9:57

 23 24  0  0  0  0  0  0  0  0999 V2000
   -2.3721    1.0679    0.0000 C   0  0  0  0  0  0  0  0  0  0  0  0
   -2.3475    0.2432    0.0000 C   0  0  0  0  0  0  0  0  0  0  0  0
   -1.6210   -0.1477    0.0000 N   0  0  0  0  0  0  0  0  0  0  0  0
   -0.9192    0.2860    0.0000 C   0  0  0  0  0  0  0  0  0  0  0  0
   -0.1927   -0.1050    0.0000 N   0  0  0  0  0  0  0  0  0  0  0  0
   -0.9438    1.1106    0.0000 N   0  0  0  0  0  0  0  0  0  0  0  0
    0.5091    0.3287    0.0000 C   0  0  0  0  0  0  0  0  0  0  0  0
    1.2356   -0.0622    0.0000 C   0  0  0  0  0  0  0  0  0  0  0  0
    0.4845    1.1533    0.0000 O   0  0  0  0  0  0  0  0  0  0  0  0
    1.9374    0.3714    0.0000 S   0  0  0  0  0  0  0  0  0  0  0  0
    2.6639   -0.0195    0.0000 C   0  0  0  0  0  0  0  0  0  0  0  0
    3.3658    0.4142    0.0000 C   0  0  0  0  0  0  0  0  0  0  0  0
    4.1251    0.1010    0.0000 C   0  0  0  0  0  0  0  0  0  0  0  0
    4.6585    0.7303    0.0000 N   0  0  0  0  0  0  0  0  0  0  0  0
    4.2248    1.4322    0.0000 C   0  0  0  0  0  0  0  0  0  0  0  0
    3.4234    1.2365    0.0000 N   0  0  0  0  0  0  0  0  0  0  0  0
    4.3197   -0.7007    0.0000 C   0  0  0  0  0  0  0  0  0  0  0  0
   -3.0986    1.4588    0.0000 C   0  0  0  0  0  0  0  0  0  0  0  0
   -3.1233    2.2835    0.0000 C   0  0  0  0  0  0  0  0  0  0  0  0
   -2.4713    2.7933    0.0000 N   0  0  0  0  0  0  0  0  0  0  0  0
   -2.7496    3.5699    0.0000 C   0  0  0  0  0  0  0  0  0  0  0  0
   -3.5742    3.5452    0.0000 N   0  0  0  0  0  0  0  0  0  0  0  0
   -3.8055    2.7533    0.0000 C   0  0  0  0  0  0  0  0  0  0  0  0
 11 12  1  0  0  0  0 
 12 13  2  0  0  0  0 
  1  2  1  0  0  0  0 
  5  7  1  0  0  0  0 
  3  4  1  0  0  0  0 
  7  8  1  0  0  0  0 
 13 14  1  0  0  0  0 
 14 15  1  0  0  0  0 
 15 16  2  0  0  0  0 
 16 12  1  0  0  0  0 
 13 17  1  0  0  0  0 
  7  9  2  0  0  0  0 
  1 18  1  0  0  0  0 
  4  5  1  0  0  0  0 
 18 19  1  0  0  0  0 
 19 20  1  0  0  0  0 
  8 10  1  0  0  0  0 
  2  3  1  0  0  0  0 
 10 11  1  0  0  0  0 
  4  6  2  0  0  0  0 
 20 21  2  0  0  0  0 
 21 22  1  0  0  0  0 
 22 23  1  0  0  0  0 
 23 19  2  0  0  0  0 
M  END