
          08180812472D 1   1.00000     0.00000     0

 27 30  0     1  0            999 V2000
    2.5806   -0.3237    0.0000 C   0  0  0  0  0  0           0  0  0
    2.5806    0.5013    0.0000 C   0  0  0  0  0  0           0  0  0
    3.2953    0.9115    0.0000 C   0  0  0  0  0  0           0  0  0
    1.8658   -0.7384    0.0000 O   0  0  0  0  0  0           0  0  0
    3.2953   -0.7384    0.0000 C   0  0  0  0  0  0           0  0  0
    4.0099   -0.3237    0.0000 C   0  0  2  0  0  0           0  0  0
    4.7201   -0.7384    0.0000 C   0  0  0  0  0  0           0  0  0
    5.4348   -0.3237    0.0000 C   0  0  0  0  0  0           0  0  0
    5.4348    0.5013    0.0000 C   0  0  1  0  0  0           0  0  0
    6.1495    0.9115    0.0000 C   0  0  2  0  0  0           0  0  0
    6.9349    0.6530    0.0000 C   0  0  0  0  0  0           0  0  0
    7.4241    1.3263    0.0000 C   0  0  0  0  0  0           0  0  0
    6.9349    1.9858    0.0000 C   0  0  2  0  0  0           0  0  0
    6.1495    1.7365    0.0000 C   0  0  2  0  0  0           0  0  0
    6.1495    2.5614    0.0000 C   0  0  0  0  0  0           0  0  0
    5.4348    2.1512    0.0000 C   0  0  0  0  0  0           0  0  0
    4.7201    1.7365    0.0000 C   0  0  0  0  0  0           0  0  0
    4.7201    0.9115    0.0000 C   0  0  2  0  0  0           0  0  0
    4.0099    0.5013    0.0000 C   0  0  1  0  0  0           0  0  0
    4.0099    1.3263    0.0000 C   0  0  0  0  0  0           0  0  0
    4.0099   -1.1486    0.0000 H   0  0  0  0  0  0           0  0  0
    4.7201    0.0865    0.0000 H   0  0  0  0  0  0           0  0  0
    5.4348    1.3263    0.0000 H   0  0  0  0  0  0           0  0  0
    6.1495    0.0865    0.0000 H   0  0  0  0  0  0           0  0  0
    7.7528    1.9848    0.0000 C   0  0  0  0  0  0           0  0  0
    8.5733    1.9824    0.0000 C   0  0  0  0  0  0           0  0  0
    6.9278    2.8121    0.0000 O   0  0  0  0  0  0           0  0  0
  1  4  2  0     0  0
  1  5  1  0     0  0
  5  6  1  0     0  0
  6  7  1  0     0  0
  7  8  1  0     0  0
  8  9  1  0     0  0
  9 10  1  0     0  0
 10 11  1  0     0  0
 11 12  1  0     0  0
 12 13  1  0     0  0
 13 14  1  0     0  0
 10 14  1  0     0  0
 14 15  1  1     0  0
 14 16  1  0     0  0
 16 17  1  0     0  0
 17 18  1  0     0  0
  9 18  1  0     0  0
 18 19  1  0     0  0
  3 19  1  0     0  0
  6 19  1  0     0  0
 19 20  1  1     0  0
  6 21  1  6     0  0
 18 22  1  6     0  0
  9 23  1  1     0  0
 10 24  1  6     0  0
 13 25  1  0     0  0
  1  2  1  0     0  0
 25 26  3  0     0  0
  2  3  1  0     0  0
 13 27  1  1     0  0
M  END