
  SciTegic12231509382D

 17 18  0  0  0  0            999 V2000
    3.9511   -0.8815    0.0000 N   0  0
    2.5987   -1.5004    0.0000 C   0  0
    4.2010   -3.2956    0.0000 N   0  0
    4.9531   -1.9978    0.0000 C   0  0
   -2.5951    3.0039    0.0000 C   0  0
    1.2990   -0.7500    0.0000 C   0  0
   -2.5973    1.5031    0.0000 N   0  0
    2.7343   -2.9815    0.0000 C   0  0
    1.2990    0.7500    0.0000 C   0  0
    0.0000   -1.5000    0.0000 C   0  0
   -3.8933    3.7570    0.0000 N   0  0
   -1.2990    0.7500    0.0000 C   0  0
   -1.2990   -0.7500    0.0000 C   0  0
    0.0000    1.5000    0.0000 C   0  0
   -3.8912    5.2578    0.0000 C   0  0
   -4.9292    5.8599    0.0000 C   0  0
   -2.8509    5.8560    0.0000 C   0  0
  1  2  1  0
  1  4  2  0
  3  4  1  0
  2  6  1  0
  5  7  1  0
  2  8  2  0
  3  8  1  0
  6  9  2  0
  6 10  1  0
  5 11  2  0
  7 12  1  0
 10 13  2  0
 12 13  1  0
  9 14  1  0
 12 14  2  0
 11 15  1  0
 15 16  1  0
 15 17  1  0
M  END