
          11280714582D 1   1.00000     0.00000     0

 21 21  0     0  0            999 V2000
    2.9875   -6.2000    0.0000 S   0  0  3  0  0  0           0  0  0
    2.9875   -5.3750    0.0000 O   0  0  0  0  0  0           0  0  0
    2.9875   -7.0375    0.0000 O   0  0  0  0  0  0           0  0  0
    2.1542   -6.2000    0.0000 C   0  0  0  0  0  0           0  0  0
    3.8125   -6.2125    0.0000 N   0  0  0  0  0  0           0  0  0
   10.3042   -6.7125    0.0000 C   0  0  0  0  0  0           0  0  0
   10.2042   -7.4667    0.0000 O   0  0  0  0  0  0           0  0  0
   11.0875   -6.6125    0.0000 O   0  0  0  0  0  0           0  0  0
    9.5417   -6.2125    0.0000 C   0  0  0  0  0  0           0  0  0
    1.7417   -6.9167    0.0000 C   0  0  0  0  0  0           0  0  0
    1.7417   -5.4792    0.0000 C   0  0  0  0  0  0           0  0  0
    4.5292   -6.6292    0.0000 C   0  0  0  0  0  0           0  0  0
    8.8292   -6.6292    0.0000 C   0  0  0  0  0  0           0  0  0
    5.2417   -6.2125    0.0000 C   0  0  0  0  0  0           0  0  0
    7.3917   -6.6292    0.0000 C   0  0  0  0  0  0           0  0  0
    8.1125   -6.2125    0.0000 C   0  0  0  0  0  0           0  0  0
    5.9625   -6.6292    0.0000 C   0  0  0  0  0  0           0  0  0
    6.6792   -6.2125    0.0000 C   0  0  0  0  0  0           0  0  0
    0.9125   -6.9250    0.0000 C   0  0  0  0  0  0           0  0  0
    0.9042   -5.4792    0.0000 C   0  0  0  0  0  0           0  0  0
    0.4917   -6.2000    0.0000 C   0  0  0  0  0  0           0  0  0
  2  1  2  0     0  0
  3  1  2  0     0  0
  4  1  1  0     0  0
  5  1  1  0     0  0
  6  9  1  0     0  0
  7  6  2  0     0  0
  8  6  1  0     0  0
  9 13  1  0     0  0
 10  4  1  0     0  0
 11  4  2  0     0  0
 12  5  1  0     0  0
 13 16  1  0     0  0
 14 12  1  0     0  0
 15 18  1  0     0  0
 16 15  1  0     0  0
 17 14  1  0     0  0
 18 17  1  0     0  0
 19 10  2  0     0  0
 20 11  1  0     0  0
 21 20  2  0     0  0
 19 21  1  0     0  0
M  END