
  SciTegic05061116452D

 36 40  0  0  0  0            999 V2000
   19.4969   -7.9585    0.0000 N   0  0
   20.2086   -7.5498    0.0000 C   0  0
   20.2086   -6.7248    0.0000 N   0  0
   19.4969   -6.3085    0.0000 C   0  0
   18.7852   -7.5498    0.0000 C   0  0
   18.7852   -6.7203    0.0000 C   0  0
   17.9962   -6.4638    0.0000 N   0  0
   17.5085   -7.1351    0.0000 C   0  0
   17.9961   -7.8061    0.0000 N   0  0
   17.7412   -8.5908    0.0000 C   0  0
   16.9342   -8.7623    0.0000 C   0  0
   16.6792   -9.5469    0.0000 O   0  0
   16.3822   -8.1492    0.0000 O   0  0
   19.4989   -5.4834    0.0000 N   0  0
   20.9227   -7.9632    0.0000 N   0  0
   21.6376   -7.5516    0.0000 C   0  0
   22.3517   -7.9650    0.0000 C   0  0
   22.3461   -8.7883    0.0000 C   0  0
   23.0593   -9.2016    0.0000 C   0  0
   23.7752   -8.7899    0.0000 C   0  0
   23.7736   -7.9606    0.0000 C   0  0
   23.0598   -7.5511    0.0000 C   0  0
   24.4860   -9.1995    0.0000 C   0  0
   24.4841  -10.0255    0.0000 C   0  0
   25.1945  -10.4379    0.0000 C   0  0
   25.9114  -10.0288    0.0000 C   0  0
   25.9132   -9.2028    0.0000 C   0  0
   25.1982   -8.7859    0.0000 C   0  0
   20.2144   -5.0726    0.0000 C   0  0
   21.6387   -6.7266    0.0000 O   0  0
   20.2164   -4.2476    0.0000 C   0  0
   20.9320   -3.8386    0.0000 C   0  0
   20.9343   -3.0143    0.0000 C   0  0
   20.2203   -2.5992    0.0000 C   0  0
   19.5024   -3.0145    0.0000 C   0  0
   19.5036   -3.8375    0.0000 C   0  0
  7  8  2  0
 17 18  2  0
  8  9  1  0
 18 19  1  0
  9  5  1  0
 19 20  2  0
  3  4  2  0
 20 21  1  0
  9 10  1  0
 21 22  2  0
 22 17  1  0
 23 24  1  0
  5  6  2  0
 10 11  1  0
 11 12  1  0
  6  4  1  0
 11 13  2  0
 23 28  1  0
 24 25  1  0
 25 26  1  0
 26 27  1  0
 27 28  1  0
 20 23  1  0
  5  1  1  0
 14 29  1  0
  4 14  1  0
 16 30  2  0
  1  2  2  0
 29 31  1  0
  2 15  1  0
 31 32  2  0
  2  3  1  0
 32 33  1  0
 15 16  1  0
 33 34  2  0
  6  7  1  0
 34 35  1  0
 16 17  1  0
 35 36  2  0
 36 31  1  0
M  END