
  SciTegic04091416462D

 30 32  0  0  0  0            999 V2000
    8.6658   -4.9421    0.0000 C   0  0
    9.4896   -4.9433    0.0000 C   0  0
    9.9027   -4.2351    0.0000 C   0  0
    9.4891   -3.5213    0.0000 C   0  0
    8.6622   -3.5241    0.0000 C   0  0
    8.2569   -4.2370    0.0000 C   0  0
   10.7282   -4.2354    0.0000 C   0  0
   11.1387   -4.9468    0.0000 C   0  0
   11.1391   -3.5200    0.0000 C   0  0
   11.9646   -3.5202    0.0000 F   0  0
   10.7286   -2.8044    0.0000 F   0  0
   11.5490   -2.8001    0.0000 F   0  0
   11.5531   -4.2313    0.0000 O   0  0
    7.4329   -4.2383    0.0000 N   0  0
    7.0172   -3.5222    0.0000 C   0  0
    6.1953   -3.5227    0.0000 C   0  0
    5.7829   -4.2376    0.0000 N   0  0
    6.1944   -4.9536    0.0000 C   0  0
    7.0226   -4.9548    0.0000 C   0  0
    4.9573   -4.2369    0.0000 S   0  0
    4.5420   -4.9479    0.0000 C   0  0
    4.1317   -4.2355    0.0000 O   0  0
    4.5383   -3.5178    0.0000 O   0  0
    3.7203   -5.0361    0.0000 C   0  0
    3.5489   -5.8436    0.0000 C   0  0
    4.2641   -6.2548    0.0000 C   0  0
    4.8748   -5.7015    0.0000 S   0  0
   10.7279   -5.6580    0.0000 F   0  0
   11.9601   -4.9470    0.0000 F   0  0
   11.5448   -5.6542    0.0000 F   0  0
  1  2  2  0
  2  3  1  0
  3  4  2  0
  4  5  1  0
  5  6  2  0
  6  1  1  0
  3  7  1  0
  7  8  1  0
  7  9  1  0
  9 10  1  0
  9 11  1  0
  9 12  1  0
  7 13  1  0
 14 15  1  0
 14 19  1  0
 15 16  1  0
 16 17  1  0
 17 18  1  0
 18 19  1  0
  6 14  1  0
 17 20  1  0
 20 21  1  0
 20 22  2  0
 20 23  2  0
 21 24  2  0
 24 25  1  0
 25 26  2  0
 26 27  1  0
 27 21  1  0
  8 28  1  0
  8 29  1  0
  8 30  1  0
M  END