
  SciTegic06051313522D

 32 36  0  0  0  0            999 V2000
   20.4077  -25.0564    0.0000 C   0  0
   20.4066  -25.8759    0.0000 C   0  0
   21.1146  -26.2849    0.0000 C   0  0
   21.1128  -24.6475    0.0000 C   0  0
   21.8215  -25.0528    0.0000 C   0  0
   21.8222  -25.8718    0.0000 C   0  0
   22.5308  -26.2788    0.0000 C   0  0
   23.2390  -25.8680    0.0000 C   0  0
   23.2343  -25.0459    0.0000 C   0  0
   22.5252  -24.6425    0.0000 C   0  0
   21.3267  -23.8513    0.0000 C   0  0
   22.3077  -23.8471    0.0000 C   0  0
   22.6069  -22.9128    0.0000 C   0  0
   21.8108  -22.3395    0.0000 C   0  0
   21.0197  -22.9196    0.0000 N   0  0
   21.8066  -21.3584    0.0000 O   0  0
   23.5387  -22.6058    0.0000 N   0  0
   24.2705  -23.2592    0.0000 C   0  0
   25.2022  -22.9521    0.0000 C   0  0
   25.9340  -23.6055    0.0000 C   0  0
   26.8657  -23.2984    0.0000 C   0  0
   27.5975  -23.9518    0.0000 C   0  0
   28.5293  -23.6447    0.0000 C   0  0
   22.5324  -27.0960    0.0000 S   0  0
   23.2410  -27.5032    0.0000 C   0  0
   23.2394  -28.3180    0.0000 C   0  0
   23.9471  -28.7250    0.0000 C   0  0
   24.6549  -28.3149    0.0000 C   0  0
   24.6506  -27.4935    0.0000 C   0  0
   23.9423  -27.0902    0.0000 C   0  0
   25.3640  -28.7211    0.0000 O   0  0
   25.3668  -29.5383    0.0000 C   0  0
  1  2  2  0
  2  3  1  0
  3  6  2  0
  5  4  2  0
  4  1  1  0
  5  6  1  0
  6  7  1  0
  7  8  2  0
  8  9  1  0
  9 10  2  0
 10  5  1  0
  4 11  1  0
 10 12  1  0
 11 12  1  0
 12 13  2  0
 13 14  1  0
 14 15  1  0
 15 11  2  0
 14 16  2  0
 13 17  1  0
 17 18  1  0
 18 19  1  0
 19 20  1  0
 20 21  1  0
 21 22  1  0
 22 23  1  0
  7 24  1  0
 24 25  1  0
 25 26  2  0
 26 27  1  0
 27 28  2  0
 28 29  1  0
 29 30  2  0
 30 25  1  0
 28 31  1  0
 31 32  1  0
M  END