
  SciTegic09171211542D

 37 41  0  0  0  0            999 V2000
    0.6042   -7.4667    0.0000 C   0  0
    0.6042   -8.2917    0.0000 C   0  0
    1.3162   -8.7000    0.0000 C   0  0
    1.3162   -7.0500    0.0000 C   0  0
    2.0282   -7.4667    0.0000 C   0  0  1  0  0  0
    2.0293   -8.2917    0.0000 C   0  0  1  0  0  0
    2.7403   -8.7010    0.0000 C   0  0
    3.4549   -8.2898    0.0000 C   0  0
    2.7382   -7.0510    0.0000 C   0  0  1  0  0  0
    3.4557   -7.4655    0.0000 C   0  0  1  0  0  0
    3.4545   -5.8111    0.0000 C   0  0
    2.7345   -6.2246    0.0000 C   0  0  2  0  0  0
    4.1720   -6.2256    0.0000 C   0  0
    4.1689   -7.0551    0.0000 C   0  0  2  0  0  0
    4.9568   -7.3144    0.0000 C   0  0
    5.4470   -6.6451    0.0000 C   0  0
    4.9619   -5.9723    0.0000 C   0  0
    5.2197   -5.1887    0.0000 C   0  0  1  0  0  0
    6.0274   -5.0202    0.0000 C   0  0
    6.5771   -5.6353    0.0000 C   0  0  1  0  0  0
    7.3847   -5.4668    0.0000 C   0  0  2  0  0  0
    7.9344   -6.0820    0.0000 C   0  0
    8.7420   -5.9135    0.0000 C   0  0
    7.6765   -6.8656    0.0000 C   0  0
    4.6700   -4.5735    0.0000 C   0  0
    4.1625   -7.8792    0.0000 C   0  0
    2.7333   -7.8750    0.0000 H   0  0
    2.0250   -9.1125    0.0000 H   0  0
    2.0208   -6.6417    0.0000 C   0  0
    3.4500   -6.6375    0.0000 C   0  0
    0.8958   -9.4125    0.0000 C   0  0
    1.5250   -9.4958    0.0000 C   0  0
   -0.1097   -8.7052    0.0000 O   0  0
    8.1792   -5.2500    0.0000 O   0  0
    2.0195   -5.8129    0.0000 O   0  0
    6.3192   -6.4190    0.0000 O   0  0
    7.3792   -4.6417    0.0000 H   0  0
 16 17  1  0
 17 13  2  0
  7  8  1  0
 17 18  1  0
  8 10  1  0
 18 19  1  0
  9 10  1  0
 19 20  1  0
  3  6  1  0
 20 21  1  0
  5  4  1  0
 21 22  1  0
  5  6  1  0
 22 23  1  0
 22 24  1  0
  9 12  1  0
 18 25  1  6
 10 14  1  0
 14 26  1  1
 13 11  1  0
  9 27  1  1
 11 12  1  0
  6 28  1  6
 13 14  1  0
  5 29  1  1
  1  2  1  0
 10 30  1  6
  1  4  1  0
  3 31  1  0
  2  3  1  0
  3 32  1  0
  5  9  1  0
  2 33  2  0
  6  7  1  0
 21 34  1  0
 34 22  1  0
 14 15  1  0
 12 35  1  1
 15 16  1  0
 20 36  1  1
 21 37  1  6
M  END