
          11280715462D 1   1.00000     0.00000     0

 25 27  0     0  0            999 V2000
    5.1792   -1.6917    0.0000 N   0  0  3  0  0  0           0  0  0
    9.4917   -0.8000    0.0000 C   0  0  0  0  0  0           0  0  0
   10.1917   -0.3792    0.0000 C   0  0  0  0  0  0           0  0  0
    6.6167   -0.8542    0.0000 N   0  0  3  0  0  0           0  0  0
    4.4750   -2.1042    0.0000 C   0  0  0  0  0  0           0  0  0
    5.1792   -0.8542    0.0000 C   0  0  0  0  0  0           0  0  0
    5.8917   -2.0917    0.0000 C   0  0  0  0  0  0           0  0  0
    9.5042   -1.6292    0.0000 O   0  0  0  0  0  0           0  0  0
   11.6125   -0.3542    0.0000 N   0  0  0  0  0  0           0  0  0
    8.7667   -0.3917    0.0000 N   0  0  0  0  0  0           0  0  0
    3.7542   -1.7000    0.0000 C   0  0  0  0  0  0           0  0  0
    4.4792   -2.9292    0.0000 C   0  0  0  0  0  0           0  0  0
    5.8917   -0.4375    0.0000 C   0  0  0  0  0  0           0  0  0
    6.6167   -1.6917    0.0000 C   0  0  0  0  0  0           0  0  0
   10.9125   -0.7792    0.0000 C   0  0  0  0  0  0           0  0  0
    3.0417   -2.9417    0.0000 C   0  0  0  0  0  0           0  0  0
    3.0375   -2.1167    0.0000 C   0  0  0  0  0  0           0  0  0
    3.7667   -3.3542    0.0000 C   0  0  0  0  0  0           0  0  0
    8.0542   -0.8250    0.0000 C   0  0  0  0  0  0           0  0  0
    7.3417   -0.4292    0.0000 C   0  0  0  0  0  0           0  0  0
    2.3292   -3.3542    0.0000 O   0  0  0  0  0  0           0  0  0
   10.1792    0.4375    0.0000 C   0  0  0  0  0  0           0  0  0
   11.6000    0.4625    0.0000 C   0  0  0  0  0  0           0  0  0
    2.3375   -4.1792    0.0000 C   0  0  0  0  0  0           0  0  0
   10.8792    0.8625    0.0000 C   0  0  0  0  0  0           0  0  0
  2 10  1  0     0  0
  3  2  1  0     0  0
  4 14  1  0     0  0
  5  1  1  0     0  0
  6  1  1  0     0  0
  7  1  1  0     0  0
  8  2  2  0     0  0
  9 15  1  0     0  0
 10 19  1  0     0  0
 11  5  2  0     0  0
 12  5  1  0     0  0
 13  6  1  0     0  0
 14  7  1  0     0  0
 15  3  2  0     0  0
 16 18  1  0     0  0
 17 11  1  0     0  0
 18 12  2  0     0  0
 19 20  1  0     0  0
 20  4  1  0     0  0
 21 16  1  0     0  0
 22  3  1  0     0  0
 23 25  1  0     0  0
 24 21  1  0     0  0
 25 22  2  0     0  0
 13  4  1  0     0  0
 16 17  2  0     0  0
 23  9  2  0     0  0
M  END