
          11280715122D 1   1.00000     0.00000     0

 33 36  0     0  0            999 V2000
    4.7042   -4.3667    0.0000 C   0  0  0  0  0  0           0  0  0
    4.7042   -3.5375    0.0000 C   0  0  0  0  0  0           0  0  0
    7.7167   -8.7000    0.0000 C   0  0  0  0  0  0           0  0  0
    7.1792   -9.9250    0.0000 N   0  0  0  0  0  0           0  0  0
    3.9875   -4.7792    0.0000 N   0  0  0  0  0  0           0  0  0
    7.8917   -9.5042    0.0000 N   0  0  0  0  0  0           0  0  0
    6.5667   -9.3917    0.0000 N   0  0  0  0  0  0           0  0  0
    6.9000   -8.6167    0.0000 N   0  0  0  0  0  0           0  0  0
    5.4167   -4.7792    0.0000 N   0  0  3  0  0  0           0  0  0
    8.2667   -8.0792    0.0000 C   0  0  0  0  0  0           0  0  0
    5.4167   -3.1167    0.0000 C   0  0  0  0  0  0           0  0  0
    8.2625   -7.2500    0.0000 C   0  0  0  0  0  0           0  0  0
    3.9875   -3.1250    0.0000 C   0  0  0  0  0  0           0  0  0
    3.2750   -3.5375    0.0000 N   0  0  0  0  0  0           0  0  0
    3.2750   -4.3667    0.0000 C   0  0  0  0  0  0           0  0  0
    7.5542   -6.8417    0.0000 C   0  0  0  0  0  0           0  0  0
    5.4125   -5.6042    0.0000 C   0  0  0  0  0  0           0  0  0
    5.4125   -2.2917    0.0000 O   0  0  0  0  0  0           0  0  0
    7.5500   -6.0125    0.0000 C   0  0  0  0  0  0           0  0  0
    6.8375   -7.2542    0.0000 C   0  0  0  0  0  0           0  0  0
    6.1292   -6.0167    0.0000 C   0  0  0  0  0  0           0  0  0
    6.1292   -3.5292    0.0000 O   0  0  0  0  0  0           0  0  0
    6.1250   -6.8417    0.0000 C   0  0  0  0  0  0           0  0  0
    6.8292   -5.6000    0.0000 C   0  0  0  0  0  0           0  0  0
    6.1250   -4.3667    0.0000 C   0  0  0  0  0  0           0  0  0
    8.9750   -8.4917    0.0000 C   0  0  0  0  0  0           0  0  0
    8.9750   -6.8417    0.0000 C   0  0  0  0  0  0           0  0  0
    7.5417   -4.3667    0.0000 O   0  0  0  0  0  0           0  0  0
    2.5542   -4.7792    0.0000 C   0  0  0  0  0  0           0  0  0
    6.8292   -4.7792    0.0000 C   0  0  0  0  0  0           0  0  0
    8.2542   -4.7792    0.0000 C   0  0  0  0  0  0           0  0  0
    9.6875   -7.2500    0.0000 C   0  0  0  0  0  0           0  0  0
    9.6917   -8.0792    0.0000 C   0  0  0  0  0  0           0  0  0
  2  1  1  0     0  0
  3 10  1  0     0  0
  4  6  2  0     0  0
  5  1  2  0     0  0
  6  3  1  0     0  0
  7  8  1  0     0  0
  8  3  2  0     0  0
  9  1  1  0     0  0
 10 12  2  0     0  0
 11  2  1  0     0  0
 12 16  1  0     0  0
 13  2  2  0     0  0
 14 15  2  0     0  0
 15  5  1  0     0  0
 16 19  2  0     0  0
 17  9  1  0     0  0
 18 11  2  0     0  0
 19 24  1  0     0  0
 20 23  2  0     0  0
 21 17  1  0     0  0
 22 11  1  0     0  0
 23 21  1  0     0  0
 24 21  2  0     0  0
 25  9  1  0     0  0
 26 10  1  0     0  0
 27 12  1  0     0  0
 28 30  1  0     0  0
 29 15  1  0     0  0
 30 25  1  0     0  0
 31 28  1  0     0  0
 32 27  2  0     0  0
 33 32  1  0     0  0
 14 13  1  0     0  0
 16 20  1  0     0  0
 33 26  2  0     0  0
  4  7  1  0     0  0
M  END