
  SciTegic06051315212D

 22 23  0  0  0  0            999 V2000
    1.9425  -16.2076    0.0000 C   0  0
    1.9414  -17.0271    0.0000 C   0  0
    2.6494  -17.4361    0.0000 C   0  0
    3.3591  -17.0267    0.0000 C   0  0
    3.3562  -16.2040    0.0000 C   0  0
    2.6476  -15.7987    0.0000 C   0  0
    2.6452  -14.9815    0.0000 S   0  0
    3.3517  -14.5708    0.0000 N   0  0
    1.8490  -15.1882    0.0000 O   0  0
    2.2287  -14.2678    0.0000 O   0  0
    4.0624  -15.7927    0.0000 F   0  0
    1.2347  -15.7992    0.0000 F   0  0
    1.2333  -17.4352    0.0000 F   0  0
    4.0674  -17.4341    0.0000 F   0  0
    2.6492  -18.2533    0.0000 N   0  0
    1.9414  -18.6617    0.0000 C   0  0
    1.9412  -19.4789    0.0000 C   0  0
    1.2346  -19.8866    0.0000 C   0  0
    1.2341  -20.7030    0.0000 C   0  0
    1.9422  -21.1126    0.0000 C   0  0
    2.6524  -20.6998    0.0000 C   0  0
    2.6494  -19.8847    0.0000 C   0  0
  1  2  2  0
  2  3  1  0
  3  4  2  0
  4  5  1  0
  5  6  2  0
  6  1  1  0
  6  7  1  0
  7  8  1  0
  7  9  2  0
  7 10  2  0
  5 11  1  0
  1 12  1  0
  2 13  1  0
  4 14  1  0
  3 15  1  0
 15 16  1  0
 16 17  1  0
 17 18  2  0
 18 19  1  0
 19 20  2  0
 20 21  1  0
 21 22  2  0
 22 17  1  0
M  END