
  SciTegic12171313022D

 32 35  0  0  0  0            999 V2000
   50.2500  -12.8358    0.0000 C   0  0
   50.2489  -13.6632    0.0000 C   0  0
   50.9637  -14.0761    0.0000 C   0  0
   51.6801  -13.6627    0.0000 C   0  0
   51.6773  -12.8322    0.0000 C   0  0
   50.9619  -12.4231    0.0000 C   0  0
   49.5341  -14.0751    0.0000 N   0  0
   49.5334  -14.9001    0.0000 C   0  0
   48.8186  -15.3121    0.0000 N   0  0
   50.2476  -15.3132    0.0000 O   0  0
   48.8180  -16.1371    0.0000 C   0  0
   48.1545  -16.6199    0.0000 N   0  0
   48.4089  -17.4047    0.0000 N   0  0
   49.2339  -17.4054    0.0000 C   0  0
   49.4893  -16.6210    0.0000 C   0  0
   49.7184  -18.0732    0.0000 C   0  0
   49.3823  -18.8266    0.0000 C   0  0
   50.5389  -17.9875    0.0000 C   0  0
   50.1265  -18.7817    0.0000 C   0  0
   47.3586  -16.4027    0.0000 C   0  0
   47.1539  -15.6066    0.0000 C   0  0
   46.3588  -15.3894    0.0000 C   0  0
   45.7719  -15.9704    0.0000 C   0  0
   45.9855  -16.7717    0.0000 C   0  0
   46.7802  -16.9852    0.0000 C   0  0
   44.9757  -15.7544    0.0000 C   0  0
   52.3871  -12.4183    0.0000 C   0  0
   53.1034  -12.8298    0.0000 C   0  0
   53.8159  -12.4153    0.0000 C   0  0
   53.8132  -11.5895    0.0000 N   0  0
   53.0922  -11.1798    0.0000 C   0  0
   52.3827  -11.5967    0.0000 C   0  0
  1  2  2  0
  2  3  1  0
  3  4  2  0
  4  5  1  0
  5  6  2  0
  6  1  1  0
  2  7  1  0
  7  8  1  0
  8  9  1  0
  8 10  2  0
  9 11  1  0
 11 12  1  0
 12 13  1  0
 13 14  2  0
 14 15  1  0
 15 11  2  0
 14 16  1  0
 16 17  1  0
 16 18  1  0
 16 19  1  0
 12 20  1  0
 20 21  2  0
 21 22  1  0
 22 23  2  0
 23 24  1  0
 24 25  2  0
 25 20  1  0
 23 26  1  0
 27 28  2  0
 28 29  1  0
 29 30  2  0
 30 31  1  0
 31 32  2  0
 32 27  1  0
  5 27  1  0
M  END