
  SciTegic12171512562D

101106  0  0  0  0            999 V2000
    8.8363   10.8614    0.0000 O   0  0
    8.6804   11.6715    0.0000 S   0  0
    8.5245   12.4817    0.0000 O   0  0
    2.7394   14.1661    0.0000 C   0  0  1  0  0  0
    7.8702   13.6984    0.0000 C   0  0  1  0  0  0
    4.3597   14.4779    0.0000 O   0  0
   10.5707   14.9457    0.0000 C   0  0
   -0.7712   14.9457    0.0000 C   0  0
   -4.0375    8.6219    0.0000 S   0  0
   -2.1214   13.2306    0.0000 O   0  0
   -4.0117    9.9565    0.0000 C   0  0
    1.9292   14.0102    0.0000 C   0  0
   -0.5012   13.5425    0.0000 C   0  0
   15.7015   14.4779    0.0000 C   0  0  2  0  0  0
    1.3892   14.6338    0.0000 N   0  0
    9.7605   16.9725    0.0000 S   0  0
    3.2795   13.5425    0.0000 C   0  0  2  0  0  0
    9.4905   11.8274    0.0000 O   0  0
    4.6297   13.0747    0.0000 C   0  0  1  0  0  0
    4.3597   12.2952    0.0000 O   0  0
    4.0896   13.6984    0.0000 C   0  0  1  0  0  0
   11.1344   15.5480    0.0000 O   0  0
   10.8407   13.5425    0.0000 C   0  0  1  0  0  0
    7.0601   13.5425    0.0000 C   0  0  1  0  0  0
   -2.6615   11.6715    0.0000 C   0  0
   -4.8171    8.8919    0.0000 C   0  0
    8.9504   14.6338    0.0000 O   0  0
    6.6759   15.5387    0.0000 O   0  0
   14.3513   14.9457    0.0000 C   0  0  1  0  0  0
    5.7099   16.1929    0.0000 O   0  0
   13.5412   12.6070    0.0000 O   0  0
   -1.0412   14.1661    0.0000 C   0  0
   15.9716   13.0747    0.0000 O   0  0
   -2.9316   10.8920    0.0000 C   0  0
   -1.8514   11.8274    0.0000 C   0  0
    5.4398   13.2306    0.0000 C   0  0
   13.0011   15.4134    0.0000 C   0  0  2  0  0  0
   -0.7712   12.7629    0.0000 N   0  0
    8.1403   12.2952    0.0000 O   0  0
   11.9209   14.4779    0.0000 C   0  0  1  0  0  0
    0.5790   14.4779    0.0000 C   0  0
   11.1108   12.1393    0.0000 O   0  0
   -3.5398    9.2798    0.0000 S   0  0
    7.3301   16.5048    0.0000 O   0  0
    9.4905   14.0102    0.0000 O   0  0
   15.4315   13.6984    0.0000 C   0  0  2  0  0  0
    6.7901   12.7629    0.0000 N   0  0
    9.1369   16.4324    0.0000 O   0  0
   11.6509   15.8811    0.0000 C   0  0  2  0  0  0
   -3.7417   10.7361    0.0000 C   0  0
    9.7605   12.6070    0.0000 C   0  0  1  0  0  0
    3.0094   14.9457    0.0000 O   0  0
    3.0094   12.7629    0.0000 O   0  0
    6.3641   17.1590    0.0000 O   0  0
    8.4103   13.0747    0.0000 O   0  0
   14.3513   12.7629    0.0000 C   0  0
   15.4315   15.8811    0.0000 O   0  0
   12.4610   13.8543    0.0000 H   0  0
   13.8112   15.5693    0.0000 O   0  0
   10.3006   16.3488    0.0000 O   0  0
   13.0011   13.2306    0.0000 C   0  0
    6.5200   16.3488    0.0000 S   0  0
   14.8914   12.1393    0.0000 O   0  0
    9.2205   13.2306    0.0000 C   0  0  2  0  0  0
   13.2711   14.0102    0.0000 N   0  0
   10.3006   14.1661    0.0000 C   0  0  2  0  0  0
   16.5117   14.6338    0.0000 O   0  0
    0.0389   15.1016    0.0000 C   0  0
   12.7310   16.8166    0.0000 O   0  0
   -4.8011    9.7168    0.0000 C   0  0
   10.0306   15.5693    0.0000 O   0  0
    7.8702   15.8811    0.0000 C   0  0
   -1.5813   12.6070    0.0000 C   0  0
   14.6213   13.5425    0.0000 C   0  0  1  0  0  0
    5.7099   14.0102    0.0000 O   0  0
    6.5200   14.1661    0.0000 C   0  0  2  0  0  0
   13.5412   14.7897    0.0000 H   0  0
   15.1614   15.1016    0.0000 C   0  0  2  0  0  0
    7.3301   12.1393    0.0000 C   0  0
    0.3090   13.6984    0.0000 C   0  0
   11.6509   13.6984    0.0000 O   0  0
   12.1909   13.0747    0.0000 O   0  0
    8.6804   13.8543    0.0000 H   0  0
    9.2205   17.5961    0.0000 O   0  0
    7.0601   11.3597    0.0000 C   0  0
   11.1108   16.5048    0.0000 C   0  0
    8.1403   14.4779    0.0000 C   0  0  1  0  0  0
   14.0813   14.1661    0.0000 O   0  0
    7.6002   15.1016    0.0000 C   0  0  2  0  0  0
   10.3842   17.5126    0.0000 O   0  0
   13.0715   12.4086    0.0000 C   0  0
   12.7310   14.6338    0.0000 C   0  0  2  0  0  0
   10.5707   12.7629    0.0000 C   0  0  2  0  0  0
   12.4610   16.0370    0.0000 C   0  0  2  0  0  0
    6.7901   14.9457    0.0000 O   0  0
   11.3808   15.1016    0.0000 O   0  0
    7.8702   11.5156    0.0000 O   0  0
   12.1909   17.4402    0.0000 S   0  0
   11.5673   16.9001    0.0000 O   0  0
   11.6509   18.0639    0.0000 O   0  0
   12.8146   17.9803    0.0000 O   0  0
  2  1  2  0
  3  2  2  0
 80 13  2  0
 74 56  1  1
 43  9  1  0
 73 35  1  0
 36 75  1  0
 29 77  1  6
 45 64  1  0
 44 62  1  0
 41 80  1  0
 93 42  1  6
 78 14  1  0
 17 53  1  6
 34 50  1  0
 64 83  1  1
 74 88  1  0
 87 27  1  6
 62 28  2  0
  9 26  1  0
 65 61  1  0
 79 39  2  0
 12  4  1  0
 17 21  1  0
 19 20  1  1
 50 11  1  0
 40 81  1  0
 68 41  2  0
 21 19  1  0
 46 33  1  6
 23 81  1  1
 78 57  1  6
  7 71  2  0
 37 59  1  6
 94 69  1  6
 76 75  1  6
 55 64  1  0
 11 43  1  0
  4 52  1  6
 56 63  2  0
 86 60  1  0
 25 34  1  0
 93 23  1  0
 94 49  1  0
 15 12  1  0
 41 15  1  0
 62 54  2  0
  5 87  1  0
 88 29  1  0
 49 96  1  0
 40 92  1  0
 66  7  1  6
 61 91  1  0
 49 86  1  6
 84 16  2  0
 76 24  1  0
 96 40  1  0
  7 22  1  0
 30 62  1  0
 72 44  1  0
 60 16  1  0
 19 36  1  0
 51 93  1  0
 89 72  1  6
 92 37  1  0
 29 78  1  0
 51 18  1  1
  5 55  1  6
 40 58  1  1
 70 11  1  0
  4 17  1  0
 61 82  2  0
 66 45  1  0
 56 31  1  0
 35 25  1  0
 21  6  1  6
 16 90  1  0
 46 74  1  0
 23 66  1  0
 26 70  1  0
  8 68  1  0
 24  5  1  0
 87 89  1  0
 16 48  2  0
 37 94  1  0
 32  8  2  0
 38 73  1  0
 13 32  1  0
 79 85  1  0
 92 65  1  1
 47 79  1  0
 29 59  1  0
 14 46  1  0
 89 95  1  0
 95 76  1  0
 73 10  2  0
 64 51  1  0
 13 38  1  0
 14 67  1  1
 24 47  1  1
 18  2  1  0
  2 97  1  0
 69 98  1  0
 98 99  1  0
 98100  2  0
 98101  2  0
M  END