
  SciTegic05171617282D

 33 36  0  0  0  0            999 V2000
  -12.7460    3.6306    0.0000 N   0  0
  -11.7100    3.0250    0.0000 C   0  0
  -11.7169    1.8251    0.0000 O   0  0
  -10.4065    3.7689    0.0000 C   0  0
  -10.3979    5.2697    0.0000 C   0  0
  -11.6943    6.0244    0.0000 C   0  0
  -11.6889    7.5243    0.0000 C   0  0
  -10.3871    8.2697    0.0000 C   0  0
   -9.0908    7.5150    0.0000 C   0  0
   -9.0961    6.0149    0.0000 C   0  0
   -7.7976    5.2625    0.0000 C   0  0
   -6.4962    6.0100    0.0000 C   0  0
   -5.1976    5.2575    0.0000 C   0  0
   -5.2030    3.7575    0.0000 N   0  0
   -3.9067    3.0027    0.0000 C   0  0
   -3.9091    1.5019    0.0000 N   0  0
   -2.6111    0.7486    0.0000 C   0  0
   -2.6111   -0.7486    0.0000 C   0  0
   -1.2964   -1.4973    0.0000 C   0  0
    0.0000   -0.7486    0.0000 C   0  0
    1.2964   -1.4973    0.0000 C   0  0
    2.5929   -0.7486    0.0000 N   0  0
    2.5929    0.7486    0.0000 C   0  0
    1.2964    1.4973    0.0000 C   0  0
    0.0000    0.7486    0.0000 C   0  0
   -1.2964    1.4973    0.0000 C   0  0
   -2.6050    3.7481    0.0000 N   0  0
   -2.5995    5.2481    0.0000 C   0  0
   -3.8958    6.0028    0.0000 C   0  0
   -3.8904    7.5036    0.0000 C   0  0
   -2.8494    8.1005    0.0000 F   0  0
   -4.9276    8.1071    0.0000 F   0  0
   -3.8866    8.7036    0.0000 F   0  0
  1  2  1  0
  2  3  2  0
  2  4  1  0
  4  5  1  0
  5  6  2  0
  6  7  1  0
  7  8  2  0
  8  9  1  0
  9 10  2  0
  5 10  1  0
 10 11  1  0
 11 12  1  0
 12 13  1  0
 13 14  2  0
 14 15  1  0
 15 16  1  0
 16 17  1  0
 17 18  2  0
 18 19  1  0
 19 20  2  0
 20 21  1  0
 21 22  1  0
 22 23  1  0
 23 24  1  0
 24 25  1  0
 20 25  1  0
 25 26  2  0
 17 26  1  0
 15 27  2  0
 27 28  1  0
 28 29  2  0
 13 29  1  0
 29 30  1  0
 30 31  1  0
 30 32  1  0
 30 33  1  0
M  END