
  SciTegic01161211252D

 28 29  0  0  0  0            999 V2000
   -4.8693   -7.5906    0.0000 C   0  0
   -4.8723   -8.4183    0.0000 C   0  0
   -4.1631   -8.8286    0.0000 N   0  0
   -4.1617   -7.1807    0.0000 O   0  0
   -3.4389   -5.9448    0.0000 C   0  0
   -4.1611   -6.3544    0.0000 C   0  0
   -2.7587   -9.6663    0.0000 C   0  0
   -4.8720   -5.9399    0.0000 O   0  0
   -3.4607   -8.4239    0.0000 C   0  0
   -2.7466   -8.8447    0.0000 C   0  0  1  0  0  0
   -2.0238   -8.4323    0.0000 C   0  0
   -2.0200   -7.6065    0.0000 C   0  0
   -3.4566   -7.6009    0.0000 O   0  0
   -2.0520  -10.0881    0.0000 C   0  0
   -2.0641  -10.9110    0.0000 N   0  0
   -1.3334   -9.6871    0.0000 O   0  0
   -1.3575  -11.3330    0.0000 C   0  0
   -1.3696  -12.1559    0.0000 C   0  0
   -2.0897  -12.5520    0.0000 C   0  0
   -2.1021  -13.3742    0.0000 C   0  0
   -1.3949  -13.7969    0.0000 C   0  0
   -0.6739  -13.3916    0.0000 C   0  0
   -0.6650  -12.5707    0.0000 C   0  0
   -1.4060  -14.6199    0.0000 Cl  0  0
   -1.3006   -7.1988    0.0000 C   0  0
   -1.2966   -6.3738    0.0000 C   0  0
   -2.0104   -5.9568    0.0000 C   0  0
   -2.7299   -6.3709    0.0000 C   0  0
  7 14  1  0
  2  3  1  0
 14 15  1  0
 10  7  1  1
 14 16  2  0
  3  9  1  0
 15 17  1  0
  6  8  2  0
 17 18  1  0
 18 19  2  0
  1  2  1  0
 19 20  1  0
  9 10  1  0
 20 21  2  0
  1  4  1  0
 21 22  1  0
 10 11  1  0
 22 23  2  0
 23 18  1  0
  4  6  1  0
 21 24  1  0
 11 12  1  0
 12 25  2  0
 28  5  1  0
 25 26  1  0
  9 13  2  0
 26 27  1  0
  5  6  1  0
 27 28  1  0
M  END