
  SciTegic01161211232D

 28 30  0  0  0  0            999 V2000
    5.9956   -8.2657    0.0000 C   0  0
    5.9944   -9.0929    0.0000 C   0  0
    6.7088   -9.5057    0.0000 C   0  0
    6.7072   -7.8529    0.0000 C   0  0
    7.4219   -8.2622    0.0000 C   0  0
    7.4252   -9.0950    0.0000 C   0  0
    8.1440   -9.5063    0.0000 O   0  0
    8.8642   -9.0894    0.0000 C   0  0
    8.8609   -8.2567    0.0000 C   0  0  2  0  0  0
    8.1376   -7.8408    0.0000 O   0  0
    9.5742   -7.8421    0.0000 C   0  0
   10.2899   -8.2526    0.0000 N   0  0
   11.0032   -7.8380    0.0000 C   0  0
   11.7189   -8.2485    0.0000 C   0  0
   12.4322   -7.8339    0.0000 O   0  0
   13.1478   -8.2444    0.0000 C   0  0
   13.1452   -9.0683    0.0000 C   0  0
   13.8600   -9.4786    0.0000 C   0  0
   14.5742   -9.0641    0.0000 C   0  0
   12.4305   -9.4805    0.0000 O   0  0
   12.4302  -10.3056    0.0000 C   0  0
   13.8539   -7.8281    0.0000 C   0  0
   14.5666   -8.2352    0.0000 C   0  0
   15.2734   -7.8217    0.0000 C   0  0
   15.2686   -7.0011    0.0000 C   0  0
   14.5513   -6.5959    0.0000 C   0  0
   13.8474   -7.0118    0.0000 C   0  0
   10.0480   -7.3473    0.0000 Cl  0  0
 12 13  1  0
 13 14  1  0
  2  3  1  0
 14 15  1  0
  3  6  2  0
 15 16  1  0
 16 17  2  0
  5  4  2  0
 17 18  1  0
  5 10  1  0
 18 19  2  0
 19 23  1  0
 22 16  1  0
  6  7  1  0
 17 20  1  0
  7  8  1  0
 20 21  1  0
  8  9  1  0
  9 10  1  0
 22 23  1  0
  4  1  1  0
 23 24  2  0
  9 11  1  6
 24 25  1  0
  5  6  1  0
 25 26  2  0
 11 12  1  0
 26 27  1  0
 27 22  2  0
  1  2  2  0
M  END