
          11280715012D 1   1.00000     0.00000     0

 28 30  0     1  0            999 V2000
    5.3667   -3.8667    0.0000 C   0  0  0  0  0  0           0  0  0
    6.0792   -3.4542    0.0000 N   0  0  3  0  0  0           0  0  0
    4.6625   -3.4500    0.0000 C   0  0  0  0  0  0           0  0  0
    3.9542   -3.8667    0.0000 C   0  0  0  0  0  0           0  0  0
    2.5250   -3.8875    0.0000 N   0  0  3  0  0  0           0  0  0
    3.2375   -3.4750    0.0000 C   0  0  0  0  0  0           0  0  0
    7.5042   -3.4625    0.0000 C   0  0  0  0  0  0           0  0  0
    8.9417   -2.6417    0.0000 C   0  0  0  0  0  0           0  0  0
    6.7917   -3.8667    0.0000 C   0  0  0  0  0  0           0  0  0
    9.6500   -3.8792    0.0000 C   0  0  0  0  0  0           0  0  0
    8.9375   -1.8167    0.0000 C   0  0  0  0  0  0           0  0  0
   10.3667   -3.4750    0.0000 C   0  0  0  0  0  0           0  0  0
    4.6500   -2.6292    0.0000 C   0  0  0  0  0  0           0  0  0
    8.2167   -3.8792    0.0000 N   0  0  0  0  0  0           0  0  0
    6.0792   -2.6292    0.0000 C   0  0  0  0  0  0           0  0  0
    5.3625   -4.6917    0.0000 O   0  0  0  0  0  0           0  0  0
    8.9375   -3.4667    0.0000 C   0  0  2  0  0  0           0  0  0
    1.0917   -4.7042    0.0000 N   0  0  0  0  0  0           0  0  0
    7.5125   -2.6375    0.0000 O   0  0  0  0  0  0           0  0  0
    3.2250   -2.6417    0.0000 C   0  0  0  0  0  0           0  0  0
   10.3667   -2.6500    0.0000 O   0  0  0  0  0  0           0  0  0
    5.3667   -2.2167    0.0000 C   0  0  0  0  0  0           0  0  0
    3.9292   -2.2250    0.0000 C   0  0  0  0  0  0           0  0  0
   11.0792   -3.8875    0.0000 O   0  0  0  0  0  0           0  0  0
    1.8042   -3.4667    0.0000 C   0  0  0  0  0  0           0  0  0
    2.5250   -4.7125    0.0000 C   0  0  0  0  0  0           0  0  0
    1.8042   -5.1167    0.0000 C   0  0  0  0  0  0           0  0  0
    1.1000   -3.8792    0.0000 C   0  0  0  0  0  0           0  0  0
  2  1  1  0     0  0
  3  1  1  0     0  0
  4  3  1  0     0  0
  5  6  1  0     0  0
  6  4  2  0     0  0
  7  9  1  0     0  0
 17  8  1  6     0  0
  9  2  1  0     0  0
 10 17  1  0     0  0
 11  8  3  0     0  0
 12 10  1  0     0  0
 13  3  2  0     0  0
 14  7  1  0     0  0
 15  2  1  0     0  0
 16  1  2  0     0  0
 17 14  1  0     0  0
 18 27  1  0     0  0
 19  7  2  0     0  0
 20 23  2  0     0  0
 21 12  2  0     0  0
 22 13  1  0     0  0
 23 13  1  0     0  0
 24 12  1  0     0  0
 25  5  1  0     0  0
 26  5  1  0     0  0
 27 26  1  0     0  0
 28 25  1  0     0  0
 15 22  1  0     0  0
  6 20  1  0     0  0
 18 28  1  0     0  0
M  END