
  SciTegic12231509382D

  8  8  0  0  0  0            999 V2000
    4.5475   -2.1700    0.0000 C   0  0
    4.3081   -1.3805    0.0000 C   0  0
    3.4832   -1.3611    0.0000 C   0  0
    3.2105   -2.1425    0.0000 N   0  0
    3.8686   -2.6386    0.0000 O   0  0
    5.3722   -2.1892    0.0000 C   0  0
    5.7680   -2.9131    0.0000 N   0  0
    3.0135   -0.6829    0.0000 O   0  0
  1  2  2  0
  2  3  1  0
  3  4  2  0
  4  5  1  0
  5  1  1  0
  1  6  1  0
  6  7  1  0
  3  8  1  0
M  END