
          11280715482D 1   1.00000     0.00000     0

 54 59  0     1  0            999 V2000
    1.6042   -2.7792    0.0000 C   0  0  0  0  0  0           0  0  0
    1.5875   -1.9542    0.0000 N   0  0  3  0  0  0           0  0  0
    0.8875   -3.2042    0.0000 N   0  0  0  0  0  0           0  0  0
    4.3750    0.6500    0.0000 C   0  0  0  0  0  0           0  0  0
    8.9250    0.6458    0.0000 C   0  0  0  0  0  0           0  0  0
    3.6167    0.2083    0.0000 N   0  0  3  0  0  0           0  0  0
    9.6792    0.2000    0.0000 N   0  0  3  0  0  0           0  0  0
    6.6500    0.2083    0.0000 C   0  0  0  0  0  0           0  0  0
    0.8542   -1.5500    0.0000 C   0  0  0  0  0  0           0  0  0
    5.1250    0.2083    0.0000 N   0  0  0  0  0  0           0  0  0
    7.4125    0.6458    0.0000 N   0  0  0  0  0  0           0  0  0
    7.8542    2.6708    0.0000 C   0  0  0  0  0  0           0  0  0
   11.8417   -0.1125    0.0000 N   0  0  3  0  0  0           0  0  0
    0.1500   -1.9750    0.0000 C   0  0  0  0  0  0           0  0  0
    5.8917    0.6458    0.0000 C   0  0  1  0  0  0           0  0  0
    7.8542    1.9625    0.0000 C   0  0  0  0  0  0           0  0  0
    7.2417    3.0208    0.0000 C   0  0  0  0  0  0           0  0  0
    0.1542   -2.8042    0.0000 C   0  0  0  0  0  0           0  0  0
    8.1667    0.2083    0.0000 C   0  0  2  0  0  0           0  0  0
    2.3000   -1.5292    0.0000 C   0  0  3  0  0  0           0  0  0
    6.6417    1.9625    0.0000 C   0  0  0  0  0  0           0  0  0
    2.3167   -3.1792    0.0000 O   0  0  0  0  0  0           0  0  0
    7.2417    1.6125    0.0000 C   0  0  0  0  0  0           0  0  0
    6.6417    2.6708    0.0000 C   0  0  0  0  0  0           0  0  0
    5.8917    1.5208    0.0000 C   0  0  0  0  0  0           0  0  0
    2.7667   -0.9292    0.0000 C   0  0  0  0  0  0           0  0  0
    3.1667   -1.3792    0.0000 C   0  0  0  0  0  0           0  0  0
   12.5542   -0.5417    0.0000 C   0  0  0  0  0  0           0  0  0
    2.7500    0.0583    0.0000 C   0  0  0  0  0  0           0  0  0
    3.1667   -0.3417    0.0000 C   0  0  0  0  0  0           0  0  0
    4.3750    1.5208    0.0000 O   0  0  0  0  0  0           0  0  0
   10.4292    0.0833    0.0000 C   0  0  0  0  0  0           0  0  0
   10.2292   -0.4792    0.0000 C   0  0  0  0  0  0           0  0  0
   11.2917    0.5833    0.0000 C   0  0  0  0  0  0           0  0  0
   11.1417    0.0208    0.0000 C   0  0  0  0  0  0           0  0  0
    8.9375    1.1875    0.0000 O   0  0  0  0  0  0           0  0  0
    6.6500   -0.6667    0.0000 O   0  0  0  0  0  0           0  0  0
   13.9875   -1.3917    0.0000 N   0  0  0  0  0  0           0  0  0
    8.4542    1.6083    0.0000 Br  0  0  0  0  0  0           0  0  0
    7.2417    3.7208    0.0000 Br  0  0  0  0  0  0           0  0  0
    8.4542    3.0333    0.0000 O   0  0  0  0  0  0           0  0  0
   12.5417   -1.3750    0.0000 C   0  0  0  0  0  0           0  0  0
   13.2792   -0.1292    0.0000 C   0  0  0  0  0  0           0  0  0
    9.6917   -3.2917    0.0000 N   0  0  0  0  0  0           0  0  0
   -0.5708   -1.5667    0.0000 C   0  0  0  0  0  0           0  0  0
   13.2542   -1.8000    0.0000 C   0  0  0  0  0  0           0  0  0
   13.9917   -0.5542    0.0000 C   0  0  0  0  0  0           0  0  0
    8.1667   -0.6667    0.0000 C   0  0  0  0  0  0           0  0  0
   -0.5458   -3.2250    0.0000 C   0  0  0  0  0  0           0  0  0
    9.6917   -2.4167    0.0000 C   0  0  0  0  0  0           0  0  0
    8.9250   -1.1042    0.0000 C   0  0  0  0  0  0           0  0  0
    8.9292   -1.9792    0.0000 C   0  0  0  0  0  0           0  0  0
   -1.2833   -1.9917    0.0000 C   0  0  0  0  0  0           0  0  0
   -1.2708   -2.8250    0.0000 C   0  0  0  0  0  0           0  0  0
  2  1  1  0     0  0
  3  1  1  0     0  0
  4  6  1  0     0  0
  5 19  1  0     0  0
  6 30  1  0     0  0
  7  5  1  0     0  0
  8 15  1  0     0  0
  9  2  1  0     0  0
 10  4  1  0     0  0
 11  8  1  0     0  0
 12 17  2  0     0  0
 13 35  1  0     0  0
 14 18  2  0     0  0
 15 10  1  0     0  0
 16 23  2  0     0  0
 17 24  1  0     0  0
 18  3  1  0     0  0
 19 11  1  0     0  0
 20  2  1  0     0  0
 21 25  1  0     0  0
 22  1  2  0     0  0
 23 21  1  0     0  0
 24 21  2  0     0  0
 15 25  1  1     0  0
 26 20  1  0     0  0
 27 20  1  0     0  0
 28 13  1  0     0  0
 29 26  1  0     0  0
 30 27  1  0     0  0
 31  4  2  0     0  0
 32  7  1  0     0  0
 33  7  1  0     0  0
 34 32  1  0     0  0
 35 33  1  0     0  0
 36  5  2  0     0  0
 37  8  2  0     0  0
 38 47  1  0     0  0
 39 16  1  0     0  0
 40 17  1  0     0  0
 41 12  1  0     0  0
 42 28  2  0     0  0
 43 28  1  0     0  0
 44 50  1  0     0  0
 45 14  1  0     0  0
 46 42  1  0     0  0
 47 43  2  0     0  0
 19 48  1  1     0  0
 49 18  1  0     0  0
 50 52  1  0     0  0
 51 48  1  0     0  0
 52 51  1  0     0  0
 53 54  1  0     0  0
 54 49  2  0     0  0
  9 14  1  0     0  0
 29  6  1  0     0  0
 45 53  2  0     0  0
 16 12  1  0     0  0
 34 13  1  0     0  0
 46 38  2  0     0  0
M  END