
  SciTegic05071317052D

 29 28  0  0  0  0            999 V2000
    6.6223  -25.4446    0.0000 C   0  0
    7.2901  -24.9602    0.0000 N   0  0
    7.0359  -24.1754    0.0000 C   0  0
    6.2109  -24.1746    0.0000 C   0  0
    5.9553  -24.9590    0.0000 S   0  0
    5.7948  -23.4625    0.0000 C   0  0
    4.9698  -23.4665    0.0000 C   0  0
    4.5539  -22.7541    0.0000 N   0  0
    3.7289  -22.7582    0.0000 C   0  0
    4.9629  -22.0376    0.0000 C   0  0
    6.6244  -26.2668    0.0000 N   0  0
    5.9077  -26.6774    0.0000 C   0  0
    5.9051  -27.4988    0.0000 C   0  0
    6.6173  -27.9158    0.0000 N   0  0
    7.3340  -27.5051    0.0000 C   0  0
    7.3383  -26.6776    0.0000 C   0  0
    6.6135  -28.7408    0.0000 C   0  0
    5.8971  -29.1499    0.0000 C   0  0
    5.8932  -29.9749    0.0000 C   0  0
    3.3129  -22.0458    0.0000 C   0  0
    2.4879  -22.0498    0.0000 C   0  0
    2.0758  -21.3378    0.0000 C   0  0
    1.2516  -21.3415    0.0000 C   0  0
    0.8417  -22.0585    0.0000 C   0  0
    1.2622  -22.7733    0.0000 C   0  0
    2.0851  -22.7661    0.0000 C   0  0
    3.6227  -25.8202    0.0000 Br  0  0
    3.8304  -26.6652    0.0000 Br  0  0
    2.9464  -27.4313    0.0000 Br  0  0
  1  2  2  0
  2  3  1  0
  3  4  2  0
  4  5  1  0
  5  1  1  0
  4  6  1  0
  6  7  1  0
  7  8  1  0
  8  9  1  0
  8 10  1  0
 11 12  1  0
 11 16  1  0
 12 13  1  0
 13 14  1  0
 14 15  1  0
 15 16  1  0
  1 11  1  0
 14 17  1  0
 17 18  1  0
 18 19  1  0
  9 20  1  0
 20 21  1  0
 21 22  2  0
 22 23  1  0
 23 24  2  0
 24 25  1  0
 25 26  2  0
 26 21  1  0
M  END