
          05080814042D 1   1.00000     0.00000     0

 37 42  0     1  0            999 V2000
    6.8519   -3.5805    0.0000 C   0  0  0  0  0  0           0  0  0
    6.8508   -4.4062    0.0000 C   0  0  0  0  0  0           0  0  0
    7.5642   -4.8183    0.0000 C   0  0  0  0  0  0           0  0  0
    7.5624   -3.1685    0.0000 C   0  0  0  0  0  0           0  0  0
    8.2764   -3.5768    0.0000 C   0  0  0  0  0  0           0  0  0
    8.2798   -4.4083    0.0000 C   0  0  0  0  0  0           0  0  0
    8.9976   -4.8188    0.0000 C   0  0  0  0  0  0           0  0  0
    8.9907   -3.1559    0.0000 C   0  0  0  0  0  0           0  0  0
    9.7131   -3.5710    0.0000 C   0  0  2  0  0  0           0  0  0
    9.7142   -4.4041    0.0000 C   0  0  2  0  0  0           0  0  0
   10.4323   -4.8174    0.0000 N   0  0  3  0  0  0           0  0  0
   11.1538   -4.4022    0.0000 C   0  0  0  0  0  0           0  0  0
   11.1528   -3.5692    0.0000 C   0  0  1  0  0  0           0  0  0
   10.4301   -3.1512    0.0000 C   0  0  0  0  0  0           0  0  0
   10.4322   -5.6408    0.0000 C   0  0  0  0  0  0           0  0  0
   11.8657   -3.1573    0.0000 C   0  0  0  0  0  0           0  0  0
   12.5790   -3.5688    0.0000 N   0  0  3  0  0  0           0  0  0
   11.8655   -2.3339    0.0000 O   0  0  0  0  0  0           0  0  0
   12.5735   -4.3969    0.0000 C   0  0  0  0  0  0           0  0  0
   13.2826   -4.8084    0.0000 C   0  0  0  0  0  0           0  0  0
   13.9980   -4.3999    0.0000 N   0  0  3  0  0  0           0  0  0
   13.9997   -3.5756    0.0000 C   0  0  0  0  0  0           0  0  0
   13.2861   -3.1596    0.0000 C   0  0  0  0  0  0           0  0  0
    9.7061   -5.2273    0.0000 H   0  0  0  0  0  0           0  0  0
    9.7061   -2.7447    0.0000 H   0  0  0  0  0  0           0  0  0
   14.7096   -4.8141    0.0000 C   0  0  0  0  0  0           0  0  0
   14.7032   -5.6359    0.0000 C   0  0  0  0  0  0           0  0  0
   15.4140   -6.0500    0.0000 C   0  0  0  0  0  0           0  0  0
   15.4184   -4.4027    0.0000 N   0  0  0  0  0  0           0  0  0
    7.5597   -2.3446    0.0000 O   0  0  0  0  0  0           0  0  0
    6.8454   -1.9350    0.0000 C   0  0  0  0  0  0           0  0  0
   16.9148   -4.5617    0.0000 N   0  0  0  0  0  0           0  0  0
   16.1298   -4.8131    0.0000 C   0  0  0  0  0  0           0  0  0
   16.1275   -5.6381    0.0000 C   0  0  0  0  0  0           0  0  0
   16.9119   -5.8939    0.0000 N   0  0  0  0  0  0           0  0  0
   17.3965   -5.2262    0.0000 S   0  0  0  0  0  0           0  0  0
    7.5627   -5.6417    0.0000 Br  0  0  0  0  0  0           0  0  0
  7 10  1  0     0  0
 16 18  2  0     0  0
 17 19  1  0     0  0
  9  8  1  0     0  0
  9 10  1  0     0  0
  5  4  2  0     0  0
  4  1  1  0     0  0
  5  6  1  0     0  0
 17 23  1  0     0  0
 19 20  1  0     0  0
 20 21  1  0     0  0
 21 22  1  0     0  0
 22 23  1  0     0  0
 10 24  1  1     0  0
  2  3  1  0     0  0
  9 25  1  6     0  0
  3  6  2  0     0  0
 21 26  1  0     0  0
  9 14  1  0     0  0
 26 27  1  0     0  0
 10 11  1  0     0  0
 27 28  2  0     0  0
 28 34  1  0     0  0
 11 12  1  0     0  0
 33 29  1  0     0  0
 29 26  2  0     0  0
 12 13  1  0     0  0
 13 14  1  0     0  0
 30 31  1  0     0  0
  4 30  1  0     0  0
 33 34  1  0     0  0
  1  2  2  0     0  0
 11 15  1  0     0  0
  5  8  1  0     0  0
 13 16  1  1     0  0
  6  7  1  0     0  0
 32 33  2  0     0  0
 34 35  2  0     0  0
 35 36  1  0     0  0
 36 32  1  0     0  0
 16 17  1  0     0  0
  3 37  1  0     0  0
M  END