
          05080814042D 1   1.00000     0.00000     0

 33 37  0     1  0            999 V2000
    7.7187   -1.9603    0.0000 C   0  0  0  0  0  0           0  0  0
    7.0084   -2.3750    0.0000 C   0  0  0  0  0  0           0  0  0
    7.0154   -3.2009    0.0000 C   0  0  0  0  0  0           0  0  0
    7.7288   -3.6042    0.0000 C   0  0  0  0  0  0           0  0  0
    8.4317   -2.3673    0.0000 C   0  0  0  0  0  0           0  0  0
    8.4378   -3.1946    0.0000 C   0  0  0  0  0  0           0  0  0
    9.1532   -3.6008    0.0000 C   0  0  0  0  0  0           0  0  0
    9.1411   -1.9462    0.0000 C   0  0  0  0  0  0           0  0  0
    9.8612   -2.3569    0.0000 C   0  0  2  0  0  0           0  0  0
    9.8657   -3.1861    0.0000 C   0  0  2  0  0  0           0  0  0
   10.5822   -3.5945    0.0000 N   0  0  3  0  0  0           0  0  0
   11.2986   -3.1782    0.0000 C   0  0  0  0  0  0           0  0  0
   11.2940   -2.3490    0.0000 C   0  0  1  0  0  0           0  0  0
   10.5731   -1.9361    0.0000 C   0  0  0  0  0  0           0  0  0
    9.8533   -1.5284    0.0000 H   0  0  0  0  0  0           0  0  0
    9.8575   -4.0105    0.0000 H   0  0  0  0  0  0           0  0  0
   12.0064   -1.9335    0.0000 C   0  0  0  0  0  0           0  0  0
   12.7223   -2.3426    0.0000 N   0  0  3  0  0  0           0  0  0
   12.0027   -1.1089    0.0000 O   0  0  0  0  0  0           0  0  0
   12.7200   -3.1704    0.0000 C   0  0  0  0  0  0           0  0  0
   13.4318   -3.5794    0.0000 C   0  0  0  0  0  0           0  0  0
   14.1465   -3.1674    0.0000 N   0  0  3  0  0  0           0  0  0
   14.1448   -2.3419    0.0000 C   0  0  0  0  0  0           0  0  0
   13.4283   -1.9283    0.0000 C   0  0  0  0  0  0           0  0  0
    7.7148   -1.1357    0.0000 O   0  0  0  0  0  0           0  0  0
    6.9987   -0.7269    0.0000 C   0  0  0  0  0  0           0  0  0
   10.5855   -4.4191    0.0000 C   0  0  0  0  0  0           0  0  0
   14.8609   -3.5793    0.0000 C   0  0  0  0  0  0           0  0  0
   14.8570   -4.4030    0.0000 N   0  0  0  0  0  0           0  0  0
   15.5706   -4.8148    0.0000 C   0  0  0  0  0  0           0  0  0
   16.2853   -4.4019    0.0000 C   0  0  0  0  0  0           0  0  0
   16.2821   -3.5731    0.0000 C   0  0  0  0  0  0           0  0  0
   15.5680   -3.1651    0.0000 N   0  0  0  0  0  0           0  0  0
  5  8  1  0     0  0
 10 16  1  1     0  0
  6  7  1  0     0  0
 13 17  1  1     0  0
  7 10  1  0     0  0
 17 18  1  0     0  0
  9  8  1  0     0  0
 17 19  2  0     0  0
 18 20  1  0     0  0
  9 10  1  0     0  0
  3  4  2  0     0  0
  4  6  1  0     0  0
  5  6  2  0     0  0
  1  2  2  0     0  0
 18 24  1  0     0  0
 20 21  1  0     0  0
 21 22  1  0     0  0
 22 23  1  0     0  0
 23 24  1  0     0  0
  5  1  1  0     0  0
  1 25  1  0     0  0
  2  3  1  0     0  0
 25 26  1  0     0  0
  9 14  1  0     0  0
 11 27  1  0     0  0
 10 11  1  0     0  0
 22 28  1  0     0  0
 11 12  1  0     0  0
 28 29  2  0     0  0
 12 13  1  0     0  0
 29 30  1  0     0  0
 13 14  1  0     0  0
 30 31  2  0     0  0
 31 32  1  0     0  0
  9 15  1  6     0  0
 32 33  2  0     0  0
 33 28  1  0     0  0
M  END