
  SciTegic12231509382D

 36 38  0  0  0  0            999 V2000
    0.0917   -2.5042    0.0000 C   0  0
   -0.4333   -2.8042    0.0000 O   0  0
   -0.9500   -2.5042    0.0000 C   0  0
    0.0917   -1.9042    0.0000 C   0  0
   -0.9458   -1.9000    0.0000 C   0  0
   -0.4208   -1.6042    0.0000 C   0  0
    5.2875   -2.5125    0.0000 C   0  0
    5.2875   -1.9042    0.0000 C   0  0
    0.6125   -2.8042    0.0000 C   0  0
    4.7667   -2.8042    0.0000 C   0  0
   -1.4708   -2.8000    0.0000 C   0  0
    0.6042   -1.6042    0.0000 C   0  0
    4.7625   -1.6042    0.0000 C   0  0
    1.1292   -2.5042    0.0000 C   0  0
    4.2500   -2.5042    0.0000 C   0  0
    5.8042   -1.6042    0.0000 C   0  0
   -1.4750   -3.4000    0.0000 O   0  0
   -0.4208   -1.0042    0.0000 O   0  0
    1.6500   -2.8042    0.0000 O   0  0
    3.7292   -2.8042    0.0000 O   0  0
   -1.9875   -2.4917    0.0000 O   0  0
    1.1292   -1.9042    0.0000 C   0  0
    4.2417   -1.9125    0.0000 C   0  0
    5.8042   -1.0042    0.0000 O   0  0
    5.8042   -2.8125    0.0000 O   0  0
    2.6917   -2.8042    0.0000 C   0  0
    2.1667   -2.5042    0.0000 C   0  0
    3.2042   -2.5042    0.0000 C   0  0
    0.6125   -3.4042    0.0000 C   0  0
    4.7667   -3.4042    0.0000 C   0  0
    2.6917   -3.4042    0.0000 O   0  0
    6.3250   -1.9042    0.0000 C   0  0
    0.0917   -3.7042    0.0000 C   0  0
    4.2417   -3.7042    0.0000 C   0  0
    0.0917   -4.3042    0.0000 C   0  0
    4.2417   -4.3042    0.0000 C   0  0
  2  1  1  0
  3  2  1  0
  4  1  2  0
  5  6  1  0
  6  4  1  0
  7 10  1  0
  8 13  1  0
  9  1  1  0
 10 15  2  0
 11  3  1  0
 12  4  1  0
 13 23  2  0
 14  9  2  0
 15 20  1  0
 16  8  1  0
 17 11  1  0
 18  6  2  0
 19 14  1  0
 20 28  1  0
 21 11  2  0
 22 14  1  0
 23 15  1  0
 24 16  2  0
 25  7  1  0
 26 27  1  0
 27 19  1  0
 28 26  1  0
 29  9  1  0
 30 10  1  0
 31 26  1  0
 32 16  1  0
 33 29  1  0
 34 30  1  0
 35 33  1  0
 36 34  1  0
 22 12  2  0
  5  3  2  0
  7  8  2  0
M  END