
  SciTegic09081514172D

 73 72  0  0  0  0            999 V2000
    5.4612  -10.0414    0.0000 O   0  0
    5.4261   -8.8419    0.0000 S   0  0
    6.4476   -8.2121    0.0000 O   0  0
    4.1054   -8.1289    0.0000 O   0  0
    6.4823   -9.4114    0.0000 O   0  5
    4.9396   -1.4896    0.0000 O   0  0
    3.9207   -2.1236    0.0000 S   0  0
    2.8624   -1.5579    0.0000 O   0  5
    3.9693   -3.6236    0.0000 O   0  0
    3.8813   -0.9242    0.0000 O   0  0
   -3.9019    0.4438    0.0000 O   0  5
   -3.8990   -0.7562    0.0000 S   0  0
   -4.9370   -1.3583    0.0000 O   0  0
   -2.5972   -1.5031    0.0000 O   0  0
   -4.9396   -0.1585    0.0000 O   0  0
   -2.3383    1.3500    0.0000 O   0  0
    4.0616   -6.6288    0.0000 C   0  0
    1.2999   -2.2084    0.0000 O   0  0
    0.0000    2.5000    0.0000 O   0  0
    1.2990   -0.7500    0.0000 O   0  0
    0.0000   -1.5000    0.0000 C   0  0  2  0  0  0
   -1.2990   -0.7500    0.0000 C   0  0  1  0  0  0
   -1.2990    0.7500    0.0000 C   0  0  2  0  0  0
    0.0000    1.5000    0.0000 C   0  0  1  0  0  0
    1.2990    0.7500    0.0000 C   0  0  1  0  0  0
    2.5972    1.5031    0.0000 C   0  0
   -1.1305   -6.7879    0.0000 O   0  0
   -1.2253   -3.7882    0.0000 N   0  0
    1.4654   -6.7053    0.0000 O   0  0
    0.1440   -5.9954    0.0000 C   0  0  1  0  0  0
    0.0981   -4.4961    0.0000 C   0  0  1  0  0  0
    1.3745   -3.7074    0.0000 C   0  0  2  0  0  0
    2.6949   -4.4165    0.0000 C   0  0  2  0  0  0
    2.7409   -5.9158    0.0000 C   0  0  1  0  0  0
   -5.9902  -17.4575    0.0000 C   0  0
   -6.0361  -15.9581    0.0000 C   0  0
   -7.3576  -15.2484    0.0000 C   0  0
   -8.6331  -16.0378    0.0000 C   0  0
   -8.5871  -17.5371    0.0000 C   0  0
   -7.2657  -18.2469    0.0000 C   0  0
   -4.7616  -15.1656    0.0000 N   0  0
   -9.9567  -15.3303    0.0000 N   0  0
  -11.2317  -16.1221    0.0000 C   0  0
  -12.5553  -15.4146    0.0000 C   0  0
  -11.1928  -17.3214    0.0000 O   0  0
  -13.8303  -16.2063    0.0000 C   0  0
  -15.1539  -15.4988    0.0000 C   0  0
  -16.4289  -16.2906    0.0000 C   0  0
  -17.7525  -15.5831    0.0000 C   0  0
  -19.0842  -16.2452    0.0000 S   0  0
  -20.1216  -15.1618    0.0000 S   0  0
  -19.4118  -13.8404    0.0000 C   0  0
  -17.9357  -14.1071    0.0000 C   0  0
   -4.8097  -13.6656    0.0000 C   0  0
   -3.4150   -8.5144    0.0000 O   0  0
   -2.3569   -9.0805    0.0000 C   0  0  1  0  0  0
   -2.3088  -10.5805    0.0000 C   0  0  2  0  0  0
   -3.5833  -11.3730    0.0000 C   0  0  1  0  0  0
   -3.5352  -12.8731    0.0000 C   0  0  1  0  0  0
   -2.4771  -13.4391    0.0000 O   0  0
   -4.6414  -10.8070    0.0000 O   0  0
   -1.2507  -11.1466    0.0000 O   0  0
   -1.0824   -8.2880    0.0000 C   0  0
   -0.8780   -1.9786    0.0000 H   0  0
    3.4646    1.0054    0.0000 O   0  0
    2.5949    2.5031    0.0000 O   0  5
   -2.5006   -4.5795    0.0000 C   0  0
   -2.4685   -5.5790    0.0000 C   0  0
   -3.3823   -4.1078    0.0000 O   0  0
   20.4255    8.4286    0.0000 Na  0  3
   17.9255    8.4286    0.0000 Na  0  3
   15.4255    8.4286    0.0000 Na  0  3
   12.9255    8.4286    0.0000 Na  0  3
  2  1  2  0
  3  2  2  0
  4  2  1  0
  2  5  1  0
  7  6  2  0
  8  7  1  0
  9  7  1  0
  7 10  2  0
 12 11  1  0
 13 12  2  0
 14 12  1  0
 12 15  2  0
 17  4  1  0
 25 20  1  0
 20 21  1  0
 21 22  1  0
 22 23  1  0
 23 24  1  0
 24 25  1  0
 25 26  1  1
 21 18  1  0
 22 14  1  6
 23 16  1  1
 24 19  1  6
 34 29  1  0
 29 30  1  0
 30 31  1  0
 31 32  1  0
 32 33  1  0
 33 34  1  0
 34 17  1  1
 30 27  1  6
 31 28  1  6
 32 18  1  1
 33  9  1  1
 35 36  2  0
 36 37  1  0
 37 38  2  0
 38 39  1  0
 39 40  2  0
 40 35  1  0
 36 41  1  0
 38 42  1  0
 42 43  1  0
 43 44  1  0
 43 45  2  0
 44 46  1  0
 46 47  1  0
 47 48  1  0
 48 49  1  0
 49 50  1  0
 50 51  1  0
 51 52  1  0
 52 53  1  0
 53 49  1  0
 41 54  1  0
 54 59  1  0
 56 55  1  6
 56 57  1  0
 57 58  1  0
 58 59  1  0
 59 60  1  1
 58 61  1  1
 57 62  1  1
 56 63  1  0
 63 27  1  0
 21 64  1  6
 26 65  2  0
 26 66  1  0
 28 67  1  0
 67 68  1  0
 67 69  2  0
M  CHG  8   5  -1   8  -1  11  -1  66  -1  70   1  71   1  72   1  73   1
M  END