
          05270816392D 1   1.00000     0.00000     0

 36 41  0     1  0            999 V2000
   -4.6765  -11.1100    0.0000 C   0  0  0  0  0  0           0  0  0
   -4.6778  -11.9330    0.0000 C   0  0  0  0  0  0           0  0  0
   -3.2532  -11.1059    0.0000 C   0  0  0  0  0  0           0  0  0
   -3.9623  -10.6971    0.0000 C   0  0  0  0  0  0           0  0  0
   -3.2502  -11.9324    0.0000 C   0  0  0  0  0  0           0  0  0
   -3.9615  -12.3469    0.0000 C   0  0  0  0  0  0           0  0  0
   -3.9628  -13.1690    0.0000 C   0  0  0  0  0  0           0  0  0
   -3.2498  -13.5830    0.0000 C   0  0  0  0  0  0           0  0  0
   -5.2937  -12.4850    0.0000 N   0  0  0  0  0  0           0  0  0
   -4.7473  -13.4236    0.0000 C   0  0  0  0  0  0           0  0  0
   -2.5354  -12.3446    0.0000 C   0  0  2  0  0  0           0  0  0
   -2.5346  -13.1725    0.0000 C   0  0  2  0  0  0           0  0  0
   -1.8212  -13.5833    0.0000 N   0  0  3  0  0  0           0  0  0
   -1.1041  -13.1709    0.0000 C   0  0  0  0  0  0           0  0  0
   -1.1049  -12.3432    0.0000 C   0  0  1  0  0  0           0  0  0
   -1.8229  -11.9277    0.0000 C   0  0  0  0  0  0           0  0  0
   -2.5437  -13.9928    0.0000 H   0  0  0  0  0  0           0  0  0
   -2.5437  -11.5178    0.0000 H   0  0  0  0  0  0           0  0  0
   -0.3905  -11.9306    0.0000 C   0  0  0  0  0  0           0  0  0
   -0.3905  -11.1056    0.0000 O   0  0  0  0  0  0           0  0  0
    0.3239  -12.3431    0.0000 N   0  0  3  0  0  0           0  0  0
    0.3189  -13.1733    0.0000 C   0  0  0  0  0  0           0  0  0
    1.0293  -13.5857    0.0000 C   0  0  0  0  0  0           0  0  0
    1.7461  -13.1767    0.0000 N   0  0  3  0  0  0           0  0  0
    1.7481  -12.3509    0.0000 C   0  0  0  0  0  0           0  0  0
    1.0331  -11.9339    0.0000 C   0  0  0  0  0  0           0  0  0
    2.4590  -13.5920    0.0000 C   0  0  0  0  0  0           0  0  0
    2.4510  -14.4158    0.0000 C   0  0  0  0  0  0           0  0  0
    3.1630  -14.8309    0.0000 C   0  0  0  0  0  0           0  0  0
    3.8801  -14.4211    0.0000 C   0  0  0  0  0  0           0  0  0
    3.8806  -13.5918    0.0000 C   0  0  0  0  0  0           0  0  0
    3.1679  -13.1804    0.0000 N   0  0  3  0  0  0           0  0  0
   -1.8215  -14.4083    0.0000 C   0  0  0  0  0  0           0  0  0
    3.1668  -12.3554    0.0000 C   0  0  0  0  0  0           0  0  0
    4.5951  -13.1794    0.0000 O   0  0  0  0  0  0           0  0  0
   -5.0417  -14.1942    0.0000 Cl  0  0  0  0  0  0           0  0  0
  6  7  1  0     0  0
 12 17  1  1     0  0
  7  8  1  0     0  0
 11 18  1  6     0  0
  8 12  1  0     0  0
 15 19  1  1     0  0
  3  4  2  0     0  0
 19 20  2  0     0  0
  2  9  1  0     0  0
 19 21  1  0     0  0
 21 22  1  0     0  0
  4  1  1  0     0  0
  7 10  2  0     0  0
  9 10  1  0     0  0
 11 12  1  0     0  0
  5  6  2  0     0  0
 21 26  1  0     0  0
 22 23  1  0     0  0
 23 24  1  0     0  0
 24 25  1  0     0  0
 25 26  1  0     0  0
  2  6  1  0     0  0
 24 27  1  0     0  0
 27 28  2  0     0  0
  5  3  1  0     0  0
 28 29  1  0     0  0
  1  2  2  0     0  0
 29 30  2  0     0  0
  5 11  1  0     0  0
 30 31  1  0     0  0
 11 16  1  0     0  0
 31 32  1  0     0  0
 32 27  1  0     0  0
 12 13  1  0     0  0
 13 33  1  0     0  0
 13 14  1  0     0  0
 32 34  1  0     0  0
 14 15  1  0     0  0
 31 35  2  0     0  0
 15 16  1  0     0  0
 10 36  1  0     0  0
M  END