
  SciTegic04181614082D

 25 27  0  0  0  0            999 V2000
   -3.7006    0.8244    0.0000 C   0  0
   -3.7006   -0.6045    0.0000 C   0  0
   -2.4915   -1.3190    0.0000 C   0  0
   -2.4915    1.5389    0.0000 C   0  0
   -1.2274    0.8244    0.0000 C   0  0
   -1.2274   -0.6045    0.0000 C   0  0
    0.0000   -1.3190    0.0000 N   0  0
    1.2274    0.8244    0.0000 C   0  0
    1.2274   -0.6045    0.0000 C   0  0
    2.4732   -1.3190    0.0000 C   0  0
    3.7372   -0.6045    0.0000 C   0  0  1  0  0  0
    3.7372    0.8244    0.0000 C   0  0
    2.4732    1.5389    0.0000 C   0  0
    5.0387   -1.3529    0.0000 C   0  0
    5.0406   -2.5529    0.0000 O   0  0
    6.0772   -0.7516    0.0000 O   0  0
   -4.7428    1.4191    0.0000 Cl  0  0
    0.0031   -2.8205    0.0000 C   0  0
    1.3039   -3.5691    0.0000 C   0  0
    1.3070   -5.0699    0.0000 N   0  0
    2.3421   -2.9673    0.0000 O   0  0
    2.6078   -5.8185    0.0000 C   0  0
    2.6109   -7.3193    0.0000 C   0  0
    1.5727   -7.9211    0.0000 O   0  0
    3.6510   -7.9178    0.0000 O   0  0
  1  2  2  0
  2  3  1  0
  3  6  2  0
  5  4  2  0
  4  1  1  0
  5  6  1  0
  6  7  1  0
  7  9  1  0
  8  5  1  0
  8  9  2  0
  8 13  1  0
  9 10  1  0
 10 11  1  0
 11 12  1  0
 12 13  1  0
 14 15  1  0
 14 16  2  0
 11 14  1  1
  1 17  1  0
  7 18  1  0
 18 19  1  0
 19 20  1  0
 19 21  2  0
 20 22  1  0
 22 23  1  0
 23 24  1  0
 23 25  2  0
M  END