
  SciTegic11201309402D

 78 82  0  0  1  0            999 V2000
    4.8506  -11.2709    0.0000 N   0  0
    4.0470  -11.4416    0.0000 C   0  0
    2.2733   -6.2829    0.0000 N   0  0
    3.4891  -10.8295    0.0000 C   0  0  1  0  0  0
    3.6890   -7.0990    0.0000 C   0  0
    4.0137  -10.1842    0.0000 N   0  0
    4.1386   -7.7860    0.0000 N   0  0
   -0.0458   -6.8991    0.0000 N   0  0
    1.4489   -6.2371    0.0000 C   0  0
    4.3093   -9.4098    0.0000 C   0  0
   -0.5621   -7.5486    0.0000 C   0  0
    5.3752  -12.6324    0.0000 C   0  0
    3.0478   -6.5826    0.0000 C   0  0  2  0  0  0
    4.3510   -8.5854    0.0000 C   0  0  2  0  0  0
   -0.8993   -9.1433    0.0000 N   0  0
    5.4627  -11.8205    0.0000 C   0  0  2  0  0  0
    0.6537   -6.4494    0.0000 C   0  0  2  0  0  0
   -0.6870   -9.9344    0.0000 C   0  0
   -0.8577   -8.3189    0.0000 C   0  0  2  0  0  0
    6.0455  -13.1278    0.0000 N   0  0
    5.1754   -8.4979    0.0000 C   0  0
    8.3355   -9.5055    0.0000 C   0  0
   -0.2373  -10.6338    0.0000 C   0  0
    2.0027  -11.4915    0.0000 S   0  0
    7.4695  -13.2694    0.0000 C   0  0
    1.2033  -11.4957    0.0000 S   0  0
    5.7582   -7.9109    0.0000 C   0  0
    0.4039  -11.1460    0.0000 C   0  0
    6.7992  -12.7906    0.0000 C   0  0  2  0  0  0
    7.6236   -9.0850    0.0000 N   0  0
    3.7889  -12.2285    0.0000 O   0  0
    4.3010   -6.5452    0.0000 O   0  0
    2.8021  -11.2792    0.0000 C   0  0
    4.6258  -12.9779    0.0000 O   0  0
    1.2990   -5.6250    0.0000 O   0  0
    5.1129   -9.5846    0.0000 O   0  0
   -1.2824   -7.1322    0.0000 O   0  0
   -1.6696   -8.1440    0.0000 C   0  0
    0.3123   -5.7000    0.0000 C   0  0
   -1.4447  -10.2716    0.0000 O   0  0
    7.3862  -14.0938    0.0000 O   0  0
    5.5709   -7.2863    0.0000 O   0  0
    8.3231  -10.3299    0.0000 N   0  0
    8.2231  -12.9322    0.0000 N   0  0
    9.0558   -9.0975    0.0000 N   0  0
    3.4599   -5.8624    0.0000 C   0  0
    5.1879  -10.5089    0.0000 C   0  0
    6.5743   -7.9983    0.0000 N   0  0
   -2.3815   -8.5479    0.0000 C   0  0
   -3.8180   -9.3598    0.0000 C   0  0
    0.7994   -5.0255    0.0000 C   0  0
   -2.3857   -9.3723    0.0000 C   0  0
   -3.0935   -8.1315    0.0000 C   0  0
   10.3174  -13.4276    0.0000 N   0  0
   -3.1060   -9.7803    0.0000 C   0  0
   -3.8097   -8.5354    0.0000 C   0  0
    6.1829  -11.4083    0.0000 C   0  0
   -4.5342   -9.7720    0.0000 O   0  0
    6.0123  -10.5964    0.0000 C   0  0
    0.8744  -11.7705    0.0000 C   0  0
   -0.3705  -11.0543    0.0000 C   0  0
    6.8866  -11.9704    0.0000 C   0  0
    8.8934  -13.4151    0.0000 C   0  0
    7.6111  -10.7338    0.0000 C   0  0
    9.6096  -13.0071    0.0000 C   0  0
    3.0478   -5.1462    0.0000 C   0  0
    4.2885   -5.8624    0.0000 C   0  0
   -4.5424  -10.5964    0.0000 C   0  0
    0.4622   -4.2760    0.0000 C   0  0
    1.6238   -5.1129    0.0000 C   0  0
    7.5986  -11.5582    0.0000 C   0  0
   -3.8305  -11.0086    0.0000 C   0  0
   -0.7827  -11.7705    0.0000 C   0  0
    0.4539  -12.4908    0.0000 C   0  0
    0.9493   -3.6015    0.0000 C   0  0
    2.1026   -4.4384    0.0000 C   0  0
    1.7654   -3.6890    0.0000 C   0  0
   -0.3705  -12.4908    0.0000 C   0  0
  2  1  1  0
  3 13  1  0
  4  2  1  6
  5  7  1  0
  6  4  1  0
  7 14  1  0
  8 11  1  0
  9  3  1  0
 10  6  1  0
 11 19  1  0
 16 12  1  1
 13  5  1  0
 14 10  1  0
 15 18  1  0
 16  1  1  0
 17  9  1  0
 18 23  1  0
 19 15  1  0
 20 12  1  0
 14 21  1  1
 22 43  2  0
 23 28  1  0
 24 33  1  0
 25 29  1  0
 26 24  1  0
 27 21  1  0
 28 26  1  0
 29 20  1  1
 30 22  1  0
 31  2  2  0
 32  5  2  0
  4 33  1  0
 34 12  2  0
 35  9  2  0
 36 10  2  0
 37 11  2  0
 19 38  1  6
 17 39  1  1
 40 18  2  0
 41 25  2  0
 42 27  2  0
 43 64  1  0
 44 25  1  0
 45 22  1  0
 13 46  1  1
 47  1  1  0
 48 27  1  0
 49 38  1  0
 50 56  2  0
 51 39  1  0
 52 49  1  0
 53 49  2  0
 54 65  1  0
 55 52  2  0
 56 53  1  0
 57 16  1  0
 58 50  1  0
 59 47  1  0
 60 28  1  0
 61 28  1  0
 29 62  1  0
 63 44  1  0
 64 71  1  0
 65 63  1  0
 66 46  1  0
 67 46  1  0
 68 58  1  0
 69 51  2  0
 70 51  1  0
 71 62  1  0
 72 68  1  0
 73 61  1  0
 74 60  1  0
 75 69  1  0
 76 70  2  0
 77 76  1  0
 78 73  1  0
 57 59  1  0
 74 78  1  0
  8 17  1  0
 55 50  1  0
 75 77  2  0
M  END