
          11280715092D 1   1.00000     0.00000     0

 17 18  0     0  0            999 V2000
    0.7667   -1.2167    0.0000 C   0  0  0  0  0  0           0  0  0
    1.5042   -1.9625    0.0000 C   0  0  0  0  0  0           0  0  0
    1.1917   -0.7917    0.0000 O   0  0  0  0  0  0           0  0  0
    1.7792   -0.9500    0.0000 C   0  0  0  0  0  0           0  0  0
    0.9292   -1.8042    0.0000 C   0  0  0  0  0  0           0  0  0
    1.9375   -1.5375    0.0000 C   0  0  0  0  0  0           0  0  0
    0.1917   -1.0667    0.0000 C   0  0  0  0  0  0           0  0  0
   -0.2375   -1.4917    0.0000 C   0  0  0  0  0  0           0  0  0
    0.5042   -2.2292    0.0000 C   0  0  0  0  0  0           0  0  0
   -0.8208   -1.3417    0.0000 N   0  0  3  0  0  0           0  0  0
   -0.0750   -2.0792    0.0000 C   0  0  0  0  0  0           0  0  0
    2.2042   -0.5250    0.0000 O   0  0  0  0  0  0           0  0  0
    1.6625   -2.5417    0.0000 C   0  0  0  0  0  0           0  0  0
   -0.9750   -0.7625    0.0000 C   0  0  0  0  0  0           0  0  0
   -1.2375   -1.7667    0.0000 C   0  0  0  0  0  0           0  0  0
   -1.5583   -0.6042    0.0000 C   0  0  0  0  0  0           0  0  0
   -1.8208   -1.6125    0.0000 C   0  0  0  0  0  0           0  0  0
  2  5  1  0     0  0
  3  1  1  0     0  0
  4  3  1  0     0  0
  5  1  2  0     0  0
  6  2  2  0     0  0
  7  1  1  0     0  0
  8  7  2  0     0  0
  9  5  1  0     0  0
 10  8  1  0     0  0
 11  8  1  0     0  0
 12  4  2  0     0  0
 13  2  1  0     0  0
 14 10  1  0     0  0
 15 10  1  0     0  0
 16 14  1  0     0  0
 17 15  1  0     0  0
 11  9  2  0     0  0
  6  4  1  0     0  0
M  END