
          11280715182D 1   1.00000     0.00000     0

 28 30  0     1  0            999 V2000
   14.0875   -8.1167    0.0000 N   0  0  3  0  0  0           0  0  0
   13.1875   -7.6000    0.0000 C   0  0  0  0  0  0           0  0  0
   15.1250   -8.1167    0.0000 C   0  0  3  0  0  0           0  0  0
   13.5667   -9.0292    0.0000 C   0  0  0  0  0  0           0  0  0
   10.4875   -8.1167    0.0000 C   0  0  0  0  0  0           0  0  0
   15.6417   -9.0292    0.0000 C   0  0  0  0  0  0           0  0  0
   11.3875   -7.6000    0.0000 C   0  0  0  0  0  0           0  0  0
   12.2875   -8.1167    0.0000 C   0  0  2  0  0  0           0  0  0
   15.6417   -7.2167    0.0000 C   0  0  0  0  0  0           0  0  0
   10.4875   -9.1542    0.0000 C   0  0  0  0  0  0           0  0  0
    9.5875   -7.6000    0.0000 C   0  0  0  0  0  0           0  0  0
   14.0875   -9.9250    0.0000 C   0  0  0  0  0  0           0  0  0
   15.1250   -9.9250    0.0000 C   0  0  0  0  0  0           0  0  0
   13.1875   -6.5625    0.0000 O   0  0  0  0  0  0           0  0  0
    8.6875   -8.1167    0.0000 C   0  0  0  0  0  0           0  0  0
    9.5875   -9.6792    0.0000 C   0  0  0  0  0  0           0  0  0
    8.6875   -9.1542    0.0000 C   0  0  0  0  0  0           0  0  0
   16.6875   -7.2250    0.0000 O   0  0  0  0  0  0           0  0  0
   12.2875   -9.1542    0.0000 N   0  0  0  0  0  0           0  0  0
   15.1292   -6.3167    0.0000 N   0  0  0  0  0  0           0  0  0
    7.7917   -9.6792    0.0000 O   0  0  0  0  0  0           0  0  0
    9.5875   -6.5625    0.0000 C   0  0  0  0  0  0           0  0  0
   11.3875   -9.6792    0.0000 C   0  0  0  0  0  0           0  0  0
   15.6417  -10.8250    0.0000 C   0  0  0  0  0  0           0  0  0
   13.5667  -10.8250    0.0000 C   0  0  0  0  0  0           0  0  0
   12.9375   -9.6000    0.0000 C   0  0  0  0  0  0           0  0  0
   14.0875  -11.7292    0.0000 C   0  0  0  0  0  0           0  0  0
   15.1250  -11.7292    0.0000 C   0  0  0  0  0  0           0  0  0
  2  1  1  0     0  0
  3  1  1  0     0  0
  4  1  1  0     0  0
  5  7  1  0     0  0
  6  3  1  0     0  0
  8  7  1  1     0  0
  8  2  1  0     0  0
  9  3  1  0     0  0
 10  5  1  0     0  0
 11  5  2  0     0  0
 12  4  1  0     0  0
 13 12  2  0     0  0
 14  2  2  0     0  0
 15 11  1  0     0  0
 16 10  2  0     0  0
 17 15  2  0     0  0
 18  9  2  0     0  0
 19  8  1  0     0  0
 20  9  1  0     0  0
 21 17  1  0     0  0
 22 11  1  0     0  0
 23 10  1  0     0  0
 24 13  1  0     0  0
 25 12  1  0     0  0
 26 19  1  0     0  0
 27 25  2  0     0  0
 28 27  1  0     0  0
 13  6  1  0     0  0
 24 28  2  0     0  0
 17 16  1  0     0  0
M  END