
  Mrv0541 04051115152D          

 19 20  0  0  0  0            999 V2000
   -4.2344   -1.7123    0.0000 O   0  0  0  0  0  0  0  0  0  0  0  0
   -3.5199   -1.2998    0.0000 C   0  0  0  0  0  0  0  0  0  0  0  0
   -2.8055   -1.7123    0.0000 C   0  0  1  0  0  0  0  0  0  0  0  0
   -2.8055   -2.5373    0.0000 O   0  0  0  0  0  0  0  0  0  0  0  0
   -2.0910   -1.2998    0.0000 C   0  0  1  0  0  0  0  0  0  0  0  0
   -2.0910   -0.4748    0.0000 C   0  0  0  0  0  0  0  0  0  0  0  0
   -1.3765   -0.0623    0.0000 O   0  0  0  0  0  0  0  0  0  0  0  0
   -1.3765   -1.7123    0.0000 N   0  0  0  0  0  0  0  0  0  0  0  0
   -0.6621   -1.2998    0.0000 C   0  0  0  0  0  0  0  0  0  0  0  0
    0.0524   -1.7123    0.0000 C   0  0  0  0  0  0  0  0  0  0  0  0
    0.8061   -1.3767    0.0000 C   0  0  0  0  0  0  0  0  0  0  0  0
    1.0610   -0.5921    0.0000 N   0  0  0  0  0  0  0  0  0  0  0  0
    1.8680   -0.4206    0.0000 C   0  0  0  0  0  0  0  0  0  0  0  0
    2.4200   -1.0337    0.0000 N   0  0  0  0  0  0  0  0  0  0  0  0
    0.1386   -2.5328    0.0000 C   0  0  0  0  0  0  0  0  0  0  0  0
    0.9456   -2.7043    0.0000 N   0  0  0  0  0  0  0  0  0  0  0  0
    1.3581   -1.9898    0.0000 C   0  0  0  0  0  0  0  0  0  0  0  0
    2.1651   -1.8183    0.0000 C   0  0  0  0  0  0  0  0  0  0  0  0
    2.7171   -2.4314    0.0000 O   0  0  0  0  0  0  0  0  0  0  0  0
  2  1  1  0  0  0  0
  2  3  1  0  0  0  0
  3  5  1  0  0  0  0
  3  4  1  6  0  0  0
  6  5  1  0  0  0  0
  5  8  1  1  0  0  0
  6  7  1  0  0  0  0
  9  8  1  0  0  0  0
  9 10  1  0  0  0  0
 11 10  1  0  0  0  0
 10 15  2  0  0  0  0
 11 12  1  0  0  0  0
 11 17  2  0  0  0  0
 13 12  2  0  0  0  0
 13 14  1  0  0  0  0
 18 14  1  0  0  0  0
 15 16  1  0  0  0  0
 17 16  1  0  0  0  0
 17 18  1  0  0  0  0
 18 19  2  0  0  0  0
M  END