
  SciTegic01091216402D

 13 14  0  0  0  0            999 V2000
   -4.8697    1.8407    0.0000 N   0  0
   -4.8708    1.0138    0.0000 C   0  0
   -4.1564    0.6012    0.0000 C   0  0
   -3.4404    1.0143    0.0000 C   0  0
   -3.4432    1.8443    0.0000 N   0  0
   -4.1582    2.2533    0.0000 C   0  0
   -4.1607    3.0779    0.0000 N   0  0
   -2.7292    0.6039    0.0000 C   0  0
   -2.7292   -0.2218    0.0000 C   0  0
   -2.0153   -0.6329    0.0000 C   0  0
   -1.3009   -0.2194    0.0000 C   0  0
   -1.3048    0.6094    0.0000 C   0  0
   -2.0193    1.0168    0.0000 C   0  0
  1  2  2  0
  6  7  1  0
  3  4  2  0
  8  9  2  0
  4  5  1  0
  9 10  1  0
  2  3  1  0
 10 11  2  0
  5  6  2  0
 11 12  1  0
  6  1  1  0
 12 13  2  0
 13  8  1  0
  4  8  1  0
M  END