
  SciTegic05171617272D

 32 36  0  0  0  0            999 V2000
    3.3606   -2.8684    0.0000 C   0  0
    2.1855   -2.6254    0.0000 C   0  0
    1.3877   -3.5218    0.0000 C   0  0
    1.7138   -1.2033    0.0000 N   0  0
    2.5889    0.0182    0.0000 C   0  0
    1.7138    1.2033    0.0000 C   0  0
    2.1812    2.6271    0.0000 C   0  0
    3.6500    2.9355    0.0000 N   0  0
    4.1200    4.3600    0.0000 C   0  0
    5.5886    4.6654    0.0000 C   0  0
    6.5873    3.5462    0.0000 C   0  0
    6.1174    2.1217    0.0000 C   0  0
    4.6488    1.8163    0.0000 C   0  0
    8.0566    3.8516    0.0000 N   0  0
    9.1235    2.8514    0.0000 C   0  0
   10.4313    3.5724    0.0000 C   0  0
   11.8489    3.0701    0.0000 C   0  0
   12.9897    4.0742    0.0000 C   0  0
   12.7019    5.5413    0.0000 C   0  0
   11.2664    6.0400    0.0000 C   0  0
   10.9720    7.5114    0.0000 C   0  0
    9.8351    7.8955    0.0000 N   0  0
   11.8728    8.3042    0.0000 O   0  0
   10.1435    5.0395    0.0000 C   0  0
    8.6603    5.2130    0.0000 C   0  0
    8.0656    6.2553    0.0000 O   0  0
    0.2917    0.7475    0.0000 C   0  0
   -1.0028    1.5132    0.0000 C   0  0
   -2.3155    0.7475    0.0000 C   0  0
   -2.3155   -0.7475    0.0000 C   0  0
   -1.0028   -1.5132    0.0000 C   0  0
    0.2917   -0.7475    0.0000 C   0  0
  1  2  1  0
  2  3  1  0
  2  4  1  0
  4  5  1  0
  5  6  2  0
  6  7  1  0
  7  8  1  0
  8  9  1  0
  9 10  1  0
 10 11  1  0
 11 12  1  0
 12 13  1  0
  8 13  1  0
 11 14  1  0
 14 15  1  0
 15 16  1  0
 16 17  2  0
 17 18  1  0
 18 19  2  0
 19 20  1  0
 20 21  1  0
 21 22  1  0
 21 23  2  0
 20 24  2  0
 16 24  1  0
 24 25  1  0
 14 25  1  0
 25 26  2  0
  6 27  1  0
 27 28  2  0
 28 29  1  0
 29 30  2  0
 30 31  1  0
 31 32  2  0
  4 32  1  0
 27 32  1  0
M  END