
          11280715242D 1   1.00000     0.00000     0

 35 37  0     1  0            999 V2000
    8.8292   -2.7167    0.0000 S   0  0  3  0  0  0           0  0  0
    9.3375   -1.7750    0.0000 N   0  0  0  0  0  0           0  0  0
    8.9292   -1.0625    0.0000 C   0  0  2  0  0  0           0  0  0
    9.6417   -0.6542    0.0000 C   0  0  0  0  0  0           0  0  0
    6.8000   -0.6542    0.0000 C   0  0  0  0  0  0           0  0  0
    8.8250   -3.5375    0.0000 C   0  0  0  0  0  0           0  0  0
    1.8417   -1.8792    0.0000 N   0  0  0  0  0  0           0  0  0
    7.5167   -1.0625    0.0000 N   0  0  0  0  0  0           0  0  0
    9.6417   -2.7167    0.0000 O   0  0  0  0  0  0           0  0  0
    7.8500   -2.7167    0.0000 O   0  0  0  0  0  0           0  0  0
    6.0917   -1.0750    0.0000 C   0  0  0  0  0  0           0  0  0
    8.2167   -0.6542    0.0000 C   0  0  0  0  0  0           0  0  0
    1.1292   -2.2917    0.0000 C   0  0  0  0  0  0           0  0  0
   10.3500   -1.0625    0.0000 O   0  0  0  0  0  0           0  0  0
    6.8000    0.1708    0.0000 O   0  0  0  0  0  0           0  0  0
    8.1042   -3.9292    0.0000 C   0  0  0  0  0  0           0  0  0
    9.5250   -3.9500    0.0000 C   0  0  0  0  0  0           0  0  0
    6.0917   -1.8917    0.0000 C   0  0  0  0  0  0           0  0  0
    5.3792   -0.6667    0.0000 C   0  0  0  0  0  0           0  0  0
    2.5500   -2.2917    0.0000 C   0  0  0  0  0  0           0  0  0
    0.4250   -1.8792    0.0000 N   0  0  0  0  0  0           0  0  0
    9.6417    0.1708    0.0000 O   0  0  0  0  0  0           0  0  0
    8.7917   -5.1625    0.0000 C   0  0  0  0  0  0           0  0  0
    4.6792   -1.8917    0.0000 C   0  0  0  0  0  0           0  0  0
    9.5125   -4.7625    0.0000 C   0  0  0  0  0  0           0  0  0
    8.0917   -4.7500    0.0000 C   0  0  0  0  0  0           0  0  0
    5.3792   -2.3042    0.0000 C   0  0  0  0  0  0           0  0  0
    4.6792   -1.0750    0.0000 C   0  0  0  0  0  0           0  0  0
    8.7917   -5.9792    0.0000 I   0  0  0  0  0  0           0  0  0
    3.2542   -1.8792    0.0000 C   0  0  0  0  0  0           0  0  0
    3.9667   -2.2917    0.0000 C   0  0  0  0  0  0           0  0  0
    1.8417   -3.5167    0.0000 C   0  0  0  0  0  0           0  0  0
    1.1292   -3.1125    0.0000 C   0  0  0  0  0  0           0  0  0
    2.5500   -3.1125    0.0000 C   0  0  0  0  0  0           0  0  0
    8.3542   -1.6417    0.0000 H   0  0  0  0  0  0           0  0  0
  2  1  1  0     0  0
  3  2  1  1     0  0
  4  3  1  0     0  0
  5  8  1  0     0  0
  6  1  1  0     0  0
  7 20  2  0     0  0
  8 12  1  0     0  0
  9  1  2  0     0  0
 10  1  2  0     0  0
 11  5  1  0     0  0
 12  3  1  0     0  0
 13  7  1  0     0  0
 14  4  2  0     0  0
 15  5  2  0     0  0
 16  6  2  0     0  0
 17  6  1  0     0  0
 18 11  2  0     0  0
 19 11  1  0     0  0
 20 30  1  0     0  0
 21 13  1  0     0  0
 22  4  1  0     0  0
 23 25  1  0     0  0
 24 28  1  0     0  0
 25 17  2  0     0  0
 26 16  1  0     0  0
 27 18  1  0     0  0
 28 19  2  0     0  0
 29 23  1  0     0  0
 30 31  1  0     0  0
 31 24  1  0     0  0
 32 34  2  0     0  0
 33 32  1  0     0  0
 34 20  1  0     0  0
  3 35  1  6     0  0
 26 23  2  0     0  0
 24 27  2  0     0  0
 13 33  2  0     0  0
M  END