
  SciTegic01161211262D

111116  0  0  0  0            999 V2000
    1.7534  -17.6496    0.0000 C   0  0  1  0  0  0
    1.7557  -18.4856    0.0000 C   0  0
    2.4665  -18.9168    0.0000 N   0  0
    3.2007  -18.4953    0.0000 C   0  0
    4.6523  -18.5159    0.0000 N   0  0
    3.9249  -18.9261    0.0000 C   0  0
    3.2180  -15.2347    0.0000 C   0  0
    6.0962  -18.5147    0.0000 C   0  0
    5.3596  -18.9422    0.0000 C   0  0  2  0  0  0
    1.7993  -15.2196    0.0000 S   0  0
    2.5103  -14.8184    0.0000 S   0  0
    1.0578  -17.2724    0.0000 N   0  0
    6.8090  -18.9281    0.0000 N   0  0
    7.5251  -18.5130    0.0000 C   0  0  2  0  0  0
    8.2379  -18.9264    0.0000 C   0  0
    8.9496  -18.5157    0.0000 N   0  0
    9.6667  -18.9291    0.0000 C   0  0
   10.3785  -18.5142    0.0000 C   0  0
   10.3818  -17.6900    0.0000 N   0  0
   11.0936  -17.2793    0.0000 C   0  0
   10.3790  -15.2133    0.0000 C   0  0
    9.6621  -14.8042    0.0000 N   0  0
    8.9502  -15.2150    0.0000 C   0  0  2  0  0  0
    8.2332  -14.8059    0.0000 C   0  0
    7.5214  -15.2166    0.0000 C   0  0
    5.3756  -14.8090    0.0000 C   0  0
    4.6637  -15.2198    0.0000 N   0  0
    3.9510  -14.8064    0.0000 C   0  0  2  0  0  0
   11.0952  -14.8027    0.0000 C   0  0  2  0  0  0
   11.0927  -16.4509    0.0000 C   0  0
    3.9452  -13.9823    0.0000 C   0  0
    4.6589  -13.5674    0.0000 O   0  0
    5.3746  -13.9849    0.0000 O   0  0
    6.8100  -14.8069    0.0000 N   0  0
    6.0954  -15.2131    0.0000 C   0  0  1  0  0  0
    6.2607  -16.0178    0.0000 C   0  0
    7.0759  -16.1102    0.0000 C   0  0
    7.4163  -15.3616    0.0000 C   0  0
    7.9250  -15.9279    0.0000 O   0  0
    8.2322  -13.9817    0.0000 O   0  0
   10.3799  -16.0375    0.0000 O   0  0
   11.3020  -14.0091    0.0000 C   0  0
   12.0993  -13.7920    0.0000 C   0  0
   12.3146  -12.9942    0.0000 C   0  0
   12.6855  -14.3726    0.0000 C   0  0
   10.2672  -16.4440    0.0000 O   0  0
   11.0955  -18.9276    0.0000 O   0  0
    8.2388  -19.7548    0.0000 O   0  0
    8.9400  -14.3903    0.0000 C   0  0
    9.6514  -13.9758    0.0000 C   0  0
   10.3698  -14.3819    0.0000 C   0  0
   11.0804  -13.9642    0.0000 C   0  0
   11.0752  -13.1387    0.0000 C   0  0
   10.3543  -12.7295    0.0000 C   0  0
    9.6397  -13.1508    0.0000 C   0  0
    7.5173  -19.3393    0.0000 C   0  0
    6.0953  -17.6905    0.0000 O   0  0
    7.1008  -20.0528    0.0000 C   0  0
    6.2745  -20.0455    0.0000 C   0  0
    5.8582  -20.7578    0.0000 C   0  0
    6.2666  -21.4757    0.0000 C   0  0
    7.0980  -21.4787    0.0000 C   0  0
    7.5127  -20.7656    0.0000 C   0  0
    5.3530  -19.7663    0.0000 C   0  0
    4.6354  -20.1711    0.0000 C   0  0
    3.8838  -19.8348    0.0000 N   0  0
    3.3303  -20.4421    0.0000 C   0  0
    4.5420  -20.9936    0.0000 C   0  0
    3.3360  -19.5041    0.0000 O   0  0
    1.0373  -18.8933    0.0000 O   0  0
    2.4614  -17.2295    0.0000 C   0  0  2  0  0  0
    3.1819  -17.6290    0.0000 O   0  0
    2.4531  -16.4055    0.0000 C   0  0
    0.3509  -17.7044    0.0000 C   0  0
   -0.3745  -17.3126    0.0000 C   0  0  2  0  0  0
    0.3736  -18.5279    0.0000 O   0  0
   -0.3811  -16.4874    0.0000 C   0  0
   -1.0792  -17.7383    0.0000 N   0  0
   -1.0645  -18.5622    0.0000 C   0  0
   -1.7692  -18.9878    0.0000 C   0  0  2  0  0  0
   -0.3408  -18.9605    0.0000 O   0  0
   -2.4887  -18.5854    0.0000 C   0  0
   -2.5077  -17.7614    0.0000 C   0  0
   -1.7972  -17.3412    0.0000 C   0  0
   -1.8156  -16.5184    0.0000 C   0  0
   -2.5359  -16.1147    0.0000 C   0  0
   -3.2442  -16.5472    0.0000 C   0  0
   -3.2246  -17.3720    0.0000 C   0  0
   -2.4628  -20.2346    0.0000 C   0  0
   -2.4481  -21.0627    0.0000 C   0  0  2  0  0  0
   -3.1865  -19.8406    0.0000 O   0  0
   -1.7287  -21.4610    0.0000 C   0  0
   -1.7139  -22.2849    0.0000 C   0  0
   -0.9902  -22.6832    0.0000 C   0  0
   -0.2555  -23.9108    0.0000 C   0  0
    0.4492  -23.4851    0.0000 N   0  0
    4.6633  -14.3922    0.0000 H   0  0
    6.0954  -14.3890    0.0000 H   0  0
    1.0411  -18.0639    0.0000 H   0  0
   -0.3745  -18.1367    0.0000 H   0  0
   -3.8735  -21.0845    0.0000 C   0  0
   -4.5953  -21.5178    0.0000 C   0  0
   -3.8857  -20.2434    0.0000 O   0  0
   11.8096  -16.0375    0.0000 N   0  0
   11.7865  -12.7210    0.0000 O   0  0
    3.7342  -21.1615    0.0000 N   0  0
    3.2309  -13.5755    0.0000 N   0  0
   -1.7538  -19.8127    0.0000 N   0  0
   -3.1545  -21.4890    0.0000 N   0  0
   -0.9755  -23.5080    0.0000 N   0  0
   -0.2409  -24.7347    0.0000 N   0  0
 12  1  1  0
  8 13  1  0
 13 14  1  0
 14 15  1  0
 15 16  1  0
 16 17  1  0
 17 18  1  0
 18 19  1  0
 19 20  1  0
 20 30  1  0
 21 22  1  0
 22 23  1  0
 23 24  1  0
 24 25  1  0
 25 34  1  0
 35 26  1  0
 26 27  1  0
 27 28  1  0
 21 29  1  0
 28 31  1  0
 31 32  2  0
 26 33  2  0
 34 35  1  0
 35 36  1  0
 36 37  1  0
 37 38  1  0
 38 34  1  0
 25 39  2  0
 24 40  2  0
 21 41  2  0
 29 42  1  6
 42 43  1  0
 43 44  1  0
 43 45  1  0
 30 46  2  0
 18 47  2  0
 15 48  2  0
 23 49  1  1
 49 50  1  0
 50 51  2  0
 51 52  1  0
 52 53  2  0
 53 54  1  0
 54 55  2  0
 55 50  1  0
 14 56  1  1
  8 57  2  0
 56 58  1  0
 58 59  2  0
 59 60  1  0
 60 61  2  0
 61 62  1  0
 62 63  2  0
 63 58  1  0
  9 64  1  6
 64 65  1  0
 65 66  1  0
 66 67  2  0
 68 65  2  0
  6 69  2  0
  2 70  2  0
  1 71  1  0
 71 72  1  1
 71 73  1  0
 12 74  1  0
 74 75  1  0
 74 76  2  0
 75 77  1  0
 77 10  1  0
 75 78  1  0
 78 79  1  0
 79 80  1  0
 79 81  2  0
 80 82  1  1
 82 83  1  0
 83 84  2  0
 84 85  1  0
 85 86  2  0
 86 87  1  0
 87 88  2  0
 88 83  1  0
 89 90  1  0
 89 91  2  0
 90 92  1  6
 92 93  1  0
 93 94  1  0
 95 96  2  0
 28 97  1  6
 35 98  1  6
  1 99  1  6
 75100  1  6
  1  2  1  0
101102  1  0
  2  3  1  0
101103  2  0
  3  4  1  0
  5  6  1  0
  6  4  1  0
  7 28  1  0
  5  9  1  0
  9  8  1  0
  7 11  1  0
 10 11  1  0
 31107  1  0
 53105  1  0
 80108  1  0
108 89  1  0
104 30  1  0
 29104  1  0
 90109  1  0
109101  1  0
 67106  1  0
106 68  1  0
 94110  1  0
110 95  1  0
 95111  1  0
M  END