
          11280715122D 1   1.00000     0.00000     0

 32 35  0     0  0            999 V2000
    4.3417   -3.5417    0.0000 C   0  0  0  0  0  0           0  0  0
    7.3542   -8.7000    0.0000 C   0  0  0  0  0  0           0  0  0
    4.3417   -4.3667    0.0000 C   0  0  0  0  0  0           0  0  0
    6.8250   -9.9292    0.0000 N   0  0  0  0  0  0           0  0  0
    7.5292   -9.5042    0.0000 N   0  0  0  0  0  0           0  0  0
    6.2042   -9.3917    0.0000 N   0  0  0  0  0  0           0  0  0
    6.5375   -8.6250    0.0000 N   0  0  0  0  0  0           0  0  0
    7.9042   -8.0792    0.0000 C   0  0  0  0  0  0           0  0  0
    5.0542   -4.7792    0.0000 N   0  0  3  0  0  0           0  0  0
    5.0667   -3.1167    0.0000 C   0  0  0  0  0  0           0  0  0
    7.9042   -7.2542    0.0000 C   0  0  0  0  0  0           0  0  0
    3.6292   -4.7792    0.0000 N   0  0  0  0  0  0           0  0  0
    7.1917   -6.8417    0.0000 C   0  0  0  0  0  0           0  0  0
    3.6292   -3.1292    0.0000 C   0  0  0  0  0  0           0  0  0
    5.0542   -5.6042    0.0000 C   0  0  0  0  0  0           0  0  0
    5.0625   -2.2917    0.0000 O   0  0  0  0  0  0           0  0  0
    7.1917   -6.0167    0.0000 C   0  0  0  0  0  0           0  0  0
    6.4792   -7.2542    0.0000 C   0  0  0  0  0  0           0  0  0
    5.7667   -6.0167    0.0000 C   0  0  0  0  0  0           0  0  0
    5.7875   -3.5292    0.0000 O   0  0  0  0  0  0           0  0  0
    2.9167   -4.3667    0.0000 C   0  0  0  0  0  0           0  0  0
    5.7667   -6.8417    0.0000 C   0  0  0  0  0  0           0  0  0
    6.4750   -5.6042    0.0000 C   0  0  0  0  0  0           0  0  0
    5.7667   -4.3667    0.0000 C   0  0  0  0  0  0           0  0  0
    8.6167   -8.4917    0.0000 C   0  0  0  0  0  0           0  0  0
    8.6167   -6.8417    0.0000 C   0  0  0  0  0  0           0  0  0
    2.9167   -3.5417    0.0000 C   0  0  0  0  0  0           0  0  0
    3.6250   -2.3042    0.0000 C   0  0  0  0  0  0           0  0  0
    6.4750   -4.7792    0.0000 C   0  0  0  0  0  0           0  0  0
    9.3292   -8.0792    0.0000 C   0  0  0  0  0  0           0  0  0
    9.3292   -7.2542    0.0000 C   0  0  0  0  0  0           0  0  0
    7.1792   -4.3750    0.0000 C   0  0  0  0  0  0           0  0  0
  2  8  1  0     0  0
  3  1  1  0     0  0
  4  5  2  0     0  0
  5  2  1  0     0  0
  6  7  1  0     0  0
  7  2  2  0     0  0
  8 11  2  0     0  0
  9  3  1  0     0  0
 10  1  1  0     0  0
 11 13  1  0     0  0
 12  3  2  0     0  0
 13 17  2  0     0  0
 14  1  2  0     0  0
 15  9  1  0     0  0
 16 10  2  0     0  0
 17 23  1  0     0  0
 18 22  2  0     0  0
 19 15  1  0     0  0
 20 10  1  0     0  0
 21 27  2  0     0  0
 22 19  1  0     0  0
 23 19  2  0     0  0
 24  9  1  0     0  0
 25  8  1  0     0  0
 26 11  1  0     0  0
 27 14  1  0     0  0
 28 14  1  0     0  0
 29 24  1  0     0  0
 30 31  1  0     0  0
 31 26  2  0     0  0
 32 29  1  0     0  0
 21 12  1  0     0  0
 18 13  1  0     0  0
 25 30  2  0     0  0
  6  4  1  0     0  0
M  END