
  SciTegic11201309402D

 68 71  0  0  1  0            999 V2000
   -3.9167   -2.9958    0.0000 N   0  0
   -2.6125    0.7500    0.0000 N   0  0
   -3.9125   -1.4958    0.0000 C   0  0
   -2.6125   -0.7458    0.0000 C   0  0  1  0  0  0
   -2.7208   -3.8333    0.0000 C   0  0  1  0  0  0
   -3.9125    1.5042    0.0000 C   0  0
   -3.9083    3.0042    0.0000 C   0  0  1  0  0  0
   -1.3000    1.5000    0.0000 C   0  0
   -5.1292   -3.8500    0.0000 C   0  0  2  0  0  0
  -15.5708   21.7875    0.0000 C   0  0
   -3.1750   -5.2667    0.0000 C   0  0
   -1.3000   -1.4958    0.0000 C   0  0
  -14.2708   21.0333    0.0000 N   0  0
   -1.3042   -3.3417    0.0000 C   0  0
   -5.2083    3.7583    0.0000 N   0  0
   -4.6667   -5.2708    0.0000 C   0  0  2  0  0  0
  -20.7750   18.8042    0.0000 C   0  0
  -12.9750   18.7792    0.0000 C   0  0
    0.0000    0.7500    0.0000 C   0  0
  -14.2667   24.0375    0.0000 N   0  0
    0.0000   -0.7458    0.0000 C   0  0
   -4.9542   -0.8917    0.0000 O   0  0
   -5.2042    5.2542    0.0000 C   0  0
  -14.2667   25.5375    0.0000 C   0  0
  -15.5667   23.2875    0.0000 C   0  0  1  0  0  0
  -14.2750   19.5333    0.0000 C   0  0  2  0  0  0
  -21.8125   19.4083    0.0000 N   0  0
   -4.9500    0.9042    0.0000 O   0  0
  -16.6083   21.1875    0.0000 O   0  0
   -1.0750   -2.1625    0.0000 O   0  0
  -11.9333   19.3792    0.0000 O   0  0
  -13.2292   26.1375    0.0000 O   0  0
   -4.1625    5.8542    0.0000 O   0  0
  -19.4750   19.5500    0.0000 N   0  0
  -12.9792   17.2792    0.0000 N   0  0
  -20.7792   17.6042    0.0000 N   0  0
   -0.3958   -4.1292    0.0000 O   0  0
   -2.6083    3.7542    0.0000 C   0  0
  -19.1958   28.3958    0.0000 N   0  0
   -6.5917   -3.5208    0.0000 C   0  0
   -2.6083    4.9500    0.0000 O   0  0
   -5.6625   -6.4000    0.0000 C   0  0
    1.2958   -1.4958    0.0000 C   0  0
    1.2958    1.5000    0.0000 C   0  0
   -6.5000    6.0083    0.0000 C   0  0
  -15.3042   26.1375    0.0000 C   0  0
  -16.8667   24.0417    0.0000 C   0  0
  -15.5750   18.7875    0.0000 C   0  0
  -18.1750   18.7958    0.0000 C   0  0
  -11.6792   16.5250    0.0000 C   0  0
  -18.1583   27.7958    0.0000 C   0  0
  -16.8750   19.5417    0.0000 C   0  0
   -6.4958    7.5083    0.0000 C   0  0
  -16.8625   25.5417    0.0000 C   0  0
  -11.6833   15.0250    0.0000 C   0  0
  -18.1625   26.2958    0.0000 C   0  0
  -10.3833   14.2708    0.0000 C   0  0
  -10.3875   12.7708    0.0000 C   0  0
   -9.0875   12.0167    0.0000 C   0  0
   -9.0917   10.5167    0.0000 C   0  0
   -7.7917    9.7625    0.0000 C   0  0
   -7.7958    8.2625    0.0000 C   0  0
   -7.6042   -4.6542    0.0000 C   0  0
   -7.1417   -6.0750    0.0000 C   0  0
    2.5917    0.7500    0.0000 C   0  0
    2.5917   -0.7458    0.0000 C   0  0
   -4.2540   -6.1817    0.0000 H   0  0
   -5.3241   -2.8692    0.0000 H   0  0
  2  4  1  0
  3  1  1  0
  4  3  1  6
  5  1  1  0
  6  2  1  0
  7  6  1  0
  8  2  1  0
  9  1  1  0
 10 13  1  0
 11  5  1  0
 12  4  1  0
 26 13  1  6
  5 14  1  6
  7 15  1  1
 16  9  1  0
 17 34  2  0
 18 35  1  0
 19  8  1  0
 25 20  1  6
 21 12  1  0
 22  3  2  0
 23 15  1  0
 24 20  1  0
 25 10  1  0
 26 18  1  0
 27 17  1  0
 28  6  2  0
 29 10  2  0
 30 14  2  0
 31 18  2  0
 32 24  2  0
 33 23  2  0
 34 49  1  0
 35 50  1  0
 36 17  1  0
 37 14  1  0
 38  7  1  0
 39 51  1  0
  9 40  1  0
 41 38  1  0
 16 42  1  0
 43 21  2  0
 44 19  2  0
 45 23  1  0
 46 24  1  0
 47 25  1  0
 48 26  1  0
 49 52  1  0
 50 55  1  0
 51 56  1  0
 52 48  1  0
 53 45  1  0
 54 47  1  0
 55 57  1  0
 56 54  1  0
 57 58  1  0
 58 59  1  0
 59 60  1  0
 60 61  1  0
 61 62  1  0
 62 53  1  0
 63 40  1  0
 64 42  1  0
 65 44  1  0
 66 43  1  0
 11 16  1  0
 64 63  1  0
 19 21  1  0
 66 65  2  0
 16 67  1  1
  9 68  1  1
M  END