
  SciTegic12231509382D

 22 24  0  0  0  0            999 V2000
   -4.0889    2.3417    0.0000 C   0  0
   -4.0901    1.5143    0.0000 C   0  0
   -3.3753    1.1015    0.0000 C   0  0
   -3.3771    2.7545    0.0000 C   0  0
   -2.6617    2.3453    0.0000 C   0  0
   -2.6609    1.5185    0.0000 C   0  0
   -1.9456    1.1075    0.0000 C   0  0
   -1.2306    1.5223    0.0000 N   0  0
   -1.2354    2.3523    0.0000 C   0  0
   -1.9513    2.7595    0.0000 N   0  0
   -1.9439    0.2825    0.0000 N   0  0
   -1.2286   -0.1285    0.0000 C   0  0
   -4.8035    2.7540    0.0000 O   0  0
   -5.5179    2.3414    0.0000 C   0  0
   -4.8049    1.1024    0.0000 O   0  0
   -5.5190    1.5155    0.0000 C   0  0
   -1.2302   -0.9511    0.0000 C   0  0
   -0.5158   -1.3620    0.0000 C   0  0
    0.1988   -0.9480    0.0000 C   0  0
    0.1945   -0.1187    0.0000 C   0  0
   -0.5206    0.2885    0.0000 C   0  0
    0.9066    0.2978    0.0000 O   0  0
  7 11  1  0
  2  3  1  0
 11 12  1  0
  5  6  1  0
  1 13  1  0
  3  6  2  0
 13 14  1  0
  6  7  1  0
  2 15  1  0
  1  2  2  0
 15 16  1  0
  7  8  2  0
 12 17  2  0
  5  4  2  0
 17 18  1  0
  8  9  1  0
 18 19  2  0
  4  1  1  0
 19 20  1  0
  9 10  2  0
 20 21  2  0
 21 12  1  0
 10  5  1  0
 20 22  1  0
M  END