
  SciTegic04191615122D

 23 26  0  0  0  0            999 V2000
   -1.0028    1.5132    0.0000 N   0  0
   -2.3155    0.7475    0.0000 C   0  0  1  0  0  0
   -2.3155   -0.7475    0.0000 C   0  0
   -1.0028   -1.5132    0.0000 C   0  0  1  0  0  0
    0.2917    0.7475    0.0000 C   0  0
    0.2917   -0.7475    0.0000 N   0  0
    1.7138   -1.2033    0.0000 N   0  0
    2.5889    0.0182    0.0000 N   0  0
    1.7138    1.2033    0.0000 N   0  0
   -0.9982   -3.0140    0.0000 C   0  0
   -2.2894   -3.7767    0.0000 C   0  0
   -2.2745   -5.2767    0.0000 C   0  0
   -0.9680   -6.0137    0.0000 C   0  0
    0.3235   -5.2508    0.0000 C   0  0
    0.3086   -3.7509    0.0000 C   0  0
   -3.6168    1.4950    0.0000 C   0  0
   -4.9144    0.7421    0.0000 C   0  0
   -6.2151    1.4892    0.0000 C   0  0
   -6.2185    2.9892    0.0000 C   0  0
   -4.9211    3.7421    0.0000 C   0  0
   -3.6204    2.9950    0.0000 C   0  0
   -3.3077   -5.8870    0.0000 Br  0  0
   -4.9238    4.9421    0.0000 Br  0  0
  6  4  1  0
  5  1  1  0
  1  2  1  0
  2  3  1  0
  3  4  1  0
  5  6  1  0
  6  7  1  0
  7  8  2  0
  8  9  1  0
  9  5  2  0
 10 11  2  0
 11 12  1  0
 12 13  2  0
 13 14  1  0
 14 15  2  0
 15 10  1  0
  4 10  1  1
 16 17  2  0
 17 18  1  0
 18 19  2  0
 19 20  1  0
 20 21  2  0
 21 16  1  0
  2 16  1  1
 12 22  1  0
 20 23  1  0
M  END