
          11280715062D 1   1.00000     0.00000     0

 12 12  0     0  0            999 V2000
    6.6542   -2.4042    0.0000 N   0  0  0  0  0  0           0  0  0
    9.6000   -1.5917    0.0000 C   0  0  0  0  0  0           0  0  0
    6.7417   -1.5917    0.0000 C   0  0  0  0  0  0           0  0  0
    5.4375   -1.8667    0.0000 N   0  0  0  0  0  0           0  0  0
    5.8500   -2.5792    0.0000 C   0  0  0  0  0  0           0  0  0
    9.6000   -2.4167    0.0000 S   0  0  0  0  0  0           0  0  0
    5.9917   -1.2542    0.0000 C   0  0  0  0  0  0           0  0  0
    8.8875   -1.1792    0.0000 N   0  0  0  0  0  0           0  0  0
   10.3167   -1.1792    0.0000 N   0  0  0  0  0  0           0  0  0
    7.4542   -1.1792    0.0000 C   0  0  0  0  0  0           0  0  0
    8.1667   -1.5917    0.0000 C   0  0  0  0  0  0           0  0  0
   11.0292   -1.5917    0.0000 C   0  0  0  0  0  0           0  0  0
  2  8  1  0     0  0
  3  1  1  0     0  0
  4  5  1  0     0  0
  5  1  2  0     0  0
  6  2  1  0     0  0
  7  3  2  0     0  0
  8 11  1  0     0  0
  9  2  2  0     0  0
 10  3  1  0     0  0
 11 10  1  0     0  0
 12  9  1  0     0  0
  7  4  1  0     0  0
M  END