
  SciTegic12231509382D

 25 29  0  0  1  0            999 V2000
    1.1500   -1.1875    0.0000 C   0  0
    1.1542   -1.8917    0.0000 C   0  0
    0.5375   -0.8417    0.0000 C   0  0
    2.3792   -3.3125    0.0000 N   0  0
    1.7667   -2.2417    0.0000 C   0  0  2  0  0  0
    0.5500   -2.2625    0.0000 C   0  0
   -0.0833   -1.2042    0.0000 C   0  0
    0.3750   -0.1417    0.0000 O   0  0
    1.7750   -2.9542    0.0000 C   0  0
    3.0292   -3.0250    0.0000 C   0  0
    3.5042   -3.5500    0.0000 C   0  0  2  0  0  0
   -0.6208   -0.7375    0.0000 O   0  0
   -0.3458   -0.0792    0.0000 C   0  0
   -0.0708   -1.9167    0.0000 C   0  0
    3.1500   -4.1542    0.0000 C   0  0
    4.0250   -4.0375    0.0000 C   0  0
    2.4625   -4.0042    0.0000 C   0  0
    1.7625   -0.8250    0.0000 C   0  0
    2.3792   -1.8917    0.0000 C   0  0
    2.3792   -1.1792    0.0000 C   0  0
    3.8542   -4.7292    0.0000 C   0  0
    4.7042   -3.8292    0.0000 C   0  0
    4.3750   -5.2125    0.0000 C   0  0
    5.2167   -4.3167    0.0000 C   0  0
    5.0542   -5.0042    0.0000 C   0  0
  2  1  2  0
  3  1  1  0
  4  9  1  0
  5  2  1  0
  6  2  1  0
  7  3  2  0
  8  3  1  0
  5  9  1  1
 10  4  1  0
 11 10  1  0
 12  7  1  0
 13  8  1  0
 14  7  1  0
 15 17  1  0
 11 16  1  1
 17  4  1  0
 18  1  1  0
 19 20  1  0
 20 18  1  0
 21 16  2  0
 22 16  1  0
 23 21  1  0
 24 22  2  0
 25 24  1  0
 19  5  1  0
 12 13  1  0
  6 14  2  0
 11 15  1  0
 25 23  2  0
M  END