
  CDK    8/10/10,12:22

 19 19  0  0  0  0  0  0  0  0999 V2000
   -4.9735  -10.0062    0.0000 C   0  0  0  0  0  0  0  0  0  0  0  0
   -4.2623   -9.5960    0.0000 N   0  0  0  0  0  0  0  0  0  0  0  0
   -4.9735  -10.8314    0.0000 O   0  0  0  0  0  0  0  0  0  0  0  0
    1.4543  -11.2417    0.0000 N   0  0  0  0  0  0  0  0  0  0  0  0
   -3.5467  -10.0062    0.0000 C   0  0  0  0  0  0  0  0  0  0  0  0
   -1.4040  -11.2417    0.0000 O   0  0  0  0  0  0  0  0  0  0  0  0
    0.0228  -11.2417    0.0000 C   0  0  0  0  0  0  0  0  0  0  0  0
   -2.1198  -10.8314    0.0000 C   0  0  0  0  0  0  0  0  0  0  0  0
    0.7431  -10.8314    0.0000 C   0  0  0  0  0  0  0  0  0  0  0  0
   -0.6884  -10.8314    0.0000 C   0  0  0  0  0  0  0  0  0  0  0  0
   -3.5467  -10.8314    0.0000 C   0  0  0  0  0  0  0  0  0  0  0  0
   -2.8309   -9.5960    0.0000 C   0  0  0  0  0  0  0  0  0  0  0  0
   -2.1198  -10.0062    0.0000 C   0  0  0  0  0  0  0  0  0  0  0  0
   -2.8309  -11.2417    0.0000 C   0  0  0  0  0  0  0  0  0  0  0  0
    0.0228  -12.0668    0.0000 O   0  0  0  0  0  0  0  0  0  0  0  0
    2.1654  -10.8314    0.0000 C   0  0  0  0  0  0  0  0  0  0  0  0
   -5.6892   -9.5960    0.0000 C   0  0  0  0  0  0  0  0  0  0  0  0
    2.8810  -11.2417    0.0000 C   0  0  0  0  0  0  0  0  0  0  0  0
    2.1654  -10.0062    0.0000 C   0  0  0  0  0  0  0  0  0  0  0  0
  2  1  1  0  0  0  0 
  3  1  2  0  0  0  0 
  4  9  1  0  0  0  0 
  5  2  1  0  0  0  0 
  6  8  1  0  0  0  0 
  7 10  1  0  0  0  0 
  8 14  2  0  0  0  0 
  9  7  1  0  0  0  0 
 10  6  1  0  0  0  0 
 11  5  2  0  0  0  0 
 12  5  1  0  0  0  0 
 13 12  2  0  0  0  0 
 14 11  1  0  0  0  0 
 15  7  1  0  0  0  0 
 16  4  1  0  0  0  0 
 17  1  1  0  0  0  0 
 18 16  1  0  0  0  0 
 19 16  1  0  0  0  0 
  8 13  1  0  0  0  0 
M  END