
  SciTegic11201309402D

 69 71  0  0  1  0            999 V2000
   -0.9417   -7.1083    0.0000 N   0  0
   -1.9458   -5.9958    0.0000 C   0  0
    1.4792    4.5583    0.0000 N   0  0
   -1.4833   -4.5583    0.0000 C   0  0  2  0  0  0
    3.8750    2.8208    0.0000 C   0  0
    0.0000   -4.7917    0.0000 N   0  0
    3.8750   -2.8167    0.0000 N   0  0
    4.5583    1.4833    0.0000 N   0  0
    0.0000    4.7917    0.0000 C   0  0
    1.4792   -4.5583    0.0000 C   0  0
   -2.6375   -9.1625    0.0000 C   0  0
    4.5583   -1.4792    0.0000 C   0  0
    2.8167    3.8792    0.0000 C   0  0  2  0  0  0
    2.8167   -3.8750    0.0000 C   0  0  2  0  0  0
   -1.2625   -8.5625    0.0000 C   0  0  2  0  0  0
   -2.8208    3.8792    0.0000 N   0  0
   -1.4833    4.5583    0.0000 C   0  0  1  0  0  0
   -3.8458   -8.2750    0.0000 N   0  0
    3.7000   -5.1000    0.0000 C   0  0
    4.7917    0.0000    0.0000 C   0  0  2  0  0  0
   -6.4250   -7.9875    0.0000 C   0  0
   -3.8792    2.8208    0.0000 C   0  0
   -5.2208   -8.8750    0.0000 C   0  0  2  0  0  0
    3.0875   -6.4708    0.0000 C   0  0
   -7.8000   -8.5875    0.0000 N   0  0
   -3.8792   -2.8167    0.0000 S   0  0
   -4.5625   -1.4792    0.0000 S   0  0
  -10.3833   -8.3000    0.0000 C   0  0
    8.5542   -1.3042    0.0000 C   0  0
   -3.1208   -6.2458    0.0000 O   0  0
    4.8458    3.5250    0.0000 O   0  0
   -2.7667  -10.3542    0.0000 O   0  0
    0.0000    5.9917    0.0000 O   0  0
    1.8500   -5.7000    0.0000 O   0  0
    5.7000   -1.8500    0.0000 O   0  0
   -2.8208   -3.8750    0.0000 C   0  0
   -1.9458    5.9958    0.0000 C   0  0
   -4.5625    1.4833    0.0000 C   0  0
   -6.2917   -6.7917    0.0000 O   0  0
   -4.8500    3.5250    0.0000 O   0  0
   -5.3833  -10.3667    0.0000 C   0  0
    3.7917   -7.4417    0.0000 O   0  0
    9.1500   -2.3458    0.0000 O   0  0
  -11.3500   -7.5875    0.0000 O   0  0
    6.3042    0.0000    0.0000 C   0  0
   -9.0083   -7.7000    0.0000 C   0  0
    3.7000    5.1000    0.0000 C   0  0  2  0  0  0
    0.5333   -6.9333    0.0000 C   0  0
    1.8958   -6.5958    0.0000 N   0  0
    7.0500   -1.3000    0.0000 C   0  0
   -0.9417    7.1083    0.0000 C   0  0
    9.1542   -0.2667    0.0000 N   0  0
  -10.5167   -9.4917    0.0000 N   0  0
    1.0750    9.3333    0.0000 C   0  0
   -4.7958    0.0000    0.0000 C   0  0
   -1.4000    8.5375    0.0000 C   0  0
    0.5250    6.7917    0.0000 C   0  0
    1.5333    7.9042    0.0000 C   0  0
   -0.3917    9.6500    0.0000 C   0  0
    0.0375   -9.3083    0.0000 C   0  0
    1.8792   10.2208    0.0000 O   0  0
    1.1500   -8.3000    0.0000 C   0  0
   -4.1708  -11.2542    0.0000 C   0  0
    3.0875    6.4708    0.0000 C   0  0
    4.8958    4.9792    0.0000 C   0  0
   -3.0750  -10.7708    0.0000 C   0  0
   -4.3042  -12.4458    0.0000 C   0  0
    3.7917    7.4417    0.0000 C   0  0
    2.5816    4.8512    0.0000 H   0  0
  2  1  1  0
 13  3  1  0
  4  2  1  1
  5  8  1  0
  6  4  1  0
  7 14  1  0
  8 20  1  0
  9 17  1  0
 10  6  1  0
 15 11  1  1
 12  7  1  0
 13  5  1  0
 14 10  1  0
 15  1  1  0
 16 22  1  0
 17 16  1  0
 18 11  1  0
 14 19  1  1
 20 12  1  0
 21 23  1  0
 22 38  1  0
 23 18  1  1
 24 19  1  0
 25 21  1  0
 26 36  1  0
 27 26  1  0
 28 46  1  0
 29 50  1  0
 30  2  2  0
 31  5  2  0
 32 11  2  0
 33  9  2  0
 34 10  2  0
 35 12  2  0
 36  4  1  0
 17 37  1  1
 38 55  1  0
 39 21  2  0
 40 22  2  0
 41 23  1  0
 42 24  2  0
 43 29  2  0
 44 28  2  0
 20 45  1  1
 46 25  1  0
 47 13  1  0
 48  1  1  0
 49 24  1  0
 50 45  1  0
 51 37  1  0
 52 29  1  0
 53 28  1  0
 54 58  1  0
 55 27  1  0
 56 51  2  0
 57 51  1  0
 58 57  2  0
 59 56  1  0
 60 15  1  0
 61 54  1  0
 62 48  1  0
 63 41  1  0
 64 47  1  0
 47 65  1  6
 66 63  1  0
 67 63  1  0
 68 64  1  0
 60 62  1  0
  9  3  1  0
 54 59  2  0
 13 69  1  6
M  END