
  SciTegic12121611302D

 31 35  0  0  0  0            999 V2000
   -5.1698    0.9127    0.0000 O   0  0
   -4.1307    1.5128    0.0000 S   0  0
   -5.1701    2.1125    0.0000 O   0  0
   -4.1314    3.0137    0.0000 N   0  0
   -5.4310    3.7643    0.0000 C   0  0
   -5.4317    5.2651    0.0000 C   0  0
   -6.7296    6.0172    0.0000 C   0  0
   -6.7272    7.5172    0.0000 C   0  0
   -5.4270    8.2652    0.0000 C   0  0
   -4.1292    7.5132    0.0000 C   0  0
   -4.1315    6.0132    0.0000 C   0  0
   -6.8647    1.5574    0.0000 O   0  0
   -6.7306    3.0137    0.0000 C   0  0
   -8.0857    3.6313    0.0000 C   0  0
   -9.0799    2.5170    0.0000 C   0  0
   -8.3214    1.2287    0.0000 C   0  0
   -9.0484   -0.0879    0.0000 C   0  0
  -10.5681   -0.0940    0.0000 C   0  0
  -11.3266    1.1943    0.0000 C   0  0
  -10.5839    2.5202    0.0000 C   0  0
   -2.8315    0.7623    0.0000 C   0  0
   -1.4884    1.5247    0.0000 C   0  0
   -1.4884   -1.5247    0.0000 C   0  0
   -2.8315   -0.7623    0.0000 C   0  0
    0.0000    0.7623    0.0000 C   0  0
    0.0000   -0.7623    0.0000 C   0  0
    0.7442   -1.6517    0.0000 O   0  0
    0.7805    1.6880    0.0000 O   0  0
    2.2325   -1.4158    0.0000 C   0  0
    2.2507    1.3976    0.0000 C   0  0
    2.9404    0.0000    0.0000 C   0  0
  2  1  2  0
  3  2  2  0
  2  4  1  0
  6  7  1  0
  7  8  2  0
  8  9  1  0
  9 10  2  0
 10 11  1  0
  6 11  2  0
  5  6  1  0
 12 13  1  0
 13 14  2  0
 14 15  1  0
 15 16  1  0
 12 16  1  0
 17 18  1  0
 18 19  2  0
 19 20  1  0
 15 20  2  0
 16 17  2  0
  5 13  1  0
  4  5  1  0
  2 21  1  0
 21 22  2  0
 22 25  1  0
 26 23  1  0
 23 24  2  0
 24 21  1  0
 25 26  2  0
 26 27  1  0
 25 28  1  0
 27 29  1  0
 28 30  1  0
 29 31  1  0
 30 31  1  0
M  END