
  SciTegic12011114592D

 39 44  0  0  0  0            999 V2000
   -6.0188   -6.0158    0.0000 C   0  0
   -6.4412   -5.3053    0.0000 N   0  0
   -6.0334   -4.5910    0.0000 C   0  0
   -6.4427   -3.8825    0.0000 C   0  0
   -7.2675   -3.8861    0.0000 O   0  0
   -7.6762   -4.6043    0.0000 C   0  0
   -7.2603   -5.3190    0.0000 C   0  0
   -1.9838   -6.1334    0.0000 N   0  0
   -1.2687   -5.7237    0.0000 C   0  0
   -1.2658   -4.8977    0.0000 N   0  0
   -1.9841   -4.4833    0.0000 C   0  0
   -1.9846   -3.6582    0.0000 N   0  0
   -1.2700   -3.2451    0.0000 C   0  0
   -0.5555   -6.1386    0.0000 S   0  0
    0.1604   -5.7286    0.0000 C   0  0
    0.8693   -6.1466    0.0000 C   0  0
    1.5847   -5.7372    0.0000 C   0  0
    1.5880   -4.9113    0.0000 C   0  0
    0.8699   -4.4965    0.0000 C   0  0
    0.1573   -4.9082    0.0000 C   0  0
    2.3034   -4.5003    0.0000 N   0  0
    3.0170   -4.9142    0.0000 C   0  0
    3.7324   -4.5032    0.0000 C   0  0
    3.0153   -5.7393    0.0000 O   0  0
    4.5542   -4.5017    0.0000 C   0  0
    4.1432   -3.7864    0.0000 C   0  0
   -0.4842   -3.4933    0.0000 C   0  0
   -0.0051   -2.8216    0.0000 C   0  0
   -0.4958   -2.1583    0.0000 N   0  0
   -1.2783   -2.4202    0.0000 N   0  0
    0.8200   -2.8144    0.0000 C   0  0
   -3.4707   -4.6441    0.0000 C   0  0
   -3.9519   -5.3054    0.0000 C   0  0
   -3.4716   -5.9671    0.0000 C   0  0
   -2.6938   -5.7150    0.0000 N   0  0
   -2.6932   -4.8972    0.0000 C   0  0
   -4.7769   -5.3048    0.0000 N   0  0
   -5.1899   -6.0190    0.0000 C   0  0
   -4.7779   -6.7338    0.0000 O   0  0
 18 19  1  0
  1  2  1  0
 19 20  2  0
 20 15  1  0
  9 10  1  0
 18 21  1  0
  2  7  1  0
 21 22  1  0
 10 11  2  0
 22 23  1  0
 11 36  1  0
 22 24  2  0
 25 23  1  0
 26 25  1  0
 23 26  1  0
  3  4  1  0
 11 12  1  0
 29 30  1  0
  4  5  1  0
 27 28  2  0
 12 13  1  0
  5  6  1  0
  9 14  1  0
 13 27  1  0
 28 29  1  0
 30 13  2  0
  6  7  1  0
 28 31  1  0
 35 36  1  0
 14 15  1  0
  2  3  1  0
 33 34  2  0
 15 16  2  0
 35  8  1  0
 16 17  1  0
 32 33  1  0
 34 35  1  0
 36 32  2  0
 33 37  1  0
 17 18  2  0
 37 38  1  0
 38  1  1  0
  8  9  2  0
 38 39  2  0
M  END