
          11280714442D 1   1.00000     0.00000     0

 17 17  0     0  0            999 V2000
    4.9875   -4.2667    0.0000 C   0  0  0  0  0  0           0  0  0
    4.9792   -4.8750    0.0000 N   0  3  0  0  0  0           0  0  0
    4.4667   -3.9667    0.0000 C   0  0  0  0  0  0           0  0  0
    5.5042   -3.9667    0.0000 C   0  0  0  0  0  0           0  0  0
    4.9875   -3.0667    0.0000 C   0  0  0  0  0  0           0  0  0
    4.4667   -3.3667    0.0000 C   0  0  0  0  0  0           0  0  0
    5.5042   -3.3667    0.0000 C   0  0  0  0  0  0           0  0  0
    4.4667   -5.1750    0.0000 O   0  5  0  0  0  0           0  0  0
    5.5042   -5.1750    0.0000 O   0  0  0  0  0  0           0  0  0
    4.9917   -2.4667    0.0000 C   0  0  0  0  0  0           0  0  0
    6.0167   -4.2667    0.0000 O   0  0  0  0  0  0           0  0  0
    3.9500   -3.0625    0.0000 O   0  0  0  0  0  0           0  0  0
    5.5125   -1.5667    0.0000 N   0  0  0  0  0  0           0  0  0
    5.5125   -2.1667    0.0000 C   0  0  3  0  0  0           0  0  0
    6.5417   -3.9667    0.0000 C   0  0  0  0  0  0           0  0  0
    3.4292   -3.3625    0.0000 C   0  0  0  0  0  0           0  0  0
    6.0292   -2.4667    0.0000 C   0  0  0  0  0  0           0  0  0
  2  1  1  0     0  0
  3  1  2  0     0  0
  4  1  1  0     0  0
  5  7  1  0     0  0
  6  3  1  0     0  0
  7  4  2  0     0  0
  8  2  1  0     0  0
  9  2  2  0     0  0
 10  5  1  0     0  0
 11  4  1  0     0  0
 12  6  1  0     0  0
 13 14  1  0     0  0
 14 10  1  0     0  0
 15 11  1  0     0  0
 16 12  1  0     0  0
 17 14  1  0     0  0
  6  5  2  0     0  0
M  CHG  2   2   1   8  -1
M  END