
          11280714522D 1   1.00000     0.00000     0

 32 36  0     0  0            999 V2000
    6.5167   -5.2417    0.0000 C   0  0  0  0  0  0           0  0  0
    5.8000   -4.8292    0.0000 O   0  0  0  0  0  0           0  0  0
    5.0875   -5.2500    0.0000 C   0  0  0  0  0  0           0  0  0
    7.2250   -4.8292    0.0000 C   0  0  0  0  0  0           0  0  0
    5.0875   -6.0750    0.0000 C   0  0  0  0  0  0           0  0  0
    6.5167   -6.0667    0.0000 C   0  0  0  0  0  0           0  0  0
    5.8000   -6.4875    0.0000 C   0  0  0  0  0  0           0  0  0
    0.6792   -2.8292    0.0000 N   0  0  0  0  0  0           0  0  0
    7.2167   -4.0042    0.0000 C   0  0  0  0  0  0           0  0  0
    0.1000   -4.1292    0.0000 N   0  0  0  0  0  0           0  0  0
    0.7667   -3.6542    0.0000 C   0  0  0  0  0  0           0  0  0
    4.3750   -4.8375    0.0000 C   0  0  0  0  0  0           0  0  0
   -0.0708   -2.5000    0.0000 C   0  0  0  0  0  0           0  0  0
   -0.7375   -2.9792    0.0000 C   0  0  0  0  0  0           0  0  0
    5.8042   -7.3125    0.0000 O   0  0  0  0  0  0           0  0  0
   -0.6583   -3.8000    0.0000 C   0  0  0  0  0  0           0  0  0
    6.5042   -3.5917    0.0000 O   0  0  0  0  0  0           0  0  0
    3.6625   -5.2500    0.0000 C   0  0  0  0  0  0           0  0  0
    4.3750   -4.0042    0.0000 C   0  0  0  0  0  0           0  0  0
    2.2375   -3.5875    0.0000 O   0  0  0  0  0  0           0  0  0
    1.5167   -3.9875    0.0000 C   0  0  0  0  0  0           0  0  0
    7.9292   -3.5875    0.0000 O   0  0  0  0  0  0           0  0  0
    2.9500   -4.0042    0.0000 C   0  0  0  0  0  0           0  0  0
    7.9417   -5.2375    0.0000 C   0  0  0  0  0  0           0  0  0
    7.2292   -6.4792    0.0000 C   0  0  0  0  0  0           0  0  0
    2.9417   -4.8292    0.0000 C   0  0  0  0  0  0           0  0  0
    3.6667   -3.5917    0.0000 C   0  0  0  0  0  0           0  0  0
    7.9417   -6.0667    0.0000 C   0  0  0  0  0  0           0  0  0
   -0.1583   -1.6792    0.0000 C   0  0  0  0  0  0           0  0  0
   -1.4958   -2.6500    0.0000 C   0  0  0  0  0  0           0  0  0
   -1.5833   -1.8292    0.0000 C   0  0  0  0  0  0           0  0  0
   -0.9125   -1.3417    0.0000 C   0  0  0  0  0  0           0  0  0
  2  1  1  0     0  0
  3  2  1  0     0  0
  4  1  1  0     0  0
  5  7  1  0     0  0
  6  1  2  0     0  0
  7  6  1  0     0  0
  8 11  2  0     0  0
  9  4  1  0     0  0
 10 11  1  0     0  0
 11 21  1  0     0  0
 12  3  1  0     0  0
 13  8  1  0     0  0
 14 16  1  0     0  0
 15  7  2  0     0  0
 16 10  2  0     0  0
 17  9  2  0     0  0
 18 12  2  0     0  0
 19 12  1  0     0  0
 20 23  1  0     0  0
 21 20  1  0     0  0
 22  9  1  0     0  0
 23 27  1  0     0  0
 24  4  2  0     0  0
 25  6  1  0     0  0
 26 18  1  0     0  0
 27 19  2  0     0  0
 28 25  2  0     0  0
 29 13  1  0     0  0
 30 14  1  0     0  0
 31 30  2  0     0  0
 32 29  2  0     0  0
 28 24  1  0     0  0
  5  3  2  0     0  0
 26 23  2  0     0  0
 14 13  2  0     0  0
 31 32  1  0     0  0
M  END