
  SciTegic11201309402D

102111  0  0  0  0            999 V2000
   -2.5619   -1.3793    0.0000 C   0  0
   -2.5154   -3.0334    0.0000 O   0  0
    1.2508    0.7378    0.0000 N   0  0
    0.4278    0.7248    0.0000 C   0  0
    0.0274    0.0035    0.0000 N   0  0
    0.0033    1.4322    0.0000 S   0  0
   -0.7975   -0.0104    0.0000 C   0  0
   -1.2162    0.6976    0.0000 C   0  0
   -2.0404    0.6840    0.0000 C   0  0
   -1.1899   -0.7305    0.0000 C   0  0
   -2.0126   -0.7476    0.0000 C   0  0
   -2.4433   -0.0335    0.0000 C   0  0
   -3.2555   -0.2224    0.0000 C   0  0
   -3.3269   -1.0533    0.0000 O   0  0
   -3.8790    0.3179    0.0000 O   0  0
   -1.8325   -1.7681    0.0000 C   0  0
   -1.8132   -2.5975    0.0000 C   0  0
   -1.0865   -2.9937    0.0000 C   0  0
   -0.3786   -2.5616    0.0000 C   0  0
   -0.4019   -1.7292    0.0000 C   0  0
   -1.1291   -1.3368    0.0000 C   0  0
   -3.2433   -2.6383    0.0000 C   0  0
   -3.2647   -1.8162    0.0000 C   0  0
   -3.9862   -1.4254    0.0000 C   0  0
   -4.6868   -1.8556    0.0000 C   0  0
   -4.6614   -2.6808    0.0000 C   0  0
   -3.9394   -3.0679    0.0000 C   0  0
    0.3465   -2.9553    0.0000 O   0  0
   -5.3627   -3.1153    0.0000 O   0  0
    6.3619    0.8969    0.0000 C   0  0  2  0  0  0
    6.6283    1.6732    0.0000 C   0  0
    5.9702    2.1706    0.0000 C   0  0
    5.2937    1.6984    0.0000 C   0  0
    5.5326    0.9092    0.0000 N   0  0
    4.8348    0.4691    0.0000 C   0  0
    4.1048    0.8533    0.0000 C   0  0
    4.8671   -0.3553    0.0000 O   0  0
    3.4070    0.4131    0.0000 C   0  0
    2.6769    0.7973    0.0000 C   0  0
    1.9791    0.3572    0.0000 C   0  0
   21.2189   -1.8062    0.0000 C   0  0
   21.9658   -1.4522    0.0000 C   0  0
   22.6422   -1.9245    0.0000 C   0  0
   22.5732   -2.7468    0.0000 O   0  0
   23.3913   -1.5753    0.0000 O   0  0
   20.5185   -1.3703    0.0000 C   0  0  2  0  0  0
   19.1154   -0.5344    0.0000 C   0  0
   19.8328   -0.1270    0.0000 C   0  0
   20.5443   -0.5447    0.0000 N   0  0
   19.8387    0.6980    0.0000 O   0  0
   19.7900   -1.7576    0.0000 C   0  0
   19.7612   -2.5821    0.0000 N   0  0
   19.0904   -1.3203    0.0000 O   0  0
   15.8013   -3.7328    0.0000 C   0  0
   10.4868   -0.5051    0.0000 C   0  0
   11.3118   -0.5047    0.0000 N   0  0
   10.0746   -1.2198    0.0000 O   0  0
   11.7246   -1.2190    0.0000 C   0  0  2  0  0  0
   12.5496   -1.2186    0.0000 C   0  0
   11.3125   -1.9337    0.0000 C   0  0  1  0  0  0
   10.4875   -1.9341    0.0000 C   0  0
   11.7253   -2.6480    0.0000 O   0  0
   12.9625   -1.9329    0.0000 N   0  0
   12.9618   -0.5040    0.0000 O   0  0
    9.2540    0.2096    0.0000 N   0  0
   10.0744    0.2089    0.0000 C   0  0  1  0  0  0
   10.3284    0.9891    0.0000 C   0  0
    9.6649    1.4718    0.0000 C   0  0
    9.0009    0.9898    0.0000 C   0  0
   13.7875   -1.9325    0.0000 C   0  0  2  0  0  0
   14.2003   -2.6468    0.0000 C   0  0
   14.1996   -1.2178    0.0000 C   0  0
   13.7881   -3.3614    0.0000 O   0  0
   15.0228   -2.6463    0.0000 N   0  0
   15.0192   -3.4701    0.0000 C   0  0
   16.2929   -3.0701    0.0000 C   0  0
   15.8148   -2.3964    0.0000 C   0  0  1  0  0  0
   16.2007   -1.6672    0.0000 C   0  0
   17.0243   -1.6368    0.0000 N   0  0
   15.7621   -0.9684    0.0000 O   0  0
   17.3073   -2.4111    0.0000 C   0  0
   18.1319   -2.3833    0.0000 C   0  0
   18.3603   -1.5905    0.0000 C   0  0
   17.6763   -1.1278    0.0000 C   0  0  1  0  0  0
   17.6621   -0.3029    0.0000 C   0  0
   18.4501   -0.0466    0.0000 N   0  0
   16.9406    0.0972    0.0000 O   0  0
   10.7246   -1.2195    0.0000 H   0  0
    8.8476   -0.5083    0.0000 C   0  0
    8.0226   -0.5152    0.0000 C   0  0
    9.2661   -1.2192    0.0000 O   0  0
    7.6041    0.1957    0.0000 N   0  0
    6.7791    0.1887    0.0000 C   0  0
    6.3727   -0.5292    0.0000 O   0  0
   18.4458    0.7792    0.0000 C   0  0
   13.6668    2.8130    0.0000 C   0  0
    7.5958    1.0208    0.0000 C   0  0
    8.6353    2.3154    0.0000 C   0  0
   10.9437    2.8446    0.0000 C   0  0
   18.5555   -0.6513    0.0000 H   0  0
   16.8127   -2.3312    0.0000 H   0  0
   11.0689    0.3132    0.0000 H   0  0
 11 10  2  0
 48 49  1  0
 22 23  2  0
 48 50  2  0
 46 49  1  1
 10  7  1  0
 46 51  1  0
 23 24  1  0
 51 52  1  0
 11 12  1  0
 51 53  2  0
 24 25  2  0
  1 16  1  0
 66 55  1  0
 25 26  1  0
 55 56  1  0
  4  5  1  0
 55 57  2  0
 26 27  2  0
 56 58  1  0
 27 22  1  0
 58 59  1  0
 22  2  1  0
 58 60  1  0
 19 28  1  0
 60 61  1  6
  4  6  2  0
 60 62  1  0
 26 29  1  0
 59 63  1  0
 12 13  1  0
 59 64  2  0
 65 66  1  0
 30 31  1  0
 13 14  1  0
 14  1  1  0
  1 11  1  0
  2 17  1  0
 66 67  1  0
 67 68  1  0
 68 69  1  0
 69 65  1  0
 31 32  1  0
 63 70  1  0
 32 33  1  0
 70 71  1  0
 33 34  1  0
 70 72  1  1
 34 30  1  0
 71 73  2  0
 13 15  2  0
 71 74  1  0
 74 75  1  0
 34 35  1  0
  5  7  1  0
 35 36  1  0
 75 54  1  0
 54 76  1  0
 76 77  1  0
 77 74  1  0
 77 78  1  0
 35 37  2  0
 78 79  1  0
 16 17  2  0
 78 80  2  0
 79 81  1  0
 36 38  1  0
  7  8  2  0
 38 39  1  0
 17 18  1  0
 81 82  1  0
 82 83  1  0
 83 84  1  0
 84 79  1  0
 39 40  1  0
 84 85  1  0
 40  3  1  0
 85 86  1  0
  1 23  1  0
 85 87  2  0
 18 19  2  0
 58 88  1  1
 41 42  1  0
 65 89  1  0
  8  9  1  0
 89 90  1  0
 42 43  1  0
 89 91  2  0
 19 20  1  0
 90 92  1  0
  9 12  2  0
 92 93  1  0
 43 44  1  0
 93 94  2  0
 86 47  1  0
 43 45  2  0
 86 95  1  0
 20 21  2  0
 95 96  1  0
 46 41  1  0
 30 93  1  1
 21 16  1  0
 92 97  1  0
  3  4  1  0
 97 98  1  0
 47 48  1  0
 98 99  1  0
 99 96  2  0
 84100  1  1
 77101  1  1
 66102  1  6
M  END