
          11280714442D 1   1.00000     0.00000     0

 28 29  0     0  0            999 V2000
    3.2875   -2.5250    0.0000 C   0  0  0  0  0  0           0  0  0
    4.1042   -2.5042    0.0000 C   0  0  0  0  0  0           0  0  0
    9.9000   -3.8542    0.0000 C   0  0  0  0  0  0           0  0  0
    9.0750   -3.8542    0.0000 N   0  0  0  0  0  0           0  0  0
    4.5375   -3.2125    0.0000 O   0  0  0  0  0  0           0  0  0
    2.8542   -1.8167    0.0000 C   0  0  0  0  0  0           0  0  0
    4.5042   -1.7792    0.0000 O   0  0  0  0  0  0           0  0  0
    7.0125   -3.1542    0.0000 N   0  0  0  0  0  0           0  0  0
   10.3125   -3.1375    0.0000 O   0  0  0  0  0  0           0  0  0
    7.8375   -3.1417    0.0000 C   0  0  3  0  0  0           0  0  0
   10.3125   -4.5667    0.0000 C   0  0  3  0  0  0           0  0  0
    8.6625   -3.1417    0.0000 C   0  0  0  0  0  0           0  0  0
    5.7917   -3.9000    0.0000 C   0  0  3  0  0  0           0  0  0
    5.3625   -3.1917    0.0000 C   0  0  0  0  0  0           0  0  0
    6.6167   -3.8792    0.0000 C   0  0  0  0  0  0           0  0  0
    3.2542   -1.1000    0.0000 F   0  0  0  0  0  0           0  0  0
    2.8917   -3.2500    0.0000 C   0  0  0  0  0  0           0  0  0
    5.3917   -4.6250    0.0000 O   0  0  0  0  0  0           0  0  0
    2.0292   -1.8375    0.0000 C   0  0  0  0  0  0           0  0  0
    8.2292   -2.4167    0.0000 C   0  0  0  0  0  0           0  0  0
    8.2667   -3.8417    0.0000 C   0  0  0  0  0  0           0  0  0
    9.8917   -5.2792    0.0000 C   0  0  0  0  0  0           0  0  0
   11.1375   -4.5625    0.0000 C   0  0  0  0  0  0           0  0  0
    2.0542   -3.2667    0.0000 C   0  0  0  0  0  0           0  0  0
    1.6292   -2.5542    0.0000 C   0  0  0  0  0  0           0  0  0
   11.5417   -5.2792    0.0000 C   0  0  0  0  0  0           0  0  0
   10.3042   -5.9917    0.0000 C   0  0  0  0  0  0           0  0  0
   11.1292   -5.9917    0.0000 C   0  0  0  0  0  0           0  0  0
  2  1  1  0     0  0
  3  4  1  0     0  0
  4 12  1  0     0  0
  5  2  1  0     0  0
  6  1  1  0     0  0
  7  2  2  0     0  0
  8 15  1  0     0  0
  9  3  2  0     0  0
 10  8  1  0     0  0
 11  3  1  0     0  0
 12 10  1  0     0  0
 13 14  1  0     0  0
 14  5  1  0     0  0
 15 13  1  0     0  0
 16  6  1  0     0  0
 17  1  2  0     0  0
 18 13  1  0     0  0
 19  6  2  0     0  0
 20 10  1  0     0  0
 21 10  1  0     0  0
 22 11  1  0     0  0
 23 11  1  0     0  0
 24 17  1  0     0  0
 25 24  2  0     0  0
 26 23  1  0     0  0
 27 22  1  0     0  0
 28 26  1  0     0  0
 25 19  1  0     0  0
 28 27  1  0     0  0
M  END