
  SciTegic06271217572D

 21 23  0  0  0  0            999 V2000
    9.3736  -18.2541    0.0000 C   0  0
    9.3724  -19.0815    0.0000 C   0  0
   10.0872  -19.4944    0.0000 C   0  0
   10.0854  -17.8414    0.0000 C   0  0
   10.8008  -18.2505    0.0000 C   0  0
   10.8016  -19.0773    0.0000 C   0  0
   11.5169  -19.4883    0.0000 N   0  0
   12.2319  -19.0735    0.0000 C   0  0
   12.2271  -18.2436    0.0000 C   0  0
   11.5112  -17.8363    0.0000 C   0  0
   12.9480  -19.4833    0.0000 N   0  0
    8.6611  -17.8420    0.0000 C   0  0
    8.6622  -17.0159    0.0000 C   0  0
    7.9485  -16.6036    0.0000 C   0  0
    7.2332  -17.0163    0.0000 C   0  0
    7.2360  -17.8456    0.0000 C   0  0
    7.9503  -18.2541    0.0000 C   0  0
    9.3770  -16.6039    0.0000 C   0  0
   10.0912  -17.0170    0.0000 F   0  0
    9.3777  -15.7789    0.0000 F   0  0
   10.0875  -16.1833    0.0000 F   0  0
 10  5  1  0
  8 11  1  0
  2  3  1  0
  5  6  1  0
 12 13  2  0
  3  6  2  0
 13 14  1  0
  6  7  1  0
 14 15  2  0
  1  2  2  0
 15 16  1  0
  7  8  2  0
 16 17  2  0
 17 12  1  0
  1 12  1  0
  5  4  2  0
 13 18  1  0
  8  9  1  0
 18 19  1  0
  4  1  1  0
 18 20  1  0
  9 10  2  0
 18 21  1  0
M  END