
          11280715122D 1   1.00000     0.00000     0

 30 32  0     0  0            999 V2000
    8.5625   -7.0375    0.0000 C   0  0  0  0  0  0           0  0  0
    7.8500   -6.6250    0.0000 C   0  0  0  0  0  0           0  0  0
    3.8042   -7.1417    0.0000 N   0  0  3  0  0  0           0  0  0
    8.5625   -7.8625    0.0000 C   0  0  0  0  0  0           0  0  0
    3.0875   -6.7292    0.0000 C   0  0  0  0  0  0           0  0  0
    5.1667   -8.0667    0.0000 N   0  0  3  0  0  0           0  0  0
    7.8500   -5.8000    0.0000 N   0  0  3  0  0  0           0  0  0
    9.2750   -8.2750    0.0000 N   0  0  0  0  0  0           0  0  0
    7.1292   -7.0375    0.0000 O   0  0  0  0  0  0           0  0  0
    3.7417   -7.9625    0.0000 C   0  0  0  0  0  0           0  0  0
    4.5417   -6.7750    0.0000 C   0  0  0  0  0  0           0  0  0
    3.0875   -5.9000    0.0000 C   0  0  0  0  0  0           0  0  0
    7.8500   -8.2792    0.0000 N   0  0  0  0  0  0           0  0  0
    5.2250   -7.2417    0.0000 C   0  0  0  0  0  0           0  0  0
    4.4250   -8.4167    0.0000 C   0  0  0  0  0  0           0  0  0
    9.2750   -6.6167    0.0000 C   0  0  0  0  0  0           0  0  0
    3.8000   -5.4792    0.0000 O   0  0  0  0  0  0           0  0  0
    5.8417   -8.5292    0.0000 C   0  0  0  0  0  0           0  0  0
    6.5542   -8.1125    0.0000 C   0  0  0  0  0  0           0  0  0
    2.3667   -7.1417    0.0000 C   0  0  0  0  0  0           0  0  0
    9.9917   -7.8625    0.0000 C   0  0  0  0  0  0           0  0  0
    7.1375   -8.6917    0.0000 C   0  0  0  0  0  0           0  0  0
    7.1292   -5.3875    0.0000 C   0  0  0  0  0  0           0  0  0
    8.5625   -5.3875    0.0000 C   0  0  0  0  0  0           0  0  0
    2.3667   -5.4875    0.0000 C   0  0  0  0  0  0           0  0  0
    3.7917   -4.6542    0.0000 C   0  0  0  0  0  0           0  0  0
    9.9917   -7.0292    0.0000 C   0  0  0  0  0  0           0  0  0
    3.0750   -4.2500    0.0000 C   0  0  0  0  0  0           0  0  0
    1.6542   -6.7292    0.0000 C   0  0  0  0  0  0           0  0  0
    1.6542   -5.9000    0.0000 C   0  0  0  0  0  0           0  0  0
  2  1  1  0     0  0
  3 10  1  0     0  0
  4  1  2  0     0  0
  5  3  1  0     0  0
  6 18  1  0     0  0
  7  2  1  0     0  0
  8  4  1  0     0  0
  9  2  2  0     0  0
 10 15  1  0     0  0
 11 14  1  0     0  0
 12  5  1  0     0  0
 13  4  1  0     0  0
 14  6  1  0     0  0
 15  6  1  0     0  0
 16  1  1  0     0  0
 17 12  1  0     0  0
 18 19  1  0     0  0
 19 22  1  0     0  0
 20  5  2  0     0  0
 21 27  1  0     0  0
 22 13  1  0     0  0
 23  7  1  0     0  0
 24  7  1  0     0  0
 25 12  2  0     0  0
 26 17  1  0     0  0
 27 16  2  0     0  0
 28 26  1  0     0  0
 29 20  1  0     0  0
 30 29  2  0     0  0
 21  8  2  0     0  0
  3 11  1  0     0  0
 30 25  1  0     0  0
M  END