
  SciTegic12171313022D

 13 14  0  0  0  0            999 V2000
   13.1738   -6.2814    0.0000 O   0  0
   10.2262   -6.9448    0.0000 C   0  0
   13.1738   -7.6081    0.0000 N   0  0
   11.4596   -7.6551    0.0000 C   0  0
   10.6387   -7.6551    0.0000 C   0  0
   10.6387   -6.2344    0.0000 C   0  0
   11.4596   -6.2344    0.0000 C   0  0
   13.9543   -6.5323    0.0000 C   0  0
   11.8680   -6.9448    0.0000 C   0  0
   12.6888   -6.9448    0.0000 C   0  0
   13.9543   -7.3532    0.0000 N   0  0
   14.6176   -6.0514    0.0000 N   0  0
   10.2310   -5.5262    0.0000 C   0  0
 10  9  1  0
  9  7  2  0
  1 10  1  0
  2  5  1  0
  1  8  1  0
  2  6  2  0
  8 11  2  0
  3 10  2  0
  8 12  1  0
  4  5  2  0
 11  3  1  0
  9  4  1  0
  7  6  1  0
  6 13  1  0
M  END