
  SciTegic01161211262D

 27 28  0  0  0  0            999 V2000
   -0.1478    2.0022    0.0000 C   0  0
   -0.1508    1.1730    0.0000 C   0  0
    0.5598    0.7620    0.0000 N   0  0
    0.5612    2.4129    0.0000 O   0  0
    1.2853    3.6511    0.0000 C   0  0
    0.5618    3.2407    0.0000 C   0  0
    1.9669   -0.0773    0.0000 C   0  0
   -0.1505    3.6560    0.0000 O   0  0
    1.2636    1.1674    0.0000 C   0  0
    1.9790    0.7459    0.0000 C   0  0  2  0  0  0
    2.7031    1.1590    0.0000 C   0  0
    2.7068    1.9864    0.0000 C   0  0
    1.2676    1.9920    0.0000 O   0  0
    2.6748   -0.4999    0.0000 C   0  0
    2.6627   -1.3243    0.0000 N   0  0
    3.3948   -0.0981    0.0000 O   0  0
    3.3707   -1.7471    0.0000 C   0  0
    3.3586   -2.5715    0.0000 C   0  0
    2.6370   -2.9684    0.0000 C   0  0
    2.6246   -3.7921    0.0000 C   0  0
    3.3331   -4.2156    0.0000 C   0  0
    4.0556   -3.8095    0.0000 C   0  0
    4.0645   -2.9871    0.0000 C   0  0
    3.3221   -5.0401    0.0000 Cl  0  0
    3.3276    2.4948    0.0000 C   0  0
    1.9956    3.2242    0.0000 C   0  0
    2.8026    3.4605    0.0000 C   0  0
  5  6  1  0
  7 14  1  0
  2  3  1  0
 14 15  1  0
 10  7  1  6
 14 16  2  0
  3  9  1  0
 15 17  1  0
  6  8  2  0
 17 18  1  0
 18 19  2  0
  1  2  1  0
 19 20  1  0
  9 10  1  0
 20 21  2  0
  1  4  1  0
 21 22  1  0
 10 11  1  0
 22 23  2  0
 23 18  1  0
  4  6  1  0
 21 24  1  0
 11 12  1  0
 12 25  2  0
 26  5  1  0
  9 13  2  0
 25 27  1  0
 26 27  1  0
M  END