
  SciTegic12231509382D

 12 12  0  0  0  0            999 V2000
    5.0972   -1.4094    0.0000 O   0  0
    2.9538    2.3031    0.0000 N   0  0
    3.6682    0.2406    0.0000 C   0  0
    4.3827   -0.9969    0.0000 C   0  0
    4.3827   -0.1719    0.0000 C   0  0
    2.9538   -0.1719    0.0000 C   0  0
    3.6682   -1.4094    0.0000 C   0  0
    3.6682    1.0656    0.0000 C   0  0
    2.9538   -0.9969    0.0000 C   0  0
    2.9538    1.4781    0.0000 C   0  0
    2.2393    1.0656    0.0000 C   0  0
    5.8116   -0.9969    0.0000 C   0  0
  1  4  1  0
  1 12  1  0
  2 10  1  0
  3  5  2  0
  3  6  1  0
  3  8  1  0
  4  5  1  0
  4  7  2  0
  6  9  2  0
  7  9  1  0
  8 10  1  0
 10 11  1  0
M  END