
          11280715162D 1   1.00000     0.00000     0

 15 15  0     0  0            999 V2000
    2.7625   -3.6625    0.0000 C   0  0  0  0  0  0           0  0  0
    2.3542   -2.9417    0.0000 C   0  0  0  0  0  0           0  0  0
    2.3542   -4.3750    0.0000 C   0  0  0  0  0  0           0  0  0
    3.5875   -3.6625    0.0000 C   0  0  0  0  0  0           0  0  0
    1.5292   -2.9417    0.0000 C   0  0  0  0  0  0           0  0  0
    1.5292   -4.3750    0.0000 C   0  0  0  0  0  0           0  0  0
    4.8250   -4.3792    0.0000 N   0  0  3  0  0  0           0  0  0
    4.0000   -4.3792    0.0000 C   0  0  0  0  0  0           0  0  0
    1.1125   -3.6625    0.0000 C   0  0  0  0  0  0           0  0  0
    2.7667   -2.2292    0.0000 O   0  0  0  0  0  0           0  0  0
    1.1167   -5.0875    0.0000 O   0  0  0  0  0  0           0  0  0
    5.2292   -5.0917    0.0000 C   0  0  0  0  0  0           0  0  0
    5.2375   -3.6667    0.0000 C   0  0  0  0  0  0           0  0  0
    3.5917   -2.2292    0.0000 C   0  0  0  0  0  0           0  0  0
    0.2917   -5.0917    0.0000 C   0  0  0  0  0  0           0  0  0
  2  1  2  0     0  0
  3  1  1  0     0  0
  4  1  1  0     0  0
  5  2  1  0     0  0
  6  3  2  0     0  0
  7  8  1  0     0  0
  8  4  1  0     0  0
  9  6  1  0     0  0
 10  2  1  0     0  0
 11  6  1  0     0  0
 12  7  1  0     0  0
 13  7  1  0     0  0
 14 10  1  0     0  0
 15 11  1  0     0  0
  5  9  2  0     0  0
M  END