
  SciTegic03291108502D

 16 16  0  0  0  0            999 V2000
   -0.3583   -1.6520    0.0000 O   0  0
    2.4996   -0.8270    0.0000 O   0  0
    1.7851    0.4105    0.0000 O   0  0
   -1.0728   -0.4145    0.0000 C   0  0
   -0.3583   -0.8270    0.0000 C   0  0
   -2.5017    0.4105    0.0000 C   0  0
   -1.7872   -0.8270    0.0000 C   0  0
   -1.0728    0.4105    0.0000 C   0  0
   -2.5017   -0.4145    0.0000 C   0  0
   -1.7872    0.8230    0.0000 C   0  0
    0.3562   -0.4145    0.0000 C   0  0
    1.0706   -0.8270    0.0000 C   0  0
   -3.2162    0.8230    0.0000 C   0  0
    1.7851   -0.4145    0.0000 C   0  0
   -3.2162    1.6480    0.0000 C   0  0
   -3.9307    2.0605    0.0000 C   0  0
  1  5  2  0
  2 14  2  0
  3 14  1  0
  4  5  1  0
  4  7  2  0
  4  8  1  0
  5 11  1  0
  6  9  2  0
  6 10  1  0
  6 13  1  0
  7  9  1  0
  8 10  2  0
 11 12  1  0
 12 14  1  0
 13 15  1  0
 15 16  1  0
M  END