
  SciTegic06051315212D

 31 34  0  0  0  0            999 V2000
    7.7196   -4.8160    0.0000 C   0  0
    8.4322   -5.2280    0.0000 C   0  0
    9.1453   -4.8131    0.0000 C   0  0
    9.1425   -3.9865    0.0000 C   0  0
    8.4209   -3.5766    0.0000 C   0  0
    7.7109   -3.9938    0.0000 C   0  0
    3.4181   -4.0074    0.0000 C   0  0
    3.4169   -4.8355    0.0000 C   0  0
    4.1323   -5.2487    0.0000 C   0  0
    4.8494   -4.8350    0.0000 C   0  0
    4.8464   -4.0038    0.0000 C   0  0
    4.1305   -3.5944    0.0000 C   0  0
    5.5600   -3.5883    0.0000 N   0  0
    6.2766   -3.9984    0.0000 C   0  0
    6.9901   -3.5828    0.0000 N   0  0
    6.2797   -4.8241    0.0000 O   0  0
    2.7015   -5.2478    0.0000 O   0  0
    2.7009   -6.0735    0.0000 C   0  0
    1.9853   -6.4842    0.0000 N   0  0
    1.9844   -7.3091    0.0000 C   0  0
    2.6997   -7.7233    0.0000 N   0  0
    4.1965   -6.2251    0.0000 C   0  0
    3.4149   -6.4831    0.0000 C   0  0
    3.4197   -7.3067    0.0000 C   0  0
    4.2052   -7.5553    0.0000 N   0  0
    4.6832   -6.8844    0.0000 N   0  0
    8.4334   -6.0537    0.0000 C   0  0
    7.7189   -6.4674    0.0000 F   0  0
    9.1490   -6.4655    0.0000 F   0  0
    8.4278   -6.8765    0.0000 F   0  0
    9.8616   -5.2236    0.0000 Cl  0  0
  1  2  2  0
  2  3  1  0
  3  4  2  0
  4  5  1  0
  5  6  2  0
  6  1  1  0
  7  8  2  0
  8  9  1  0
  9 10  2  0
 10 11  1  0
 11 12  2  0
 12  7  1  0
 11 13  1  0
 13 14  1  0
 14 15  1  0
 14 16  2  0
 15  6  1  0
  8 17  1  0
 17 18  1  0
 18 19  2  0
 19 20  1  0
 20 21  2  0
 21 24  1  0
 23 18  1  0
 23 24  2  0
 22 23  1  0
 24 25  1  0
 25 26  1  0
 26 22  2  0
  2 27  1  0
 27 28  1  0
 27 29  1  0
 27 30  1  0
  3 31  1  0
M  END