
  SciTegic09291413392D

 30 31  0  0  0  0            999 V2000
   17.8497  -12.0415    0.0000 O   0  0
   17.1779  -12.5270    0.0000 C   0  0
   17.4331  -13.3166    0.0000 C   0  0
   18.2622  -13.3166    0.0000 C   0  0
   18.5190  -12.5282    0.0000 C   0  0
   19.3037  -12.2738    0.0000 O   0  0
   18.7469  -13.9842    0.0000 C   0  0
   16.7581  -11.8082    0.0000 C   0  0
   16.7532  -13.2338    0.0000 C   0  0
   15.9283  -13.2195    0.0000 O   0  0
   15.9331  -11.8103    0.0000 O   0  0
   15.5188  -11.0970    0.0000 C   0  0
   14.6938  -11.0991    0.0000 C   0  0
   15.9294  -10.3814    0.0000 O   0  0
   18.3215  -14.6912    0.0000 C   0  0
   17.4959  -14.6747    0.0000 C   0  0
   17.0706  -15.3808    0.0000 C   0  0
   17.4703  -16.1036    0.0000 C   0  0
   18.2995  -16.1159    0.0000 C   0  0
   18.7209  -15.4091    0.0000 C   0  0
   14.2794  -10.3858    0.0000 C   0  0
   13.4544  -10.3880    0.0000 C   0  0
   14.6899   -9.6702    0.0000 C   0  0
   13.0400   -9.6745    0.0000 C   0  0
   13.0438  -11.1035    0.0000 C   0  0
   15.5149   -9.6681    0.0000 C   0  0
   14.2756   -8.9569    0.0000 C   0  0
   18.7016  -16.8362    0.0000 C   0  0
   18.2788  -17.5446    0.0000 O   0  0
   19.5264  -16.8482    0.0000 O   0  0
  2  3  1  0
  1  2  1  0
  3  4  1  0
  4  5  1  0
  5  1  1  0
  5  6  2  0
  4  7  2  0
  2  8  1  0
  2  9  1  0
  9 10  1  0
  8 11  1  0
 11 12  1  0
 12 13  1  0
 12 14  2  0
  7 15  1  0
 15 16  2  0
 16 17  1  0
 17 18  2  0
 18 19  1  0
 19 20  2  0
 20 15  1  0
 13 21  1  0
 21 22  1  0
 21 23  1  0
 22 24  1  0
 22 25  1  0
 23 26  1  0
 23 27  1  0
 19 28  1  0
 28 29  2  0
 28 30  1  0
M  END