
  SciTegic01161211242D

 28 28  0  0  0  0            999 V2000
   -5.2003    1.4932    0.0000 S   0  0
   -5.2024    2.6932    0.0000 O   0  0
   -4.1622    2.0952    0.0000 O   0  0
   -6.4990    0.7409    0.0000 C   0  0
   -3.8990    0.7455    0.0000 C   0  0
    5.1894   -6.0109    0.0000 N   0  0
    2.5973   -1.5031    0.0000 O   0  0
    3.8933   -3.7570    0.0000 C   0  0
    1.2990   -0.7500    0.0000 C   0  0
    3.8912   -5.2578    0.0000 C   0  0
   -1.2990    0.7500    0.0000 C   0  0
    2.5951   -3.0039    0.0000 C   0  0
   -2.6003    1.4977    0.0000 C   0  0
    8.9855   -2.2631    0.0000 Cl  0  0
    1.2990    0.7500    0.0000 C   0  0
    0.0000   -1.5000    0.0000 C   0  0
    0.0000    1.5000    0.0000 C   0  0
   -1.2990   -0.7500    0.0000 C   0  0
    4.9336   -3.1588    0.0000 O   0  0
   -7.8003    1.4887    0.0000 C   0  0
    5.1873   -7.5117    0.0000 C   0  0
   -9.0994    0.7387    0.0000 C   0  0
   -7.8004    2.9887    0.0000 C   0  0
    6.2253   -8.1139    0.0000 C   0  0
    4.1470   -8.1099    0.0000 C   0  0
   -9.0995    3.7387    0.0000 C   0  0
  -10.3984    1.4886    0.0000 C   0  0
  -10.3985    2.9886    0.0000 C   0  0
  1  2  2  0
  1  3  2  0
  1  4  1  0
  1  5  1  0
  7  9  1  0
  6 10  1  0
  8 10  1  0
  7 12  1  0
  8 12  1  0
  5 13  1  0
 11 13  1  0
  9 15  2  0
  9 16  1  0
 11 17  2  0
 15 17  1  0
 11 18  1  0
 16 18  2  0
  8 19  1  0
  4 20  1  0
  6 21  1  0
 20 22  1  0
 20 23  1  0
 21 24  1  0
 21 25  1  0
 23 26  1  0
 22 27  1  0
 26 28  1  0
 27 28  1  0
M  END