
  SciTegic01181116592D

 23 26  0  0  0  0            999 V2000
    6.6253   -9.0558    0.0000 C   0  0
    7.3586   -8.7177    0.0000 N   0  0
    6.7738   -8.3096    0.0000 C   0  0
    8.1811   -9.0666    0.0000 C   0  0  2  0  0  0
    7.2216   -7.6968    0.0000 C   0  0
    7.4982   -7.9845    0.0000 C   0  0
    8.2848   -8.3271    0.0000 C   0  0  1  0  0  0
    7.4605   -7.1032    0.0000 C   0  0
    9.0052   -7.9239    0.0000 N   0  0
    8.5878   -9.7850    0.0000 C   0  0
    8.1690  -10.4964    0.0000 C   0  0
    7.3442  -10.4857    0.0000 C   0  0
    6.9254  -11.1963    0.0000 C   0  0
    7.3322  -11.9157    0.0000 C   0  0
    8.1621  -11.9201    0.0000 N   0  0
    8.5770  -11.2088    0.0000 C   0  0
    9.7146   -8.3461    0.0000 C   0  0
    9.7037   -9.1715    0.0000 O   0  0
   10.4350   -7.9428    0.0000 C   0  0
   11.1798   -8.2909    0.0000 S   0  0
   10.5260   -7.1272    0.0000 C   0  0
   11.3361   -6.9635    0.0000 C   0  0
   11.7382   -7.6839    0.0000 C   0  0
 10 11  1  0
  2  4  1  0
 11 12  2  0
  2  5  1  0
 12 13  1  0
  3  6  1  0
 13 14  2  0
  4  7  1  0
 14 15  1  0
  5  8  1  0
 15 16  2  0
 16 11  1  0
  6  7  1  0
  9 17  1  0
  6  8  1  0
 17 18  2  0
 17 19  1  0
 20 23  1  0
  7  9  1  1
  1  2  1  0
 19 20  1  0
 22 21  1  0
 21 19  2  0
  4 10  1  6
  1  3  1  0
 22 23  2  0
M  END