
  SciTegic04071410272D

 31 33  0  0  0  0            999 V2000
    3.8909   -6.2557    0.0000 C   0  0  1  0  0  0
    4.9758   -7.0658    0.0000 C   0  0  2  0  0  0
    4.4512   -6.6333    0.0000 C   0  0
    3.4655   -6.6333    0.0000 C   0  0  1  0  0  0
    3.3257   -5.8089    0.0000 N   0  3
    4.8332   -6.2374    0.0000 C   0  0
    2.9374   -7.3534    0.0000 C   0  0
    3.5695   -6.9724    0.0000 C   0  0
    5.3900   -7.7793    0.0000 C   0  0
    6.2150   -7.7774    0.0000 C   0  0
    6.6291   -8.4909    0.0000 C   0  0
    6.4250   -6.9750    0.0000 C   0  0
    6.6350   -6.1726    0.0000 N   0  0
    7.0083   -7.5583    0.0000 C   0  0
    6.2171   -9.2030    0.0000 C   0  0
    6.6305   -9.9160    0.0000 C   0  0
    7.4564   -9.9145    0.0000 C   0  0
    7.8671   -9.1940    0.0000 C   0  0
    7.4512   -8.4840    0.0000 C   0  0
    7.5935   -8.1386    0.0000 C   0  0
    8.3863   -7.9201    0.0000 C   0  0
    8.5939   -7.1228    0.0000 C   0  0
    8.0027   -6.5441    0.0000 C   0  0
    7.2122   -6.7656    0.0000 C   0  0
    2.5250   -5.5917    0.0000 C   0  0
    3.7333   -5.0917    0.0000 C   0  0
    3.3160   -4.3800    0.0000 C   0  0
    3.7237   -3.6628    0.0000 C   0  0
    4.6208   -5.2458    0.0000 I   0  5
    2.6627   -6.4433    0.0000 H   0  0
    4.1541   -5.4738    0.0000 H   0  0
  5  1  1  0
 10 14  1  0
  1  6  1  0
 11 15  2  0
  6  2  1  0
 15 16  1  0
  4  7  1  0
 16 17  2  0
  1  8  1  0
 17 18  1  0
  7  8  1  0
 18 19  2  0
 19 11  1  0
 14 20  2  0
  2  9  1  6
 20 21  1  0
 21 22  2  0
  9 10  1  0
 22 23  1  0
  2  3  1  0
 23 24  2  0
 24 14  1  0
 10 11  1  0
  5 25  1  0
  3  4  1  0
  5 26  1  0
 10 12  1  0
 26 27  1  0
  4  5  1  0
 27 28  2  0
 12 13  3  0
  4 30  1  1
  1 31  1  6
M  CHG  2   5   1  29  -1
M  END