
          11280715362D 1   1.00000     0.00000     0

 24 27  0     0  0            999 V2000
    7.5417   -5.7625    0.0000 C   0  0  0  0  0  0           0  0  0
    8.2542   -5.3375    0.0000 C   0  0  0  0  0  0           0  0  0
   12.6750   -4.7875    0.0000 N   0  0  3  0  0  0           0  0  0
    7.5542   -6.5792    0.0000 C   0  0  0  0  0  0           0  0  0
   13.4500   -4.5167    0.0000 C   0  0  0  0  0  0           0  0  0
   11.1167   -5.3250    0.0000 N   0  0  3  0  0  0           0  0  0
    6.7542   -5.5167    0.0000 C   0  0  0  0  0  0           0  0  0
    6.7750   -6.8417    0.0000 O   0  0  0  0  0  0           0  0  0
    6.2792   -6.1875    0.0000 C   0  0  0  0  0  0           0  0  0
    8.9792   -5.7417    0.0000 C   0  0  3  0  0  0           0  0  0
   14.0750   -5.0542    0.0000 N   0  0  0  0  0  0           0  0  0
    8.2542   -4.5042    0.0000 O   0  0  0  0  0  0           0  0  0
   12.5167   -5.5917    0.0000 C   0  0  0  0  0  0           0  0  0
   12.0500   -4.2417    0.0000 C   0  0  0  0  0  0           0  0  0
    8.2667   -6.9917    0.0000 C   0  0  0  0  0  0           0  0  0
    8.9875   -6.5750    0.0000 C   0  0  0  0  0  0           0  0  0
    9.6917   -5.3292    0.0000 C   0  0  0  0  0  0           0  0  0
   10.4042   -5.7375    0.0000 C   0  0  0  0  0  0           0  0  0
   11.7417   -5.8667    0.0000 C   0  0  0  0  0  0           0  0  0
   11.2667   -4.5167    0.0000 C   0  0  0  0  0  0           0  0  0
   13.6042   -3.7042    0.0000 C   0  0  0  0  0  0           0  0  0
   14.8542   -4.7875    0.0000 C   0  0  0  0  0  0           0  0  0
   14.3792   -3.4375    0.0000 C   0  0  0  0  0  0           0  0  0
   15.0042   -3.9750    0.0000 C   0  0  0  0  0  0           0  0  0
  2  1  1  0     0  0
  3 14  1  0     0  0
  4  1  2  0     0  0
  5  3  1  0     0  0
  6 18  1  0     0  0
  7  1  1  0     0  0
  8  4  1  0     0  0
  9  7  2  0     0  0
 10  2  1  0     0  0
 11  5  2  0     0  0
 12  2  2  0     0  0
 13 19  1  0     0  0
 14 20  1  0     0  0
 15  4  1  0     0  0
 16 15  1  0     0  0
 17 10  1  0     0  0
 18 17  1  0     0  0
 19  6  1  0     0  0
 20  6  1  0     0  0
 21  5  1  0     0  0
 22 11  1  0     0  0
 23 21  2  0     0  0
 24 23  1  0     0  0
  8  9  1  0     0  0
 10 16  1  0     0  0
  3 13  1  0     0  0
 24 22  2  0     0  0
M  END