
          08180812472D 1   1.00000     0.00000     0

 57 62  0     0  0            999 V2000
    3.2831   -5.4402    0.0000 C   0  0  0  0  0  0           0  0  0
    3.9995   -5.0269    0.0000 C   0  0  0  0  0  0           0  0  0
    3.9966   -4.1963    0.0000 C   0  0  0  0  0  0           0  0  0
    3.2813   -3.7872    0.0000 C   0  0  0  0  0  0           0  0  0
    2.5682   -5.0273    0.0000 C   0  0  0  0  0  0           0  0  0
    2.5724   -4.2045    0.0000 C   0  0  0  0  0  0           0  0  0
    1.8657   -3.7918    0.0000 C   0  0  0  0  0  0           0  0  0
    1.8575   -5.4375    0.0000 O   0  0  0  0  0  0           0  0  0
    1.1464   -5.0202    0.0000 C   0  0  0  0  0  0           0  0  0
    1.1465   -4.1990    0.0000 C   0  0  0  0  0  0           0  0  0
    0.4393   -3.7906    0.0000 C   0  0  0  0  0  0           0  0  0
   -0.2725   -4.1989    0.0000 C   0  0  0  0  0  0           0  0  0
   -0.2726   -5.0200    0.0000 C   0  0  0  0  0  0           0  0  0
    0.4391   -5.4330    0.0000 C   0  0  0  0  0  0           0  0  0
   -0.9876   -5.4317    0.0000 O   0  0  0  0  0  0           0  0  0
    1.1652   -1.2333    0.0000 C   0  0  0  0  0  0           0  0  0
    1.1641   -2.0607    0.0000 C   0  0  0  0  0  0           0  0  0
    1.8789   -2.4735    0.0000 C   0  0  0  0  0  0           0  0  0
    2.5953   -2.0602    0.0000 C   0  0  0  0  0  0           0  0  0
    2.5925   -1.2297    0.0000 C   0  0  0  0  0  0           0  0  0
    1.8771   -0.8205    0.0000 C   0  0  0  0  0  0           0  0  0
    3.3116   -2.4716    0.0000 C   0  0  0  0  0  0           0  0  0
    3.3129   -3.2966    0.0000 O   0  0  0  0  0  0           0  0  0
    4.0254   -2.0580    0.0000 O   0  0  0  0  0  0           0  0  0
    1.8746    0.0045    0.0000 N   0  0  0  0  0  0           0  0  0
    2.5879    0.4191    0.0000 C   0  0  0  0  0  0           0  0  0
    2.5854    1.2441    0.0000 S   0  0  0  0  0  0           0  0  0
    3.3036    0.0087    0.0000 N   0  0  0  0  0  0           0  0  0
    4.0168    0.4234    0.0000 C   0  0  0  0  0  0           0  0  0
    4.7325    0.0130    0.0000 C   0  0  0  0  0  0           0  0  0
    5.4457    0.4276    0.0000 C   0  0  0  0  0  0           0  0  0
    6.1614    0.0173    0.0000 N   0  0  3  0  0  0           0  0  0
    6.2491   -0.7996    0.0000 N   0  0  0  0  0  0           0  0  0
    7.0566   -0.9687    0.0000 N   0  0  0  0  0  0           0  0  0
    7.4666   -0.2530    0.0000 C   0  0  0  0  0  0           0  0  0
    6.9130    0.3584    0.0000 C   0  0  0  0  0  0           0  0  0
    8.2916   -0.2540    0.0000 C   0  0  0  0  0  0           0  0  0
    8.7032   -0.9690    0.0000 N   0  0  0  0  0  0           0  0  0
    9.5282   -0.9700    0.0000 C   0  0  0  0  0  0           0  0  0
    9.9337   -1.6853    0.0000 C   0  0  0  0  0  0           0  0  0
   10.7579   -1.6867    0.0000 C   0  0  0  0  0  0           0  0  0
   11.1722   -0.9722    0.0000 C   0  0  0  0  0  0           0  0  0
   10.7561   -0.2548    0.0000 C   0  0  0  0  0  0           0  0  0
    9.9333   -0.2570    0.0000 C   0  0  0  0  0  0           0  0  0
   11.9972   -0.9721    0.0000 C   0  0  0  0  0  0           0  0  0
   12.4097   -1.6866    0.0000 N   0  0  0  0  0  0           0  0  0
   12.4096   -0.2576    0.0000 O   0  0  0  0  0  0           0  0  0
   13.2347   -1.6865    0.0000 C   0  0  0  0  0  0           0  0  0
   13.6473   -2.4009    0.0000 C   0  0  0  0  0  0           0  0  0
   14.4723   -2.4009    0.0000 C   0  0  0  0  0  0           0  0  0
   14.8848   -3.1153    0.0000 C   0  0  0  0  0  0           0  0  0
   15.7098   -3.1153    0.0000 C   0  0  0  0  0  0           0  0  0
   16.1224   -3.8297    0.0000 C   0  0  0  0  0  0           0  0  0
   16.9474   -3.8296    0.0000 C   0  0  0  0  0  0           0  0  0
   17.3599   -4.5441    0.0000 N   0  0  0  0  0  0           0  0  0
   17.3598   -3.1151    0.0000 O   0  0  0  0  0  0           0  0  0
   18.1849   -4.5440    0.0000 O   0  0  0  0  0  0           0  0  0
 26 27  2  0     0  0
 10 11  1  0     0  0
 26 28  1  0     0  0
 11 12  2  0     0  0
 28 29  1  0     0  0
 12 13  1  0     0  0
 29 30  1  0     0  0
 13 14  1  0     0  0
 30 31  1  0     0  0
 31 32  1  0     0  0
 32 33  1  0     0  0
 13 15  2  0     0  0
  5  8  1  0     0  0
  6  7  1  0     0  0
 16 17  2  0     0  0
 33 34  2  0     0  0
 34 35  1  0     0  0
 35 36  2  0     0  0
 36 32  1  0     0  0
  7 10  2  0     0  0
 35 37  1  0     0  0
 17 18  1  0     0  0
 37 38  1  0     0  0
  9  8  1  0     0  0
 38 39  1  0     0  0
 18 19  2  0     0  0
 39 40  2  0     0  0
  9 10  1  0     0  0
 40 41  1  0     0  0
 19 20  1  0     0  0
 41 42  2  0     0  0
  3  4  2  0     0  0
 42 43  1  0     0  0
 20 21  2  0     0  0
 43 44  2  0     0  0
 44 39  1  0     0  0
 21 16  1  0     0  0
 42 45  1  0     0  0
  4  6  1  0     0  0
 45 46  1  0     0  0
  5  6  2  0     0  0
 45 47  2  0     0  0
  1  2  2  0     0  0
 46 48  1  0     0  0
 22 23  1  0     0  0
 48 49  1  0     0  0
 22 24  2  0     0  0
 49 50  1  0     0  0
 19 22  1  0     0  0
 50 51  1  0     0  0
  7 18  1  0     0  0
 51 52  1  0     0  0
  5  1  1  0     0  0
 52 53  1  0     0  0
 21 25  1  0     0  0
 53 54  1  0     0  0
  2  3  1  0     0  0
 54 55  1  0     0  0
 25 26  1  0     0  0
 54 56  2  0     0  0
  9 14  2  0     0  0
 55 57  1  0     0  0
M  END