
          11280714522D 1   1.00000     0.00000     0

 20 20  0     0  0            999 V2000
    2.5000   -6.6917    0.0000 C   0  0  0  0  0  0           0  0  0
    2.5042   -7.2917    0.0000 O   0  0  0  0  0  0           0  0  0
    4.5792   -3.0792    0.0000 N   0  0  0  0  0  0           0  0  0
    3.0167   -6.3792    0.0000 C   0  0  0  0  0  0           0  0  0
    3.0125   -3.9750    0.0000 O   0  0  0  0  0  0           0  0  0
    3.5292   -3.0667    0.0000 C   0  0  3  0  0  0           0  0  0
    3.0125   -4.5875    0.0000 C   0  0  0  0  0  0           0  0  0
    4.0542   -2.7792    0.0000 C   0  0  0  0  0  0           0  0  0
    3.0125   -5.7792    0.0000 C   0  0  0  0  0  0           0  0  0
    3.5292   -3.6750    0.0000 C   0  0  0  0  0  0           0  0  0
    1.9792   -6.4000    0.0000 O   0  0  0  0  0  0           0  0  0
    3.5292   -4.8875    0.0000 C   0  0  0  0  0  0           0  0  0
    2.4792   -4.8792    0.0000 C   0  0  0  0  0  0           0  0  0
    2.4792   -5.4875    0.0000 C   0  0  0  0  0  0           0  0  0
    3.5292   -5.4750    0.0000 C   0  0  0  0  0  0           0  0  0
    3.0125   -2.7750    0.0000 O   0  0  0  0  0  0           0  0  0
    5.1000   -2.7792    0.0000 C   0  0  3  0  0  0           0  0  0
    1.9667   -5.8000    0.0000 C   0  0  0  0  0  0           0  0  0
    5.6167   -3.0792    0.0000 C   0  0  0  0  0  0           0  0  0
    5.0917   -2.1792    0.0000 C   0  0  0  0  0  0           0  0  0
  2  1  2  0     0  0
  3  8  1  0     0  0
  4  1  1  0     0  0
  5  7  1  0     0  0
  6 10  1  0     0  0
  7 12  1  0     0  0
  8  6  1  0     0  0
  9  4  1  0     0  0
 10  5  1  0     0  0
 11  1  1  0     0  0
 12 15  2  0     0  0
 13 14  1  0     0  0
 14  9  2  0     0  0
 15  9  1  0     0  0
 16  6  1  0     0  0
 17  3  1  0     0  0
 18 11  1  0     0  0
 19 17  1  0     0  0
 20 17  1  0     0  0
  7 13  2  0     0  0
M  END