
          11280715262D 1   1.00000     0.00000     0

 47 51  0     1  0            999 V2000
    6.1542   -2.5792    0.0000 S   0  0  3  0  0  0           0  0  0
    6.9542   -2.8667    0.0000 N   0  0  3  0  0  0           0  0  0
    5.4875   -3.0417    0.0000 N   0  0  3  0  0  0           0  0  0
    7.2167   -3.6792    0.0000 C   0  0  1  0  0  0           0  0  0
    5.4750   -3.7542    0.0000 C   0  0  1  0  0  0           0  0  0
    6.0625   -4.3292    0.0000 C   0  0  1  0  0  0           0  0  0
    6.7500   -4.3292    0.0000 C   0  0  1  0  0  0           0  0  0
    5.4375   -2.1667    0.0000 O   0  0  0  0  0  0           0  0  0
    6.7375   -1.9917    0.0000 O   0  0  0  0  0  0           0  0  0
    8.0375   -3.8042    0.0000 C   0  0  0  0  0  0           0  0  0
    4.7542   -4.1667    0.0000 C   0  0  0  0  0  0           0  0  0
    7.5500   -2.3042    0.0000 C   0  0  0  0  0  0           0  0  0
    4.7625   -2.6542    0.0000 C   0  0  0  0  0  0           0  0  0
    8.3500   -2.5167    0.0000 C   0  0  0  0  0  0           0  0  0
    4.0625   -3.0792    0.0000 C   0  0  0  0  0  0           0  0  0
    8.6167   -4.3792    0.0000 O   0  0  0  0  0  0           0  0  0
    4.3417   -4.8792    0.0000 O   0  0  0  0  0  0           0  0  0
    5.6417   -5.0417    0.0000 O   0  0  0  0  0  0           0  0  0
    7.1292   -5.0667    0.0000 O   0  0  0  0  0  0           0  0  0
    8.9250   -1.9292    0.0000 C   0  0  0  0  0  0           0  0  0
    3.3375   -2.6917    0.0000 C   0  0  0  0  0  0           0  0  0
    4.3375   -5.7042    0.0000 C   0  0  0  0  0  0           0  0  0
    8.6125   -5.2042    0.0000 C   0  0  0  0  0  0           0  0  0
    9.7125   -2.1417    0.0000 C   0  0  0  0  0  0           0  0  0
    2.6375   -3.1167    0.0000 C   0  0  0  0  0  0           0  0  0
    0.4875   -2.7542    0.0000 O   0  0  0  0  0  0           0  0  0
   11.6750   -1.1792    0.0000 O   0  0  0  0  0  0           0  0  0
    9.3500   -3.5167    0.0000 C   0  0  0  0  0  0           0  0  0
    3.3875   -4.3292    0.0000 C   0  0  0  0  0  0           0  0  0
    8.5542   -3.3042    0.0000 C   0  0  0  0  0  0           0  0  0
    4.0875   -3.9042    0.0000 C   0  0  0  0  0  0           0  0  0
    9.9375   -2.9292    0.0000 C   0  0  0  0  0  0           0  0  0
    2.6625   -3.9417    0.0000 C   0  0  0  0  0  0           0  0  0
    1.9125   -2.7167    0.0000 C   0  0  0  0  0  0           0  0  0
   10.3000   -1.5542    0.0000 C   0  0  0  0  0  0           0  0  0
    1.2125   -3.1542    0.0000 C   0  0  0  0  0  0           0  0  0
   11.0917   -1.7667    0.0000 C   0  0  0  0  0  0           0  0  0
    3.6167   -6.1042    0.0000 C   0  0  0  0  0  0           0  0  0
    5.0500   -6.1042    0.0000 C   0  0  0  0  0  0           0  0  0
    7.8917   -5.6167    0.0000 C   0  0  0  0  0  0           0  0  0
    9.3250   -5.6167    0.0000 C   0  0  0  0  0  0           0  0  0
    5.0500   -6.9292    0.0000 C   0  0  0  0  0  0           0  0  0
    7.8875   -6.4417    0.0000 C   0  0  0  0  0  0           0  0  0
    9.3250   -6.4417    0.0000 C   0  0  0  0  0  0           0  0  0
    3.6125   -6.9292    0.0000 C   0  0  0  0  0  0           0  0  0
    4.3250   -7.3417    0.0000 C   0  0  0  0  0  0           0  0  0
    8.6000   -6.8542    0.0000 C   0  0  0  0  0  0           0  0  0
  2  1  1  0     0  0
  3  1  1  0     0  0
  4  2  1  0     0  0
  5  3  1  0     0  0
  6  5  1  0     0  0
  7  4  1  0     0  0
  8  1  2  0     0  0
  9  1  2  0     0  0
  4 10  1  6     0  0
  5 11  1  1     0  0
 12  2  1  0     0  0
 13  3  1  0     0  0
 14 12  1  0     0  0
 15 13  1  0     0  0
 16 10  1  0     0  0
 17 11  1  0     0  0
  6 18  1  1     0  0
  7 19  1  6     0  0
 20 14  1  0     0  0
 21 15  2  0     0  0
 22 17  1  0     0  0
 23 16  1  0     0  0
 24 20  2  0     0  0
 25 21  1  0     0  0
 26 36  1  0     0  0
 27 37  1  0     0  0
 28 30  1  0     0  0
 29 31  2  0     0  0
 30 14  2  0     0  0
 31 15  1  0     0  0
 32 28  2  0     0  0
 33 29  1  0     0  0
 34 25  1  0     0  0
 35 24  1  0     0  0
 36 34  1  0     0  0
 37 35  1  0     0  0
 38 22  2  0     0  0
 39 22  1  0     0  0
 40 23  2  0     0  0
 41 23  1  0     0  0
 42 39  2  0     0  0
 43 40  1  0     0  0
 44 41  2  0     0  0
 45 38  1  0     0  0
 46 42  1  0     0  0
 47 44  1  0     0  0
  7  6  1  0     0  0
 33 25  2  0     0  0
 32 24  1  0     0  0
 46 45  2  0     0  0
 47 43  2  0     0  0
M  END