
  SciTegic02271514372D

 63 65  0  0  0  0            999 V2000
    5.1751   -7.1511    0.0000 C   0  0  1  0  0  0
    5.1528   -6.3330    0.0000 C   0  0
    5.8494   -5.9034    0.0000 C   0  0
    5.8271   -5.0854    0.0000 C   0  0
   14.4189   -8.3854    0.0000 O   0  0
   15.8372   -5.1054    0.0000 C   0  0
   14.4175   -5.9228    0.0000 C   0  0
   12.2837   -7.1520    0.0000 C   0  0
   14.4189   -7.5645    0.0000 C   0  0
    5.8864   -8.3854    0.0000 O   0  0
   11.5720   -7.5645    0.0000 C   0  0  2  0  0  0
    8.7333   -7.5645    0.0000 N   0  0
    3.7561   -7.1532    0.0000 C   0  0
    8.0216   -7.1520    0.0000 C   0  0
    7.3057   -8.3854    0.0000 C   0  0
   10.8588   -6.3311    0.0000 C   0  0
   10.8602   -7.1520    0.0000 N   0  0
   14.4149   -5.1072    0.0000 C   0  0
   13.7071   -7.1520    0.0000 C   0  0  1  0  0  0
    8.0202   -9.6146    0.0000 C   0  0
   12.2823   -9.6146    0.0000 C   0  0
   10.1526   -8.3854    0.0000 O   0  0
    3.0464   -7.5669    0.0000 O   0  0
   15.1264   -7.1520    0.0000 O   0  0
   11.5720   -8.3854    0.0000 C   0  0
    9.4409   -6.3311    0.0000 C   0  0
    8.7305   -8.3854    0.0000 C   0  0
   15.8367   -5.9271    0.0000 C   0  0
   12.9926   -8.3854    0.0000 C   0  0
   15.1268   -6.3348    0.0000 C   0  0
    7.3057   -7.5645    0.0000 C   0  0  1  0  0  0
   10.1513   -5.1019    0.0000 C   0  0
    8.0216   -6.3311    0.0000 O   0  0
    2.3354   -7.1556    0.0000 C   0  0
    8.0202   -8.7938    0.0000 C   0  0
    3.7547   -6.3323    0.0000 O   0  0
    5.8864   -7.5645    0.0000 C   0  0
   12.9954   -7.5645    0.0000 N   0  0
    1.6216   -7.5693    0.0000 C   0  0
   11.5706   -5.1019    0.0000 C   0  0
   15.1218   -4.6930    0.0000 C   0  0
    9.4409   -7.1520    0.0000 C   0  0  1  0  0  0
   12.2837   -6.3311    0.0000 O   0  0
   10.1526   -7.5645    0.0000 C   0  0
   10.1513   -5.9228    0.0000 C   0  0
    1.6174   -6.7436    0.0000 C   0  0
    6.5940   -7.1520    0.0000 N   0  0
   13.7071   -6.3311    0.0000 C   0  0
    2.3340   -6.3347    0.0000 C   0  0
   11.5706   -5.9228    0.0000 C   0  0
    4.4671   -7.5645    0.0000 N   0  0
   12.2823   -8.7938    0.0000 C   0  0
   10.8588   -4.6894    0.0000 C   0  0
    6.5234   -4.6576    0.0000 C   0  0
    6.5011   -3.8407    0.0000 N   0  0
    7.1974   -3.4130    0.0000 C   0  0
    7.1752   -2.5961    0.0000 O   0  0
    7.9160   -3.8022    0.0000 C   0  0
    7.9355   -4.6192    0.0000 C   0  0
    8.6533   -5.0083    0.0000 C   0  0
    9.3506   -4.5805    0.0000 C   0  0
    9.3256   -3.7595    0.0000 C   0  0
    8.6073   -3.3741    0.0000 C   0  0
  1  2  1  0
  2  3  1  0
  3  4  1  0
  9 24  1  0
  6 41  1  0
 52 21  1  0
 35 20  1  0
 32 45  2  0
 48  7  1  0
 44 17  1  0
 37 10  2  0
 50 40  1  0
 31 14  1  0
 34 49  1  0
 37 47  1  0
 34 39  1  0
 35 27  1  0
 11  8  1  0
 28  6  2  0
 17 11  1  0
 34 46  1  0
 52 29  1  0
 11 25  1  1
 13 23  1  0
 12 42  1  0
 38 19  1  0
 23 34  1  0
 15 35  1  0
 16 50  2  0
 18  7  1  0
 19  9  1  0
 19 48  1  1
 31 15  1  1
 30 28  1  0
  8 38  1  0
 14 12  1  0
 45 16  1  0
  8 43  2  0
 41 18  2  0
  7 30  2  0
 42 26  1  1
 40 53  2  0
 26 45  1  0
 14 33  2  0
 13 36  2  0
 25 52  1  0
 42 44  1  0
 51  1  1  0
  1 37  1  1
 47 31  1  0
 44 22  2  0
 53 32  1  0
 51 13  1  0
  9  5  2  0
  4 54  1  0
 54 55  1  0
 55 56  1  0
 56 57  2  0
 56 58  1  0
 58 59  2  0
 59 60  1  0
 60 61  2  0
 61 62  1  0
 62 63  2  0
 63 58  1  0
M  END