
          11280715512D 1   1.00000     0.00000     0

 40 44  0     0  0            999 V2000
    3.4986  -14.5416    0.0000 C   0  0  0  0  0  0           0  0  0
    3.4974  -15.3690    0.0000 C   0  0  0  0  0  0           0  0  0
    4.2122  -15.7819    0.0000 C   0  0  0  0  0  0           0  0  0
    4.2104  -14.1289    0.0000 C   0  0  0  0  0  0           0  0  0
    4.9306  -15.3661    0.0000 C   0  0  0  0  0  0           0  0  0
    4.9258  -14.5380    0.0000 C   0  0  0  0  0  0           0  0  0
    5.5729  -14.0121    0.0000 N   0  0  3  0  0  0           0  0  0
    5.5869  -15.8806    0.0000 C   0  0  0  0  0  0           0  0  0
    6.3851  -14.1864    0.0000 C   0  0  0  0  0  0           0  0  0
    6.3975  -15.6875    0.0000 N   0  0  0  0  0  0           0  0  0
    6.7499  -14.9328    0.0000 N   0  0  3  0  0  0           0  0  0
    6.8934  -13.5365    0.0000 O   0  0  0  0  0  0           0  0  0
    5.4104  -16.6865    0.0000 C   0  0  0  0  0  0           0  0  0
    4.6265  -16.9344    0.0000 C   0  0  0  0  0  0           0  0  0
    4.4487  -17.7410    0.0000 C   0  0  0  0  0  0           0  0  0
    5.0549  -18.2952    0.0000 C   0  0  0  0  0  0           0  0  0
    5.8425  -18.0483    0.0000 C   0  0  0  0  0  0           0  0  0
    6.0203  -17.2417    0.0000 N   0  0  0  0  0  0           0  0  0
    7.5748  -14.9254    0.0000 C   0  0  0  0  0  0           0  0  0
    7.9937  -15.6362    0.0000 C   0  0  0  0  0  0           0  0  0
    8.8187  -15.6288    0.0000 N   0  0  0  0  0  0           0  0  0
    7.5876  -16.3543    0.0000 O   0  0  0  0  0  0           0  0  0
    5.3804  -13.2099    0.0000 C   0  0  0  0  0  0           0  0  0
    5.9789  -12.6420    0.0000 C   0  0  0  0  0  0           0  0  0
    6.7699  -12.8764    0.0000 O   0  0  0  0  0  0           0  0  0
    9.2375  -16.3396    0.0000 C   0  0  0  0  0  0           0  0  0
    8.8295  -17.0555    0.0000 C   0  0  0  0  0  0           0  0  0
    9.2476  -17.7657    0.0000 C   0  0  0  0  0  0           0  0  0
   10.0735  -17.7588    0.0000 C   0  0  0  0  0  0           0  0  0
   10.4794  -17.0357    0.0000 C   0  0  0  0  0  0           0  0  0
   10.0589  -16.3284    0.0000 C   0  0  0  0  0  0           0  0  0
   11.3043  -17.0254    0.0000 N   0  0  0  0  0  0           0  0  0
   11.7079  -16.3058    0.0000 C   0  0  0  0  0  0           0  0  0
    5.7864  -11.8398    0.0000 C   0  0  0  0  0  0           0  0  0
    6.3851  -11.2740    0.0000 C   0  0  0  0  0  0           0  0  0
    6.1931  -10.4724    0.0000 C   0  0  0  0  0  0           0  0  0
    5.4014  -10.2374    0.0000 C   0  0  0  0  0  0           0  0  0
    4.8016  -10.8101    0.0000 C   0  0  0  0  0  0           0  0  0
    4.9967  -11.6095    0.0000 C   0  0  0  0  0  0           0  0  0
    7.1758  -11.5093    0.0000 C   0  0  0  0  0  0           0  0  0
 11 19  1  0     0  0
  4  1  1  0     0  0
 19 20  1  0     0  0
  8 10  2  0     0  0
 20 21  1  0     0  0
 20 22  2  0     0  0
  9 11  1  0     0  0
  7 23  1  0     0  0
 10 11  1  0     0  0
 23 24  1  0     0  0
  2  3  1  0     0  0
 24 25  2  0     0  0
  9 12  2  0     0  0
 21 26  1  0     0  0
  5  6  1  0     0  0
 26 27  2  0     0  0
  8 13  1  0     0  0
 27 28  1  0     0  0
  3  5  2  0     0  0
 28 29  2  0     0  0
  6  7  1  0     0  0
 29 30  1  0     0  0
  1  2  2  0     0  0
 30 31  2  0     0  0
 31 26  1  0     0  0
  5  8  1  0     0  0
 30 32  1  0     0  0
  6  4  2  0     0  0
 32 33  1  0     0  0
 14 13  2  0     0  0
 24 34  1  0     0  0
 14 15  1  0     0  0
 34 35  2  0     0  0
 15 16  2  0     0  0
 35 36  1  0     0  0
 16 17  1  0     0  0
 36 37  2  0     0  0
 17 18  2  0     0  0
 37 38  1  0     0  0
 18 13  1  0     0  0
 38 39  2  0     0  0
 39 34  1  0     0  0
  7  9  1  0     0  0
 35 40  1  0     0  0
M  END