
  SciTegic06051313522D

 18 20  0  0  0  0            999 V2000
   25.5927   -8.2943    0.0000 C   0  0
   26.3023   -7.8848    0.0000 C   0  0
   26.2995   -7.0622    0.0000 C   0  0
   25.5909   -6.6569    0.0000 C   0  0
   27.0057   -6.6509    0.0000 N   0  0
   27.7149   -7.0568    0.0000 C   0  0
   24.8846   -7.8853    0.0000 C   0  0
   24.8859   -7.0642    0.0000 C   0  0
   24.1053   -6.8093    0.0000 N   0  0
   23.6217   -7.4729    0.0000 O   0  0
   24.1034   -8.1378    0.0000 N   0  0
   27.7147   -7.8717    0.0000 C   0  0
   28.4231   -8.2776    0.0000 C   0  0
   29.1302   -7.8662    0.0000 C   0  0
   29.1245   -7.0448    0.0000 C   0  0
   28.4155   -6.6427    0.0000 C   0  0
   29.8292   -6.6311    0.0000 F   0  0
   28.4257   -9.0947    0.0000 Cl  0  0
  7  1  1  0
  1  2  2  0
  2  3  1  0
  3  4  2  0
  4  8  1  0
  3  5  1  0
  5  6  1  0
  7  8  1  0
  8  9  2  0
  9 10  1  0
 10 11  1  0
 11  7  2  0
  6 12  2  0
 12 13  1  0
 13 14  2  0
 14 15  1  0
 15 16  2  0
 16  6  1  0
 15 17  1  0
 13 18  1  0
M  END