
  SciTegic11261311332D

 27 29  0  0  0  0            999 V2000
   -2.2900   -3.3066    0.0000 P   0  0
   -2.2038   -4.1271    0.0000 O   0  0
   -1.4695   -3.2204    0.0000 O   0  0
   -3.1105   -3.3928    0.0000 O   0  0
   -1.7088   -2.0012    0.0000 P   0  0
   -1.2239   -2.6686    0.0000 O   0  0
   -2.1937   -1.3338    0.0000 O   0  0
   -2.3762   -2.4861    0.0000 O   0  0
   -1.0414   -1.5163    0.0000 O   0  0
   -1.1276   -0.6958    0.0000 C   0  0
   -0.4602   -0.2109    0.0000 C   0  0  1  0  0  0
   -0.4602    0.6141    0.0000 O   0  0
    0.3245   -0.4658    0.0000 C   0  0  1  0  0  0
    0.5794   -1.2504    0.0000 O   0  0
    0.8094    0.2016    0.0000 C   0  0  1  0  0  0
    1.6344    0.2016    0.0000 O   0  0
    0.3245    0.8691    0.0000 C   0  0  2  0  0  0
    0.5794    1.6537    0.0000 N   0  0
    0.0945    2.3211    0.0000 C   0  0
    0.5794    2.9886    0.0000 N   0  0
    1.3640    2.7336    0.0000 C   0  0
    2.0785    3.1461    0.0000 C   0  0
    2.0785    3.9711    0.0000 N   0  0
    2.7930    2.7336    0.0000 N   0  0
    2.7930    1.9086    0.0000 C   0  0
    2.0785    1.4961    0.0000 N   0  0
    1.3640    1.9086    0.0000 C   0  0
  2  1  2  0
  3  1  1  0
  4  1  1  0
  8  1  1  0
  6  5  2  0
  5  7  1  0
  5  8  1  0
  5  9  1  0
 10  9  1  0
 11 10  1  1
 11 12  1  0
 13 11  1  0
 17 12  1  0
 13 14  1  6
 15 13  1  0
 15 16  1  6
 17 15  1  0
 17 18  1  1
 19 18  1  0
 27 18  1  0
 19 20  2  0
 21 20  1  0
 21 22  1  0
 27 21  2  0
 22 23  1  0
 22 24  2  0
 25 24  1  0
 25 26  2  0
 27 26  1  0
M  END