
          11280715362D 1   1.00000     0.00000     0

 51 55  0     1  0            999 V2000
    7.2875   -4.9625    0.0000 N   0  0  0  0  0  0           0  0  0
    6.5167   -4.6625    0.0000 C   0  0  0  0  0  0           0  0  0
    6.0125   -3.3250    0.0000 C   0  0  0  0  0  0           0  0  0
    8.0917   -6.3625    0.0000 C   0  0  0  0  0  0           0  0  0
    4.9792   -5.1292    0.0000 N   0  0  0  0  0  0           0  0  0
    7.9667   -7.1792    0.0000 N   0  0  0  0  0  0           0  0  0
    5.6917   -4.7250    0.0000 C   0  0  1  0  0  0           0  0  0
    7.8500   -5.5667    0.0000 C   0  0  1  0  0  0           0  0  0
    5.1917   -8.0292    0.0000 C   0  0  0  0  0  0           0  0  0
    4.5125   -5.8167    0.0000 C   0  0  0  0  0  0           0  0  0
    6.5750   -2.1125    0.0000 N   0  0  0  0  0  0           0  0  0
    5.9667   -8.3292    0.0000 N   0  0  0  0  0  0           0  0  0
    5.8542   -2.5125    0.0000 C   0  0  0  0  0  0           0  0  0
    4.6292   -7.4292    0.0000 C   0  0  1  0  0  0           0  0  0
    5.4500   -3.9292    0.0000 C   0  0  0  0  0  0           0  0  0
    6.8292   -3.4250    0.0000 C   0  0  0  0  0  0           0  0  0
    7.1792   -2.6750    0.0000 C   0  0  0  0  0  0           0  0  0
    3.2000   -7.4250    0.0000 C   0  0  0  0  0  0           0  0  0
    4.3875   -6.6375    0.0000 C   0  0  0  0  0  0           0  0  0
    3.9125   -7.8417    0.0000 C   0  0  0  0  0  0           0  0  0
    7.5042   -7.8625    0.0000 C   0  0  1  0  0  0           0  0  0
    6.6417   -3.8417    0.0000 O   0  0  0  0  0  0           0  0  0
    8.9167   -6.2917    0.0000 O   0  0  0  0  0  0           0  0  0
    8.5667   -5.1542    0.0000 C   0  0  0  0  0  0           0  0  0
    4.7292   -8.7167    0.0000 O   0  0  0  0  0  0           0  0  0
    3.7417   -5.5167    0.0000 O   0  0  0  0  0  0           0  0  0
    3.2042   -6.6000    0.0000 O   0  0  0  0  0  0           0  0  0
    6.7917   -8.2750    0.0000 C   0  0  0  0  0  0           0  0  0
    2.4875   -7.8375    0.0000 N   0  0  0  0  0  0           0  0  0
    8.0667   -8.4667    0.0000 C   0  0  0  0  0  0           0  0  0
    1.6500   -9.2542    0.0000 N   0  0  3  0  0  0           0  0  0
    9.2792   -5.5667    0.0000 C   0  0  0  0  0  0           0  0  0
    7.8250   -9.2542    0.0000 C   0  0  0  0  0  0           0  0  0
    1.6625   -7.8292    0.0000 C   0  0  0  0  0  0           0  0  0
    7.3042   -4.1000    0.0000 C   0  0  0  0  0  0           0  0  0
    1.2417   -8.5417    0.0000 C   0  0  0  0  0  0           0  0  0
    8.0042   -2.6000    0.0000 C   0  0  0  0  0  0           0  0  0
    1.2292   -9.9667    0.0000 C   0  0  0  0  0  0           0  0  0
    2.4750   -9.2667    0.0000 C   0  0  0  0  0  0           0  0  0
   10.0000   -5.1542    0.0000 C   0  0  0  0  0  0           0  0  0
    9.2792   -6.3917    0.0000 C   0  0  0  0  0  0           0  0  0
    8.3875   -9.8625    0.0000 C   0  0  0  0  0  0           0  0  0
    7.0167   -9.4417    0.0000 C   0  0  0  0  0  0           0  0  0
    8.1292   -4.0292    0.0000 C   0  0  0  0  0  0           0  0  0
    8.4792   -3.2750    0.0000 C   0  0  0  0  0  0           0  0  0
   10.0000   -6.8125    0.0000 C   0  0  0  0  0  0           0  0  0
    8.1417  -10.6542    0.0000 C   0  0  0  0  0  0           0  0  0
    6.7750  -10.2292    0.0000 C   0  0  0  0  0  0           0  0  0
   10.7167   -5.5667    0.0000 C   0  0  0  0  0  0           0  0  0
   10.7167   -6.3917    0.0000 C   0  0  0  0  0  0           0  0  0
    7.3375  -10.8375    0.0000 C   0  0  0  0  0  0           0  0  0
  2  1  1  0     0  0
  3 15  1  0     0  0
  4  8  1  0     0  0
  5  7  1  0     0  0
  6  4  1  0     0  0
  7  2  1  0     0  0
  8  1  1  0     0  0
  9 12  1  0     0  0
 10  5  1  0     0  0
 11 13  1  0     0  0
 12 28  1  0     0  0
 13  3  2  0     0  0
 14 19  1  0     0  0
  7 15  1  1     0  0
 16  3  1  0     0  0
 17 16  2  0     0  0
 18 20  1  0     0  0
 19 10  1  0     0  0
 14 20  1  6     0  0
 21  6  1  0     0  0
 22  2  2  0     0  0
 23  4  2  0     0  0
  8 24  1  6     0  0
 25  9  2  0     0  0
 26 10  2  0     0  0
 27 18  2  0     0  0
 28 21  1  0     0  0
 29 18  1  0     0  0
 21 30  1  6     0  0
 31 36  1  0     0  0
 32 24  1  0     0  0
 33 30  1  0     0  0
 34 29  1  0     0  0
 35 16  1  0     0  0
 36 34  1  0     0  0
 37 17  1  0     0  0
 38 31  1  0     0  0
 39 31  1  0     0  0
 40 32  1  0     0  0
 41 32  2  0     0  0
 42 33  2  0     0  0
 43 33  1  0     0  0
 44 35  2  0     0  0
 45 44  1  0     0  0
 46 41  1  0     0  0
 47 42  1  0     0  0
 48 43  2  0     0  0
 49 40  2  0     0  0
 50 46  2  0     0  0
 51 48  1  0     0  0
 50 49  1  0     0  0
 11 17  1  0     0  0
  9 14  1  0     0  0
 45 37  2  0     0  0
 51 47  2  0     0  0
M  END