
  SciTegic01161211252D

 36 39  0  0  0  0            999 V2000
    6.4665  -18.2838    0.0000 C   0  0
    6.4662  -19.1099    0.0000 N   0  0
    7.1799  -19.5244    0.0000 C   0  0
    7.1847  -17.8723    0.0000 N   0  0
    7.9054  -18.2834    0.0000 C   0  0
    7.8863  -19.1099    0.0000 C   0  0
    8.6774  -19.3834    0.0000 N   0  0
    9.1648  -18.7189    0.0000 C   0  0
    8.6865  -18.0467    0.0000 N   0  0
    7.1835  -20.3501    0.0000 N   0  0
    8.9516  -17.2657    0.0000 C   0  0  2  0  0  0
    9.7665  -17.1009    0.0000 O   0  0
    9.8521  -16.2800    0.0000 C   0  0  1  0  0  0
    9.0998  -15.9338    0.0000 C   0  0  2  0  0  0
    8.5444  -16.5393    0.0000 C   0  0  1  0  0  0
    7.7241  -16.4454    0.0000 O   0  0
    8.9438  -15.1254    0.0000 O   0  0
   10.5689  -15.8676    0.0000 C   0  0
   11.2838  -16.2850    0.0000 O   0  0
   11.9919  -15.8715    0.0000 P   0  0
   12.4086  -16.5956    0.0000 O   0  0
   11.5837  -15.1657    0.0000 O   0  0
   12.7089  -15.4590    0.0000 O   0  0
   13.2290  -16.5956    0.0000 P   0  0
   13.2290  -17.4322    0.0000 O   0  0
   13.2290  -15.7785    0.0000 O   0  0
   14.0578  -16.5956    0.0000 O   0  0
   14.4703  -17.3101    0.0000 C   0  0
   15.2952  -17.3101    0.0000 C   0  0
   15.7800  -17.9735    0.0000 C   0  0  2  0  0  0
   16.5645  -17.7185    0.0000 C   0  0  2  0  0  0
   16.5645  -16.8935    0.0000 C   0  0
   15.7800  -16.6388    0.0000 O   0  0
   15.5261  -18.7583    0.0000 O   0  0
   17.2320  -18.2034    0.0000 O   0  0
   17.2319  -16.4086    0.0000 O   0  0
  8  9  1  0
  9  5  1  0
  3 10  1  0
 11  9  1  1
 11 12  1  0
 12 13  1  0
 13 14  1  0
 14 15  1  0
 15 11  1  0
 15 16  1  6
 14 17  1  6
 13 18  1  1
 18 19  1  0
 19 20  1  0
 20 21  1  0
 20 22  1  0
 20 23  2  0
 21 24  1  0
 24 25  2  0
 24 26  1  0
 24 27  1  0
 27 28  1  0
  1  2  2  0
 28 29  1  0
 29 30  1  0
  1  4  1  0
  2  3  1  0
  3  6  2  0
  5  4  2  0
 30 31  1  0
 31 32  1  0
 32 33  1  0
 33 29  1  0
  5  6  1  0
 30 34  1  6
  6  7  1  0
 31 35  1  6
  7  8  2  0
 32 36  1  0
M  END