
  SciTegic07101214422D

 64 65  0  0  0  0            999 V2000
   -2.3885   -4.9098    0.0000 O   0  0
   -1.8010   -5.4931    0.0000 S   0  0
   -2.5999   -5.7102    0.0000 O   0  0
   -3.9441   -7.5515    0.0000 N   0  0
   -3.9452   -6.7241    0.0000 C   0  0
   -3.2304   -6.3112    0.0000 C   0  0
   -3.2322   -7.9642    0.0000 C   0  0
   -2.5168   -7.5551    0.0000 C   0  0
   -2.5161   -6.7283    0.0000 C   0  0
   -1.8008   -6.3173    0.0000 C   0  0
   -1.0857   -6.7321    0.0000 C   0  0
   -1.0905   -7.5620    0.0000 C   0  0
   -1.8064   -7.9693    0.0000 C   0  0
   -1.0837   -5.0813    0.0000 N   0  0
   -0.3702   -5.4955    0.0000 C   0  0
    0.3452   -5.0847    0.0000 C   0  0
    1.0587   -5.4990    0.0000 N   0  0
    1.7742   -5.0882    0.0000 C   0  0
    2.4876   -5.5024    0.0000 C   0  0
    3.2031   -5.0916    0.0000 N   0  0
    3.9166   -5.5058    0.0000 C   0  0
    1.7761   -4.2632    0.0000 O   0  0
    4.6320   -5.0951    0.0000 C   0  0
    5.3455   -5.5093    0.0000 N   0  0
    4.6340   -4.2701    0.0000 O   0  0
    6.0610   -5.0985    0.0000 C   0  0  2  0  0  0
    6.7744   -5.5127    0.0000 C   0  0
    7.4899   -5.1019    0.0000 N   0  0
    6.7725   -6.3377    0.0000 O   0  0
    6.0630   -4.2735    0.0000 C   0  0
    5.3495   -3.8593    0.0000 C   0  0
    5.3515   -3.0343    0.0000 C   0  0
    4.6380   -2.6201    0.0000 C   0  0
    4.6400   -1.7951    0.0000 N   0  0
    8.2034   -5.5162    0.0000 C   0  0
    8.9188   -5.1054    0.0000 C   0  0
    9.6323   -5.5196    0.0000 C   0  0
   10.3478   -5.1088    0.0000 C   0  0
   11.0613   -5.5230    0.0000 C   0  0
   11.7767   -5.1123    0.0000 C   0  0
   12.4902   -5.5265    0.0000 N   0  0
   11.7787   -4.2873    0.0000 O   0  0
   13.2057   -5.1157    0.0000 C   0  0  1  0  0  0
   13.9191   -5.5299    0.0000 C   0  0
   13.2076   -4.2907    0.0000 C   0  0
   12.4942   -3.8765    0.0000 C   0  0
   12.4961   -3.0515    0.0000 C   0  0
   11.7827   -2.6373    0.0000 N   0  0
   11.7847   -1.8123    0.0000 C   0  0
   11.0712   -1.3981    0.0000 N   0  0
   12.5001   -1.4015    0.0000 N   0  0
   13.9171   -6.3549    0.0000 O   0  0
   14.6346   -5.1191    0.0000 N   0  0
   15.3481   -5.5334    0.0000 C   0  0  1  0  0  0
   16.0635   -5.1226    0.0000 C   0  0
   16.7770   -5.5368    0.0000 N   0  0
   16.0655   -4.2976    0.0000 O   0  0
   15.3461   -6.3584    0.0000 C   0  0
   14.6306   -6.7691    0.0000 C   0  0
   14.6286   -7.5941    0.0000 C   0  0
   13.9132   -8.0049    0.0000 N   0  0
   13.9112   -8.8299    0.0000 C   0  0
   13.1957   -9.2407    0.0000 N   0  0
   14.6247   -9.2441    0.0000 N   0  0
 14 15  1  0
 31 32  1  0
  2  1  2  0
 32 33  1  0
 15 16  1  0
 33 34  1  0
  4  5  2  0
 28 35  1  0
 16 17  1  0
 35 36  1  0
  8  9  1  0
 36 37  1  0
 17 18  1  0
 37 38  1  0
  3  2  2  0
 38 39  1  0
 18 19  1  0
 39 40  1  0
  9 10  1  0
 40 41  1  0
 19 20  1  0
 40 42  2  0
  5  6  1  0
 41 43  1  0
 20 21  1  0
 43 44  1  0
 10 11  2  0
 43 45  1  6
 18 22  2  0
 45 46  1  0
  6  9  2  0
 46 47  1  0
 21 23  1  0
 47 48  1  0
 11 12  1  0
 48 49  1  0
 23 24  1  0
 49 50  1  0
 49 51  2  0
 23 25  2  0
 44 52  2  0
 12 13  2  0
 44 53  1  0
 24 26  1  0
 53 54  1  0
 13  8  1  0
 54 55  1  0
 26 27  1  0
 55 56  1  0
 10  2  1  0
 55 57  2  0
 27 28  1  0
 54 58  1  1
  8  7  2  0
 58 59  1  0
 27 29  2  0
 59 60  1  0
  2 14  1  0
 60 61  1  0
 26 30  1  1
 61 62  1  0
  7  4  1  0
 62 63  1  0
 30 31  1  0
 62 64  2  0
M  END