
          11280715092D 1   1.00000     0.00000     0

 40 43  0     1  0            999 V2000
    4.5667   -1.9500    0.0000 N   0  0  3  0  0  0           0  0  0
    5.2292   -1.4625    0.0000 C   0  0  0  0  0  0           0  0  0
    6.0167   -1.7125    0.0000 C   0  0  0  0  0  0           0  0  0
    6.6250   -1.1542    0.0000 N   0  0  0  0  0  0           0  0  0
    4.5667   -2.7750    0.0000 C   0  0  1  0  0  0           0  0  0
    5.2792   -3.1875    0.0000 C   0  0  0  0  0  0           0  0  0
    7.4125   -1.4042    0.0000 C   0  0  3  0  0  0           0  0  0
    3.8917   -1.4667    0.0000 C   0  0  0  0  0  0           0  0  0
    5.2875   -4.0042    0.0000 N   0  0  0  0  0  0           0  0  0
    4.9750   -0.6750    0.0000 C   0  0  0  0  0  0           0  0  0
    4.1500   -0.6792    0.0000 C   0  0  0  0  0  0           0  0  0
    6.2500   -2.2292    0.0000 O   0  0  0  0  0  0           0  0  0
    7.5875   -2.2125    0.0000 C   0  0  0  0  0  0           0  0  0
    5.9042   -3.0417    0.0000 O   0  0  0  0  0  0           0  0  0
    8.0167   -0.8500    0.0000 C   0  0  0  0  0  0           0  0  0
    6.0000   -4.4167    0.0000 C   0  0  0  0  0  0           0  0  0
    6.0042   -5.2417    0.0000 C   0  0  0  0  0  0           0  0  0
    8.3667   -2.4625    0.0000 C   0  0  0  0  0  0           0  0  0
    6.0042   -6.9000    0.0000 C   0  0  0  0  0  0           0  0  0
    5.2917   -8.1375    0.0000 N   0  0  0  0  0  0           0  0  0
    0.9917   -3.2042    0.0000 N   0  0  0  0  0  0           0  0  0
    5.2917   -5.6542    0.0000 C   0  0  0  0  0  0           0  0  0
    6.7167   -5.6542    0.0000 C   0  0  0  0  0  0           0  0  0
    6.7167   -6.4875    0.0000 C   0  0  0  0  0  0           0  0  0
    5.2917   -6.4875    0.0000 C   0  0  0  0  0  0           0  0  0
    3.8542   -3.1917    0.0000 C   0  0  0  0  0  0           0  0  0
    6.0042   -7.7250    0.0000 C   0  0  0  0  0  0           0  0  0
    8.8042   -1.1042    0.0000 C   0  0  0  0  0  0           0  0  0
    7.8417   -0.0500    0.0000 C   0  0  0  0  0  0           0  0  0
    1.7042   -2.7875    0.0000 C   0  0  0  0  0  0           0  0  0
    8.4125   -3.2792    0.0000 C   0  0  0  0  0  0           0  0  0
    9.0625   -2.0125    0.0000 C   0  0  0  0  0  0           0  0  0
    3.1292   -2.7792    0.0000 C   0  0  0  0  0  0           0  0  0
    2.4250   -3.1917    0.0000 C   0  0  0  0  0  0           0  0  0
    9.4167   -0.5500    0.0000 C   0  0  0  0  0  0           0  0  0
    8.4500    0.5083    0.0000 C   0  0  0  0  0  0           0  0  0
    9.1500   -3.6542    0.0000 C   0  0  0  0  0  0           0  0  0
    9.7917   -2.3792    0.0000 C   0  0  0  0  0  0           0  0  0
    9.2417    0.2583    0.0000 C   0  0  0  0  0  0           0  0  0
    9.8375   -3.2042    0.0000 C   0  0  0  0  0  0           0  0  0
  2  1  1  0     0  0
  3  2  1  0     0  0
  4  3  1  0     0  0
  5  1  1  0     0  0
  6  5  1  0     0  0
  7  4  1  0     0  0
  8  1  1  0     0  0
  9  6  1  0     0  0
 10  2  2  0     0  0
 11  8  2  0     0  0
 12  3  2  0     0  0
 13  7  1  0     0  0
 14  6  2  0     0  0
 15  7  1  0     0  0
 16  9  1  0     0  0
 17 16  1  0     0  0
 18 13  1  0     0  0
 19 24  2  0     0  0
 20 27  1  0     0  0
 21 30  1  0     0  0
 22 17  1  0     0  0
 23 17  2  0     0  0
 24 23  1  0     0  0
 25 22  2  0     0  0
  5 26  1  1     0  0
 27 19  1  0     0  0
 28 15  2  0     0  0
 29 15  1  0     0  0
 30 34  1  0     0  0
 31 18  1  0     0  0
 32 18  2  0     0  0
 33 26  1  0     0  0
 34 33  1  0     0  0
 35 28  1  0     0  0
 36 29  2  0     0  0
 37 31  2  0     0  0
 38 32  1  0     0  0
 39 36  1  0     0  0
 40 38  2  0     0  0
 11 10  1  0     0  0
 19 25  1  0     0  0
 39 35  2  0     0  0
 37 40  1  0     0  0
M  END