
          05080814032D 1   1.00000     0.00000     0

 29 32  0     0  0            999 V2000
    3.4402  -17.3125    0.0000 C   0  0  0  0  0  0           0  0  0
    3.4391  -18.1398    0.0000 C   0  0  0  0  0  0           0  0  0
    4.1539  -18.5527    0.0000 C   0  0  0  0  0  0           0  0  0
    4.1521  -16.8997    0.0000 C   0  0  0  0  0  0           0  0  0
    4.8675  -17.3088    0.0000 C   0  0  0  0  0  0           0  0  0
    4.8677  -18.1353    0.0000 C   0  0  0  0  0  0           0  0  0
    5.6538  -18.3904    0.0000 N   0  0  3  0  0  0           0  0  0
    6.1395  -17.7216    0.0000 C   0  0  0  0  0  0           0  0  0
    5.6534  -17.0533    0.0000 N   0  0  0  0  0  0           0  0  0
    4.1557  -19.3799    0.0000 C   0  0  0  0  0  0           0  0  0
    3.4424  -19.7943    0.0000 O   0  0  0  0  0  0           0  0  0
    4.8713  -19.7905    0.0000 O   0  0  0  0  0  0           0  0  0
    5.9090  -19.1750    0.0000 C   0  0  0  0  0  0           0  0  0
    6.7160  -19.3463    0.0000 C   0  0  0  0  0  0           0  0  0
    6.9693  -20.1321    0.0000 C   0  0  0  0  0  0           0  0  0
    7.7755  -20.3036    0.0000 C   0  0  0  0  0  0           0  0  0
    8.3283  -19.6900    0.0000 C   0  0  0  0  0  0           0  0  0
    8.0693  -18.9022    0.0000 C   0  0  0  0  0  0           0  0  0
    7.2637  -18.7344    0.0000 C   0  0  0  0  0  0           0  0  0
    9.1356  -19.8602    0.0000 N   0  0  3  0  0  0           0  0  0
    9.4732  -20.6102    0.0000 C   0  0  0  0  0  0           0  0  0
   10.2935  -20.5226    0.0000 C   0  0  0  0  0  0           0  0  0
   10.4638  -19.7153    0.0000 C   0  0  0  0  0  0           0  0  0
    9.7486  -19.3041    0.0000 C   0  0  0  0  0  0           0  0  0
    9.6613  -18.4882    0.0000 C   0  0  0  0  0  0           0  0  0
    6.9645  -17.7213    0.0000 C   0  0  0  0  0  0           0  0  0
    7.3767  -17.0067    0.0000 C   0  0  0  0  0  0           0  0  0
   10.3230  -18.0035    0.0000 O   0  0  0  0  0  0           0  0  0
    8.9098  -18.1546    0.0000 O   0  0  0  0  0  0           0  0  0
 13 14  1  0     0  0
  1  2  2  0     0  0
 14 15  2  0     0  0
  5  4  2  0     0  0
 15 16  1  0     0  0
  6  7  1  0     0  0
 16 17  2  0     0  0
  7  8  1  0     0  0
 17 18  1  0     0  0
  8  9  2  0     0  0
 18 19  2  0     0  0
 19 14  1  0     0  0
  9  5  1  0     0  0
 17 20  1  0     0  0
 20 21  1  0     0  0
  4  1  1  0     0  0
  5  6  1  0     0  0
 10 11  1  0     0  0
 21 22  2  0     0  0
 22 23  1  0     0  0
 23 24  2  0     0  0
 24 20  1  0     0  0
 10 12  2  0     0  0
 24 25  1  0     0  0
  3 10  1  0     0  0
  8 26  1  0     0  0
  2  3  1  0     0  0
 26 27  1  0     0  0
  7 13  1  0     0  0
  3  6  2  0     0  0
 25 28  1  0     0  0
 25 29  2  0     0  0
M  END