
  CDK    9/16/09,9:56

 67 69  0  0  0  0  0  0  0  0999 V2000
   19.3921   -4.2208    0.0000 N   0  0  0  0  0  0  0  0  0  0  0  0
   18.6776   -4.6333    0.0000 C   0  0  0  0  0  0  0  0  0  0  0  0
   17.2447   -4.6333    0.0000 N   0  0  0  0  0  0  0  0  0  0  0  0
   17.9592   -4.2208    0.0000 C   0  0  0  0  0  0  0  0  0  0  0  0
   17.9592   -3.3958    0.0000 C   0  0  0  0  0  0  0  0  0  0  0  0
   18.6737   -2.9833    0.0000 C   0  0  0  0  0  0  0  0  0  0  0  0
   18.6737   -2.1583    0.0000 C   0  0  0  0  0  0  0  0  0  0  0  0
   19.3881   -1.7458    0.0000 N   0  0  0  0  0  0  0  0  0  0  0  0
   19.3881   -0.9208    0.0000 C   0  0  0  0  0  0  0  0  0  0  0  0
   20.1026   -0.5083    0.0000 N   0  0  0  0  0  0  0  0  0  0  0  0
   18.6736   -0.5083    0.0000 N   0  0  0  0  0  0  0  0  0  0  0  0
   18.6737   -5.4583    0.0000 O   0  0  0  0  0  0  0  0  0  0  0  0
   16.5298   -4.2250    0.0000 C   0  0  0  0  0  0  0  0  0  0  0  0
   16.5298   -3.4000    0.0000 O   0  0  0  0  0  0  0  0  0  0  0  0
    2.9887   -4.6332    0.0000 O   0  0  0  0  0  0  0  0  0  0  0  0
    2.9852   -5.4556    0.0000 C   0  0  0  0  0  0  0  0  0  0  0  0
    2.2500   -5.8300    0.0000 C   0  0  0  0  0  0  0  0  0  0  0  0
    1.5168   -5.4535    0.0000 C   0  0  0  0  0  0  0  0  0  0  0  0
    1.3875   -4.6371    0.0000 O   0  0  0  0  0  0  0  0  0  0  0  0
    0.9319   -6.0371    0.0000 C   0  0  0  0  0  0  0  0  0  0  0  0
    0.1159   -5.9046    0.0000 O   0  0  0  0  0  0  0  0  0  0  0  0
    1.3063   -6.7724    0.0000 C   0  0  0  0  0  0  0  0  0  0  0  0
    2.1175   -6.6460    0.0000 O   0  0  0  0  0  0  0  0  0  0  0  0
    0.9298   -7.5056    0.0000 N   0  0  0  0  0  0  0  0  0  0  0  0
    0.1134   -7.6348    0.0000 C   0  0  0  0  0  0  0  0  0  0  0  0
   -0.0190   -8.4508    0.0000 N   0  0  0  0  0  0  0  0  0  0  0  0
    0.7193   -8.8244    0.0000 C   0  0  0  0  0  0  0  0  0  0  0  0
    0.9310   -9.6231    0.0000 C   0  0  0  0  0  0  0  0  0  0  0  0
    0.3461  -10.2067    0.0000 N   0  0  0  0  0  0  0  0  0  0  0  0
    1.7274   -9.8381    0.0000 N   0  0  0  0  0  0  0  0  0  0  0  0
    2.3123   -9.2545    0.0000 C   0  0  0  0  0  0  0  0  0  0  0  0
    2.0995   -8.4599    0.0000 N   0  0  0  0  0  0  0  0  0  0  0  0
    1.3031   -8.2449    0.0000 C   0  0  0  0  0  0  0  0  0  0  0  0
    3.6877   -5.8883    0.0000 N   0  0  0  0  0  0  0  0  0  0  0  0
    7.2417   -4.6375    0.0000 C   0  0  0  0  0  0  0  0  0  0  0  0
    7.9561   -4.2250    0.0000 N   0  0  0  0  0  0  0  0  0  0  0  0
    6.5230   -4.2250    0.0000 C   0  0  0  0  0  0  0  0  0  0  0  0
    7.2417   -5.4667    0.0000 O   0  0  0  0  0  0  0  0  0  0  0  0
    5.8044   -4.6375    0.0000 C   0  0  0  0  0  0  0  0  0  0  0  0
    5.0858   -4.2250    0.0000 C   0  0  0  0  0  0  0  0  0  0  0  0
    4.3700   -4.6308    0.0000 C   0  0  0  0  0  0  0  0  0  0  0  0
    4.3910   -5.4591    0.0000 C   0  0  0  0  0  0  0  0  0  0  0  0
    8.6706   -4.6375    0.0000 C   0  0  0  0  0  0  0  0  0  0  0  0
    9.3851   -4.2250    0.0000 C   0  0  0  0  0  0  0  0  0  0  0  0
   10.0996   -4.6375    0.0000 N   0  0  0  0  0  0  0  0  0  0  0  0
   10.8140   -4.2250    0.0000 C   0  0  0  0  0  0  0  0  0  0  0  0
   11.5285   -4.6375    0.0000 C   0  0  0  0  0  0  0  0  0  0  0  0
   12.2430   -4.2250    0.0000 C   0  0  0  0  0  0  0  0  0  0  0  0
   12.9574   -4.6375    0.0000 C   0  0  0  0  0  0  0  0  0  0  0  0
    8.6706   -5.4625    0.0000 C   0  0  0  0  0  0  0  0  0  0  0  0
    9.3851   -5.8750    0.0000 C   0  0  0  0  0  0  0  0  0  0  0  0
    9.3851   -6.7000    0.0000 C   0  0  0  0  0  0  0  0  0  0  0  0
   10.0996   -7.1125    0.0000 C   0  0  0  0  0  0  0  0  0  0  0  0
   10.0996   -7.9375    0.0000 N   0  0  0  0  0  0  0  0  0  0  0  0
    9.3851   -3.4000    0.0000 O   0  0  0  0  0  0  0  0  0  0  0  0
   13.6719   -4.2250    0.0000 C   0  0  0  0  0  0  0  0  0  0  0  0
   14.3864   -4.6375    0.0000 C   0  0  0  0  0  0  0  0  0  0  0  0
   14.3864   -5.4625    0.0000 O   0  0  0  0  0  0  0  0  0  0  0  0
   15.1008   -4.2250    0.0000 N   0  0  0  0  0  0  0  0  0  0  0  0
   15.8153   -4.6375    0.0000 C   0  0  0  0  0  0  0  0  0  0  0  0
   15.8153   -5.4625    0.0000 C   0  0  0  0  0  0  0  0  0  0  0  0
   16.5298   -5.8750    0.0000 C   0  0  0  0  0  0  0  0  0  0  0  0
   16.5298   -6.7000    0.0000 C   0  0  0  0  0  0  0  0  0  0  0  0
   17.2443   -7.1125    0.0000 N   0  0  0  0  0  0  0  0  0  0  0  0
   17.2443   -7.9375    0.0000 C   0  0  0  0  0  0  0  0  0  0  0  0
   16.5298   -8.3500    0.0000 N   0  0  0  0  0  0  0  0  0  0  0  0
   17.9587   -8.3500    0.0000 N   0  0  0  0  0  0  0  0  0  0  0  0
 24 33  1  0  0  0  0 
  9 10  2  0  0  0  0 
 16 34  1  0  0  0  0 
  2  1  1  0  0  0  0 
  9 11  1  0  0  0  0 
 35 36  1  0  0  0  0 
  5  6  1  0  0  0  0 
 35 37  1  0  0  0  0 
  2 12  2  0  0  0  0 
 35 38  2  0  0  0  0 
  3  4  1  0  0  0  0 
 37 39  1  0  0  0  0 
 13  3  1  0  0  0  0 
 39 40  1  0  0  0  0 
  6  7  1  0  0  0  0 
 40 41  1  0  0  0  0 
 13 14  2  0  0  0  0 
 41 42  1  0  0  0  0 
 42 34  1  0  0  0  0 
  4  2  1  0  0  0  0 
 36 43  1  0  0  0  0 
  7  8  1  0  0  0  0 
 43 44  1  0  0  0  0 
 44 45  1  0  0  0  0 
  8  9  1  0  0  0  0 
 45 46  1  0  0  0  0 
  4  5  1  1  0  0  0 
 46 47  1  0  0  0  0 
 15 16  2  0  0  0  0 
 47 48  1  0  0  0  0 
 17 16  1  1  0  0  0 
 48 49  1  0  0  0  0 
 17 18  1  0  0  0  0 
 43 50  1  1  0  0  0 
 18 19  1  6  0  0  0 
 50 51  1  0  0  0  0 
 18 20  1  0  0  0  0 
 51 52  1  0  0  0  0 
 20 21  1  6  0  0  0 
 52 53  1  0  0  0  0 
 20 22  1  0  0  0  0 
 53 54  1  0  0  0  0 
 22 23  1  0  0  0  0 
 44 55  2  0  0  0  0 
 17 23  1  0  0  0  0 
 49 56  1  0  0  0  0 
 22 24  1  1  0  0  0 
 56 57  1  0  0  0  0 
 24 25  1  0  0  0  0 
 57 58  2  0  0  0  0 
 25 26  2  0  0  0  0 
 57 59  1  0  0  0  0 
 26 27  1  0  0  0  0 
 59 60  1  0  0  0  0 
 60 13  1  0  0  0  0 
 27 28  1  0  0  0  0 
 60 61  1  6  0  0  0 
 28 29  1  0  0  0  0 
 61 62  1  0  0  0  0 
 28 30  2  0  0  0  0 
 62 63  1  0  0  0  0 
 30 31  1  0  0  0  0 
 63 64  1  0  0  0  0 
 31 32  2  0  0  0  0 
 64 65  1  0  0  0  0 
 32 33  1  0  0  0  0 
 65 66  1  0  0  0  0 
 27 33  2  0  0  0  0 
 65 67  2  0  0  0  0 
M  END