
          11280714442D 1   1.00000     0.00000     0

 17 17  0     0  0            999 V2000
    5.0542   -2.6542    0.0000 C   0  0  0  0  0  0           0  0  0
    5.7875   -3.0375    0.0000 O   0  0  0  0  0  0           0  0  0
    5.0167   -1.8292    0.0000 O   0  0  0  0  0  0           0  0  0
    4.3625   -3.1000    0.0000 C   0  0  0  0  0  0           0  0  0
    8.6417   -2.9042    0.0000 N   0  0  0  0  0  0           0  0  0
    7.2167   -2.9667    0.0000 C   0  0  3  0  0  0           0  0  0
    6.4792   -2.5917    0.0000 C   0  0  0  0  0  0           0  0  0
    7.9125   -2.5250    0.0000 C   0  0  0  0  0  0           0  0  0
    7.2542   -3.7917    0.0000 O   0  0  0  0  0  0           0  0  0
    9.3375   -2.4625    0.0000 C   0  0  3  0  0  0           0  0  0
    3.6292   -2.7167    0.0000 C   0  0  0  0  0  0           0  0  0
    4.4042   -3.9167    0.0000 C   0  0  0  0  0  0           0  0  0
   10.0667   -2.8417    0.0000 C   0  0  0  0  0  0           0  0  0
    9.3042   -1.6375    0.0000 C   0  0  0  0  0  0           0  0  0
    3.7125   -4.3667    0.0000 C   0  0  0  0  0  0           0  0  0
    2.9375   -3.1667    0.0000 C   0  0  0  0  0  0           0  0  0
    2.9750   -3.9875    0.0000 C   0  0  0  0  0  0           0  0  0
  2  1  1  0     0  0
  3  1  2  0     0  0
  4  1  1  0     0  0
  5  8  1  0     0  0
  6  7  1  0     0  0
  7  2  1  0     0  0
  8  6  1  0     0  0
  9  6  1  0     0  0
 10  5  1  0     0  0
 11  4  2  0     0  0
 12  4  1  0     0  0
 13 10  1  0     0  0
 14 10  1  0     0  0
 15 12  2  0     0  0
 16 11  1  0     0  0
 17 15  1  0     0  0
 17 16  2  0     0  0
M  END