
  SciTegic10311316262D

 30 32  0  0  0  0            999 V2000
   13.5472   -8.2832    0.0000 C   0  0
   13.5460   -9.1106    0.0000 C   0  0
   14.2608   -9.5234    0.0000 C   0  0
   14.9773   -9.1101    0.0000 C   0  0
   14.9744   -8.2796    0.0000 C   0  0
   14.2590   -7.8704    0.0000 C   0  0
   15.6873   -7.8644    0.0000 N   0  0
   16.4033   -8.2742    0.0000 C   0  0
   17.1162   -7.8590    0.0000 C   0  0
   16.4064   -9.0992    0.0000 O   0  0
   17.8323   -8.2688    0.0000 S   0  0
   18.5452   -7.8536    0.0000 C   0  0
   19.2611   -8.2666    0.0000 N   0  0
   19.9719   -7.8549    0.0000 C   0  0
   19.9730   -7.0295    0.0000 C   0  0
   19.2571   -6.6175    0.0000 C   0  0
   18.5401   -7.0309    0.0000 N   0  0
   19.2568   -5.7925    0.0000 O   0  0
   20.6882   -6.6213    0.0000 C   0  0
   21.4027   -6.2088    0.0000 N   0  0
   20.6847   -8.2665    0.0000 C   0  0
   20.6833   -9.0926    0.0000 C   0  0
   21.3969   -9.5051    0.0000 C   0  0
   22.1124   -9.0925    0.0000 C   0  0
   22.1097   -8.2633    0.0000 C   0  0
   21.3955   -7.8546    0.0000 C   0  0
   22.8274   -9.5041    0.0000 Cl  0  0
   12.8312   -9.5225    0.0000 C   0  0
   12.1171   -9.1094    0.0000 C   0  0
   12.8306  -10.3475    0.0000 C   0  0
  1  2  2  0
  2  3  1  0
  3  4  2  0
  4  5  1  0
  5  6  2  0
  6  1  1  0
  5  7  1  0
  7  8  1  0
  8  9  1  0
  8 10  2  0
  9 11  1  0
 11 12  1  0
 12 13  2  0
 12 17  1  0
 13 14  1  0
 14 15  2  0
 15 16  1  0
 16 17  1  0
 16 18  2  0
 19 20  3  0
 15 19  1  0
 21 22  2  0
 22 23  1  0
 23 24  2  0
 24 25  1  0
 25 26  2  0
 26 21  1  0
 14 21  1  0
 24 27  1  0
  2 28  1  0
 28 29  1  0
 28 30  1  0
M  END