
          11280715322D 1   1.00000     0.00000     0

 39 41  0     0  0            999 V2000
    3.7625   -6.1167    0.0000 C   0  0  0  0  0  0           0  0  0
    4.5000   -6.4875    0.0000 N   0  0  0  0  0  0           0  0  0
    5.2042   -6.0542    0.0000 C   0  0  0  0  0  0           0  0  0
    3.5625   -2.8375    0.0000 C   0  0  0  0  0  0           0  0  0
    5.9292   -6.4500    0.0000 C   0  0  0  0  0  0           0  0  0
    3.7125   -5.3000    0.0000 C   0  0  0  0  0  0           0  0  0
    3.6125   -3.6542    0.0000 C   0  0  0  0  0  0           0  0  0
    7.8292   -2.5500    0.0000 C   0  0  0  0  0  0           0  0  0
    3.0750   -6.5792    0.0000 O   0  0  0  0  0  0           0  0  0
    2.8292   -2.4667    0.0000 C   0  0  0  0  0  0           0  0  0
    5.9542   -7.2750    0.0000 O   0  0  0  0  0  0           0  0  0
    4.2500   -2.3750    0.0000 C   0  0  0  0  0  0           0  0  0
    2.0375   -1.2792    0.0000 N   0  0  0  0  0  0           0  0  0
    5.1792   -5.2292    0.0000 C   0  0  0  0  0  0           0  0  0
    8.5167   -2.0875    0.0000 O   0  0  0  0  0  0           0  0  0
    2.9750   -4.9375    0.0000 C   0  0  0  0  0  0           0  0  0
    4.4000   -4.8417    0.0000 C   0  0  0  0  0  0           0  0  0
    4.3500   -4.0250    0.0000 C   0  0  0  0  0  0           0  0  0
    2.9250   -4.1125    0.0000 C   0  0  0  0  0  0           0  0  0
    6.6292   -6.0167    0.0000 N   0  0  0  0  0  0           0  0  0
    7.8792   -3.3667    0.0000 O   0  0  0  0  0  0           0  0  0
    2.7750   -1.6417    0.0000 C   0  0  0  0  0  0           0  0  0
    7.0917   -2.1792    0.0000 C   0  0  0  0  0  0           0  0  0
    1.3500   -1.7375    0.0000 C   0  0  0  0  0  0           0  0  0
   10.2042   -6.3667    0.0000 C   0  0  3  0  0  0           0  0  0
    4.9875   -2.7375    0.0000 C   0  0  0  0  0  0           0  0  0
    2.1417   -2.9250    0.0000 C   0  0  0  0  0  0           0  0  0
    7.3542   -6.4167    0.0000 C   0  0  0  0  0  0           0  0  0
    9.4917   -5.9667    0.0000 C   0  0  0  0  0  0           0  0  0
   10.2167   -7.1917    0.0000 C   0  0  0  0  0  0           0  0  0
   10.9167   -5.9375    0.0000 C   0  0  0  0  0  0           0  0  0
    6.4125   -2.6417    0.0000 C   0  0  0  0  0  0           0  0  0
    5.6750   -2.2750    0.0000 C   0  0  0  0  0  0           0  0  0
    8.0625   -5.9917    0.0000 C   0  0  0  0  0  0           0  0  0
    8.7792   -6.3917    0.0000 C   0  0  0  0  0  0           0  0  0
    1.4000   -2.5625    0.0000 C   0  0  0  0  0  0           0  0  0
   11.6375   -6.3417    0.0000 C   0  0  0  0  0  0           0  0  0
   10.9417   -7.5917    0.0000 C   0  0  0  0  0  0           0  0  0
   11.6500   -7.1667    0.0000 C   0  0  0  0  0  0           0  0  0
  2  1  1  0     0  0
  3  2  1  0     0  0
  4  7  1  0     0  0
  5  3  1  0     0  0
  6  1  1  0     0  0
  7 18  1  0     0  0
  8 23  1  0     0  0
  9  1  2  0     0  0
 10  4  1  0     0  0
 11  5  2  0     0  0
 12  4  2  0     0  0
 13 22  2  0     0  0
 14  3  2  0     0  0
 15  8  2  0     0  0
 16  6  2  0     0  0
 17  6  1  0     0  0
 18 17  2  0     0  0
 19 16  1  0     0  0
 20  5  1  0     0  0
 21  8  1  0     0  0
 22 10  1  0     0  0
 23 32  1  0     0  0
 24 36  2  0     0  0
 25 29  1  0     0  0
 26 12  1  0     0  0
 27 10  2  0     0  0
 28 20  1  0     0  0
 29 35  1  0     0  0
 30 25  1  0     0  0
 31 25  1  0     0  0
 32 33  1  0     0  0
 33 26  1  0     0  0
 34 28  1  0     0  0
 35 34  1  0     0  0
 36 27  1  0     0  0
 37 31  1  0     0  0
 38 30  1  0     0  0
 39 37  1  0     0  0
  7 19  2  0     0  0
 24 13  1  0     0  0
 39 38  1  0     0  0
M  END