
          11280715352D 1   1.00000     0.00000     0

 39 42  0     1  0            999 V2000
    4.6750   -4.1542    0.0000 C   0  0  0  0  0  0           0  0  0
    3.2500   -6.6000    0.0000 N   0  0  3  0  0  0           0  0  0
    4.6625   -5.8000    0.0000 C   0  0  0  0  0  0           0  0  0
    3.9625   -5.3792    0.0000 C   0  0  0  0  0  0           0  0  0
    4.6625   -6.6167    0.0000 C   0  0  0  0  0  0           0  0  0
    3.9625   -4.5625    0.0000 C   0  0  0  0  0  0           0  0  0
    3.2625   -5.7792    0.0000 C   0  0  0  0  0  0           0  0  0
    5.3750   -4.5792    0.0000 C   0  0  2  0  0  0           0  0  0
    6.0917   -4.1792    0.0000 N   0  0  3  0  0  0           0  0  0
    5.3750   -5.3917    0.0000 C   0  0  0  0  0  0           0  0  0
    4.6792   -3.3292    0.0000 C   0  0  0  0  0  0           0  0  0
    6.8292   -2.1292    0.0000 C   0  0  0  0  0  0           0  0  0
    5.3917   -2.9292    0.0000 C   0  0  2  0  0  0           0  0  0
    6.1042   -3.3542    0.0000 C   0  0  0  0  0  0           0  0  0
    9.8750   -5.9125    0.0000 C   0  0  0  0  0  0           0  0  0
    8.2042   -5.8917    0.0000 C   0  0  0  0  0  0           0  0  0
    9.4542   -5.1875    0.0000 C   0  0  0  0  0  0           0  0  0
    8.6292   -5.1875    0.0000 C   0  0  0  0  0  0           0  0  0
    6.1250   -1.7042    0.0000 O   0  0  0  0  0  0           0  0  0
    2.7417   -7.1417    0.0000 C   0  0  3  0  0  0           0  0  0
    6.8250   -2.9542    0.0000 O   0  0  0  0  0  0           0  0  0
    8.6292   -6.6167    0.0000 O   0  0  0  0  0  0           0  0  0
   10.7000   -5.9125    0.0000 O   0  0  0  0  0  0           0  0  0
    7.5500   -1.7292    0.0000 C   0  0  3  0  0  0           0  0  0
    5.4042   -2.1042    0.0000 C   0  0  0  0  0  0           0  0  0
    2.5542   -5.3792    0.0000 C   0  0  0  0  0  0           0  0  0
    3.2500   -4.1542    0.0000 C   0  0  0  0  0  0           0  0  0
    6.8042   -4.5917    0.0000 C   0  0  0  0  0  0           0  0  0
    9.4542   -6.6167    0.0000 O   0  0  0  0  0  0           0  0  0
    7.3792   -5.8917    0.0000 O   0  0  0  0  0  0           0  0  0
    2.5542   -4.5625    0.0000 C   0  0  0  0  0  0           0  0  0
    8.2542   -2.1542    0.0000 C   0  0  0  0  0  0           0  0  0
    7.5667   -0.9125    0.0000 C   0  0  0  0  0  0           0  0  0
    2.0250   -6.9792    0.0000 C   0  0  0  0  0  0           0  0  0
    2.9667   -7.8500    0.0000 C   0  0  0  0  0  0           0  0  0
    8.2875   -0.5167    0.0000 C   0  0  0  0  0  0           0  0  0
    8.9667   -1.7667    0.0000 C   0  0  0  0  0  0           0  0  0
    8.9792   -0.9375    0.0000 C   0  0  0  0  0  0           0  0  0
    6.0917   -4.9792    0.0000 H   0  0  0  0  0  0           0  0  0
  2  7  1  0     0  0
  3 10  1  0     0  0
  4  6  2  0     0  0
  5  3  2  0     0  0
  6  1  1  0     0  0
  7  4  1  0     0  0
  8  1  1  0     0  0
  9  8  1  0     0  0
 10  8  1  0     0  0
 11  1  2  0     0  0
 12 19  1  0     0  0
 13 11  1  0     0  0
 14 13  1  0     0  0
 16 18  1  0     0  0
 17 15  1  0     0  0
 18 17  2  0     0  0
 19 25  1  0     0  0
 20  2  1  0     0  0
 21 12  2  0     0  0
 22 16  2  0     0  0
 23 15  2  0     0  0
 24 12  1  0     0  0
 13 25  1  1     0  0
 26  7  2  0     0  0
 27  6  1  0     0  0
 28  9  1  0     0  0
 29 15  1  0     0  0
 30 16  1  0     0  0
 31 27  2  0     0  0
 32 24  1  0     0  0
 33 24  1  0     0  0
 34 20  1  0     0  0
 35 20  1  0     0  0
 36 33  1  0     0  0
 37 32  1  0     0  0
 38 36  1  0     0  0
  8 39  1  1     0  0
  3  4  1  0     0  0
 14  9  1  0     0  0
 31 26  1  0     0  0
  5  2  1  0     0  0
 38 37  1  0     0  0
M  END