
  SciTegic09171211542D

 38 40  0  0  0  0            999 V2000
    7.2217  -13.5787    0.0000 C   0  0
    7.9372  -13.1659    0.0000 C   0  0
    8.6496  -13.5804    0.0000 C   0  0
    8.6470  -14.4063    0.0000 C   0  0
    7.9259  -14.8159    0.0000 C   0  0
    7.2164  -14.3990    0.0000 C   0  0
    9.3593  -14.8224    0.0000 O   0  0
    9.3551  -15.6474    0.0000 C   0  0
   10.0675  -16.0606    0.0000 C   0  0
    8.6385  -16.0512    0.0000 C   0  0
   10.7848  -15.6514    0.0000 O   0  0
   10.0653  -16.8792    0.0000 O   0  0
    8.6266  -16.8726    0.0000 O   0  0
    7.9281  -15.6314    0.0000 O   0  0
    6.5086  -13.1638    0.0000 C   0  0
   -0.6336  -14.8444    0.0000 C   0  0
    0.0828  -14.4310    0.0000 C   0  0
    0.0800  -13.6005    0.0000 C   0  0
   -0.6354  -13.1914    0.0000 C   0  0
   -1.3484  -14.4315    0.0000 C   0  0
   -1.3472  -13.6026    0.0000 C   0  0
   -2.1352  -13.3452    0.0000 S   0  0
   -2.6234  -14.0151    0.0000 C   0  0
   -2.1372  -14.6864    0.0000 N   0  0
    0.7929  -13.1853    0.0000 N   0  0
    1.5089  -13.5951    0.0000 C   0  0
    2.2218  -13.1799    0.0000 C   0  0
    1.5120  -14.4201    0.0000 O   0  0
    2.9378  -13.5897    0.0000 C   0  0
    3.6508  -13.1745    0.0000 N   0  0
    4.3668  -13.5843    0.0000 C   0  0
    5.0797  -13.1692    0.0000 N   0  0
    4.3699  -14.4093    0.0000 O   0  0
    5.7957  -13.5790    0.0000 C   0  0
   -3.4484  -14.0139    0.0000 S   0  0
   -3.8599  -13.2989    0.0000 C   0  0
   -4.6849  -13.2977    0.0000 C   0  0
   -5.0964  -12.5826    0.0000 C   0  0
 18 19  2  0
 19 21  1  0
 20 21  2  0
  4  5  1  0
  8 10  1  0
  2  3  1  0
  5  6  2  0
  9 11  1  0
 21 22  1  0
 22 23  1  0
 23 24  2  0
 24 20  1  0
  9 12  2  0
 18 25  1  0
  6  1  1  0
 25 26  1  0
  1  2  2  0
 26 27  1  0
 10 13  1  0
 26 28  2  0
 10 14  2  0
 27 29  1  0
  4  7  1  0
 29 30  1  0
  1 15  1  0
 30 31  1  0
  3  4  2  0
 31 32  1  0
 20 16  1  0
 31 33  2  0
  7  8  1  0
 32 34  1  0
 34 15  1  0
 16 17  2  0
 23 35  1  0
 35 36  1  0
 17 18  1  0
 36 37  1  0
  8  9  1  0
 37 38  1  0
M  END