
  SciTegic01181116592D

 24 26  0  0  0  0            999 V2000
    7.4541    0.3277    0.0000 C   0  0
    8.2773    0.3266    0.0000 N   0  0
    8.6881    1.0378    0.0000 C   0  0
    8.2768    1.7506    0.0000 C   0  0
    7.4505    1.7478    0.0000 C   0  0
    7.0434    1.0360    0.0000 N   0  0
    7.0353    2.4607    0.0000 N   0  0
    6.2103    2.4576    0.0000 C   0  0
    5.7991    3.1732    0.0000 C   0  0
    4.9748    3.1704    0.0000 C   0  0
    4.5642    2.4539    0.0000 C   0  0
    4.9838    1.7386    0.0000 C   0  0
    5.8067    1.7449    0.0000 C   0  0
    3.7392    2.4497    0.0000 O   0  0
    3.3231    3.1620    0.0000 C   0  0
    2.4981    3.1578    0.0000 F   0  0
    3.7319    3.8786    0.0000 F   0  0
    2.9042    3.8792    0.0000 F   0  0
    9.5126    1.0381    0.0000 C   0  0
    9.9974    0.3706    0.0000 C   0  0
   10.7821    0.6253    0.0000 N   0  0
   10.7823    1.4504    0.0000 N   0  0
    9.9977    1.7054    0.0000 C   0  0
   11.4494    0.1402    0.0000 C   0  0
 11 12  1  0
  6  1  1  0
 12 13  2  0
 13  8  1  0
  1  2  2  0
 11 14  1  0
  5  7  1  0
 14 15  1  0
  3  4  2  0
 15 16  1  0
  7  8  1  0
 15 17  1  0
 15 18  1  0
 19 20  2  0
  8  9  2  0
  4  5  1  0
  9 10  1  0
  2  3  1  0
 10 11  2  0
 20 21  1  0
 21 22  1  0
 22 23  2  0
 23 19  1  0
  3 19  1  0
  5  6  2  0
 21 24  1  0
M  END