
  CDK    9/15/10,16:21

 79 85  0  0  0  0  0  0  0  0999 V2000
    0.4166   -6.8667    0.0000 C   0  0  0  0  0  0  0  0  0  0  0  0
    1.2416   -6.8667    0.0000 O   0  0  0  0  0  0  0  0  0  0  0  0
    1.4984   -6.0826    0.0000 C   0  0  0  0  0  0  0  0  0  0  0  0
    0.8291   -5.5959    0.0000 N   0  0  0  0  0  0  0  0  0  0  0  0
    0.1641   -6.0826    0.0000 C   0  0  0  0  0  0  0  0  0  0  0  0
   -0.0042   -7.5792    0.0000 C   0  0  0  0  0  0  0  0  0  0  0  0
    2.2083   -5.6625    0.0000 C   0  0  0  0  0  0  0  0  0  0  0  0
    2.9272   -6.0674    0.0000 C   0  0  0  0  0  0  0  0  0  0  0  0
    3.6372   -5.6472    0.0000 N   0  0  0  0  0  0  0  0  0  0  0  0
    2.9360   -6.8923    0.0000 O   0  0  0  0  0  0  0  0  0  0  0  0
    4.3560   -6.0520    0.0000 C   0  0  0  0  0  0  0  0  0  0  0  0
    5.0661   -5.6319    0.0000 C   0  0  0  0  0  0  0  0  0  0  0  0
    5.7849   -6.0367    0.0000 O   0  0  0  0  0  0  0  0  0  0  0  0
    5.0572   -4.8070    0.0000 O   0  0  0  0  0  0  0  0  0  0  0  0
    6.4949   -5.6166    0.0000 C   0  0  0  0  0  0  0  0  0  0  0  0
    4.3649   -6.8770    0.0000 C   0  0  0  0  0  0  0  0  0  0  0  0
    3.6549   -7.2971    0.0000 C   0  0  0  0  0  0  0  0  0  0  0  0
    3.6637   -8.1221    0.0000 C   0  0  0  0  0  0  0  0  0  0  0  0
    2.9537   -8.5422    0.0000 C   0  0  0  0  0  0  0  0  0  0  0  0
    2.9625   -9.3672    0.0000 N   0  0  0  0  0  0  0  0  0  0  0  0
    2.1995   -4.8376    0.0000 N   0  0  0  0  0  0  0  0  0  0  0  0
    2.9095   -4.4174    0.0000 C   0  0  0  0  0  0  0  0  0  0  0  0
    2.9007   -3.5925    0.0000 C   0  0  0  0  0  0  0  0  0  0  0  0
    3.6284   -4.8223    0.0000 O   0  0  0  0  0  0  0  0  0  0  0  0
    3.5617   -3.1002    0.0000 C   0  0  0  0  0  0  0  0  0  0  0  0
    3.2984   -2.3184    0.0000 O   0  0  0  0  0  0  0  0  0  0  0  0
    2.4734   -2.3272    0.0000 C   0  0  0  0  0  0  0  0  0  0  0  0
    2.2270   -3.1145    0.0000 N   0  0  0  0  0  0  0  0  0  0  0  0
    4.2708   -3.5125    0.0000 C   0  0  0  0  0  0  0  0  0  0  0  0
    2.0542   -1.6084    0.0000 C   0  0  0  0  0  0  0  0  0  0  0  0
    1.6375   -0.8917    0.0000 C   0  0  0  0  0  0  0  0  0  0  0  0
    1.3412   -2.0235    0.0000 N   0  0  0  0  0  0  0  0  0  0  0  0
    2.7655   -1.1905    0.0000 C   0  0  0  0  0  0  0  0  0  0  0  0
    3.4831   -1.5976    0.0000 O   0  0  0  0  0  0  0  0  0  0  0  0
    2.7593   -0.3655    0.0000 N   0  0  0  0  0  0  0  0  0  0  0  0
    3.4707    0.0523    0.0000 C   0  0  0  0  0  0  0  0  0  0  0  0
    4.7691    0.3391    0.0000 C   0  0  0  0  0  0  0  0  0  0  0  0
    4.2197   -0.2753    0.0000 C   0  0  0  0  0  0  0  0  0  0  0  0
    4.4773   -1.0562    0.0000 C   0  0  0  0  0  0  0  0  0  0  0  0
    5.2840   -1.2239    0.0000 C   0  0  0  0  0  0  0  0  0  0  0  0
    5.8326   -0.6046    0.0000 C   0  0  0  0  0  0  0  0  0  0  0  0
    5.5721    0.1739    0.0000 C   0  0  0  0  0  0  0  0  0  0  0  0
    3.5456    0.8728    0.0000 C   0  0  0  0  0  0  0  0  0  0  0  0
    4.3548    1.0473    0.0000 C   0  0  0  0  0  0  0  0  0  0  0  0
    4.6067    1.8339    0.0000 C   0  0  0  0  0  0  0  0  0  0  0  0
    4.0504    2.4466    0.0000 C   0  0  0  0  0  0  0  0  0  0  0  0
    3.2390    2.2674    0.0000 C   0  0  0  0  0  0  0  0  0  0  0  0
    2.9909    1.4811    0.0000 C   0  0  0  0  0  0  0  0  0  0  0  0
    0.6252   -1.6136    0.0000 C   0  0  0  0  0  0  0  0  0  0  0  0
   -0.3377   -2.0621    0.0000 C   0  0  0  0  0  0  0  0  0  0  0  0
    0.6222   -0.7887    0.0000 O   0  0  0  0  0  0  0  0  0  0  0  0
    2.2042   -6.4875    0.0000 C   0  0  0  0  0  0  0  0  0  0  0  0
   -1.0944   -1.7330    0.0000 C   0  0  0  0  0  0  0  0  0  0  0  0
   -1.6442   -2.3482    0.0000 O   0  0  0  0  0  0  0  0  0  0  0  0
   -0.4228   -2.8865    0.0000 N   0  0  0  0  0  0  0  0  0  0  0  0
   -0.5542   -5.6667    0.0000 C   0  0  0  0  0  0  0  0  0  0  0  0
   -0.5531   -4.8417    0.0000 N   0  0  0  0  0  0  0  0  0  0  0  0
   -1.2692   -6.0783    0.0000 O   0  0  0  0  0  0  0  0  0  0  0  0
   -1.2671   -4.4283    0.0000 C   0  0  0  0  0  0  0  0  0  0  0  0
   -1.2285   -3.0616    0.0000 C   0  0  0  0  0  0  0  0  0  0  0  0
   -1.9821   -4.8399    0.0000 C   0  0  0  0  0  0  0  0  0  0  0  0
   -2.6960   -4.4265    0.0000 N   0  0  0  0  0  0  0  0  0  0  0  0
   -1.9831   -5.6649    0.0000 O   0  0  0  0  0  0  0  0  0  0  0  0
   -3.4110   -4.8381    0.0000 C   0  0  0  0  0  0  0  0  0  0  0  0
   -4.1167   -4.4247    0.0000 C   0  0  0  0  0  0  0  0  0  0  0  0
   -4.1097   -3.6101    0.0000 C   0  0  0  0  0  0  0  0  0  0  0  0
   -4.8113   -3.1968    0.0000 C   0  0  0  0  0  0  0  0  0  0  0  0
   -5.5245   -3.5977    0.0000 C   0  0  0  0  0  0  0  0  0  0  0  0
   -5.5317   -4.4165    0.0000 C   0  0  0  0  0  0  0  0  0  0  0  0
   -4.8256   -4.8344    0.0000 C   0  0  0  0  0  0  0  0  0  0  0  0
   -1.9875   -4.0125    0.0000 C   0  0  0  0  0  0  0  0  0  0  0  0
   -1.2710   -0.9271    0.0000 C   0  0  0  0  0  0  0  0  0  0  0  0
    5.3983   -8.7956    0.0000 C   0  0  0  0  0  0  0  0  0  0  0  0
    5.4072   -9.6205    0.0000 C   0  0  0  0  0  0  0  0  0  0  0  0
    4.6795   -8.3908    0.0000 O   0  0  0  0  0  0  0  0  0  0  0  0
    5.4000  -10.4417    0.0000 F   0  0  0  0  0  0  0  0  0  0  0  0
    6.2322   -9.6197    0.0000 F   0  0  0  0  0  0  0  0  0  0  0  0
    4.5822   -9.6253    0.0000 F   0  0  0  0  0  0  0  0  0  0  0  0
    6.1083   -8.3754    0.0000 O   0  0  0  0  0  0  0  0  0  0  0  0
 33 35  1  0  0  0  0 
  8 10  2  0  0  0  0 
 35 36  1  0  0  0  0 
 36 38  1  0  0  0  0 
 37 44  1  0  0  0  0 
 43 36  1  0  0  0  0 
  5  1  2  0  0  0  0 
 37 38  2  0  0  0  0 
 38 39  1  0  0  0  0 
  9 11  1  0  0  0  0 
 39 40  2  0  0  0  0 
 40 41  1  0  0  0  0 
  1  2  1  0  0  0  0 
 41 42  2  0  0  0  0 
 42 37  1  0  0  0  0 
 11 12  1  0  0  0  0 
 43 44  2  0  0  0  0 
 44 45  1  0  0  0  0 
  1  6  1  0  0  0  0 
 45 46  2  0  0  0  0 
 46 47  1  0  0  0  0 
 12 13  1  0  0  0  0 
 47 48  2  0  0  0  0 
 48 43  1  0  0  0  0 
  7 21  1  0  0  0  0 
 32 49  1  0  0  0  0 
 49 50  1  0  0  0  0 
 21 22  1  0  0  0  0 
 49 51  2  0  0  0  0 
 12 14  2  0  0  0  0 
  7 52  1  0  0  0  0 
 50 53  2  0  0  0  0 
 22 23  1  0  0  0  0 
  3  7  1  0  0  0  0 
 22 24  2  0  0  0  0 
 53 54  1  0  0  0  0 
 54 60  1  0  0  0  0 
 60 55  2  0  0  0  0 
 55 50  1  0  0  0  0 
 23 25  2  0  0  0  0 
  5 56  1  0  0  0  0 
 13 15  1  0  0  0  0 
 56 57  1  0  0  0  0 
  2  3  1  0  0  0  0 
 56 58  2  0  0  0  0 
 11 16  1  6  0  0  0 
 57 59  1  0  0  0  0 
  7  8  1  1  0  0  0 
 59 60  1  0  0  0  0 
 25 26  1  0  0  0  0 
 59 61  1  0  0  0  0 
 26 27  1  0  0  0  0 
 61 62  1  0  0  0  0 
 27 28  2  0  0  0  0 
 61 63  2  0  0  0  0 
 28 23  1  0  0  0  0 
 62 64  1  0  0  0  0 
 16 17  1  0  0  0  0 
 64 65  1  0  0  0  0 
 65 66  1  0  0  0  0 
 25 29  1  0  0  0  0 
  3  4  2  0  0  0  0 
 27 30  1  0  0  0  0 
 17 18  1  0  0  0  0 
 30 31  1  6  0  0  0 
 65 70  1  0  0  0  0 
 66 67  1  0  0  0  0 
 67 68  1  0  0  0  0 
 68 69  1  0  0  0  0 
 69 70  1  0  0  0  0 
  8  9  1  0  0  0  0 
 59 71  1  6  0  0  0 
 30 32  1  0  0  0  0 
 53 72  1  0  0  0  0 
 18 19  1  0  0  0  0 
 30 33  1  0  0  0  0 
  4  5  1  0  0  0  0 
 33 34  2  0  0  0  0 
 73 74  1  0  0  0  0 
 73 75  2  0  0  0  0 
 74 76  1  0  0  0  0 
 74 77  1  0  0  0  0 
 74 78  1  0  0  0  0 
 19 20  1  0  0  0  0 
 73 79  1  0  0  0  0 
M  END