
          11280715062D 1   1.00000     0.00000     0

 33 37  0     0  0            999 V2000
    8.6042   -5.7167    0.0000 C   0  0  0  0  0  0           0  0  0
    8.6125   -4.8917    0.0000 C   0  0  0  0  0  0           0  0  0
    7.1792   -5.7042    0.0000 C   0  0  0  0  0  0           0  0  0
    7.8875   -6.1250    0.0000 O   0  0  0  0  0  0           0  0  0
    7.9000   -4.4792    0.0000 C   0  0  0  0  0  0           0  0  0
    7.1875   -4.8875    0.0000 C   0  0  0  0  0  0           0  0  0
    9.3792   -5.9750    0.0000 N   0  0  0  0  0  0           0  0  0
    9.8667   -5.3167    0.0000 N   0  0  0  0  0  0           0  0  0
    6.4667   -6.1167    0.0000 C   0  0  0  0  0  0           0  0  0
    9.3917   -4.6500    0.0000 N   0  0  0  0  0  0           0  0  0
    6.4667   -4.4667    0.0000 C   0  0  0  0  0  0           0  0  0
    0.8167   -7.1417    0.0000 N   0  0  3  0  0  0           0  0  0
    2.4667   -7.1417    0.0000 N   0  0  3  0  0  0           0  0  0
    5.7625   -5.7042    0.0000 C   0  0  0  0  0  0           0  0  0
    7.9042   -3.6542    0.0000 O   0  0  0  0  0  0           0  0  0
    5.7542   -4.8792    0.0000 C   0  0  0  0  0  0           0  0  0
   -0.0083   -7.1417    0.0000 C   0  0  0  0  0  0           0  0  0
    1.2292   -7.8542    0.0000 C   0  0  0  0  0  0           0  0  0
    1.2292   -6.4292    0.0000 C   0  0  0  0  0  0           0  0  0
    2.0542   -6.4292    0.0000 C   0  0  0  0  0  0           0  0  0
    2.0542   -7.8542    0.0000 C   0  0  0  0  0  0           0  0  0
   -0.4208   -6.4292    0.0000 C   0  0  0  0  0  0           0  0  0
   -1.2458   -5.0042    0.0000 C   0  0  0  0  0  0           0  0  0
   -1.6625   -4.2917    0.0000 Cl  0  0  0  0  0  0           0  0  0
    4.9375   -5.7167    0.0000 O   0  0  0  0  0  0           0  0  0
    6.4667   -6.9417    0.0000 C   0  0  0  0  0  0           0  0  0
   -1.6583   -5.7292    0.0000 C   0  0  0  0  0  0           0  0  0
   -0.4208   -5.0042    0.0000 C   0  0  0  0  0  0           0  0  0
   -1.2458   -6.4375    0.0000 C   0  0  0  0  0  0           0  0  0
   -0.0083   -5.7167    0.0000 C   0  0  0  0  0  0           0  0  0
    3.2917   -7.1417    0.0000 C   0  0  0  0  0  0           0  0  0
    3.7042   -6.4292    0.0000 C   0  0  0  0  0  0           0  0  0
    4.5292   -6.4292    0.0000 C   0  0  0  0  0  0           0  0  0
  2  1  1  0     0  0
  3  4  1  0     0  0
  4  1  1  0     0  0
  5  2  2  0     0  0
  6  3  2  0     0  0
  7  1  2  0     0  0
  8  7  1  0     0  0
  9  3  1  0     0  0
 10  2  1  0     0  0
 11  6  1  0     0  0
 12 18  1  0     0  0
 13 31  1  0     0  0
 14  9  2  0     0  0
 15  5  1  0     0  0
 16 14  1  0     0  0
 17 12  1  0     0  0
 18 21  1  0     0  0
 19 20  1  0     0  0
 20 13  1  0     0  0
 21 13  1  0     0  0
 22 17  1  0     0  0
 23 28  2  0     0  0
 24 23  1  0     0  0
 25 14  1  0     0  0
 26  9  1  0     0  0
 27 29  2  0     0  0
 28 30  1  0     0  0
 29 22  1  0     0  0
 30 22  2  0     0  0
 31 32  1  0     0  0
 32 33  1  0     0  0
 33 25  1  0     0  0
  8 10  2  0     0  0
  5  6  1  0     0  0
 16 11  2  0     0  0
 19 12  1  0     0  0
 27 23  1  0     0  0
M  END