
  SciTegic11261411112D

 36 40  0  0  0  0            999 V2000
   -3.2010    2.8551    0.0000 S   0  0
   -3.6135    2.1406    0.0000 O   0  0
   -2.7885    3.5696    0.0000 O   0  0
   -1.0576    1.6176    0.0000 O   0  0
   -7.4878    4.5051    0.0000 O   0  0
   -2.4865    2.4426    0.0000 N   0  0
   -1.7720    0.3801    0.0000 N   0  0
   -6.0589    4.5051    0.0000 N   0  0
   -1.7720   -1.2699    0.0000 N   0  0
   -2.4865   -2.5074    0.0000 N   0  0
   -3.9155    3.2676    0.0000 C   0  0
   -2.4865    1.6176    0.0000 C   0  0
   -1.7720    1.2051    0.0000 C   0  0
   -5.3444    3.2676    0.0000 C   0  0
   -4.6299    2.8551    0.0000 C   0  0
   -5.3444    4.0926    0.0000 C   0  0
   -3.2010    1.2051    0.0000 C   0  0
   -3.9155    4.0926    0.0000 C   0  0
   -4.6299    4.5051    0.0000 C   0  0
   -6.0589    2.8551    0.0000 C   0  0
   -1.0576   -0.0324    0.0000 C   0  0
   -2.4865   -0.0324    0.0000 C   0  0
   -6.7733    4.0926    0.0000 C   0  0
   -3.2010    0.3801    0.0000 C   0  0
   -3.9155    1.6176    0.0000 C   0  0
   -1.0576   -0.8574    0.0000 C   0  0
   -2.4865   -0.8574    0.0000 C   0  0
   -6.7733    3.2676    0.0000 C   0  0
   -1.7720   -2.0949    0.0000 C   0  0
   -3.9155   -0.0324    0.0000 C   0  0
   -4.6299    1.2051    0.0000 C   0  0
   -4.6299    0.3801    0.0000 C   0  0
   -1.0576   -2.5074    0.0000 C   0  0
   -2.4865   -3.3324    0.0000 C   0  0
   -1.0576   -3.3324    0.0000 C   0  0
   -1.7720   -3.7449    0.0000 C   0  0
  1  2  2  0
  1  3  2  0
  1  6  1  0
  1 11  1  0
  4 13  2  0
  5 23  2  0
  6 12  1  0
  7 13  1  0
  7 21  1  0
  7 22  1  0
  8 16  1  0
  8 23  1  0
  9 26  1  0
  9 27  1  0
  9 29  1  0
 10 29  1  0
 10 34  2  0
 11 15  1  0
 11 18  2  0
 12 13  1  0
 12 17  1  0
 14 15  2  0
 14 16  1  0
 14 20  1  0
 16 19  2  0
 17 24  2  0
 17 25  1  0
 18 19  1  0
 20 28  1  0
 21 26  1  0
 22 27  1  0
 23 28  1  0
 24 30  1  0
 25 31  2  0
 29 33  2  0
 30 32  2  0
 31 32  1  0
 33 35  1  0
 34 36  1  0
 35 36  2  0
M  END