
          11280715202D 1   1.00000     0.00000     0

 26 26  0     0  0            999 V2000
   -0.9833   -2.5750    0.0000 N   0  0  0  0  0  0           0  0  0
   -1.3958   -3.8500    0.0000 N   0  0  0  0  0  0           0  0  0
   -1.6458   -3.0625    0.0000 C   0  0  0  0  0  0           0  0  0
   -0.3125   -3.0625    0.0000 C   0  0  0  0  0  0           0  0  0
   10.1167   -2.0375    0.0000 C   0  0  0  0  0  0           0  0  0
   10.1125   -3.6875    0.0000 C   0  0  0  0  0  0           0  0  0
    9.4042   -2.4500    0.0000 C   0  0  0  0  0  0           0  0  0
    9.4042   -3.2750    0.0000 C   0  0  0  0  0  0           0  0  0
   -0.5708   -3.8500    0.0000 C   0  0  0  0  0  0           0  0  0
    6.2292   -3.2000    0.0000 N   0  0  0  0  0  0           0  0  0
   10.1250   -1.2125    0.0000 O   0  0  0  0  0  0           0  0  0
   10.1042   -4.5042    0.0000 O   0  0  0  0  0  0           0  0  0
    5.6167   -2.6417    0.0000 C   0  0  0  0  0  0           0  0  0
    4.8375   -2.9000    0.0000 C   0  0  0  0  0  0           0  0  0
   10.8292   -2.4542    0.0000 O   0  0  0  0  0  0           0  0  0
   10.8292   -3.2792    0.0000 O   0  0  0  0  0  0           0  0  0
    3.2667   -3.4042    0.0000 C   0  0  0  0  0  0           0  0  0
    7.0167   -2.9417    0.0000 O   0  0  0  0  0  0           0  0  0
    4.2167   -2.3417    0.0000 C   0  0  0  0  0  0           0  0  0
    4.6625   -3.7042    0.0000 C   0  0  0  0  0  0           0  0  0
    3.4375   -2.6042    0.0000 C   0  0  0  0  0  0           0  0  0
    3.8792   -3.9625    0.0000 C   0  0  0  0  0  0           0  0  0
    2.4792   -3.6625    0.0000 O   0  0  0  0  0  0           0  0  0
    0.4750   -2.8042    0.0000 C   0  0  0  0  0  0           0  0  0
    1.8667   -3.1042    0.0000 C   0  0  0  0  0  0           0  0  0
    1.0792   -3.3625    0.0000 C   0  0  0  0  0  0           0  0  0
  2  3  1  0     0  0
  3  1  2  0     0  0
  4  1  1  0     0  0
  6  8  1  0     0  0
  7  5  1  0     0  0
  8  7  2  0     0  0
  9  4  2  0     0  0
 10 13  2  0     0  0
 11  5  2  0     0  0
 12  6  2  0     0  0
 13 14  1  0     0  0
 14 20  2  0     0  0
 15  5  1  0     0  0
 16  6  1  0     0  0
 17 23  1  0     0  0
 18 10  1  0     0  0
 19 21  2  0     0  0
 20 22  1  0     0  0
 21 17  1  0     0  0
 22 17  2  0     0  0
 23 25  1  0     0  0
 24  4  1  0     0  0
 25 26  1  0     0  0
 26 24  1  0     0  0
  9  2  1  0     0  0
 14 19  1  0     0  0
M  END