
  SciTegic10121214162D

 28 28  0  0  0  0            999 V2000
    4.7291  -20.0357    0.0000 C   0  0
    5.4526  -20.4372    0.0000 C   0  0
    6.1599  -20.0115    0.0000 C   0  0
    6.1450  -19.1845    0.0000 C   0  0
    5.4169  -18.7850    0.0000 C   0  0
    4.7126  -19.2130    0.0000 C   0  0
    5.3986  -17.9602    0.0000 O   0  0
    6.1038  -17.5320    0.0000 C   0  0
    5.4671  -21.2621    0.0000 S   0  0
    5.4743  -22.0890    0.0000 N   0  0
    6.2921  -21.2512    0.0000 O   0  0
    4.6421  -21.2709    0.0000 O   0  0
    6.1923  -22.4953    0.0000 C   0  0
    6.9032  -22.0765    0.0000 C   0  0
    7.6173  -22.4866    0.0000 C   0  0
    8.3277  -22.0686    0.0000 C   0  0
    8.3209  -21.2428    0.0000 C   0  0
    7.5978  -20.8368    0.0000 N   0  0
    6.8905  -21.2571    0.0000 C   0  0
    4.7634  -22.5077    0.0000 C   0  0  2  0  0  0
    4.7706  -23.3326    0.0000 C   0  0
    4.0598  -23.7513    0.0000 C   0  0
    5.4886  -23.7390    0.0000 C   0  0
    4.0454  -22.1014    0.0000 C   0  0
    4.0382  -21.2765    0.0000 O   0  0
    3.3345  -22.5201    0.0000 N   0  0
    2.6165  -22.1138    0.0000 O   0  0
    9.1539  -19.0811    0.0000 Cl  0  0
 17 18  1  0
  2  9  1  0
 18 19  2  0
 19 14  1  0
  4  5  1  0
 10 20  1  0
  9 10  1  0
  2  3  1  0
  9 11  2  0
  5  6  2  0
  9 12  2  0
  6  1  1  0
 10 13  1  0
 20 21  1  6
  1  2  2  0
 21 22  1  0
 13 14  1  0
 21 23  1  0
  5  7  1  0
 14 15  2  0
  3  4  2  0
 20 24  1  0
 15 16  1  0
 24 25  2  0
  7  8  1  0
 24 26  1  0
 16 17  2  0
 26 27  1  0
M  END