
  SciTegic06051315212D

 23 25  0  0  0  0            999 V2000
   12.9539  -11.9401    0.0000 N   0  0
   12.2404  -11.5315    0.0000 C   0  0
   13.6675  -11.5273    0.0000 C   0  0
   13.6675  -10.7060    0.0000 C   0  0
   12.9539  -10.2974    0.0000 C   0  0
   12.2404  -10.7060    0.0000 C   0  0
   11.5310  -10.2974    0.0000 C   0  0
   10.8175  -10.7060    0.0000 C   0  0
   10.8175  -11.5315    0.0000 C   0  0
   11.5310  -11.9401    0.0000 C   0  0
   14.3778  -11.9324    0.0000 C   0  0
   15.0857  -11.5218    0.0000 C   0  0
   15.7930  -11.9294    0.0000 C   0  0
   15.7938  -12.7475    0.0000 C   0  0
   15.0813  -13.1562    0.0000 C   0  0
   14.3768  -12.7462    0.0000 C   0  0
   12.9527   -9.4795    0.0000 C   0  0
   13.6604   -9.0709    0.0000 O   0  0
   12.2450   -9.0709    0.0000 O   0  0
   16.5011  -13.1567    0.0000 O   0  0
   17.2092  -12.7488    0.0000 C   0  0
   17.9166  -13.1580    0.0000 C   0  0
   18.6246  -12.7501    0.0000 C   0  0
 10  2  1  0
  2  6  2  0
  2  1  1  0
  1  3  2  0
  3  4  1  0
  4  5  2  0
  5  6  1  0
  6  7  1  0
  7  8  2  0
  8  9  1  0
  9 10  2  0
 11 12  2  0
 12 13  1  0
 13 14  2  0
 14 15  1  0
 15 16  2  0
 16 11  1  0
  3 11  1  0
 17 18  1  0
 17 19  2  0
  5 17  1  0
 14 20  1  0
 20 21  1  0
 21 22  1  0
 22 23  1  0
M  END