
  Mrv0541 04051115152D          

 24 26  0  0  0  0            999 V2000
    1.4151   -1.5298    0.0000 C   0  0  0  0  0  0  0  0  0  0  0  0
    0.8020   -0.9778    0.0000 C   0  0  0  0  0  0  0  0  0  0  0  0
    0.0174   -1.2327    0.0000 C   0  0  0  0  0  0  0  0  0  0  0  0
   -0.1542   -2.0397    0.0000 C   0  0  0  0  0  0  0  0  0  0  0  0
    0.4589   -2.5918    0.0000 C   0  0  0  0  0  0  0  0  0  0  0  0
    1.2435   -2.3368    0.0000 C   0  0  0  0  0  0  0  0  0  0  0  0
   -0.5957   -0.6807    0.0000 C   0  0  0  0  0  0  0  0  0  0  0  0
   -1.4027   -0.8522    0.0000 C   0  0  0  0  0  0  0  0  0  0  0  0
   -1.8152   -0.1378    0.0000 C   0  0  0  0  0  0  0  0  0  0  0  0
   -1.2632    0.4753    0.0000 C   0  0  0  0  0  0  0  0  0  0  0  0
   -0.5095    0.1398    0.0000 N   0  0  0  0  0  0  0  0  0  0  0  0
   -1.4347    1.2823    0.0000 C   0  0  0  0  0  0  0  0  0  0  0  0
   -0.8216    1.8343    0.0000 C   0  0  0  0  0  0  0  0  0  0  0  0
   -0.9931    2.6413    0.0000 C   0  0  0  0  0  0  0  0  0  0  0  0
   -1.7778    2.8962    0.0000 C   0  0  0  0  0  0  0  0  0  0  0  0
   -2.3909    2.3442    0.0000 C   0  0  0  0  0  0  0  0  0  0  0  0
   -2.2193    1.5372    0.0000 C   0  0  0  0  0  0  0  0  0  0  0  0
    0.2050    0.5523    0.0000 C   0  0  0  0  0  0  0  0  0  0  0  0
    0.9194    0.1398    0.0000 C   0  0  0  0  0  0  0  0  0  0  0  0
    1.6339    0.5523    0.0000 N   0  0  0  0  0  0  0  0  0  0  0  0
    0.9194   -0.6852    0.0000 O   0  0  0  0  0  0  0  0  0  0  0  0
    2.3484    0.1398    0.0000 C   0  0  0  0  0  0  0  0  0  0  0  0
    3.0628    0.5523    0.0000 N   0  0  0  0  0  0  0  0  0  0  0  0
    2.3484   -0.6852    0.0000 N   0  0  0  0  0  0  0  0  0  0  0  0
 22 24  1  0  0  0  0
 22 20  1  0  0  0  0
 19 20  1  0  0  0  0
 15 16  2  0  0  0  0
 14 15  1  0  0  0  0
 22 23  2  0  0  0  0
 18 19  1  0  0  0  0
 18 11  1  0  0  0  0
 16 17  1  0  0  0  0
 13 14  2  0  0  0  0
 19 21  2  0  0  0  0
 12 17  2  0  0  0  0
  4  5  2  0  0  0  0
  5  6  1  0  0  0  0
  3  4  1  0  0  0  0
 12 13  1  0  0  0  0
 10 12  1  0  0  0  0
 10 11  1  0  0  0  0
  7 11  1  0  0  0  0
  9 10  2  0  0  0  0
  1  6  2  0  0  0  0
  7  3  1  0  0  0  0
  2  3  2  0  0  0  0
  7  8  2  0  0  0  0
  8  9  1  0  0  0  0
  1  2  1  0  0  0  0
M  END