
  Mrv0541 04051115152D          

 23 24  0  0  0  0            999 V2000
   -0.7280   -0.3408    0.0000 C   0  0  1  0  0  0  0  0  0  0  0  0
   -0.7280    0.4842    0.0000 S   0  0  0  0  0  0  0  0  0  0  0  0
   -0.0135   -0.7533    0.0000 C   0  0  2  0  0  0  0  0  0  0  0  0
    0.7010   -0.3408    0.0000 O   0  0  0  0  0  0  0  0  0  0  0  0
   -0.0135   -1.5783    0.0000 C   0  0  1  0  0  0  0  0  0  0  0  0
    0.7010   -1.9908    0.0000 O   0  0  0  0  0  0  0  0  0  0  0  0
   -0.7280   -1.9908    0.0000 C   0  0  1  0  0  0  0  0  0  0  0  0
   -0.7280   -2.8158    0.0000 O   0  0  0  0  0  0  0  0  0  0  0  0
   -1.4424   -1.5783    0.0000 C   0  0  2  0  0  0  0  0  0  0  0  0
   -1.4424   -0.7533    0.0000 O   0  0  0  0  0  0  0  0  0  0  0  0
   -2.1569   -1.9908    0.0000 C   0  0  0  0  0  0  0  0  0  0  0  0
   -2.8714   -1.5783    0.0000 O   0  0  0  0  0  0  0  0  0  0  0  0
   -0.0135    0.8967    0.0000 C   0  0  1  0  0  0  0  0  0  0  0  0
   -0.0135    1.7217    0.0000 C   0  0  2  0  0  0  0  0  0  0  0  0
   -0.7280    2.1342    0.0000 O   0  0  0  0  0  0  0  0  0  0  0  0
    0.7010    2.1342    0.0000 C   0  0  1  0  0  0  0  0  0  0  0  0
    0.7010    2.9592    0.0000 O   0  0  0  0  0  0  0  0  0  0  0  0
    1.4154    1.7217    0.0000 C   0  0  1  0  0  0  0  0  0  0  0  0
    2.1299    2.1342    0.0000 O   0  0  0  0  0  0  0  0  0  0  0  0
    1.4154    0.8967    0.0000 C   0  0  2  0  0  0  0  0  0  0  0  0
    0.7010    0.4842    0.0000 O   0  0  0  0  0  0  0  0  0  0  0  0
    2.1299    0.4842    0.0000 C   0  0  0  0  0  0  0  0  0  0  0  0
    2.1299   -0.3408    0.0000 O   0  0  0  0  0  0  0  0  0  0  0  0
  1  2  1  1  0  0  0
  1  3  1  0  0  0  0
  1 10  1  0  0  0  0
 13  2  1  1  0  0  0
  3  4  1  6  0  0  0
  3  5  1  0  0  0  0
  5  6  1  1  0  0  0
  5  7  1  0  0  0  0
  7  8  1  1  0  0  0
  7  9  1  0  0  0  0
  9 10  1  0  0  0  0
  9 11  1  1  0  0  0
 11 12  1  0  0  0  0
 13 14  1  0  0  0  0
 13 21  1  0  0  0  0
 14 15  1  6  0  0  0
 14 16  1  0  0  0  0
 16 17  1  1  0  0  0
 16 18  1  0  0  0  0
 18 19  1  1  0  0  0
 18 20  1  0  0  0  0
 20 21  1  0  0  0  0
 20 22  1  1  0  0  0
 22 23  1  0  0  0  0
M  END