
  CDK    9/16/09,9:54

 42 45  0  0  0  0  0  0  0  0999 V2000
    7.8875   -7.4167    0.0000 C   0  0  0  0  0  0  0  0  0  0  0  0
    7.8875   -8.2417    0.0000 C   0  0  0  0  0  0  0  0  0  0  0  0
    8.5995   -8.6500    0.0000 C   0  0  0  0  0  0  0  0  0  0  0  0
    9.3115   -8.2417    0.0000 C   0  0  0  0  0  0  0  0  0  0  0  0
    9.3115   -7.4167    0.0000 O   0  0  0  0  0  0  0  0  0  0  0  0
    8.5995   -7.0000    0.0000 C   0  0  0  0  0  0  0  0  0  0  0  0
    8.5995   -6.1750    0.0000 C   0  0  0  0  0  0  0  0  0  0  0  0
    9.3140   -5.7625    0.0000 O   0  0  0  0  0  0  0  0  0  0  0  0
    7.1718   -7.0063    0.0000 O   0  0  0  0  0  0  0  0  0  0  0  0
    7.1736   -8.6552    0.0000 O   0  0  0  0  0  0  0  0  0  0  0  0
    6.4586   -8.2437    0.0000 C   0  0  0  0  0  0  0  0  0  0  0  0
    5.7447   -8.6573    0.0000 C   0  0  0  0  0  0  0  0  0  0  0  0
    5.0322   -8.2454    0.0000 C   0  0  0  0  0  0  0  0  0  0  0  0
    4.3188   -8.6583    0.0000 C   0  0  0  0  0  0  0  0  0  0  0  0
    4.3196   -9.4841    0.0000 C   0  0  0  0  0  0  0  0  0  0  0  0
    5.0397   -9.8954    0.0000 C   0  0  0  0  0  0  0  0  0  0  0  0
    5.7501   -9.4802    0.0000 C   0  0  0  0  0  0  0  0  0  0  0  0
    8.5995   -9.4750    0.0000 O   0  0  0  0  0  0  0  0  0  0  0  0
   10.0254   -8.6552    0.0000 S   0  0  0  0  0  0  0  0  0  0  0  0
   10.7405   -8.2437    0.0000 C   0  0  0  0  0  0  0  0  0  0  0  0
   11.4506   -8.6611    0.0000 O   0  0  0  0  0  0  0  0  0  0  0  0
   12.1635   -8.2532    0.0000 C   0  0  0  0  0  0  0  0  0  0  0  0
   12.1690   -7.4279    0.0000 C   0  0  0  0  0  0  0  0  0  0  0  0
   11.4553   -7.0121    0.0000 C   0  0  0  0  0  0  0  0  0  0  0  0
   10.7361   -7.4217    0.0000 C   0  0  0  0  0  0  0  0  0  0  0  0
   10.7333   -9.0667    0.0000 H   0  0  0  0  0  0  0  0  0  0  0  0
   12.8758   -8.6694    0.0000 C   0  0  0  0  0  0  0  0  0  0  0  0
   12.8715   -9.4944    0.0000 O   0  0  0  0  0  0  0  0  0  0  0  0
   12.8856   -7.0191    0.0000 O   0  0  0  0  0  0  0  0  0  0  0  0
   11.4593   -6.1871    0.0000 O   0  0  0  0  0  0  0  0  0  0  0  0
   12.1757   -5.7781    0.0000 C   0  0  0  0  0  0  0  0  0  0  0  0
   12.1797   -4.9531    0.0000 C   0  0  0  0  0  0  0  0  0  0  0  0
   12.8882   -6.1941    0.0000 O   0  0  0  0  0  0  0  0  0  0  0  0
   10.0217   -7.0090    0.0000 O   0  0  0  0  0  0  0  0  0  0  0  0
    6.4574   -7.4187    0.0000 O   0  0  0  0  0  0  0  0  0  0  0  0
   12.8961   -4.5480    0.0000 C   0  0  0  0  0  0  0  0  0  0  0  0
   12.9005   -3.7238    0.0000 C   0  0  0  0  0  0  0  0  0  0  0  0
   12.1875   -3.3070    0.0000 C   0  0  0  0  0  0  0  0  0  0  0  0
   11.4686   -3.7204    0.0000 C   0  0  0  0  0  0  0  0  0  0  0  0
   11.4678   -4.5433    0.0000 C   0  0  0  0  0  0  0  0  0  0  0  0
    3.6062   -9.8986    0.0000 C   0  0  0  0  0  0  0  0  0  0  0  0
   12.1904   -2.4820    0.0000 C   0  0  0  0  0  0  0  0  0  0  0  0
 20 21  1  0  0  0  0 
  2 10  1  1  0  0  0 
  3  4  1  0  0  0  0 
 10 11  1  0  0  0  0 
  4  5  1  0  0  0  0 
 11 12  1  0  0  0  0 
 20 25  1  0  0  0  0 
 21 22  1  0  0  0  0 
 22 23  1  0  0  0  0 
 23 24  1  0  0  0  0 
 24 25  1  0  0  0  0 
  5  6  1  0  0  0  0 
 20 26  1  6  0  0  0 
 12 13  2  0  0  0  0 
 22 27  1  1  0  0  0 
 27 28  1  0  0  0  0 
 13 14  1  0  0  0  0 
 23 29  1  1  0  0  0 
  6  7  1  1  0  0  0 
 24 30  1  1  0  0  0 
 14 15  2  0  0  0  0 
 30 31  1  0  0  0  0 
  1  2  1  0  0  0  0 
 31 32  1  0  0  0  0 
 15 16  1  0  0  0  0 
 31 33  2  0  0  0  0 
  7  8  1  0  0  0  0 
 25 34  1  6  0  0  0 
 16 17  2  0  0  0  0 
 11 35  2  0  0  0  0 
 17 12  1  0  0  0  0 
 32 36  2  0  0  0  0 
  1  6  1  0  0  0  0 
 36 37  1  0  0  0  0 
  3 18  1  6  0  0  0 
 37 38  2  0  0  0  0 
  1  9  1  1  0  0  0 
 38 39  1  0  0  0  0 
  4 19  1  1  0  0  0 
 39 40  2  0  0  0  0 
 40 32  1  0  0  0  0 
  2  3  1  0  0  0  0 
 15 41  1  0  0  0  0 
 19 20  1  0  0  0  0 
 38 42  1  0  0  0  0 
M  END