
  SciTegic01161211222D

 14 15  0  0  0  0            999 V2000
    5.9792   -2.0292    0.0000 C   0  0
    5.2625   -1.6167    0.0000 C   0  0
    6.7000   -1.6167    0.0000 C   0  0
    4.5500   -2.0292    0.0000 C   0  0
    5.9792   -2.8542    0.0000 C   0  0
    7.4125   -2.0292    0.0000 O   0  0
    6.7042   -0.7917    0.0000 O   0  0
    4.5500   -2.8542    0.0000 C   0  0
    5.2625   -3.2667    0.0000 C   0  0
    5.2625   -0.7917    0.0000 O   0  0
    3.8375   -1.6167    0.0000 C   0  0
    3.8375   -3.2667    0.0000 C   0  0
    3.1167   -2.0292    0.0000 C   0  0
    3.1167   -2.8542    0.0000 C   0  0
  2  1  2  0
  3  1  1  0
  4  2  1  0
  5  1  1  0
  6  3  1  0
  7  3  2  0
  8  9  1  0
  9  5  2  0
 10  2  1  0
 11  4  2  0
 12  8  2  0
 13 11  1  0
 14 12  1  0
  8  4  1  0
 14 13  2  0
M  END