
  SciTegic01201417202D

172178  0  0  0  0            999 V2000
   10.3626   -5.4478    0.0000 C   0  0
    9.9521   -4.7392    0.0000 C   0  0  1  0  0  0
    9.5412   -5.4450    0.0000 C   0  0
   17.4529   -2.7646    0.0000 C   0  0
   17.0467   -2.0561    0.0000 C   0  0  1  0  0  0
   16.6358   -2.7619    0.0000 C   0  0
   10.6443   -3.4878    0.0000 O   0  0
   10.6710   -4.3126    0.0000 C   0  0
   11.3917   -4.6994    0.0000 N   0  0
   12.1027   -4.2695    0.0000 C   0  0  2  0  0  0
   11.3468   -3.0496    0.0000 O   0  0
   12.0803   -3.4447    0.0000 C   0  0
   12.8278   -4.6606    0.0000 C   0  0  1  0  0  0
   13.5301   -4.2310    0.0000 C   0  0
   12.8501   -5.4855    0.0000 C   0  0
   13.5750   -5.8808    0.0000 C   0  0
   12.7829   -3.0064    0.0000 N   0  0
   12.7562   -2.1816    0.0000 C   0  0  2  0  0  0
   13.4362   -0.9271    0.0000 O   0  0
   13.4543   -1.7520    0.0000 C   0  0
   12.0355   -1.7905    0.0000 C   0  0
   12.0088   -0.9656    0.0000 C   0  0
   11.2711   -0.5706    0.0000 C   0  0
   12.7071   -0.5274    0.0000 C   0  0
   14.1864   -2.1385    0.0000 N   0  0
   14.8765   -1.7089    0.0000 C   0  0  2  0  0  0
   15.6335   -2.9247    0.0000 O   0  0
   15.6130   -2.0997    0.0000 C   0  0
   14.8560   -0.8841    0.0000 C   0  0
   15.5633   -0.4457    0.0000 C   0  0
   15.5384    0.3812    0.0000 O   0  0
   16.2942   -0.8408    0.0000 O   0  0
   16.3191   -1.6700    0.0000 N   0  0
   17.7291   -0.8019    0.0000 O   0  0
   17.7539   -1.6269    0.0000 C   0  0
   18.4815   -2.0134    0.0000 N   0  0
   19.1843   -1.5837    0.0000 C   0  0  2  0  0  0
   19.9368   -2.7995    0.0000 O   0  0
   19.9076   -1.9746    0.0000 C   0  0
   19.1594   -0.7588    0.0000 C   0  0
   20.6238   -0.6352    0.0000 N   0  0
   21.1573   -0.0081    0.0000 C   0  0
   20.7275    0.6964    0.0000 N   0  0
   19.9264    0.5087    0.0000 C   0  0
   19.8622   -0.3205    0.0000 C   0  0
   20.6105   -1.5451    0.0000 N   0  0
   21.3378   -1.9316    0.0000 C   0  0  2  0  0  0
   22.0122   -0.6772    0.0000 O   0  0
   22.0396   -1.5021    0.0000 C   0  0
   21.3566   -2.7567    0.0000 C   0  0
   20.6559   -3.1949    0.0000 C   0  0
   22.0902   -3.1560    0.0000 C   0  0
   24.8315    1.0712    0.0000 N   0  0
   24.8110    1.8967    0.0000 C   0  0
   24.0833    2.2836    0.0000 N   0  0
   25.5095    2.3270    0.0000 N   0  0
   22.7645   -1.8887    0.0000 N   0  0
   23.4706   -1.4589    0.0000 C   0  0  2  0  0  0
   24.2282   -2.6746    0.0000 O   0  0
   24.2033   -1.8497    0.0000 C   0  0
   23.4432   -0.6298    0.0000 C   0  0
   24.1579   -0.1956    0.0000 C   0  0
   24.1330    0.6323    0.0000 C   0  0
   27.1346   -4.2470    0.0000 N   0  0
   27.1595   -5.0718    0.0000 C   0  0
   27.8872   -5.4627    0.0000 N   0  0
   26.4524   -5.5059    0.0000 N   0  0
   24.9105   -1.4157    0.0000 N   0  0
   25.6295   -1.8067    0.0000 C   0  0  2  0  0  0
   26.3118   -0.5478    0.0000 O   0  0
   26.3323   -1.3727    0.0000 C   0  0
   25.6544   -2.6359    0.0000 C   0  0
   26.3821   -3.0269    0.0000 C   0  0
   26.4070   -3.8517    0.0000 C   0  0
   27.0642   -1.7680    0.0000 N   0  0
   27.7671   -1.3339    0.0000 C   0  0  2  0  0  0
   28.5196   -2.5497    0.0000 O   0  0
   28.4947   -1.7248    0.0000 C   0  0
   27.7423   -0.5047    0.0000 C   0  0
   27.0145   -0.1138    0.0000 C   0  0
   28.4492   -0.0751    0.0000 C   0  0
   29.2018   -1.2908    0.0000 N   0  0
   29.9295   -1.6817    0.0000 C   0  0  2  0  0  0
   30.6031   -0.4228    0.0000 O   0  0
   30.6323   -1.2520    0.0000 C   0  0
   29.9500   -2.5109    0.0000 C   0  0
   31.4189   -2.5418    0.0000 C   0  0
   30.6821   -2.9019    0.0000 C   0  0
   31.9895   -3.1444    0.0000 N   0  0
   30.7914   -3.7195    0.0000 C   0  0
   31.6029   -3.8677    0.0000 C   0  0
   31.8765   -4.6476    0.0000 C   0  0
   31.3387   -5.2793    0.0000 C   0  0
   30.5271   -5.1268    0.0000 C   0  0
   30.2534   -4.3512    0.0000 C   0  0
   33.4187    1.3138    0.0000 N   0  0
   34.1463    0.9227    0.0000 C   0  0
   34.8534    1.3529    0.0000 N   0  0
   34.1711    0.0972    0.0000 N   0  0
   31.3513   -1.6431    0.0000 N   0  0
   32.0585   -1.2090    0.0000 C   0  0  2  0  0  0
   32.8110   -2.4248    0.0000 O   0  0
   32.7861   -1.6000    0.0000 C   0  0
   32.0337   -0.3841    0.0000 C   0  0
   32.7363    0.0538    0.0000 C   0  0
   32.7158    0.8838    0.0000 C   0  0
   33.4889   -1.1659    0.0000 N   0  0
    9.2356   -4.3390    0.0000 N   0  0
    8.5309   -4.7595    0.0000 C   0  0
    8.5427   -5.5804    0.0000 O   0  0
    7.8145   -4.3550    0.0000 C   0  0  1  0  0  0
    7.1055   -4.7800    0.0000 N   0  0
    6.3890   -4.3754    0.0000 C   0  0
    6.3773   -3.5546    0.0000 O   0  0
    9.9497   -6.1614    0.0000 C   0  0
   10.3579   -6.8734    0.0000 C   0  0
   17.0440   -3.4783    0.0000 C   0  0
   16.6311   -4.1875    0.0000 C   0  0
   17.0393   -4.8995    0.0000 C   0  0
   16.6264   -5.6131    0.0000 C   0  0
    7.8027   -3.5342    0.0000 C   0  0
    8.5074   -3.1135    0.0000 C   0  0
    8.4957   -2.2927    0.0000 C   0  0
    5.6800   -4.7960    0.0000 C   0  0  1  0  0  0
    4.9292   -4.4729    0.0000 N   0  0
    4.3872   -5.0950    0.0000 C   0  0
    4.8078   -5.7996    0.0000 C   0  0
    5.6075   -5.6188    0.0000 C   0  0
    4.7438   -3.6733    0.0000 C   0  0
    5.3498   -3.1135    0.0000 O   0  0
    3.9611   -3.4292    0.0000 C   0  0  1  0  0  0
    3.3552   -3.9889    0.0000 N   0  0
    2.5724   -3.7448    0.0000 C   0  0
    2.3870   -2.9451    0.0000 O   0  0
    1.9664   -4.3046    0.0000 C   0  0  1  0  0  0
    2.1475   -5.1042    0.0000 N   0  0
    1.5458   -5.6639    0.0000 C   0  0
    0.7588   -5.4198    0.0000 O   0  0
    1.7268   -6.4680    0.0000 C   0  0  1  0  0  0
    2.5139   -6.7078    0.0000 N   0  0
    2.6950   -7.5117    0.0000 C   0  0
    2.0933   -8.0716    0.0000 O   0  0
    3.7757   -2.6295    0.0000 C   0  0
    4.3817   -2.0697    0.0000 C   0  0
    5.1820   -2.2303    0.0000 C   0  0
    5.5819   -1.5136    0.0000 N   0  0
    4.2802   -1.2537    0.0000 C   0  0
    5.0289   -0.9136    0.0000 C   0  0
    5.1032   -0.0923    0.0000 C   0  0
    4.4299    0.3881    0.0000 C   0  0
    3.6799    0.0377    0.0000 C   0  0
    3.6092   -0.7844    0.0000 C   0  0
    1.1837   -4.0603    0.0000 C   0  0
    0.9983   -3.2607    0.0000 C   0  0
    0.2156   -3.0166    0.0000 C   0  0
    0.0302   -2.2126    0.0000 N   0  0
   -0.7597   -1.9727    0.0000 C   0  0
   -0.9459   -1.1687    0.0000 N   0  0
   -1.3636   -2.5325    0.0000 N   0  0
    1.1252   -7.0234    0.0000 C   0  0
    0.3381   -6.7836    0.0000 C   0  0
   -0.2636   -7.3434    0.0000 C   0  0
   -1.0580   -7.0991    0.0000 N   0  0
   -1.6574   -7.6590    0.0000 C   0  0
   -2.4431   -7.4148    0.0000 N   0  0
   -1.4756   -8.4586    0.0000 N   0  0
    3.4820   -7.7559    0.0000 C   0  0
    9.2304   -1.8543    0.0000 N   0  0
    9.2180   -0.9989    0.0000 C   0  0
    9.9527   -0.5606    0.0000 N   0  0
    8.4712   -0.5819    0.0000 N   0  0
   12.1230   -5.0943    0.0000 H   0  0
  2  1  1  0
  2  3  1  1
  5  4  1  1
  5  6  1  0
  8  9  1  0
 12 17  1  0
 20 25  1  0
 28 33  1  0
 35 36  1  0
 39 46  1  0
 49 57  1  0
 60 68  1  0
 71 75  1  0
 78 82  1  0
 85100  1  0
103107  1  0
  2  8  1  0
  8  7  2  0
 10  9  1  0
 10 12  1  0
 12 11  2  0
 10 13  1  0
 13 14  1  1
 13 15  1  0
 15 16  1  0
 18 17  1  0
 18 20  1  0
 20 19  2  0
 18 21  1  1
 21 22  1  0
 22 23  1  0
 22 24  1  0
 25 26  1  0
 26 28  1  0
 28 27  2  0
 26 29  1  1
 29 30  1  0
 30 31  2  0
 30 32  1  0
 33  5  1  0
  5 35  1  0
 35 34  2  0
 36 37  1  0
 37 39  1  0
 39 38  2  0
 37 40  1  1
 40 45  1  0
 41 42  1  0
 42 43  2  0
 43 44  1  0
 44 45  2  0
 45 41  1  0
 46 47  1  0
 47 49  1  0
 49 48  2  0
 47 50  1  6
 50 51  1  0
 50 52  1  0
 53 54  1  0
 54 55  1  0
 54 56  2  0
 57 58  1  0
 58 60  1  0
 60 59  2  0
 58 61  1  1
 61 62  1  0
 62 63  1  0
 63 53  1  0
 64 65  1  0
 65 66  1  0
 65 67  2  0
 68 69  1  0
 69 71  1  0
 71 70  2  0
 69 72  1  6
 72 73  1  0
 73 74  1  0
 74 64  1  0
 75 76  1  0
 76 78  1  0
 78 77  2  0
 76 79  1  1
 79 80  1  0
 79 81  1  0
 82 83  1  0
 83 85  1  0
 85 84  2  0
 83 86  1  6
 86 88  1  0
 87 88  2  0
 88 90  1  0
 89 87  1  0
 91 89  1  0
 90 91  2  0
 91 92  1  0
 92 93  2  0
 93 94  1  0
 94 95  2  0
 95 90  1  0
 96 97  1  0
 97 98  1  0
 97 99  2  0
100101  1  0
101103  1  0
103102  2  0
101104  1  1
104105  1  0
105106  1  0
106 96  1  0
  2108  1  0
108109  1  0
109110  2  0
109111  1  0
111112  1  0
112113  1  0
113114  2  0
  1115  1  0
115116  1  0
  6117  1  0
117118  1  0
118119  1  0
119120  2  0
116120  1  0
111121  1  1
121122  1  0
122123  1  0
124113  1  6
124125  1  0
125126  1  0
126127  1  0
127128  1  0
128124  1  0
125129  1  0
129130  2  0
129131  1  0
131132  1  0
132133  1  0
133134  2  0
133135  1  0
135136  1  0
136137  1  0
137138  2  0
137139  1  0
139140  1  0
140141  1  0
141142  2  0
131143  1  1
143144  1  0
144145  2  0
145146  1  0
146148  1  0
147144  1  0
147148  2  0
148149  1  0
149150  2  0
150151  1  0
151152  2  0
152147  1  0
135153  1  1
153154  1  0
154155  1  0
155156  1  0
156157  1  0
157158  1  0
157159  2  0
139160  1  1
160161  1  0
161162  1  0
162163  1  0
163164  1  0
164165  1  0
164166  2  0
141167  1  0
123168  1  0
168169  1  0
169170  2  0
169171  1  0
 10172  1  1
M  END