
          11280715502D 1   1.00000     0.00000     0

 42 45  0     1  0            999 V2000
    0.4518  -16.4679    0.0000 C   0  0  0  0  0  0           0  0  0
    0.8716  -17.1808    0.0000 C   0  0  0  0  0  0           0  0  0
    1.6970  -17.1728    0.0000 C   0  0  0  0  0  0           0  0  0
    2.1037  -16.4526    0.0000 C   0  0  0  0  0  0           0  0  0
    1.6789  -15.7389    0.0000 C   0  0  0  0  0  0           0  0  0
    0.8549  -15.7504    0.0000 C   0  0  0  0  0  0           0  0  0
    2.0816  -15.0189    0.0000 C   0  0  0  0  0  0           0  0  0
    2.9065  -15.0076    0.0000 N   0  0  3  0  0  0           0  0  0
    1.6594  -14.3101    0.0000 O   0  0  0  0  0  0           0  0  0
    3.3274  -15.7192    0.0000 C   0  0  1  0  0  0           0  0  0
    4.1488  -15.7100    0.0000 C   0  0  0  0  0  0           0  0  0
    4.5553  -14.9918    0.0000 N   0  0  3  0  0  0           0  0  0
    4.1343  -14.2811    0.0000 C   0  0  0  0  0  0           0  0  0
    3.3067  -14.2888    0.0000 C   0  0  0  0  0  0           0  0  0
    2.9227  -16.4382    0.0000 C   0  0  0  0  0  0           0  0  0
    3.3346  -17.1510    0.0000 C   0  0  0  0  0  0           0  0  0
    3.0042  -17.9051    0.0000 C   0  0  0  0  0  0           0  0  0
    3.6162  -18.4558    0.0000 N   0  0  0  0  0  0           0  0  0
    4.1576  -17.2386    0.0000 C   0  0  0  0  0  0           0  0  0
    4.3281  -18.0427    0.0000 C   0  0  0  0  0  0           0  0  0
    5.1083  -18.2954    0.0000 C   0  0  0  0  0  0           0  0  0
    5.7185  -17.7452    0.0000 C   0  0  0  0  0  0           0  0  0
    5.5434  -16.9389    0.0000 C   0  0  0  0  0  0           0  0  0
    4.7635  -16.6899    0.0000 C   0  0  0  0  0  0           0  0  0
    2.1083  -17.8850    0.0000 C   0  0  3  0  0  0           0  0  0
    2.8186  -17.4654    0.0000 F   0  0  0  0  0  0           0  0  0
    2.5242  -18.5974    0.0000 F   0  0  0  0  0  0           0  0  0
    1.3958  -18.3009    0.0000 F   0  0  0  0  0  0           0  0  0
   -0.3731  -16.4762    0.0000 C   0  0  3  0  0  0           0  0  0
   -0.3702  -17.3018    0.0000 F   0  0  0  0  0  0           0  0  0
   -0.3866  -15.6517    0.0000 F   0  0  0  0  0  0           0  0  0
   -1.2006  -16.4857    0.0000 F   0  0  0  0  0  0           0  0  0
    5.3803  -14.9836    0.0000 C   0  0  0  0  0  0           0  0  0
    5.7857  -14.2651    0.0000 C   0  0  0  0  0  0           0  0  0
    6.6107  -14.2570    0.0000 N   0  0  0  0  0  0           0  0  0
    5.3662  -13.5547    0.0000 C   0  0  0  0  0  0           0  0  0
    7.0302  -14.9673    0.0000 O   0  0  0  0  0  0           0  0  0
    7.8552  -14.9592    0.0000 C   0  0  0  0  0  0           0  0  0
    8.2747  -15.6695    0.0000 C   0  0  0  0  0  0           0  0  0
    9.0997  -15.6614    0.0000 N   0  0  3  0  0  0           0  0  0
    9.5192  -16.3718    0.0000 C   0  0  0  0  0  0           0  0  0
    9.5051  -14.9429    0.0000 C   0  0  0  0  0  0           0  0  0
 19 20  2  0     0  0
  4  5  1  0     0  0
 20 21  1  0     0  0
  2  3  1  0     0  0
 21 22  2  0     0  0
  5  6  2  0     0  0
 22 23  1  0     0  0
  6  1  1  0     0  0
 23 24  2  0     0  0
 24 19  1  0     0  0
  1  2  2  0     0  0
  3 25  1  0     0  0
  8 14  1  0     0  0
 25 26  1  0     0  0
 10 11  1  0     0  0
 25 27  1  0     0  0
 11 12  1  0     0  0
 25 28  1  0     0  0
 12 13  1  0     0  0
  1 29  1  0     0  0
 13 14  1  0     0  0
 29 30  1  0     0  0
  5  7  1  0     0  0
 29 31  1  0     0  0
 10 15  1  1     0  0
 29 32  1  0     0  0
  3  4  2  0     0  0
 12 33  1  0     0  0
 15 16  1  0     0  0
 33 34  1  0     0  0
 16 17  2  0     0  0
 34 35  2  0     0  0
  7  8  1  0     0  0
 34 36  1  0     0  0
 35 37  1  0     0  0
 17 18  1  0     0  0
 37 38  1  0     0  0
 18 20  1  0     0  0
 38 39  1  0     0  0
 19 16  1  0     0  0
 39 40  1  0     0  0
  7  9  2  0     0  0
 40 41  1  0     0  0
  8 10  1  0     0  0
 40 42  1  0     0  0
M  END