
          11280715392D 1   1.00000     0.00000     0

 40 42  0     1  0            999 V2000
    4.6917   -2.2625    0.0000 C   0  0  1  0  0  0           0  0  0
    3.9792   -1.8542    0.0000 C   0  0  1  0  0  0           0  0  0
    5.4042   -1.0292    0.0000 C   0  0  1  0  0  0           0  0  0
    5.4042   -1.8542    0.0000 C   0  0  2  0  0  0           0  0  0
    3.9792   -1.0292    0.0000 C   0  0  2  0  0  0           0  0  0
    4.6917   -0.6125    0.0000 C   0  0  1  0  0  0           0  0  0
    4.6875   -3.9125    0.0000 P   0  0  3  0  0  0           0  0  0
    2.4667   -2.4792    0.0000 P   0  0  3  0  0  0           0  0  0
    6.9167   -0.4000    0.0000 P   0  0  3  0  0  0           0  0  0
    4.6917   -3.0875    0.0000 O   0  0  0  0  0  0           0  0  0
    3.2667   -2.2667    0.0000 O   0  0  0  0  0  0           0  0  0
    6.1167   -0.6167    0.0000 O   0  0  0  0  0  0           0  0  0
   12.0250   -0.3750    0.0000 C   0  0  0  0  0  0           0  0  0
   11.3042    0.0333    0.0000 C   0  0  0  0  0  0           0  0  0
   12.0292   -1.2000    0.0000 C   0  0  0  0  0  0           0  0  0
    2.2500   -1.6792    0.0000 O   0  0  0  0  0  0           0  0  0
    3.8625   -3.9125    0.0000 O   0  0  0  0  0  0           0  0  0
    6.9125   -1.2250    0.0000 O   0  0  0  0  0  0           0  0  0
   11.3042    0.8583    0.0000 O   0  0  0  0  0  0           0  0  0
    5.5125   -3.9125    0.0000 O   0  0  0  0  0  0           0  0  0
    2.4625   -3.3042    0.0000 O   0  0  0  0  0  0           0  0  0
    4.6792   -4.7375    0.0000 O   0  0  0  0  0  0           0  0  0
    1.6417   -2.4750    0.0000 O   0  0  0  0  0  0           0  0  0
    6.9125    0.4250    0.0000 O   0  0  0  0  0  0           0  0  0
    6.1167   -2.2667    0.0000 O   0  0  0  0  0  0           0  0  0
    3.2667   -0.6167    0.0000 O   0  0  0  0  0  0           0  0  0
    4.6917    0.2125    0.0000 O   0  0  0  0  0  0           0  0  0
   10.5917   -0.3792    0.0000 N   0  0  0  0  0  0           0  0  0
    7.7417   -0.4000    0.0000 O   0  0  0  0  0  0           0  0  0
   12.7417   -1.6042    0.0000 C   0  0  0  0  0  0           0  0  0
   12.7292    0.0458    0.0000 C   0  0  0  0  0  0           0  0  0
    9.1667   -0.3917    0.0000 C   0  0  0  0  0  0           0  0  0
   11.3250   -1.6125    0.0000 C   0  0  0  0  0  0           0  0  0
   13.4500   -0.3625    0.0000 C   0  0  0  0  0  0           0  0  0
    9.8792    0.0250    0.0000 C   0  0  0  0  0  0           0  0  0
    8.4542    0.0208    0.0000 C   0  0  0  0  0  0           0  0  0
   13.4542   -1.1917    0.0000 C   0  0  0  0  0  0           0  0  0
   12.7500   -2.4250    0.0000 C   0  0  0  0  0  0           0  0  0
   11.3292   -2.4292    0.0000 C   0  0  0  0  0  0           0  0  0
   12.0417   -2.8417    0.0000 C   0  0  0  0  0  0           0  0  0
  2  1  1  0     0  0
  3  4  1  0     0  0
  4  1  1  0     0  0
  5  2  1  0     0  0
  6  3  1  0     0  0
  7 10  1  0     0  0
  8 11  1  0     0  0
  9 12  1  0     0  0
  1 10  1  1     0  0
  2 11  1  6     0  0
  3 12  1  1     0  0
 13 14  1  0     0  0
 14 28  1  0     0  0
 15 13  2  0     0  0
 16  8  2  0     0  0
 17  7  2  0     0  0
 18  9  2  0     0  0
 19 14  2  0     0  0
 20  7  1  0     0  0
 21  8  1  0     0  0
 22  7  1  0     0  0
 23  8  1  0     0  0
 24  9  1  0     0  0
  4 25  1  6     0  0
  5 26  1  1     0  0
  6 27  1  1     0  0
 28 35  1  0     0  0
 29  9  1  0     0  0
 30 15  1  0     0  0
 31 13  1  0     0  0
 32 36  1  0     0  0
 33 15  1  0     0  0
 34 31  2  0     0  0
 35 32  1  0     0  0
 36 29  1  0     0  0
 37 34  1  0     0  0
 38 30  1  0     0  0
 39 33  2  0     0  0
 40 39  1  0     0  0
  6  5  1  0     0  0
 37 30  2  0     0  0
 38 40  2  0     0  0
M  END