
  SciTegic01111613442D

 20 21  0  0  0  0            999 V2000
    0.0000    0.7486    0.0000 C   0  0
    0.0000   -0.7486    0.0000 C   0  0
   -1.2964    1.4973    0.0000 C   0  0
   -1.2964   -1.4973    0.0000 C   0  0
   -1.2907    2.9981    0.0000 O   0  0
   -2.6111    0.7486    0.0000 C   0  0
   -2.6111   -0.7486    0.0000 C   0  0
   -3.8717    7.5123    0.0000 N   0  0
   -2.5812    5.2552    0.0000 C   0  0
   -2.5870    3.7544    0.0000 C   0  0
   -3.8775    6.0115    0.0000 C   0  0
   -1.2928   -2.6973    0.0000 O   0  0
   -1.5395    5.8509    0.0000 O   0  0
    1.2964    1.4973    0.0000 C   0  0
    1.2964   -1.4973    0.0000 C   0  0
   -5.1681    8.2686    0.0000 C   0  0
   -5.1634    9.4686    0.0000 C   0  0
   -6.2098    7.6730    0.0000 C   0  0
    2.5929    0.7486    0.0000 C   0  0
    2.5929   -0.7486    0.0000 C   0  0
  2  1  1  0
  3  1  1  0
  4  2  1  0
  5  3  1  0
  6  3  2  0
  7  6  1  0
  8 11  1  0
  9 10  1  0
 10  5  1  0
 11  9  1  0
 12  4  1  0
 13  9  1  0
 14  1  2  0
 15  2  2  0
 16  8  1  0
 17 16  1  0
 18 16  1  0
 19 14  1  0
 20 19  2  0
 15 20  1  0
  7  4  2  0
M  END