
  Mrv0541 05211314572D          

 20 20  0  0  0  0            999 V2000
   -1.5024   -0.3341    0.0000 C   0  0  0  0  0  0  0  0  0  0  0  0
   -0.6819   -0.2478    0.0000 N   0  0  0  0  0  0  0  0  0  0  0  0
   -0.1970   -0.9153    0.0000 C   0  0  0  0  0  0  0  0  0  0  0  0
   -0.5325   -1.6689    0.0000 C   0  0  0  0  0  0  0  0  0  0  0  0
   -1.3530   -1.7552    0.0000 N   0  0  0  0  0  0  0  0  0  0  0  0
   -1.8379   -1.0877    0.0000 C   0  0  0  0  0  0  0  0  0  0  0  0
   -0.3463    0.5059    0.0000 C   0  0  0  0  0  0  0  0  0  0  0  0
    0.4606    0.6774    0.0000 S   0  0  0  0  0  0  0  0  0  0  0  0
    0.5469    1.4979    0.0000 C   0  0  0  0  0  0  0  0  0  0  0  0
   -0.2068    1.8334    0.0000 C   0  0  0  0  0  0  0  0  0  0  0  0
   -0.7588    1.2203    0.0000 N   0  0  0  0  0  0  0  0  0  0  0  0
    1.2613    1.9104    0.0000 C   0  0  0  0  0  0  0  0  0  0  0  0
    1.9758    1.4979    0.0000 C   0  0  0  0  0  0  0  0  0  0  0  0
    2.6903    1.9104    0.0000 N   0  0  0  0  0  0  0  0  0  0  0  0
    3.4048    1.4979    0.0000 C   0  0  0  0  0  0  0  0  0  0  0  0
   -1.6886   -2.5088    0.0000 C   0  0  0  0  0  0  0  0  0  0  0  0
   -2.5090   -2.5951    0.0000 C   0  0  0  0  0  0  0  0  0  0  0  0
   -2.8446   -3.3488    0.0000 C   0  0  0  0  0  0  0  0  0  0  0  0
    4.1192    1.9104    0.0000 O   0  0  0  0  0  0  0  0  0  0  0  0
    6.3585    0.0000    0.0000 Br  0  0  0  0  0  0  0  0  0  0  0  0
  3  4  1  0  0  0  0
  8  9  1  0  0  0  0
  9 10  2  0  0  0  0
 10 11  1  0  0  0  0
 11  7  2  0  0  0  0
  4  5  1  0  0  0  0
  9 12  1  0  0  0  0
  5  6  1  0  0  0  0
 12 13  1  0  0  0  0
 13 14  1  0  0  0  0
  2  7  1  0  0  0  0
 14 15  1  0  0  0  0
  7  8  1  0  0  0  0
  5 16  1  0  0  0  0
  1  2  1  0  0  0  0
 16 17  1  0  0  0  0
  1  6  1  0  0  0  0
 17 18  1  0  0  0  0
  2  3  1  0  0  0  0
 15 19  2  0  0  0  0
M  END