
          11280715022D 1   1.00000     0.00000     0

 21 22  0     1  0            999 V2000
    7.7625   -3.0625    0.0000 C   0  0  1  0  0  0           0  0  0
    8.5542   -3.5167    0.0000 C   0  0  0  0  0  0           0  0  0
    8.0000   -2.1667    0.0000 C   0  0  0  0  0  0           0  0  0
    7.7625   -3.9792    0.0000 C   0  0  0  0  0  0           0  0  0
    6.9667   -4.4292    0.0000 N   0  0  3  0  0  0           0  0  0
    8.0000   -1.2542    0.0000 C   0  0  0  0  0  0           0  0  0
    8.5500   -4.4375    0.0000 O   0  0  0  0  0  0           0  0  0
    7.7625   -5.8042    0.0000 C   0  0  0  0  0  0           0  0  0
    6.9667   -2.6000    0.0000 C   0  0  0  0  0  0           0  0  0
    7.7625   -6.7250    0.0000 C   0  0  0  0  0  0           0  0  0
    9.3500   -3.0625    0.0000 O   0  0  0  0  0  0           0  0  0
    8.7792   -0.8042    0.0000 C   0  0  0  0  0  0           0  0  0
    6.9667   -5.3500    0.0000 C   0  0  0  0  0  0           0  0  0
    8.7792   -2.6250    0.0000 C   0  0  0  0  0  0           0  0  0
    8.7792    0.1208    0.0000 O   0  0  0  0  0  0           0  0  0
    6.1792   -3.9792    0.0000 C   0  0  0  0  0  0           0  0  0
    6.1792   -3.0625    0.0000 C   0  0  0  0  0  0           0  0  0
    9.5792   -2.1667    0.0000 C   0  0  0  0  0  0           0  0  0
    9.5792   -1.2542    0.0000 C   0  0  0  0  0  0           0  0  0
   10.1375   -3.5250    0.0000 C   0  0  0  0  0  0           0  0  0
   10.9292   -3.0667    0.0000 C   0  0  0  0  0  0           0  0  0
  1  2  1  1     0  0
  1  3  1  6     0  0
  4  1  1  0     0  0
  5  4  1  0     0  0
  6  3  1  0     0  0
  7  2  2  0     0  0
  8 13  1  0     0  0
  9  1  1  0     0  0
 10  8  2  0     0  0
 11  2  1  0     0  0
 12  6  2  0     0  0
 13  5  1  0     0  0
 14  3  2  0     0  0
 15 12  1  0     0  0
 16 17  1  0     0  0
 17  9  1  0     0  0
 18 14  1  0     0  0
 19 18  2  0     0  0
 20 11  1  0     0  0
 21 20  1  0     0  0
  5 16  1  0     0  0
 19 12  1  0     0  0
M  END