
  SciTegic04091414152D

 35 40  0  0  0  0            999 V2000
   16.4465  -23.5218    0.0000 C   0  0
   15.3326  -20.7551    0.0000 C   0  0
   14.7098  -21.2911    0.0000 C   0  0  2  0  0  0
   14.8636  -22.0942    0.0000 C   0  0
   15.6532  -22.3385    0.0000 N   0  3
   16.2621  -21.8283    0.0000 C   0  0
   16.1046  -21.0189    0.0000 C   0  0
   14.9366  -21.4740    0.0000 C   0  0
   15.7367  -21.6623    0.0000 C   0  0
   13.9340  -21.0223    0.0000 O   0  0
   12.5182  -20.8516    0.0000 C   0  0
   11.9738  -21.4695    0.0000 C   0  0
   13.1814  -21.3447    0.0000 C   0  0
   11.7605  -20.5261    0.0000 C   0  0
   11.5340  -19.7355    0.0000 C   0  0
   12.0112  -19.0647    0.0000 C   0  0
   12.8293  -19.0307    0.0000 C   0  0
   13.3758  -19.6460    0.0000 C   0  0
   13.2367  -20.4578    0.0000 C   0  0
   11.1561  -21.3995    0.0000 C   0  0
   10.8335  -22.1580    0.0000 C   0  0
   11.4555  -22.7022    0.0000 C   0  0
   12.1639  -22.2772    0.0000 C   0  0
   13.0845  -22.1602    0.0000 O   0  0
   15.7086  -23.1579    0.0000 C   0  0
   16.5868  -24.3269    0.0000 C   0  0
   17.4000  -24.4422    0.0000 C   0  0
   17.7597  -23.7043    0.0000 O   0  0
   17.1729  -23.1314    0.0000 N   0  0
   17.7863  -25.1687    0.0000 C   0  0
   17.3435  -25.8626    0.0000 C   0  0
   17.7251  -26.5885    0.0000 C   0  0
   18.5467  -26.6191    0.0000 C   0  0
   18.9853  -25.9179    0.0000 C   0  0
   18.6013  -25.1948    0.0000 C   0  0
  2  3  1  0
  2  7  1  0
  3  4  1  0
  4  5  1  0
  5  6  1  0
  6  7  1  0
  2  8  1  0
  5  9  1  0
  8  9  1  0
  3 10  1  6
 12 11  1  0
 11 13  1  0
 14 15  1  0
 15 16  1  0
 16 17  1  0
 14 11  1  0
 17 18  1  0
 11 19  1  0
 18 19  1  0
 12 20  2  0
 20 21  1  0
 21 22  2  0
 22 23  1  0
 23 12  1  0
 13 24  2  0
 13 10  1  0
  5 25  1  0
 25  1  1  0
  1 26  1  0
 26 27  2  0
 27 28  1  0
 28 29  1  0
 29  1  2  0
 27 30  1  0
 30 31  2  0
 31 32  1  0
 32 33  2  0
 33 34  1  0
 34 35  2  0
 35 30  1  0
M  CHG  1   5   1
M  END