
  SciTegic09081514182D

 82 88  0  0  0  0            999 V2000
    1.3000    1.9500    0.0000 O   0  5
    1.3000    0.7500    0.0000 C   0  0
    2.6000    0.0000    0.0000 C   0  0
    0.2606    0.1503    0.0000 O   0  0
    3.6394    0.5997    0.0000 F   0  0
    3.6391   -0.6002    0.0000 F   0  0
    2.6000   -1.2000    0.0000 F   0  0
   23.5880   -5.8980    0.0000 C   0  0
   22.5503   -6.5006    0.0000 O   0  0
   24.8894   -6.6456    0.0000 C   0  0
   24.8936   -8.1464    0.0000 C   0  0
   26.1950   -8.8940    0.0000 C   0  0
   26.1992  -10.3948    0.0000 C   0  0
   27.5005  -11.1424    0.0000 C   0  0
   27.5047  -12.6432    0.0000 N   0  0
   28.8061  -13.3908    0.0000 C   0  0
   29.8439  -12.7883    0.0000 O   0  0
   28.8103  -14.8917    0.0000 C   0  0
   30.1099  -15.6407    0.0000 C   0  0
   30.1110  -17.1407    0.0000 C   0  0
   28.8126  -17.8917    0.0000 C   0  0
   27.5129  -17.1426    0.0000 C   0  0
   27.5118  -15.6426    0.0000 C   0  0
   28.8080  -19.3924    0.0000 C   0  0
   28.8080  -22.3927    0.0000 O   0  0
   27.5091  -21.6427    0.0000 C   0  0
   27.5091  -20.1425    0.0000 C   0  0
   26.2102  -19.3924    0.0000 C   0  0
   24.9113  -20.1425    0.0000 C   0  0
   24.9113  -21.6427    0.0000 C   0  0
   26.2102  -22.3927    0.0000 C   0  0
   30.0886  -20.1425    0.0000 C   0  0
   30.0886  -21.6427    0.0000 C   0  0
   31.4059  -22.3927    0.0000 C   0  0
   32.7048  -21.6427    0.0000 C   0  0
   32.7048  -20.1425    0.0000 C   0  0
   31.4059  -19.3924    0.0000 C   0  0
   31.4129  -17.8875    0.0000 C   0  0
   32.4508  -17.2853    0.0000 O   0  0
   31.4153  -18.8875    0.0000 O   0  0
   33.7440  -22.2426    0.0000 O   0  0
   23.5838   -4.3972    0.0000 N   0  0
   23.8720  -22.2426    0.0000 O   0  0
   13.6931   13.6276    0.0000 C   0  0
   13.2307   12.2007    0.0000 N   0  0
   14.4448   11.3418    0.0000 C   0  0
   15.6577   12.2025    0.0000 N   0  0
   15.1931   13.6287    0.0000 N   0  0
   11.8065   11.7274    0.0000 C   0  0
   11.3911   10.2915    0.0000 C   0  0
    9.9346    9.9330    0.0000 C   0  0
    8.8958   11.0151    0.0000 C   0  0
    9.3136   12.4557    0.0000 N   0  3
   10.7701   12.8143    0.0000 C   0  0
    7.4378   10.6594    0.0000 O   0  0
    6.6080   11.5263    0.0000 C   0  0
   14.4490    9.8409    0.0000 C   0  0
   15.7504    9.0933    0.0000 O   0  0
   15.7546    7.5925    0.0000 C   0  0
   17.0560    6.8449    0.0000 C   0  0
   17.0602    5.3441    0.0000 O   0  0
   18.3615    4.5965    0.0000 C   0  0
   18.3657    3.0957    0.0000 C   0  0
   19.6671    2.3481    0.0000 O   0  0
   19.6713    0.8473    0.0000 C   0  0
   20.9727    0.0997    0.0000 C   0  0
   20.9769   -1.4012    0.0000 O   0  0
   12.8101   14.8411    0.0000 N   0  0
   11.3838   15.1505    0.0000 C   0  0
   11.7387   16.6079    0.0000 C   0  0
   13.1962   16.2530    0.0000 C   0  0
   10.9646   17.8866    0.0000 O   0  0
   11.6869   19.2021    0.0000 C   0  0
   10.9119   20.4864    0.0000 C   0  0
   11.6365   21.7998    0.0000 C   0  0
   13.1362   21.8289    0.0000 C   0  0
   13.9113   20.5447    0.0000 C   0  0
   13.1867   19.2314    0.0000 C   0  0
    9.7121   20.4632    0.0000 Cl  0  0
   13.7159   22.8796    0.0000 F   0  0
   22.2783   -2.1488    0.0000 C   0  0
   22.2825   -3.6496    0.0000 C   0  0
  1  2  1  0
  2  3  1  0
  2  4  2  0
  3  5  1  0
  3  6  1  0
  3  7  1  0
  8  9  2  0
  8 10  1  0
 10 11  1  0
 11 12  1  0
 12 13  1  0
 13 14  1  0
 14 15  1  0
 15 16  1  0
 16 17  2  0
 16 18  1  0
 18 19  2  0
 19 20  1  0
 20 21  2  0
 21 22  1  0
 22 23  2  0
 23 18  1  0
 24 27  1  0
 24 32  2  0
 26 25  1  0
 25 33  1  0
 21 24  1  0
 26 27  2  0
 27 28  1  0
 28 29  2  0
 29 30  1  0
 30 31  2  0
 31 26  1  0
 32 33  1  0
 32 37  1  0
 33 34  2  0
 34 35  1  0
 35 36  1  0
 36 37  2  0
 20 38  1  0
 38 39  2  0
 38 40  1  0
 35 41  2  0
  8 42  1  0
 30 43  1  0
 44 45  1  0
 45 46  1  0
 46 47  2  0
 47 48  1  0
 48 44  2  0
 49 50  2  0
 50 51  1  0
 51 52  2  0
 52 53  1  0
 53 54  2  0
 54 49  1  0
 45 49  1  0
 52 55  1  0
 55 56  1  0
 46 57  1  0
 57 58  1  0
 58 59  1  0
 59 60  1  0
 60 61  1  0
 61 62  1  0
 62 63  1  0
 63 64  1  0
 64 65  1  0
 65 66  1  0
 66 67  1  0
 68 69  1  0
 69 70  1  0
 70 71  1  0
 71 68  1  0
 44 68  1  0
 70 72  1  0
 72 73  1  0
 73 74  2  0
 74 75  1  0
 75 76  2  0
 76 77  1  0
 77 78  2  0
 78 73  1  0
 74 79  1  0
 76 80  1  0
 67 81  1  0
 81 82  1  0
 82 42  1  0
M  CHG  2   1  -1  53   1
M  END