
  SciTegic04151115542D

 39 42  0  0  0  0            999 V2000
    7.2381   -0.5792    0.0000 C   0  0
    7.6465    0.1375    0.0000 C   0  0
    8.4715    0.1422    0.0000 C   0  0
    7.2299    0.8497    0.0000 C   0  0
    7.6384    1.5665    0.0000 O   0  0
    6.4048    0.8450    0.0000 C   0  0
    5.9882    1.5571    0.0000 O   0  0
    5.1631    1.5524    0.0000 C   0  0
    5.9964    0.1281    0.0000 O   0  0
    8.8882   -0.5699    0.0000 O   0  0
    8.8800    0.8591    0.0000 C   0  0
    9.7050    0.8638    0.0000 N   0  0
    8.4634    1.5712    0.0000 O   0  0
   10.1135    1.5806    0.0000 C   0  0
   10.9368    1.5824    0.0000 C   0  0
   11.3453    2.2985    0.0000 C   0  0
   10.9285    3.0117    0.0000 C   0  0
   10.0993    3.0043    0.0000 C   0  0
    9.6946    2.2877    0.0000 C   0  0
    6.4121   -0.5811    0.0000 N   0  0
    7.2495   -2.0027    0.0000 N   0  0
    7.6542   -1.2862    0.0000 C   0  0
    6.4204   -2.0101    0.0000 C   0  0
    6.0068   -1.2987    0.0000 C   0  0
    5.1858   -1.3022    0.0000 C   0  0
    4.7775   -2.0163    0.0000 C   0  0
    5.1961   -2.7283    0.0000 C   0  0
    6.0157   -2.7213    0.0000 C   0  0
    8.4791   -1.2789    0.0000 O   0  0
    4.7894   -3.4463    0.0000 C   0  0
    3.9644   -3.4530    0.0000 O   0  0
    5.2088   -4.1547    0.0000 C   0  0
    4.8005   -4.8728    0.0000 C   0  0
    5.2181   -5.5835    0.0000 C   0  0
    6.0441   -5.5771    0.0000 C   0  0
    6.4505   -4.8542    0.0000 C   0  0
    6.0305   -4.1466    0.0000 C   0  0
   11.3521    0.8695    0.0000 C   0  0
    9.6801    3.7149    0.0000 C   0  0
  3 10  2  0
  1 20  1  0
 20 24  2  0
  2  3  1  0
 23 21  2  0
  3 11  1  0
 21 22  1  0
 22  1  2  0
  4  6  1  0
 11 12  1  0
 23 24  1  0
  1  2  1  0
 24 25  1  0
 11 13  2  0
 25 26  2  0
  6  7  1  0
 26 27  1  0
 12 14  1  0
 27 28  2  0
 28 23  1  0
  2  4  1  0
 22 29  1  0
 14 15  2  0
 27 30  1  0
  7  8  1  0
 30 31  2  0
 15 16  1  0
 32 33  2  0
 16 17  2  0
 33 34  1  0
  6  9  2  0
 34 35  2  0
 17 18  1  0
 35 36  1  0
  4  5  2  0
 36 37  2  0
 37 32  1  0
 30 32  1  0
 18 19  2  0
 15 38  1  0
 19 14  1  0
 18 39  1  0
M  END