
  SciTegic04191610272D

 58 65  0  0  0  0            999 V2000
   -5.1874   -0.3726    0.0000 O   0  0
   -7.5494   -1.9939    0.0000 O   0  0
   -7.5835   -4.6936    0.0000 O   0  0
   -5.2625   -6.0731    0.0000 O   0  0
   -3.9199   -2.6397    0.0000 O   0  0
   -1.6013   -4.3155    0.0000 O   0  0
   -5.2094   -1.8733    0.0000 C   0  0  2  0  0  0
   -6.5178   -2.6069    0.0000 C   0  0  1  0  0  0
   -6.5368   -4.1068    0.0000 C   0  0  2  0  0  0
   -5.2473   -4.8732    0.0000 C   0  0  1  0  0  0
   -3.9389   -4.1396    0.0000 C   0  0  1  0  0  0
   -2.6471   -4.9038    0.0000 C   0  0
    0.0095   -0.4512    0.0000 O   0  0
   -2.6098   -1.6112    0.0000 O   0  0
   -4.8825    2.4759    0.0000 O   0  0
   -1.2553    1.8175    0.0000 O   0  0
   -1.2794    0.3176    0.0000 C   0  0  2  0  0  0
   -2.5904   -0.4113    0.0000 C   0  0  1  0  0  0
   -3.8772    0.3595    0.0000 C   0  0  2  0  0  0
   -3.8531    1.8593    0.0000 C   0  0  1  0  0  0
   -2.5421    2.5883    0.0000 C   0  0  1  0  0  0
   -2.5228    3.7881    0.0000 C   0  0
    1.3200    1.7700    0.0000 C   0  0
    1.3200    0.2800    0.0000 C   0  0  1  0  0  0
    2.6600   -0.5000    0.0000 C   0  0  1  0  0  0
    2.6600    2.5600    0.0000 C   0  0
    4.0000    1.7900    0.0000 C   0  0  1  0  0  0
    4.0000    0.2500    0.0000 C   0  0  1  0  0  0
    5.3400   -0.5000    0.0000 C   0  0
    6.6800    0.2800    0.0000 C   0  0
    5.3400    2.5600    0.0000 C   0  0  2  0  0  0
    6.6800    1.7700    0.0000 C   0  0  2  0  0  0
    6.6800    4.8600    0.0000 C   0  0
    5.3400    4.0900    0.0000 C   0  0
    8.0200    4.0900    0.0000 C   0  0  1  0  0  0
    8.0200    2.5400    0.0000 C   0  0  1  0  0  0
    9.3600    1.7500    0.0000 C   0  0
   10.6800    2.5000    0.0000 C   0  0  2  0  0  0
    9.3600    4.8300    0.0000 C   0  0  1  0  0  0
   10.6800    4.0800    0.0000 C   0  0  2  0  0  0
   12.0200    4.8600    0.0000 C   0  0
   12.0200    6.3900    0.0000 C   0  0
   10.6800    7.1500    0.0000 C   0  0
    9.3600    6.3900    0.0000 C   0  0
    9.6248    7.7215    0.0000 C   0  0
   11.7314    7.7284    0.0000 C   0  0
    4.0000    2.7900    0.0000 C   0  0
    7.5455    1.2691    0.0000 C   0  0
    4.0000   -0.7500    0.0000 H   0  0
    4.4745    3.0609    0.0000 H   0  0
    8.0144    1.5400    0.0000 C   0  0
    8.4988    5.3382    0.0000 H   0  0
   11.7172    1.8964    0.0000 O   0  0
    9.5200    3.6900    0.0000 O   0  0
   12.1700    3.6900    0.0000 C   0  0
    3.5341   -0.9857    0.0000 C   0  0
    1.3541   -1.1967    0.0000 C   0  0
    0.4922   -0.6898    0.0000 O   0  0
  6 12  1  0
 11  5  1  0
  5  7  1  0
  7  8  1  0
  8  9  1  0
  9 10  1  0
 10 11  1  0
 11 12  1  6
  7  1  1  6
  8  2  1  1
  9  3  1  6
 10  4  1  1
 21 16  1  0
 16 17  1  0
 17 18  1  0
 18 19  1  0
 19 20  1  0
 20 21  1  0
 21 22  1  1
 17 13  1  1
 18 14  1  6
 19  1  1  1
 20 15  1  6
 23 24  1  0
 23 26  1  0
 24 25  1  0
 25 28  1  0
 27 26  1  0
 27 28  1  0
 27 31  1  0
 28 29  1  0
 29 30  1  0
 30 32  1  0
 31 32  1  0
 31 34  1  0
 32 36  1  0
 35 33  1  0
 33 34  2  0
 35 36  1  0
 35 39  1  0
 36 37  1  0
 37 38  1  0
 38 40  1  0
 39 40  1  0
 39 44  1  0
 40 41  1  0
 41 42  1  0
 42 43  1  0
 43 44  1  0
 43 45  1  0
 43 46  1  0
 27 47  1  1
 32 48  1  1
 28 49  1  6
 31 50  1  6
 36 51  1  6
 39 52  1  1
 38 53  1  6
 35 54  1  1
 40 55  1  1
 54 55  1  0
 25 56  1  1
 25 57  1  0
 57 58  1  0
 24 13  1  1
M  END