
  Mrv0541 04051115152D          

 32 36  0  0  0  0            999 V2000
   -0.3220    1.0602    0.0000 N   0  0  0  0  0  0  0  0  0  0  0  0
   -1.8211    0.9026    0.0000 N   0  0  0  0  0  0  0  0  0  0  0  0
    0.3924   -0.1773    0.0000 C   0  0  0  0  0  0  0  0  0  0  0  0
   -0.3220   -0.5898    0.0000 C   0  0  0  0  0  0  0  0  0  0  0  0
   -1.8211   -0.4323    0.0000 C   0  0  0  0  0  0  0  0  0  0  0  0
   -0.3220    1.8852    0.0000 C   0  0  0  0  0  0  0  0  0  0  0  0
    1.1069   -0.5898    0.0000 C   0  0  0  0  0  0  0  0  0  0  0  0
   -1.5240    2.3003    0.0000 C   0  0  0  0  0  0  0  0  0  0  0  0
   -3.1380    2.6434    0.0000 C   0  0  0  0  0  0  0  0  0  0  0  0
    1.1069   -1.4148    0.0000 C   0  0  0  0  0  0  0  0  0  0  0  0
    2.5359   -1.4148    0.0000 C   0  0  0  0  0  0  0  0  0  0  0  0
    1.8214    0.6477    0.0000 C   0  0  0  0  0  0  0  0  0  0  0  0
    1.8214   -2.6523    0.0000 C   0  0  0  0  0  0  0  0  0  0  0  0
    2.5359   -3.8898    0.0000 C   0  0  0  0  0  0  0  0  0  0  0  0
    2.1234   -4.6043    0.0000 C   0  0  0  0  0  0  0  0  0  0  0  0
    2.9484   -4.6043    0.0000 C   0  0  0  0  0  0  0  0  0  0  0  0
    2.5359   -3.0648    0.0000 N   0  0  0  0  0  0  0  0  0  0  0  0
    1.1069   -3.0648    0.0000 O   0  0  0  0  0  0  0  0  0  0  0  0
    1.8214   -1.8273    0.0000 C   0  0  0  0  0  0  0  0  0  0  0  0
    2.5359   -0.5898    0.0000 C   0  0  0  0  0  0  0  0  0  0  0  0
    1.8214   -0.1773    0.0000 C   0  0  0  0  0  0  0  0  0  0  0  0
    0.3924    0.6477    0.0000 C   0  0  0  0  0  0  0  0  0  0  0  0
    1.1069    1.0602    0.0000 O   0  0  0  0  0  0  0  0  0  0  0  0
   -1.0365    0.6477    0.0000 C   0  0  0  0  0  0  0  0  0  0  0  0
   -1.0365   -0.1773    0.0000 C   0  0  0  0  0  0  0  0  0  0  0  0
   -2.3060    0.2352    0.0000 N   0  0  0  0  0  0  0  0  0  0  0  0
   -2.0761    1.6872    0.0000 C   0  0  0  0  0  0  0  0  0  0  0  0
   -2.8830    1.8588    0.0000 C   0  0  0  0  0  0  0  0  0  0  0  0
   -2.5859    3.2565    0.0000 C   0  0  0  0  0  0  0  0  0  0  0  0
   -2.8409    4.0411    0.0000 F   0  0  0  0  0  0  0  0  0  0  0  0
   -1.7790    3.0849    0.0000 C   0  0  0  0  0  0  0  0  0  0  0  0
   -0.7171    2.1288    0.0000 F   0  0  0  0  0  0  0  0  0  0  0  0
 24  1  1  0  0  0  0
 22  1  1  0  0  0  0
  6  1  1  0  0  0  0
 26  2  1  0  0  0  0
 24  2  1  0  0  0  0
 27  2  1  0  0  0  0
  3  4  2  0  0  0  0
  3  7  1  0  0  0  0
 22  3  1  0  0  0  0
 25  4  1  0  0  0  0
 25  5  1  0  0  0  0
  5 26  2  0  0  0  0
 10  7  2  0  0  0  0
 21  7  1  0  0  0  0
  8 32  1  0  0  0  0
  8 27  2  0  0  0  0
  8 31  1  0  0  0  0
  9 28  2  0  0  0  0
 29  9  1  0  0  0  0
 10 19  1  0  0  0  0
 19 11  2  0  0  0  0
 11 20  1  0  0  0  0
 21 12  1  0  0  0  0
 13 18  2  0  0  0  0
 13 17  1  0  0  0  0
 19 13  1  0  0  0  0
 14 16  1  0  0  0  0
 14 15  1  0  0  0  0
 14 17  1  0  0  0  0
 16 15  1  0  0  0  0
 20 21  2  0  0  0  0
 22 23  2  0  0  0  0
 25 24  2  0  0  0  0
 28 27  1  0  0  0  0
 31 29  2  0  0  0  0
 29 30  1  0  0  0  0
M  END