
  CDK    9/16/09,10:9

 34 35  0  0  0  0  0  0  0  0999 V2000
   12.5500  -22.4833    0.0000 C   0  0  0  0  0  0  0  0  0  0  0  0
   13.2620  -22.0667    0.0000 C   0  0  0  0  0  0  0  0  0  0  0  0
   13.9740  -22.4833    0.0000 N   0  0  0  0  0  0  0  0  0  0  0  0
   15.3996  -22.4894    0.0000 C   0  0  0  0  0  0  0  0  0  0  0  0
   14.6863  -22.0716    0.0000 C   0  0  0  0  0  0  0  0  0  0  0  0
   14.6887  -21.2466    0.0000 C   0  0  0  0  0  0  0  0  0  0  0  0
   15.4043  -20.8361    0.0000 C   0  0  0  0  0  0  0  0  0  0  0  0
   16.1147  -21.2523    0.0000 C   0  0  0  0  0  0  0  0  0  0  0  0
   16.8298  -20.8426    0.0000 C   0  0  0  0  0  0  0  0  0  0  0  0
   16.8326  -20.0167    0.0000 C   0  0  0  0  0  0  0  0  0  0  0  0
   16.1143  -19.6023    0.0000 C   0  0  0  0  0  0  0  0  0  0  0  0
   15.4021  -20.0145    0.0000 C   0  0  0  0  0  0  0  0  0  0  0  0
   17.5429  -21.2575    0.0000 C   0  0  0  0  0  0  0  0  0  0  0  0
   18.2542  -21.6667    0.0000 C   0  0  0  0  0  0  0  0  0  0  0  0
   17.1297  -21.9716    0.0000 C   0  0  0  0  0  0  0  0  0  0  0  0
   17.9599  -20.5456    0.0000 C   0  0  0  0  0  0  0  0  0  0  0  0
   17.5477  -19.6053    0.0000 O   0  0  0  0  0  0  0  0  0  0  0  0
   13.2620  -21.2417    0.0000 O   0  0  0  0  0  0  0  0  0  0  0  0
   11.8343  -22.0729    0.0000 N   0  0  0  0  0  0  0  0  0  0  0  0
   11.1211  -22.4875    0.0000 C   0  0  0  0  0  0  0  0  0  0  0  0
   10.4054  -22.0771    0.0000 C   0  0  0  0  0  0  0  0  0  0  0  0
   11.1235  -23.3125    0.0000 O   0  0  0  0  0  0  0  0  0  0  0  0
    9.6921  -22.4917    0.0000 N   0  0  0  0  0  0  0  0  0  0  0  0
   10.4030  -21.2521    0.0000 C   0  0  0  0  0  0  0  0  0  0  0  0
    9.6873  -20.8417    0.0000 C   0  0  0  0  0  0  0  0  0  0  0  0
    9.6874  -20.0157    0.0000 C   0  0  0  0  0  0  0  0  0  0  0  0
    8.9726  -19.6054    0.0000 C   0  0  0  0  0  0  0  0  0  0  0  0
    8.2584  -20.0200    0.0000 C   0  0  0  0  0  0  0  0  0  0  0  0
    8.2634  -20.8493    0.0000 C   0  0  0  0  0  0  0  0  0  0  0  0
    8.9789  -21.2559    0.0000 C   0  0  0  0  0  0  0  0  0  0  0  0
   12.5536  -23.3083    0.0000 C   0  0  0  0  0  0  0  0  0  0  0  0
   11.8410  -23.7240    0.0000 C   0  0  0  0  0  0  0  0  0  0  0  0
   13.2699  -23.7177    0.0000 C   0  0  0  0  0  0  0  0  0  0  0  0
   11.8319  -21.2479    0.0000 C   0  0  0  0  0  0  0  0  0  0  0  0
 10 17  1  0  0  0  0 
  8  9  1  0  0  0  0 
  2 18  2  0  0  0  0 
  4  5  1  0  0  0  0 
  1 19  1  0  0  0  0 
  9 10  2  0  0  0  0 
 19 20  1  0  0  0  0 
 20 21  1  0  0  0  0 
 10 11  1  0  0  0  0 
 20 22  2  0  0  0  0 
  5  6  1  1  0  0  0 
 21 23  1  0  0  0  0 
 11 12  2  0  0  0  0 
 21 24  1  1  0  0  0 
 12  7  1  0  0  0  0 
 24 25  1  0  0  0  0 
  1  2  1  0  0  0  0 
 25 26  2  0  0  0  0 
  9 13  1  0  0  0  0 
 26 27  1  0  0  0  0 
  6  7  1  0  0  0  0 
 27 28  2  0  0  0  0 
 13 14  1  0  0  0  0 
 28 29  1  0  0  0  0 
  3  2  1  0  0  0  0 
 29 30  2  0  0  0  0 
 30 25  1  0  0  0  0 
 13 15  1  0  0  0  0 
  1 31  1  6  0  0  0 
  7  8  2  0  0  0  0 
 31 32  1  0  0  0  0 
 13 16  1  0  0  0  0 
 31 33  1  0  0  0  0 
  3  5  1  0  0  0  0 
 19 34  1  0  0  0  0 
M  END