
          11280714592D 1   1.00000     0.00000     0

 31 33  0     1  0            999 V2000
    3.9000   -4.6875    0.0000 S   0  0  3  0  0  0           0  0  0
    1.6750   -4.6792    0.0000 S   0  0  3  0  0  0           0  0  0
    4.2750   -5.1875    0.0000 C   0  0  3  0  0  0           0  0  0
    0.8917   -2.7792    0.0000 C   0  0  2  0  0  0           0  0  0
    0.8917   -3.3792    0.0000 C   0  0  0  0  0  0           0  0  0
    1.8292   -4.1042    0.0000 N   0  0  3  0  0  0           0  0  0
    1.4167   -2.4792    0.0000 N   0  0  3  0  0  0           0  0  0
    1.4125   -3.6792    0.0000 C   0  0  2  0  0  0           0  0  0
    0.3750   -2.4792    0.0000 C   0  0  0  0  0  0           0  0  0
    4.4292   -4.4667    0.0000 O   0  0  0  0  0  0           0  0  0
    3.3042   -5.0625    0.0000 O   0  0  0  0  0  0           0  0  0
    2.2750   -4.6792    0.0000 O   0  0  0  0  0  0           0  0  0
    1.0750   -4.6792    0.0000 O   0  0  0  0  0  0           0  0  0
    3.4125   -4.2167    0.0000 N   0  0  0  0  0  0           0  0  0
    1.9375   -3.3792    0.0000 C   0  0  0  0  0  0           0  0  0
    1.9375   -2.7792    0.0000 C   0  0  0  0  0  0           0  0  0
    0.3750   -1.8750    0.0000 C   0  0  0  0  0  0           0  0  0
    1.4167   -1.8750    0.0000 C   0  0  0  0  0  0           0  0  0
    4.6167   -5.6417    0.0000 F   0  0  0  0  0  0           0  0  0
    4.1167   -5.8250    0.0000 F   0  0  0  0  0  0           0  0  0
    4.9292   -5.2125    0.0000 F   0  0  0  0  0  0           0  0  0
    2.8292   -4.3750    0.0000 C   0  0  0  0  0  0           0  0  0
    0.8917   -1.5667    0.0000 C   0  0  0  0  0  0           0  0  0
    2.4125   -3.9500    0.0000 C   0  0  0  0  0  0           0  0  0
    1.5167   -5.2625    0.0000 C   0  0  0  0  0  0           0  0  0
   -0.1458   -2.7792    0.0000 C   0  0  0  0  0  0           0  0  0
   -0.1458   -1.5750    0.0000 C   0  0  0  0  0  0           0  0  0
   -0.6625   -2.4792    0.0000 C   0  0  0  0  0  0           0  0  0
   -0.6625   -1.8750    0.0000 C   0  0  0  0  0  0           0  0  0
    0.9917   -4.1875    0.0000 H   0  0  0  0  0  0           0  0  0
    0.3750   -3.0750    0.0000 H   0  0  0  0  0  0           0  0  0
  2  6  1  0     0  0
  3  1  1  0     0  0
  4  5  1  0     0  0
  5  8  1  0     0  0
  6 24  1  0     0  0
  7 16  1  0     0  0
  8  6  1  0     0  0
  9  4  1  0     0  0
 10  1  2  0     0  0
 11  1  2  0     0  0
 12  2  2  0     0  0
 13  2  2  0     0  0
 14  1  1  0     0  0
 15  8  1  0     0  0
 16 15  1  0     0  0
 17  9  1  0     0  0
 18  7  1  0     0  0
 19  3  1  0     0  0
 20  3  1  0     0  0
 21  3  1  0     0  0
 22 14  1  0     0  0
 23 18  1  0     0  0
 24 22  1  0     0  0
 25  2  1  0     0  0
 26  9  2  0     0  0
 27 17  2  0     0  0
 28 26  1  0     0  0
 29 28  2  0     0  0
  8 30  1  6     0  0
  4 31  1  6     0  0
  4  7  1  0     0  0
 23 17  1  0     0  0
 29 27  1  0     0  0
M  END