
          03140815512D 1   1.00000     0.00000     0

 28 32  0     0  0            999 V2000
    0.8345  -16.7428    0.0000 C   0  0  0  0  0  0           0  0  0
    1.4757  -16.0592    0.0000 C   0  0  3  0  0  0           0  0  0
    1.6389  -16.5178    0.0000 C   0  0  3  0  0  0           0  0  0
    2.1872  -16.3218    0.0000 C   0  0  0  0  0  0           0  0  0
    2.3917  -16.8205    0.0000 C   0  0  0  0  0  0           0  0  0
    2.9350  -16.1363    0.0000 C   0  0  3  0  0  0           0  0  0
    1.6321  -15.6693    0.0000 C   0  0  0  0  0  0           0  0  0
    2.1929  -15.0073    0.0000 C   0  0  3  0  0  0           0  0  0
    1.4713  -15.2636    0.0000 C   0  0  0  0  0  0           0  0  0
    2.9409  -15.3173    0.0000 C   0  0  0  0  0  0           0  0  0
    2.1877  -14.1802    0.0000 C   0  0  0  0  0  0           0  0  0
    2.8995  -13.7632    0.0000 N   0  0  0  0  0  0           0  0  0
    3.6167  -14.1711    0.0000 C   0  0  0  0  0  0           0  0  0
    4.3286  -13.7541    0.0000 C   0  0  0  0  0  0           0  0  0
    3.6219  -14.9962    0.0000 O   0  0  0  0  0  0           0  0  0
    5.0430  -14.1627    0.0000 C   0  0  0  0  0  0           0  0  0
    5.7544  -13.7464    0.0000 C   0  0  0  0  0  0           0  0  0
    5.7496  -12.9204    0.0000 C   0  0  0  0  0  0           0  0  0
    5.0275  -12.5126    0.0000 C   0  0  0  0  0  0           0  0  0
    4.3190  -12.9313    0.0000 C   0  0  0  0  0  0           0  0  0
    5.0471  -14.9878    0.0000 Cl  0  0  0  0  0  0           0  0  0
    5.0194  -11.6877    0.0000 C   0  0  0  0  0  0           0  0  0
    5.7298  -11.2681    0.0000 N   0  0  3  0  0  0           0  0  0
    6.4515  -11.6779    0.0000 C   0  0  0  0  0  0           0  0  0
    7.1598  -11.2618    0.0000 C   0  0  0  0  0  0           0  0  0
    7.1559  -10.4365    0.0000 N   0  0  0  0  0  0           0  0  0
    6.4376  -10.0287    0.0000 C   0  0  0  0  0  0           0  0  0
    5.7230  -10.4466    0.0000 C   0  0  0  0  0  0           0  0  0
 12 13  1  0     0  0
  2  4  1  0     0  0
 13 14  1  0     0  0
  3  5  1  0     0  0
 13 15  2  0     0  0
  4  6  1  0     0  0
 14 16  2  0     0  0
  5  6  1  0     0  0
 16 17  1  0     0  0
  7  8  1  0     0  0
 17 18  2  0     0  0
  3  7  1  0     0  0
 18 19  1  0     0  0
  2  9  1  0     0  0
 19 20  2  0     0  0
 20 14  1  0     0  0
  6 10  1  0     0  0
 16 21  1  0     0  0
 10  8  1  0     0  0
 19 22  1  0     0  0
  8  9  1  0     0  0
 22 23  1  0     0  0
 23 24  1  0     0  0
  8 11  1  0     0  0
  1  2  1  0     0  0
 11 12  1  0     0  0
  1  3  1  0     0  0
 23 28  1  0     0  0
 24 25  1  0     0  0
 25 26  1  0     0  0
 26 27  1  0     0  0
 27 28  1  0     0  0
M  END