
  SciTegic01161211252D

 27 30  0  0  0  0            999 V2000
    3.8136   -0.9948    0.0000 N   0  0
    4.6147   -0.8167    0.0000 C   0  0
    5.2607   -1.3331    0.0000 C   0  0
    3.4529   -1.7401    0.0000 C   0  0
    5.2625   -2.1568    0.0000 N   0  0
    3.8107   -2.4851    0.0000 C   0  0
    4.6163   -2.6677    0.0000 C   0  0
    5.9764   -2.5702    0.0000 C   0  0
    5.9744   -3.3954    0.0000 O   0  0
    6.6918   -2.1602    0.0000 C   0  0  2  0  0  0
    7.3623   -2.6353    0.0000 N   0  0
    8.0227   -2.1406    0.0000 C   0  0
    7.7561   -1.3596    0.0000 C   0  0  2  0  0  0
    6.9312   -1.3718    0.0000 C   0  0
    8.2314   -0.6849    0.0000 O   0  0
    7.8260    0.0338    0.0000 C   0  0
    8.2474    0.7411    0.0000 C   0  0
    7.8426    1.4592    0.0000 C   0  0
    7.0167    1.4680    0.0000 C   0  0
    6.5972    0.7525    0.0000 C   0  0
    7.0042    0.0373    0.0000 C   0  0
    3.2276   -0.4141    0.0000 C   0  0
    3.2283    0.4120    0.0000 C   0  0
    2.4033    0.4083    0.0000 C   0  0
    2.4070   -0.4167    0.0000 C   0  0
    7.3733   -3.4603    0.0000 C   0  0
    6.6104    2.1861    0.0000 F   0  0
 12 13  1  0
 13 14  1  0
 14 10  1  0
  6  7  1  0
 13 15  1  6
  1  4  1  0
 15 16  1  0
  5  8  1  0
 16 17  2  0
 17 18  1  0
  8  9  2  0
 18 19  2  0
  3  5  1  0
 19 20  1  0
 10  8  1  1
 20 21  2  0
 21 16  1  0
 10 11  1  0
  1 22  1  0
 22 23  1  0
  2  3  1  0
  4  6  1  0
  1  2  1  0
 23 24  1  0
 24 25  1  0
 25 22  1  0
  5  7  1  0
 11 26  1  0
 11 12  1  0
 19 27  1  0
M  END