
  SciTegic12231509382D

 25 27  0  0  0  0            999 V2000
    1.0732    1.8553    0.0000 C   0  0
    1.7875    1.4424    0.0000 C   0  0
    1.7870    0.6174    0.0000 C   0  0
    1.0723    0.2053    0.0000 C   0  0
    0.3581    0.6182    0.0000 C   0  0
    0.3585    1.4432    0.0000 N   0  0
    1.0737    2.6803    0.0000 N   0  0
    2.5022    1.8545    0.0000 C   0  0
    0.3594    3.0932    0.0000 C   0  0
   -0.3553    2.6811    0.0000 C   0  0
    0.3599    3.9182    0.0000 C   0  0
    1.0709   -2.2697    0.0000 N   0  0
    1.7856   -1.8576    0.0000 N   0  0
    1.7861   -1.0326    0.0000 C   0  0
    1.0718   -0.6197    0.0000 C   0  0
    0.3571   -1.0318    0.0000 C   0  0
   -0.3571   -0.6189    0.0000 C   0  0
   -1.0718   -1.0311    0.0000 C   0  0
   -1.0723   -1.8561    0.0000 C   0  0
   -0.3580   -2.2689    0.0000 C   0  0
    0.3567   -1.8568    0.0000 C   0  0
   -1.7870   -2.2682    0.0000 O   0  0
   -1.7874   -3.0932    0.0000 C   0  0
   -1.7860   -0.6182    0.0000 O   0  0
   -2.5007   -1.0303    0.0000 C   0  0
  1  2  1  0
  2  3  2  0
  3  4  1  0
  4  5  2  0
  5  6  1  0
  1  6  2  0
  1  7  1  0
  2  8  1  0
  9 10  1  0
  9 11  1  0
  7  9  1  0
 12 13  1  0
 13 14  2  0
 14 15  1  0
 15 16  2  0
 16 17  1  0
 17 18  2  0
 18 19  1  0
 19 20  2  0
 20 21  1  0
 12 21  2  0
 16 21  1  0
 22 23  1  0
 19 22  1  0
 24 25  1  0
 18 24  1  0
  4 15  1  0
M  END