
  SciTegic11201309402D

 83 87  0  0  1  0            999 V2000
    5.6542   -3.9167    0.0000 N   0  0
   -0.4000   -4.9417    0.0000 N   0  0
    5.0417   -4.4667    0.0000 C   0  0
    0.1875   -5.5292    0.0000 C   0  0
   -0.9083   -3.3917    0.0000 C   0  0
    4.2500   -4.2042    0.0000 C   0  0  2  0  0  0
    4.3792   -3.3917    0.0000 N   0  0
   -0.7750   -2.5750    0.0000 N   0  0
   -0.7750   -4.2042    0.0000 C   0  0  2  0  0  0
    3.2917   -1.2542    0.0000 N   0  0
    0.9167   -0.8792    0.0000 N   0  0
    4.2500   -2.5750    0.0000 C   0  0
    0.1875   -1.2542    0.0000 C   0  0
    6.6042   -2.7875    0.0000 C   0  0
    2.5542   -0.8792    0.0000 C   0  0
    3.8792   -1.8417    0.0000 C   0  0  1  0  0  0
    6.4167   -3.5917    0.0000 C   0  0  2  0  0  0
   -0.4000   -1.8417    0.0000 C   0  0  1  0  0  0
    0.9167   -5.9042    0.0000 C   0  0
    7.3917   -2.5417    0.0000 N   0  0
    4.4542   -1.2917    0.0000 C   0  0
    1.7375   -0.7500    0.0000 C   0  0  2  0  0  0
    8.3750   -1.5042    0.0000 C   0  0
    6.1417    1.5625    0.0000 C   0  0
    3.2917   -5.5292    0.0000 S   0  0
    2.5542   -5.9042    0.0000 S   0  0
    4.2375   -0.4917    0.0000 C   0  0
    1.7375   -6.0375    0.0000 C   0  0
    8.5542   -0.6917    0.0000 N   0  0
    7.5792   -1.7417    0.0000 C   0  0  2  0  0  0
    9.5417    0.3500    0.0000 C   0  0
    2.4542    1.3208    0.0000 C   0  0
    6.3292    2.3708    0.0000 N   0  0
    5.2042   -5.2750    0.0000 O   0  0
   -1.5625   -4.4667    0.0000 C   0  0
   -0.3000   -6.2000    0.0000 O   0  0
   -1.7333   -3.3917    0.0000 O   0  0
    3.8792   -4.9417    0.0000 C   0  0
    6.0000   -2.2250    0.0000 O   0  0
   -0.3000   -0.5875    0.0000 O   0  0
    5.0417   -2.3167    0.0000 O   0  0
    2.8125   -0.0917    0.0000 O   0  0
   -1.0708   -1.3542    0.0000 C   0  0
    8.9750   -2.0667    0.0000 O   0  0
    4.7417    0.1583    0.0000 O   0  0
    8.9375    0.9125    0.0000 O   0  0
    3.1667    1.7333    0.0000 O   0  0
    1.7375    0.0750    0.0000 C   0  0
    6.7500    0.9958    0.0000 N   0  0
    9.3500   -0.4542    0.0000 C   0  0
    5.3542    1.3250    0.0000 N   0  0
    5.7250   -4.7417    0.0000 C   0  0
   10.3292    0.5875    0.0000 N   0  0
    3.4250   -0.3917    0.0000 N   0  0
    2.4542    0.4958    0.0000 C   0  0
   -2.1750   -3.9125    0.0000 C   0  0
    1.7375    1.7333    0.0000 N   0  0
   -1.0708   -5.4292    0.0000 C   0  0
   -3.4083   -2.8042    0.0000 C   0  0
   -0.9833   -0.5292    0.0000 C   0  0
   -2.0083   -3.1042    0.0000 C   0  0
   -2.9625   -4.1667    0.0000 C   0  0
   -2.6208   -2.5500    0.0000 C   0  0
   -3.5833   -3.6125    0.0000 C   0  0
    6.9542   -4.2167    0.0000 C   0  0
   -4.0208   -2.2542    0.0000 O   0  0
    6.5292   -4.9250    0.0000 C   0  0
    1.0167   -6.3417    0.0000 C   0  0
    2.4542   -6.3417    0.0000 C   0  0
    6.9792   -1.1792    0.0000 C   0  0
    6.5667    0.1958    0.0000 C   0  0
   10.5167    1.3958    0.0000 C   0  0
   -0.2333   -0.1917    0.0000 C   0  0
   -1.6583   -0.0417    0.0000 C   0  0
    7.1667   -0.3667    0.0000 C   0  0
   11.3042    1.6333    0.0000 C   0  0
   11.9042    1.0708    0.0000 C   0  0
    1.0167   -7.1667    0.0000 C   0  0
    2.4542   -7.1667    0.0000 C   0  0
   -1.5708    0.7750    0.0000 C   0  0
   -0.1458    0.6250    0.0000 C   0  0
   -0.8125    1.1125    0.0000 C   0  0
    1.7375   -7.5792    0.0000 C   0  0
  2  4  1  0
  3  1  1  0
  4 19  1  0
  5  9  1  0
  6  3  1  1
  7  6  1  0
  8  5  1  0
  9  2  1  0
 10 16  1  0
 11 22  1  0
 12  7  1  0
 13 11  1  0
 17 14  1  6
 15 10  1  0
 16 12  1  0
 17  1  1  0
 18 13  1  0
 19 28  1  0
 20 14  1  0
 16 21  1  6
 22 15  1  0
 23 30  1  0
 24 49  2  0
 25 38  1  0
 26 25  1  0
 27 21  1  0
 28 26  1  0
 29 23  1  0
 30 20  1  1
 31 50  1  0
 32 55  1  0
 33 24  1  0
 34  3  2  0
  9 35  1  1
 36  4  2  0
 37  5  2  0
  6 38  1  0
 39 14  2  0
 40 13  2  0
 41 12  2  0
 42 15  2  0
 18 43  1  6
 44 23  2  0
 45 27  2  0
 46 31  2  0
 47 32  2  0
 22 48  1  1
 49 71  1  0
 50 29  1  0
 51 24  1  0
 52  1  1  0
 53 31  1  0
 54 27  1  0
 55 48  1  0
 56 35  1  0
 57 32  1  0
 58  2  1  0
 59 64  1  0
 60 43  1  0
 61 56  2  0
 62 56  1  0
 63 61  1  0
 64 62  2  0
 17 65  1  0
 66 59  1  0
 67 52  1  0
 68 28  1  0
 69 28  1  0
 30 70  1  0
 71 75  1  0
 72 53  1  0
 73 60  2  0
 74 60  1  0
 75 70  1  0
 76 72  1  0
 77 76  1  0
 78 68  1  0
 79 69  1  0
 80 74  2  0
 81 73  1  0
 82 80  1  0
 83 79  1  0
 65 67  1  0
 83 78  1  0
 18  8  1  0
 63 59  2  0
 81 82  2  0
M  END