
          11280715012D 1   1.00000     0.00000     0

 42 46  0     1  0            999 V2000
    7.1792   -3.9417    0.0000 C   0  0  0  0  0  0           0  0  0
    5.7542   -3.1167    0.0000 C   0  0  0  0  0  0           0  0  0
    7.1792   -3.1167    0.0000 N   0  0  0  0  0  0           0  0  0
    2.8917   -5.6042    0.0000 C   0  0  0  0  0  0           0  0  0
    6.4667   -4.3542    0.0000 N   0  0  0  0  0  0           0  0  0
    6.4667   -2.7042    0.0000 C   0  0  1  0  0  0           0  0  0
    5.0417   -2.7125    0.0000 N   0  0  0  0  0  0           0  0  0
    7.9042   -4.3500    0.0000 N   0  0  0  0  0  0           0  0  0
    3.6042   -5.1917    0.0000 N   0  0  0  0  0  0           0  0  0
    2.1792   -5.1917    0.0000 N   0  0  0  0  0  0           0  0  0
    6.4667   -1.8792    0.0000 C   0  0  0  0  0  0           0  0  0
    5.7542   -3.9417    0.0000 O   0  0  0  0  0  0           0  0  0
    8.6042   -1.4625    0.0000 C   0  0  0  0  0  0           0  0  0
    7.1792   -1.4667    0.0000 C   0  0  0  0  0  0           0  0  0
    7.8917   -1.8792    0.0000 C   0  0  0  0  0  0           0  0  0
    8.5917   -0.6417    0.0000 C   0  0  0  0  0  0           0  0  0
    4.3292   -3.1292    0.0000 C   0  0  0  0  0  0           0  0  0
    2.8917   -6.4292    0.0000 N   0  0  0  0  0  0           0  0  0
    7.8792   -0.2292    0.0000 C   0  0  0  0  0  0           0  0  0
    2.1792   -4.3667    0.0000 C   0  0  0  0  0  0           0  0  0
    7.1667   -0.6417    0.0000 C   0  0  0  0  0  0           0  0  0
    2.8917   -3.9542    0.0000 C   0  0  0  0  0  0           0  0  0
    6.4792   -5.1792    0.0000 C   0  0  3  0  0  0           0  0  0
    8.6167   -3.9375    0.0000 C   0  0  3  0  0  0           0  0  0
    4.3292   -3.9542    0.0000 C   0  0  0  0  0  0           0  0  0
    3.6042   -2.7167    0.0000 C   0  0  0  0  0  0           0  0  0
    3.6042   -4.3667    0.0000 C   0  0  0  0  0  0           0  0  0
    2.8917   -3.1292    0.0000 C   0  0  0  0  0  0           0  0  0
    9.3167   -1.8667    0.0000 C   0  0  0  0  0  0           0  0  0
    9.3042   -0.2292    0.0000 C   0  0  0  0  0  0           0  0  0
    7.1917   -5.5875    0.0000 C   0  0  0  0  0  0           0  0  0
    5.7542   -5.5917    0.0000 C   0  0  0  0  0  0           0  0  0
    8.6042   -3.1167    0.0000 C   0  0  0  0  0  0           0  0  0
    9.3292   -4.3500    0.0000 C   0  0  0  0  0  0           0  0  0
   10.0167   -1.4542    0.0000 C   0  0  0  0  0  0           0  0  0
   10.0167   -0.6292    0.0000 C   0  0  0  0  0  0           0  0  0
    5.7667   -6.4167    0.0000 C   0  0  0  0  0  0           0  0  0
    7.1917   -6.4167    0.0000 C   0  0  0  0  0  0           0  0  0
   10.0417   -3.9375    0.0000 C   0  0  0  0  0  0           0  0  0
    9.3292   -2.7000    0.0000 C   0  0  0  0  0  0           0  0  0
   10.0417   -3.1125    0.0000 C   0  0  0  0  0  0           0  0  0
    6.4792   -6.8292    0.0000 C   0  0  0  0  0  0           0  0  0
  2  6  1  0     0  0
  3  1  2  0     0  0
  4 10  1  0     0  0
  5  1  1  0     0  0
  6  3  1  0     0  0
  7  2  1  0     0  0
  8  1  1  0     0  0
  9  4  2  0     0  0
 10 20  1  0     0  0
  6 11  1  6     0  0
 12  2  2  0     0  0
 13 15  1  0     0  0
 14 11  1  0     0  0
 15 14  2  0     0  0
 16 19  1  0     0  0
 17  7  1  0     0  0
 18  4  1  0     0  0
 19 21  2  0     0  0
 20 22  1  0     0  0
 21 14  1  0     0  0
 22 28  1  0     0  0
 23  5  1  0     0  0
 24  8  1  0     0  0
 25 17  2  0     0  0
 26 17  1  0     0  0
 27 25  1  0     0  0
 28 26  2  0     0  0
 29 13  2  0     0  0
 30 16  2  0     0  0
 31 23  1  0     0  0
 32 23  1  0     0  0
 33 24  1  0     0  0
 34 24  1  0     0  0
 35 29  1  0     0  0
 36 30  1  0     0  0
 37 32  1  0     0  0
 38 31  1  0     0  0
 39 34  1  0     0  0
 40 33  1  0     0  0
 41 39  1  0     0  0
 42 37  1  0     0  0
 41 40  1  0     0  0
 42 38  1  0     0  0
 13 16  1  0     0  0
 27 22  2  0     0  0
 36 35  2  0     0  0
M  END