
  SciTegic03161210572D

 31 31  0  0  0  0            999 V2000
    1.2792    2.6250    0.0000 F   0  0
    1.6958    1.9083    0.0000 C   0  0
    2.1082    2.6275    0.0000 F   0  0
    1.3875    0.7833    0.0000 F   0  0
    0.9792    1.4958    0.0000 C   0  0
    0.5663    0.7860    0.0000 F   0  0
   -0.1500    2.6250    0.0000 F   0  0
    0.2667    1.9083    0.0000 C   0  0
    0.6790    2.6275    0.0000 F   0  0
   -0.0417    0.7833    0.0000 F   0  0
   -0.4500    1.4958    0.0000 C   0  0
   -0.8629    0.7860    0.0000 F   0  0
   -1.5792    2.6250    0.0000 F   0  0
   -1.1625    1.9083    0.0000 C   0  0
   -0.7502    2.6275    0.0000 F   0  0
   -1.4708    0.7833    0.0000 F   0  0
   -1.8792    1.4958    0.0000 C   0  0
   -2.2920    0.7860    0.0000 F   0  0
   -3.3042    1.4917    0.0000 N   0  0
   -2.5897    1.9042    0.0000 C   0  0
   -2.5897    2.7292    0.0000 O   0  0
    2.4116    1.4917    0.0000 C   0  0
    3.1261    1.9042    0.0000 N   0  0
    2.4116    0.6667    0.0000 O   0  0
    3.8405    1.4917    0.0000 O   0  0
   -4.0186    1.9042    0.0000 C   0  0
   -4.0137    2.7302    0.0000 C   0  0
   -4.7273    3.1427    0.0000 C   0  0
   -5.4428    2.7301    0.0000 C   0  0
   -5.4401    1.9008    0.0000 C   0  0
   -4.7259    1.4922    0.0000 C   0  0
  2  1  1  0
  3  2  1  0
 19 20  1  0
 20 17  1  0
  8  7  1  0
 20 21  2  0
 17 14  1  0
 14 11  1  0
 11  8  1  0
  8  5  1  0
  5  2  1  0
 14 13  1  0
  2 22  1  0
 15 14  1  0
 22 23  1  0
  9  8  1  0
 22 24  2  0
  5  4  1  0
 23 25  1  0
  6  5  1  0
 19 26  1  0
 17 16  1  0
 26 27  2  0
 18 17  1  0
 27 28  1  0
 28 29  2  0
 11 10  1  0
 29 30  1  0
 12 11  1  0
 30 31  2  0
 31 26  1  0
M  END