
          11280714462D 1   1.00000     0.00000     0

 20 22  0     0  0            999 V2000
    1.7667   -2.6917    0.0000 C   0  0  0  0  0  0           0  0  0
    1.7750   -1.8667    0.0000 C   0  0  0  0  0  0           0  0  0
    2.4792   -3.1042    0.0000 N   0  0  0  0  0  0           0  0  0
    0.9792   -2.9417    0.0000 N   0  0  0  0  0  0           0  0  0
    3.2000   -1.8667    0.0000 N   0  0  0  0  0  0           0  0  0
    2.4792   -1.4542    0.0000 C   0  0  0  0  0  0           0  0  0
    0.9917   -1.6125    0.0000 N   0  0  0  0  0  0           0  0  0
    3.2000   -2.6917    0.0000 C   0  0  0  0  0  0           0  0  0
    0.5042   -2.2792    0.0000 C   0  0  0  0  0  0           0  0  0
   -0.3208   -2.2750    0.0000 S   0  0  0  0  0  0           0  0  0
    2.4792   -0.6292    0.0000 O   0  0  0  0  0  0           0  0  0
    3.9167   -3.1042    0.0000 N   0  0  0  0  0  0           0  0  0
   -0.7375   -2.9875    0.0000 C   0  0  0  0  0  0           0  0  0
   -3.2083   -2.9750    0.0000 C   0  0  0  0  0  0           0  0  0
   -1.5625   -2.9792    0.0000 C   0  0  0  0  0  0           0  0  0
   -4.0333   -2.9750    0.0000 Cl  0  0  0  0  0  0           0  0  0
   -2.7958   -3.6917    0.0000 C   0  0  0  0  0  0           0  0  0
   -2.7958   -2.2625    0.0000 C   0  0  0  0  0  0           0  0  0
   -1.9708   -3.6917    0.0000 C   0  0  0  0  0  0           0  0  0
   -1.9708   -2.2667    0.0000 C   0  0  0  0  0  0           0  0  0
  2  1  1  0     0  0
  3  1  2  0     0  0
  4  1  1  0     0  0
  5  8  2  0     0  0
  6  2  2  0     0  0
  7  2  1  0     0  0
  8  3  1  0     0  0
  9  4  2  0     0  0
 10  9  1  0     0  0
 11  6  1  0     0  0
 12  8  1  0     0  0
 13 10  1  0     0  0
 14 18  2  0     0  0
 15 13  1  0     0  0
 16 14  1  0     0  0
 17 19  2  0     0  0
 18 20  1  0     0  0
 19 15  1  0     0  0
 20 15  2  0     0  0
  7  9  1  0     0  0
  6  5  1  0     0  0
 17 14  1  0     0  0
M  END