
  SciTegic01161211252D

 21 23  0  0  0  0            999 V2000
    3.8299  -11.0224    0.0000 C   0  0
    3.0014  -11.0188    0.0000 C   0  0
    2.5838  -11.7341    0.0000 N   0  0
    2.9978  -12.4533    0.0000 C   0  0
    3.8294  -12.4529    0.0000 C   0  0
    4.2392  -11.7370    0.0000 C   0  0
    4.2411  -13.1644    0.0000 C   0  0
    3.8276  -13.8761    0.0000 N   0  0
    4.2386  -14.5913    0.0000 C   0  0
    5.0656  -14.5910    0.0000 C   0  0
    5.4800  -13.8696    0.0000 C   0  0
    5.0625  -13.1573    0.0000 C   0  0
    5.4730  -12.4427    0.0000 C   0  0
    6.2991  -12.4373    0.0000 C   0  0
    6.7105  -13.1466    0.0000 C   0  0
    7.5359  -13.1416    0.0000 C   0  0
    7.9472  -12.4263    0.0000 C   0  0
    7.5229  -11.7107    0.0000 C   0  0
    6.6989  -11.7193    0.0000 C   0  0
    6.2753  -11.0082    0.0000 O   0  0
    8.7734  -12.4198    0.0000 O   0  0
  2  3  1  0
 10 11  1  0
  5  6  2  0
 11 12  1  0
 12  7  1  0
  6  1  1  0
 12 13  2  0
  1  2  2  0
 13 14  1  0
  5  7  1  0
 14 15  2  0
  3  4  2  0
 15 16  1  0
  7  8  2  0
 16 17  2  0
 17 18  1  0
  8  9  1  0
 18 19  2  0
 19 14  1  0
  4  5  1  0
 19 20  1  0
  9 10  1  0
 17 21  1  0
M  END