
          11280715312D 1   1.00000     0.00000     0

 33 35  0     0  0            999 V2000
    4.3125   -3.3167    0.0000 N   0  0  0  0  0  0           0  0  0
    4.3125   -4.1625    0.0000 C   0  0  0  0  0  0           0  0  0
    2.8875   -3.3167    0.0000 C   0  0  0  0  0  0           0  0  0
    3.6042   -2.9292    0.0000 C   0  0  0  0  0  0           0  0  0
    3.6042   -4.5667    0.0000 N   0  0  0  0  0  0           0  0  0
    2.8875   -4.1625    0.0000 C   0  0  0  0  0  0           0  0  0
   10.7417   -4.5542    0.0000 C   0  0  0  0  0  0           0  0  0
    2.1792   -2.9292    0.0000 C   0  0  0  0  0  0           0  0  0
    2.1792   -4.5667    0.0000 C   0  0  0  0  0  0           0  0  0
    1.4625   -3.3167    0.0000 C   0  0  0  0  0  0           0  0  0
    1.4625   -4.1625    0.0000 C   0  0  0  0  0  0           0  0  0
    5.0292   -4.5667    0.0000 N   0  0  3  0  0  0           0  0  0
   10.0292   -4.1417    0.0000 N   0  0  3  0  0  0           0  0  0
   10.7417   -5.3792    0.0000 O   0  0  0  0  0  0           0  0  0
   11.4542   -4.1292    0.0000 C   0  0  0  0  0  0           0  0  0
    3.6042   -2.1042    0.0000 N   0  0  0  0  0  0           0  0  0
    0.7542   -2.9000    0.0000 O   0  0  0  0  0  0           0  0  0
    0.7542   -4.5792    0.0000 O   0  0  0  0  0  0           0  0  0
    5.7417   -4.1542    0.0000 C   0  0  0  0  0  0           0  0  0
    9.3167   -4.5542    0.0000 C   0  0  0  0  0  0           0  0  0
    5.0292   -5.3917    0.0000 C   0  0  0  0  0  0           0  0  0
   10.0167   -3.3167    0.0000 C   0  0  0  0  0  0           0  0  0
   12.1667   -4.5500    0.0000 C   0  0  0  0  0  0           0  0  0
   11.4500   -3.3167    0.0000 C   0  0  0  0  0  0           0  0  0
    0.0292   -3.2917    0.0000 C   0  0  0  0  0  0           0  0  0
    0.0292   -4.1875    0.0000 C   0  0  0  0  0  0           0  0  0
    6.4542   -4.5667    0.0000 C   0  0  0  0  0  0           0  0  0
    8.6000   -4.1500    0.0000 C   0  0  0  0  0  0           0  0  0
    7.8875   -4.5625    0.0000 C   0  0  0  0  0  0           0  0  0
    7.1667   -4.1500    0.0000 C   0  0  0  0  0  0           0  0  0
   12.1542   -2.9000    0.0000 C   0  0  0  0  0  0           0  0  0
   12.8792   -4.1292    0.0000 C   0  0  0  0  0  0           0  0  0
   12.8792   -3.3042    0.0000 C   0  0  0  0  0  0           0  0  0
  2  1  2  0     0  0
  3  4  2  0     0  0
  4  1  1  0     0  0
  5  2  1  0     0  0
  6  3  1  0     0  0
  7 13  1  0     0  0
  8  3  1  0     0  0
  9  6  1  0     0  0
 10  8  2  0     0  0
 11 10  1  0     0  0
 12  2  1  0     0  0
 13 20  1  0     0  0
 14  7  2  0     0  0
 15  7  1  0     0  0
 16  4  1  0     0  0
 17 10  1  0     0  0
 18 11  1  0     0  0
 19 12  1  0     0  0
 20 28  1  0     0  0
 21 12  1  0     0  0
 22 13  1  0     0  0
 23 15  2  0     0  0
 24 15  1  0     0  0
 25 17  1  0     0  0
 26 18  1  0     0  0
 27 19  1  0     0  0
 28 29  1  0     0  0
 29 30  1  0     0  0
 30 27  1  0     0  0
 31 24  2  0     0  0
 32 23  1  0     0  0
 33 31  1  0     0  0
  6  5  2  0     0  0
  9 11  2  0     0  0
 32 33  2  0     0  0
M  END