
  SciTegic02271515072D

 28 31  0  0  0  0            999 V2000
   27.7624   -4.1024    0.0000 C   0  0
   27.7613   -4.9220    0.0000 C   0  0
   28.4693   -5.3309    0.0000 N   0  0
   28.4676   -3.6936    0.0000 C   0  0
   29.1762   -4.0988    0.0000 C   0  0
   29.1764   -4.9220    0.0000 C   0  0
   29.9594   -5.1762    0.0000 S   0  0
   30.4431   -4.5100    0.0000 N   0  0
   29.9590   -3.8443    0.0000 C   0  0
   30.2113   -3.0670    0.0000 N   0  0
   29.6643   -2.4599    0.0000 C   0  0
   29.9165   -1.6826    0.0000 C   0  0
   28.8650   -2.6301    0.0000 O   0  0
   30.7182   -1.5120    0.0000 C   0  0
   30.9712   -0.7387    0.0000 C   0  0
   30.4271   -0.1285    0.0000 C   0  0
   29.6265   -0.2970    0.0000 C   0  0
   29.3700   -1.0756    0.0000 C   0  0
   27.0587   -3.6898    0.0000 C   0  0
   27.0674   -2.8729    0.0000 C   0  0
   26.3645   -2.4604    0.0000 C   0  0
   25.6542   -2.8636    0.0000 C   0  0
   25.6513   -3.6837    0.0000 C   0  0
   26.3549   -4.0925    0.0000 C   0  0
   24.9423   -4.0900    0.0000 O   0  0
   24.2359   -3.6792    0.0000 C   0  0
   24.9487   -2.4512    0.0000 O   0  0
   24.9531   -1.6340    0.0000 C   0  0
  1  2  2  0
  2  3  1  0
  3  6  2  0
  5  4  2  0
  4  1  1  0
  5  6  1  0
  6  7  1  0
  7  8  1  0
  8  9  2  0
  9  5  1  0
  9 10  1  0
 10 11  1  0
 11 12  1  0
 11 13  2  0
 12 14  1  0
 12 18  1  0
 14 15  1  0
 15 16  1  0
 16 17  1  0
 17 18  1  0
  1 19  1  0
 19 20  2  0
 20 21  1  0
 21 22  2  0
 22 23  1  0
 23 24  2  0
 24 19  1  0
 23 25  1  0
 25 26  1  0
 22 27  1  0
 27 28  1  0
M  END