
  SciTegic09081514192D

 31 34  0  0  0  0            999 V2000
    1.2990   -0.7500    0.0000 N   0  0
    1.2990    0.7500    0.0000 C   0  0
    0.0000    1.5000    0.0000 C   0  0
   -1.2990    0.7500    0.0000 C   0  0
   -1.2990   -0.7500    0.0000 N   0  0
    0.0000   -1.5000    0.0000 C   0  0
    2.3383    1.3500    0.0000 O   0  0
   -2.3383    1.3500    0.0000 O   0  0
    0.0000   -2.7000    0.0000 O   0  0
   -2.5972   -1.5031    0.0000 C   0  0
   -2.5951   -3.0039    0.0000 C   0  0
   -3.8915   -3.7585    0.0000 C   0  0
   -3.8863   -5.2585    0.0000 C   0  0
   -2.5847   -6.0040    0.0000 C   0  0
   -1.2883   -5.2495    0.0000 C   0  0
   -1.2935   -3.7495    0.0000 C   0  0
    2.5973   -1.5031    0.0000 C   0  0
    2.5951   -3.0039    0.0000 C   0  0
    3.8915   -3.7585    0.0000 C   0  0
    3.8864   -5.2585    0.0000 C   0  0
    2.5847   -6.0040    0.0000 C   0  0
    1.2883   -5.2495    0.0000 C   0  0
    1.2935   -3.7495    0.0000 C   0  0
   -0.0031    3.0008    0.0000 C   0  0
    1.0351    3.6026    0.0000 O   0  0
   -1.3039    3.7494    0.0000 C   0  0
   -1.3092    5.2494    0.0000 C   0  0
   -2.6108    5.9949    0.0000 C   0  0
   -3.9073    5.2404    0.0000 C   0  0
   -3.9021    3.7404    0.0000 C   0  0
   -2.6005    2.9949    0.0000 C   0  0
  1  2  1  0
  1  6  1  0
  2  3  1  0
  3  4  1  0
  4  5  1  0
  5  6  1  0
  2  7  2  0
  4  8  2  0
  6  9  2  0
  5 10  1  0
 10 11  1  0
 11 12  2  0
 12 13  1  0
 13 14  2  0
 14 15  1  0
 15 16  2  0
 16 11  1  0
  1 17  1  0
 17 18  1  0
 18 19  2  0
 19 20  1  0
 20 21  2  0
 21 22  1  0
 22 23  2  0
 23 18  1  0
  3 24  1  0
 24 25  2  0
 24 26  1  0
 26 27  2  0
 27 28  1  0
 28 29  2  0
 29 30  1  0
 30 31  2  0
 31 26  1  0
M  END