
  -ISIS-  03291115432D

 48 45  0  0  1  0  0  0  0  0999 V2000
    4.2042   -4.0500    0.0000 C   0  0  2  0  0  0  0  0  0  0  0  0
    4.9167   -3.6375    0.0000 C   0  0  2  0  0  0  0  0  0  0  0  0
    1.3417   -4.0375    0.0000 C   0  0  1  0  0  0  0  0  0  0  0  0
    2.0542   -3.6250    0.0000 C   0  0  2  0  0  0  0  0  0  0  0  0
    3.4792   -5.2792    0.0000 S   0  0  3  0  0  0  0  0  0  0  0  0
    6.3417   -3.6500    0.0000 S   0  0  3  0  0  0  0  0  0  0  0  0
    0.6292   -5.2750    0.0000 S   0  0  3  0  0  0  0  0  0  0  0  0
    3.4875   -3.6292    0.0000 C   0  0  1  0  0  0  0  0  0  0  0  0
    3.4917   -1.1625    0.0000 S   0  0  3  0  0  0  0  0  0  0  0  0
    0.6292   -3.6250    0.0000 C   0  0  2  0  0  0  0  0  0  0  0  0
    2.0625   -2.8000    0.0000 O   0  0  0  0  0  0  0  0  0  0  0  0
    3.4917   -2.8125    0.0000 C   0  0  2  0  0  0  0  0  0  0  0  0
    2.7750   -4.0417    0.0000 O   0  0  0  0  0  0  0  0  0  0  0  0
    4.9167   -2.8125    0.0000 C   0  0  1  0  0  0  0  0  0  0  0  0
    4.2042   -2.4000    0.0000 O   0  0  0  0  0  0  0  0  0  0  0  0
    0.6292   -2.8042    0.0000 C   0  0  2  0  0  0  0  0  0  0  0  0
    1.3417   -2.3917    0.0000 C   0  0  1  0  0  0  0  0  0  0  0  0
    4.2000   -4.8750    0.0000 O   0  0  0  0  0  0  0  0  0  0  0  0
    5.6292   -4.0542    0.0000 O   0  0  0  0  0  0  0  0  0  0  0  0
    1.3417   -4.8625    0.0000 O   0  0  0  0  0  0  0  0  0  0  0  0
    2.7750   -2.3917    0.0000 C   0  0  0  0  0  0  0  0  0  0  0  0
    2.7792   -1.5667    0.0000 O   0  0  0  0  0  0  0  0  0  0  0  0
    2.7750   -5.7042    0.0000 O   0  5  0  0  0  0  0  0  0  0  0  0
    7.0667   -3.2542    0.0000 O   0  5  0  0  0  0  0  0  0  0  0  0
   -0.0750   -5.7000    0.0000 O   0  5  0  0  0  0  0  0  0  0  0  0
    4.2167   -0.7625    0.0000 O   0  5  0  0  0  0  0  0  0  0  0  0
    3.0667   -4.5625    0.0000 O   0  0  0  0  0  0  0  0  0  0  0  0
    6.7542   -4.3625    0.0000 O   0  0  0  0  0  0  0  0  0  0  0  0
    5.9292   -2.9292    0.0000 O   0  0  0  0  0  0  0  0  0  0  0  0
    1.0375   -5.9875    0.0000 O   0  0  0  0  0  0  0  0  0  0  0  0
    0.2125   -4.5625    0.0000 O   0  0  0  0  0  0  0  0  0  0  0  0
    3.8917   -5.9917    0.0000 O   0  0  0  0  0  0  0  0  0  0  0  0
    3.0792   -0.4417    0.0000 O   0  0  0  0  0  0  0  0  0  0  0  0
    3.9042   -1.8750    0.0000 O   0  0  0  0  0  0  0  0  0  0  0  0
   -0.0833   -4.0417    0.0000 O   0  0  0  0  0  0  0  0  0  0  0  0
   -0.0833   -2.4000    0.0000 O   0  0  0  0  0  0  0  0  0  0  0  0
    5.6375   -2.4042    0.0000 O   0  0  0  0  0  0  0  0  0  0  0  0
    1.3417   -1.5667    0.0000 C   0  0  0  0  0  0  0  0  0  0  0  0
   -1.3208   -5.6292    0.0000 Na  0  3  0  0  0  0  0  0  0  0  0  0
    4.5292   -6.6125    0.0000 Na  0  3  0  0  0  0  0  0  0  0  0  0
    7.8667   -5.1167    0.0000 Na  0  3  0  0  0  0  0  0  0  0  0  0
    4.9375    0.1625    0.0000 Na  0  3  0  0  0  0  0  0  0  0  0  0
    2.0542   -1.1542    0.0000 O   0  0  0  0  0  0  0  0  0  0  0  0
   -0.7958   -3.6292    0.0000 C   0  0  0  0  0  0  0  0  0  0  0  0
   -0.0833   -1.5750    0.0000 C   0  0  0  0  0  0  0  0  0  0  0  0
    5.6417   -1.5792    0.0000 C   0  0  0  0  0  0  0  0  0  0  0  0
    2.0542   -0.3292    0.0000 C   0  0  0  0  0  0  0  0  0  0  0  0
    2.7667   -3.2125    0.0000 H   0  0  0  0  0  0  0  0  0  0  0  0
  2  1  1  0  0  0  0
  3  4  1  0  0  0  0
  4 13  1  0  0  0  0
  5 18  1  0  0  0  0
  6 19  1  0  0  0  0
  7 20  1  0  0  0  0
  8  1  1  0  0  0  0
  9 22  1  0  0  0  0
 10  3  1  0  0  0  0
 11  4  1  0  0  0  0
 12  8  1  0  0  0  0
  8 13  1  6  0  0  0
 14  2  1  0  0  0  0
 15 12  1  0  0  0  0
 16 17  1  0  0  0  0
 17 11  1  0  0  0  0
  1 18  1  1  0  0  0
  2 19  1  6  0  0  0
  3 20  1  6  0  0  0
 12 21  1  1  0  0  0
 22 21  1  0  0  0  0
 23  5  1  0  0  0  0
 24  6  1  0  0  0  0
 25  7  1  0  0  0  0
 26  9  1  0  0  0  0
 27  5  2  0  0  0  0
 28  6  2  0  0  0  0
 29  6  2  0  0  0  0
 30  7  2  0  0  0  0
 31  7  2  0  0  0  0
 32  5  2  0  0  0  0
 33  9  2  0  0  0  0
 34  9  2  0  0  0  0
 10 35  1  1  0  0  0
 16 36  1  1  0  0  0
 14 37  1  1  0  0  0
 17 38  1  1  0  0  0
 43 38  1  0  0  0  0
 44 35  1  0  0  0  0
 45 36  1  0  0  0  0
 46 37  1  0  0  0  0
 47 43  1  0  0  0  0
  4 48  1  1  0  0  0
 15 14  1  0  0  0  0
 10 16  1  0  0  0  0
M  CHG  8  23  -1  24  -1  25  -1  26  -1  39   1  40   1  41   1  42   1
M  END