
          11280715362D 1   1.00000     0.00000     0

 22 24  0     0  0            999 V2000
    5.3542   -6.7792    0.0000 C   0  0  0  0  0  0           0  0  0
    4.8375   -6.4792    0.0000 C   0  0  3  0  0  0           0  0  0
    5.3542   -7.3792    0.0000 C   0  0  0  0  0  0           0  0  0
    4.8375   -7.6792    0.0000 O   0  0  0  0  0  0           0  0  0
    4.3125   -7.3875    0.0000 C   0  0  3  0  0  0           0  0  0
    4.3125   -6.7792    0.0000 C   0  0  3  0  0  0           0  0  0
    5.8750   -6.4792    0.0000 C   0  0  0  0  0  0           0  0  0
    3.7875   -6.4792    0.0000 C   0  0  0  0  0  0           0  0  0
    7.9625   -7.6542    0.0000 C   0  0  0  0  0  0           0  0  0
    8.4917   -7.9417    0.0000 C   0  0  0  0  0  0           0  0  0
    4.8375   -5.8750    0.0000 C   0  0  0  0  0  0           0  0  0
    3.7875   -5.8750    0.0000 C   0  0  0  0  0  0           0  0  0
    4.3250   -5.5750    0.0000 C   0  0  0  0  0  0           0  0  0
    5.8750   -7.6792    0.0000 C   0  0  0  0  0  0           0  0  0
    6.4000   -6.7792    0.0000 C   0  0  0  0  0  0           0  0  0
    6.4000   -7.3792    0.0000 C   0  0  0  0  0  0           0  0  0
    5.8625   -5.8792    0.0000 O   0  0  0  0  0  0           0  0  0
    4.1125   -7.9542    0.0000 C   0  0  0  0  0  0           0  0  0
    3.7500   -7.1875    0.0000 C   0  0  0  0  0  0           0  0  0
    7.4375   -7.3625    0.0000 C   0  0  0  0  0  0           0  0  0
    4.3375   -4.9750    0.0000 C   0  0  0  0  0  0           0  0  0
    6.9250   -7.6667    0.0000 C   0  0  0  0  0  0           0  0  0
  2  1  1  0     0  0
  3  1  1  0     0  0
  4  3  1  0     0  0
  5  4  1  0     0  0
  6  2  1  0     0  0
  7  1  2  0     0  0
  8  6  1  0     0  0
  9 20  1  0     0  0
 10  9  3  0     0  0
 11  2  1  0     0  0
 12 13  2  0     0  0
 13 11  1  0     0  0
 14  3  2  0     0  0
 15  7  1  0     0  0
 16 15  2  0     0  0
 17  7  1  0     0  0
 18  5  1  0     0  0
 19  5  1  0     0  0
 20 22  1  0     0  0
 21 13  1  0     0  0
 22 16  1  0     0  0
  5  6  1  0     0  0
 16 14  1  0     0  0
  8 12  1  0     0  0
M  END