
  SciTegic12121614142D

 28 31  0  0  0  0            999 V2000
    3.6552   -2.9294    0.0000 C   0  0
    4.1277   -4.3539    0.0000 C   0  0
    5.5962   -4.6599    0.0000 C   0  0
    6.0655   -6.0846    0.0000 C   0  0
    5.0663   -7.2034    0.0000 C   0  0
    3.5978   -6.8975    0.0000 C   0  0
    3.1285   -5.4728    0.0000 C   0  0
    4.4530   -2.0330    0.0000 O   0  0
    2.1855   -2.6254    0.0000 N   0  0
    0.2917   -0.7475    0.0000 C   0  0
    0.2917    0.7475    0.0000 C   0  0
   -1.0028    1.5132    0.0000 C   0  0
   -2.3155    0.7475    0.0000 C   0  0
   -2.3155   -0.7475    0.0000 C   0  0
   -1.0028   -1.5132    0.0000 N   0  0
    2.5889    0.0182    0.0000 S   0  0
    1.7138    1.2033    0.0000 N   0  0
    1.7138   -1.2033    0.0000 C   0  0
   -3.6168    1.4950    0.0000 C   0  0
   -4.9144    0.7421    0.0000 C   0  0
   -6.2151    1.4892    0.0000 C   0  0
   -6.2185    2.9892    0.0000 C   0  0
   -4.9211    3.7421    0.0000 C   0  0
   -3.6204    2.9950    0.0000 C   0  0
   -7.5184    3.7394    0.0000 O   0  0
   -7.5193    4.9394    0.0000 C   0  0
   -7.5116    0.7332    0.0000 O   0  0
   -7.5072   -0.4668    0.0000 C   0  0
  1  2  1  0
  2  3  1  0
  3  4  2  0
  4  5  1  0
  5  6  2  0
  6  7  1  0
  2  7  2  0
  1  8  2  0
  1  9  1  0
 10 11  1  0
 11 12  1  0
 12 13  2  0
 13 14  1  0
 14 15  2  0
 10 15  1  0
 16 17  1  0
 16 18  1  0
 10 18  2  0
 11 17  2  0
 19 20  1  0
 20 21  2  0
 21 22  1  0
 22 23  2  0
 23 24  1  0
 19 24  2  0
 25 26  1  0
 22 25  1  0
 27 28  1  0
 21 27  1  0
 13 19  1  0
  9 18  1  0
M  END