
  SciTegic01161211222D

 22 23  0  0  0  0            999 V2000
    2.0917  -19.5667    0.0000 C   0  0
    2.5417  -20.8167    0.0000 C   0  0
    2.7750  -20.0292    0.0000 C   0  0
    1.4417  -20.0792    0.0000 N   0  0
    1.7250  -20.8417    0.0000 C   0  0
    2.0667  -18.7417    0.0000 C   0  0
    2.0500  -17.9167    0.0000 N   0  0
    6.3250  -22.8417    0.0000 N   0  0
    2.9792  -21.5292    0.0000 C   0  0
    3.8042  -21.4917    0.0000 O   0  0
    7.1167  -22.6042    0.0000 C   0  0
    3.5542  -19.7542    0.0000 I   0  0
    5.5000  -22.8667    0.0000 C   0  0
    5.0667  -22.1667    0.0000 C   0  0
    4.2417  -22.2042    0.0000 C   0  0
    1.3292  -21.5792    0.0000 C   0  0
    5.4542  -21.4417    0.0000 O   0  0
    1.7667  -22.2792    0.0000 C   0  0
    2.5917  -22.2542    0.0000 C   0  0
    7.7167  -23.1667    0.0000 C   0  0
    7.3042  -21.8042    0.0000 C   0  0
    7.1417  -23.4292    0.0000 C   0  0
  2  3  1  0
  3  1  2  0
  4  1  1  0
  5  4  1  0
  6  1  1  0
  7  6  3  0
  8 13  1  0
  9  2  1  0
 10  9  1  0
 11  8  1  0
 12  3  1  0
 13 14  1  0
 14 15  1  0
 15 10  1  0
 16  5  1  0
 17 14  1  0
 18 16  2  0
 19  9  2  0
 20 11  1  0
 21 11  1  0
 22 11  1  0
  5  2  2  0
 18 19  1  0
M  END