
          08180812472D 1   1.00000     0.00000     0

 25 28  0     1  0            999 V2000
   10.1283   -7.8577    0.0000 C   0  0  0  0  0  0           0  0  0
   10.1283   -7.0327    0.0000 C   0  0  0  0  0  0           0  0  0
   10.8430   -6.6225    0.0000 C   0  0  0  0  0  0           0  0  0
    9.4136   -8.2724    0.0000 O   0  0  0  0  0  0           0  0  0
   10.8430   -8.2724    0.0000 C   0  0  0  0  0  0           0  0  0
   11.5577   -7.8577    0.0000 C   0  0  0  0  0  0           0  0  0
   12.2678   -8.2724    0.0000 C   0  0  0  0  0  0           0  0  0
   12.9825   -7.8577    0.0000 C   0  0  2  0  0  0           0  0  0
   12.9825   -7.0327    0.0000 C   0  0  1  0  0  0           0  0  0
   13.6973   -6.6225    0.0000 C   0  0  2  0  0  0           0  0  0
   14.4827   -6.8810    0.0000 C   0  0  0  0  0  0           0  0  0
   14.9719   -6.2077    0.0000 C   0  0  0  0  0  0           0  0  0
   14.4827   -5.5482    0.0000 C   0  0  1  0  0  0           0  0  0
   13.6973   -5.7975    0.0000 C   0  0  2  0  0  0           0  0  0
   13.6973   -4.9726    0.0000 C   0  0  0  0  0  0           0  0  0
   12.9825   -5.3828    0.0000 C   0  0  0  0  0  0           0  0  0
   12.2678   -5.7975    0.0000 C   0  0  0  0  0  0           0  0  0
   12.2678   -6.6225    0.0000 C   0  0  2  0  0  0           0  0  0
   11.5577   -7.0327    0.0000 C   0  0  1  0  0  0           0  0  0
   11.5577   -6.2077    0.0000 C   0  0  0  0  0  0           0  0  0
   12.2678   -7.4475    0.0000 F   0  0  0  0  0  0           0  0  0
   12.9825   -6.2077    0.0000 H   0  0  0  0  0  0           0  0  0
   13.6973   -7.4475    0.0000 H   0  0  0  0  0  0           0  0  0
   13.6934   -8.2672    0.0000 C   0  0  0  0  0  0           0  0  0
   14.7349   -4.7677    0.0000 O   0  0  0  0  0  0           0  0  0
  2  3  1  0     0  0
  1  4  2  0     0  0
  1  5  1  0     0  0
  5  6  2  0     0  0
  6  7  1  0     0  0
  7  8  1  0     0  0
  8  9  1  0     0  0
  9 10  1  0     0  0
 10 11  1  0     0  0
 11 12  1  0     0  0
 12 13  1  0     0  0
 13 14  1  0     0  0
 10 14  1  0     0  0
 14 15  1  1     0  0
 14 16  1  0     0  0
 16 17  1  0     0  0
 17 18  1  0     0  0
  9 18  1  0     0  0
 18 19  1  0     0  0
  3 19  1  0     0  0
  6 19  1  0     0  0
 19 20  1  1     0  0
 18 21  1  6     0  0
  9 22  1  1     0  0
 10 23  1  6     0  0
  8 24  1  6     0  0
  1  2  1  0     0  0
 13 25  1  1     0  0
M  END