
  SciTegic12161611462D

 28 30  0  0  0  0            999 V2000
    1.2990   -0.7500    0.0000 C   0  0
    1.2990    0.7500    0.0000 C   0  0
    0.0000    1.5000    0.0000 C   0  0
   -1.2990    0.7500    0.0000 C   0  0
   -1.2990   -0.7500    0.0000 C   0  0
    0.0000   -1.5000    0.0000 C   0  0
   -2.5972   -1.5031    0.0000 O   0  0
    2.6003    1.4978    0.0000 O   0  0
   -2.5951   -3.0039    0.0000 C   0  0
   -3.8933   -3.7570    0.0000 C   0  0
   -3.8912   -5.2578    0.0000 N   0  0
   -4.9336   -3.1588    0.0000 O   0  0
   -5.1894   -6.0109    0.0000 C   0  0
   -5.1894   -7.5110    0.0000 C   0  0
   -6.4884   -8.2610    0.0000 C   0  0
   -7.7875   -7.5110    0.0000 C   0  0
   -7.7875   -6.0110    0.0000 C   0  0
   -6.4885   -5.2610    0.0000 C   0  0
   -0.0031    3.0008    0.0000 C   0  0
   -1.3039    3.7494    0.0000 N   0  0
    1.0351    3.6026    0.0000 O   0  0
   -1.3064    4.9494    0.0000 C   0  0
    3.8990    0.7455    0.0000 C   0  0
    5.2007    1.4910    0.0000 C   0  0
    6.4972    0.7365    0.0000 C   0  0
    6.4920   -0.7635    0.0000 O   0  0
    5.1904   -1.5090    0.0000 C   0  0
    3.8939   -0.7546    0.0000 C   0  0
  1  2  2  0
  2  3  1  0
  3  4  2  0
  4  5  1  0
  5  6  2  0
  6  1  1  0
  5  7  1  0
  2  8  1  0
  7  9  1  0
  9 10  1  0
 10 11  1  0
 10 12  2  0
 11 13  1  0
 13 14  2  0
 14 15  1  0
 15 16  2  0
 16 17  1  0
 17 18  2  0
 18 13  1  0
  3 19  1  0
 19 20  1  0
 19 21  2  0
 20 22  1  0
  8 23  1  0
 23 24  1  0
 23 28  1  0
 24 25  1  0
 25 26  1  0
 26 27  1  0
 27 28  1  0
M  END