
          11280715042D 1   1.00000     0.00000     0

 50 54  0     0  0            999 V2000
   -2.4833    1.2083    0.0000 C   0  0  0  0  0  0           0  0  0
   -2.4833    0.3833    0.0000 N   0  0  3  0  0  0           0  0  0
    4.6542   -1.3000    0.0000 C   0  0  0  0  0  0           0  0  0
    2.5167   -0.8792    0.0000 C   0  0  0  0  0  0           0  0  0
    5.3750   -0.8917    0.0000 C   0  0  0  0  0  0           0  0  0
   -2.4750    2.8625    0.0000 C   0  0  0  0  0  0           0  0  0
    3.9417   -0.8875    0.0000 N   0  0  3  0  0  0           0  0  0
   -1.6500    2.8625    0.0000 N   0  0  3  0  0  0           0  0  0
   -3.1958    1.6250    0.0000 C   0  0  3  0  0  0           0  0  0
    1.7917   -2.1125    0.0000 C   0  0  0  0  0  0           0  0  0
    3.2292   -1.2917    0.0000 C   0  0  0  0  0  0           0  0  0
    1.8000   -1.2875    0.0000 C   0  0  3  0  0  0           0  0  0
   -3.1958    2.4583    0.0000 C   0  0  0  0  0  0           0  0  0
   -1.7625   -0.0292    0.0000 C   0  0  3  0  0  0           0  0  0
   -0.3458   -0.8625    0.0000 N   0  0  3  0  0  0           0  0  0
    2.5042   -2.5167    0.0000 C   0  0  0  0  0  0           0  0  0
    2.5042   -3.3417    0.0000 C   0  0  0  0  0  0           0  0  0
    2.5167   -0.0542    0.0000 N   0  0  0  0  0  0           0  0  0
    1.0875   -0.8667    0.0000 C   0  0  0  0  0  0           0  0  0
    5.3750   -0.0667    0.0000 C   0  0  0  0  0  0           0  0  0
    6.0792   -1.3125    0.0000 C   0  0  0  0  0  0           0  0  0
   -1.7625    1.6208    0.0000 O   0  0  0  0  0  0           0  0  0
   -1.0500    0.3833    0.0000 C   0  0  0  0  0  0           0  0  0
   -1.7708   -0.8542    0.0000 C   0  0  0  0  0  0           0  0  0
    1.7875   -3.7542    0.0000 C   0  0  0  0  0  0           0  0  0
    4.6542   -2.1250    0.0000 O   0  0  0  0  0  0           0  0  0
    6.0875    0.3375    0.0000 C   0  0  0  0  0  0           0  0  0
    6.8000   -0.9042    0.0000 C   0  0  0  0  0  0           0  0  0
   -2.4750    3.6875    0.0000 O   0  0  0  0  0  0           0  0  0
    6.8042   -0.0792    0.0000 C   0  0  0  0  0  0           0  0  0
    1.0792   -2.5167    0.0000 C   0  0  0  0  0  0           0  0  0
    0.3667   -1.2792    0.0000 C   0  0  0  0  0  0           0  0  0
    1.0667   -3.3417    0.0000 C   0  0  0  0  0  0           0  0  0
   -0.3375   -0.0292    0.0000 C   0  0  0  0  0  0           0  0  0
   -1.0583   -1.2667    0.0000 C   0  0  0  0  0  0           0  0  0
   -0.0083    2.8583    0.0000 O   0  0  0  0  0  0           0  0  0
   -3.1958   -0.0250    0.0000 C   0  0  0  0  0  0           0  0  0
    3.2167   -3.7542    0.0000 Cl  0  0  0  0  0  0           0  0  0
    1.7792   -4.5792    0.0000 Cl  0  0  0  0  0  0           0  0  0
    7.5125   -1.3167    0.0000 Cl  0  0  0  0  0  0           0  0  0
    6.0875    1.1625    0.0000 Cl  0  0  0  0  0  0           0  0  0
    3.2375    0.3583    0.0000 O   0  0  0  0  0  0           0  0  0
   -1.2458    2.1500    0.0000 C   0  0  0  0  0  0           0  0  0
   -1.2458    3.5833    0.0000 C   0  0  0  0  0  0           0  0  0
    3.9500   -0.0625    0.0000 C   0  0  0  0  0  0           0  0  0
   -3.9000    1.2083    0.0000 C   0  0  0  0  0  0           0  0  0
   -3.9000    0.3833    0.0000 C   0  0  0  0  0  0           0  0  0
   -0.4208    3.5833    0.0000 C   0  0  0  0  0  0           0  0  0
   -0.4208    2.1458    0.0000 C   0  0  0  0  0  0           0  0  0
    3.9542    0.7583    0.0000 C   0  0  0  0  0  0           0  0  0
  2  1  1  0     0  0
  3  7  1  0     0  0
  4 12  1  0     0  0
  5  3  1  0     0  0
  6 13  1  0     0  0
  7 11  1  0     0  0
  8  6  1  0     0  0
  9  1  1  0     0  0
 12 10  1  0     0  0
 11  4  1  0     0  0
 12 19  1  0     0  0
  9 13  1  0     0  0
 14  2  1  0     0  0
 15 35  1  0     0  0
 16 10  1  0     0  0
 17 16  2  0     0  0
 18  4  2  0     0  0
 19 32  1  0     0  0
 20  5  1  0     0  0
 21  5  2  0     0  0
 22  1  2  0     0  0
 23 14  1  0     0  0
 24 14  1  0     0  0
 25 33  2  0     0  0
 26  3  2  0     0  0
 27 20  2  0     0  0
 28 21  1  0     0  0
 29  6  2  0     0  0
 30 28  2  0     0  0
 31 10  2  0     0  0
 32 15  1  0     0  0
 33 31  1  0     0  0
 34 23  1  0     0  0
 35 24  1  0     0  0
 36 48  1  0     0  0
 37  2  1  0     0  0
 38 17  1  0     0  0
 39 25  1  0     0  0
 40 28  1  0     0  0
 41 27  1  0     0  0
 42 18  1  0     0  0
 43  8  1  0     0  0
 44  8  1  0     0  0
 45  7  1  0     0  0
 46  9  1  0     0  0
 47 46  1  0     0  0
 48 44  1  0     0  0
 49 43  1  0     0  0
 50 42  1  0     0  0
 37 47  1  0     0  0
 34 15  1  0     0  0
 49 36  1  0     0  0
 17 25  1  0     0  0
 30 27  1  0     0  0
M  END