
          11280715342D 1   1.00000     0.00000     0

 31 34  0     0  0            999 V2000
    9.1417   -1.3125    0.0000 C   0  0  0  0  0  0           0  0  0
    7.9000   -2.0042    0.0000 N   0  0  3  0  0  0           0  0  0
    8.7250   -2.0167    0.0000 C   0  0  0  0  0  0           0  0  0
    1.8542   -1.5750    0.0000 C   0  0  0  0  0  0           0  0  0
    1.1417   -1.9917    0.0000 C   0  0  0  0  0  0           0  0  0
    6.2500   -1.9667    0.0000 N   0  0  3  0  0  0           0  0  0
    0.4167   -1.5792    0.0000 C   0  0  0  0  0  0           0  0  0
    9.9667   -1.3250    0.0000 C   0  0  0  0  0  0           0  0  0
   -0.2958   -1.9917    0.0000 C   0  0  0  0  0  0           0  0  0
    7.5042   -1.2792    0.0000 C   0  0  0  0  0  0           0  0  0
    7.4792   -2.7042    0.0000 C   0  0  0  0  0  0           0  0  0
    1.8500   -0.7500    0.0000 O   0  0  0  0  0  0           0  0  0
    1.1417   -2.8125    0.0000 C   0  0  0  0  0  0           0  0  0
    8.7417   -0.5917    0.0000 Cl  0  0  0  0  0  0           0  0  0
   -0.2875   -2.8167    0.0000 C   0  0  0  0  0  0           0  0  0
    0.4292   -3.2292    0.0000 C   0  0  0  0  0  0           0  0  0
    2.5667   -1.9792    0.0000 N   0  0  0  0  0  0           0  0  0
    6.6792   -1.2667    0.0000 C   0  0  0  0  0  0           0  0  0
    6.6542   -2.6917    0.0000 C   0  0  0  0  0  0           0  0  0
   10.3917   -0.6167    0.0000 Cl  0  0  0  0  0  0           0  0  0
    9.1167   -2.7375    0.0000 C   0  0  0  0  0  0           0  0  0
    5.4292   -1.9750    0.0000 C   0  0  0  0  0  0           0  0  0
    9.9417   -2.7542    0.0000 C   0  0  0  0  0  0           0  0  0
   10.3750   -2.0417    0.0000 C   0  0  0  0  0  0           0  0  0
   -1.0083   -1.5792    0.0000 C   0  0  0  0  0  0           0  0  0
    3.2792   -1.5667    0.0000 C   0  0  0  0  0  0           0  0  0
   -1.0000   -3.2292    0.0000 C   0  0  0  0  0  0           0  0  0
    4.7125   -1.5625    0.0000 C   0  0  0  0  0  0           0  0  0
    4.0000   -1.9792    0.0000 C   0  0  0  0  0  0           0  0  0
   -1.7208   -2.0000    0.0000 C   0  0  0  0  0  0           0  0  0
   -1.7208   -2.8250    0.0000 C   0  0  0  0  0  0           0  0  0
  2  3  1  0     0  0
  3  1  1  0     0  0
  4 17  1  0     0  0
  5  4  1  0     0  0
  6 19  1  0     0  0
  7  5  2  0     0  0
  8  1  2  0     0  0
  9  7  1  0     0  0
 10  2  1  0     0  0
 11  2  1  0     0  0
 12  4  2  0     0  0
 13  5  1  0     0  0
 14  1  1  0     0  0
 15 16  1  0     0  0
 16 13  2  0     0  0
 17 26  1  0     0  0
 18 10  1  0     0  0
 19 11  1  0     0  0
 20  8  1  0     0  0
 21  3  2  0     0  0
 22  6  1  0     0  0
 23 24  2  0     0  0
 24  8  1  0     0  0
 25  9  1  0     0  0
 26 29  1  0     0  0
 27 15  1  0     0  0
 28 22  1  0     0  0
 29 28  1  0     0  0
 30 25  2  0     0  0
 31 27  2  0     0  0
 21 23  1  0     0  0
 18  6  1  0     0  0
  9 15  2  0     0  0
 31 30  1  0     0  0
M  END