
  SciTegic02011310452D

 24 26  0  0  0  0            999 V2000
   11.6717   -2.3646    0.0000 C   0  0
   11.6706   -3.1927    0.0000 N   0  0
   12.3860   -3.6060    0.0000 C   0  0
   13.1031   -3.1923    0.0000 N   0  0
   13.1002   -2.3610    0.0000 C   0  0
   12.3842   -1.9514    0.0000 C   0  0
   13.8138   -1.9454    0.0000 N   0  0
   14.5304   -2.3556    0.0000 C   0  0
   14.5302   -3.1790    0.0000 C   0  0
   15.2461   -3.5891    0.0000 C   0  0
   15.9606   -3.1735    0.0000 C   0  0
   15.9548   -2.3435    0.0000 C   0  0
   15.2384   -1.9371    0.0000 C   0  0
   12.3858   -4.4317    0.0000 N   0  0
   13.1008   -4.8448    0.0000 C   0  0
   13.0965   -5.6688    0.0000 C   0  0
   13.8107   -6.0818    0.0000 C   0  0
   14.5268   -5.6690    0.0000 C   0  0
   14.5244   -4.8390    0.0000 C   0  0
   13.8097   -4.4297    0.0000 C   0  0
   15.2443   -6.0803    0.0000 C   0  0
   15.2453   -6.9061    0.0000 O   0  0
   15.9591   -5.6668    0.0000 O   0  0
   15.2310   -1.1113    0.0000 Br  0  0
  1  2  2  0
  2  3  1  0
  3  4  2  0
  4  5  1  0
  5  6  2  0
  6  1  1  0
  5  7  1  0
  7  8  1  0
  8  9  2  0
  9 10  1  0
 10 11  2  0
 11 12  1  0
 12 13  2  0
 13  8  1  0
  3 14  1  0
 14 15  1  0
 15 16  2  0
 16 17  1  0
 17 18  2  0
 18 19  1  0
 19 20  2  0
 20 15  1  0
 21 22  1  0
 21 23  2  0
 18 21  1  0
 13 24  1  0
M  END