
  SciTegic02181312462D

 40 43  0  0  0  0            999 V2000
    9.4546   -6.0152    0.0000 C   0  0
    9.4546   -5.1902    0.0000 C   0  0
   10.1691   -4.7777    0.0000 C   0  0
   10.8836   -5.1902    0.0000 C   0  0
   10.8836   -6.0152    0.0000 C   0  0
   10.1691   -6.4277    0.0000 N   0  0
    8.7402   -6.4277    0.0000 C   0  0
    8.7402   -7.2527    0.0000 O   0  0
    8.0257   -6.0152    0.0000 N   0  0
   11.5980   -4.7777    0.0000 O   0  0
   13.7415   -6.0152    0.0000 N   0  0
   13.0270   -6.4277    0.0000 C   0  0
   12.3125   -6.0152    0.0000 C   0  0
   12.3125   -5.1902    0.0000 C   0  0
   13.0270   -4.7777    0.0000 C   0  0
   13.7415   -5.1902    0.0000 C   0  0
    7.3112   -6.4277    0.0000 C   0  0
    7.3112   -7.2527    0.0000 C   0  0
    6.5967   -7.6652    0.0000 C   0  0
    5.8823   -7.2527    0.0000 C   0  0
    5.8823   -6.4277    0.0000 C   0  0
    6.5967   -6.0152    0.0000 C   0  0
    5.1678   -7.6652    0.0000 N   0  0
    4.4533   -7.2527    0.0000 C   0  0
    4.4533   -6.4277    0.0000 O   0  0
    3.7389   -7.6652    0.0000 N   0  0
    1.7187   -6.9751    0.0000 O   0  0
    2.2707   -7.5882    0.0000 N   0  0
    3.0244   -7.2527    0.0000 C   0  0
    2.9382   -6.4322    0.0000 C   0  0
    2.1312   -6.2607    0.0000 C   0  0
    1.7956   -5.5070    0.0000 C   0  0
    2.2081   -4.7925    0.0000 C   0  0
    1.4601   -4.7533    0.0000 C   0  0
    0.9987   -5.2935    0.0000 C   0  0
   14.4559   -6.4277    0.0000 C   0  0
   15.1704   -6.0152    0.0000 C   0  0
   15.8849   -6.4277    0.0000 F   0  0
   15.1704   -5.1902    0.0000 F   0  0
   15.8849   -5.6027    0.0000 F   0  0
  1  2  1  0
  2  3  2  0
  3  4  1  0
  4  5  2  0
  5  6  1  0
  1  6  2  0
  1  7  1  0
  7  8  2  0
  7  9  1  0
 11 12  1  0
 12 13  1  0
 13 14  1  0
 14 15  1  0
 15 16  1  0
 11 16  1  0
 10 14  1  0
  4 10  1  0
 17 18  1  0
 18 19  2  0
 19 20  1  0
 20 21  2  0
 21 22  1  0
 17 22  2  0
 23 24  1  0
 24 25  2  0
 24 26  1  0
 27 28  1  0
 28 29  2  0
 29 30  1  0
 30 31  2  0
 27 31  1  0
 32 33  1  0
 32 35  1  0
 32 34  1  0
 31 32  1  0
 26 29  1  0
 20 23  1  0
  9 17  1  0
 11 36  1  0
 36 37  1  0
 37 38  1  0
 37 39  1  0
 37 40  1  0
M  END