
  SciTegic12231509382D

 19 21  0  0  0  0            999 V2000
    4.6598   -1.1531    0.0000 S   0  0
    6.9820   -0.1611    0.0000 O   0  0
    6.9820    1.4889    0.0000 O   0  0
    4.7993    0.1745    0.0000 N   0  0
    3.4268   -0.3524    0.0000 N   0  0
    2.1214   -0.9336    0.0000 N   0  0
    3.2775   -1.7735    0.0000 N   0  0
    6.2675    0.2514    0.0000 C   0  0
    5.5530   -0.1611    0.0000 C   0  0
    7.6964    0.2514    0.0000 C   0  0
    7.6964    1.0764    0.0000 C   0  0
    4.2473   -0.4386    0.0000 C   0  0
    5.4668   -0.9816    0.0000 C   0  0
    6.2675    1.0764    0.0000 C   0  0
    8.4109   -0.1611    0.0000 C   0  0
    8.4109    1.4889    0.0000 C   0  0
    9.1254    0.2514    0.0000 C   0  0
    9.1254    1.0764    0.0000 C   0  0
    2.9419   -1.0198    0.0000 C   0  0
  1 12  1  0
  1 13  1  0
  2  8  1  0
  2 10  1  0
  3 11  1  0
  3 14  1  0
  4  9  1  0
  4 12  2  0
  5 12  1  0
  5 19  1  0
  6 19  2  0
 19  7  1  0
  8  9  1  0
  8 14  1  0
  9 13  2  0
 10 11  1  0
 10 15  2  0
 11 16  2  0
 15 17  1  0
 16 18  1  0
 17 18  2  0
M  END