
          11280714452D 1   1.00000     0.00000     0

 34 38  0     0  0            999 V2000
    7.3542    1.2083    0.0000 N   0  0  0  0  0  0           0  0  0
    6.9500   -0.0625    0.0000 C   0  0  0  0  0  0           0  0  0
    6.5292    1.2000    0.0000 N   0  0  0  0  0  0           0  0  0
    7.6125    0.4208    0.0000 N   0  0  0  0  0  0           0  0  0
    6.2417   -2.1292    0.0000 C   0  0  0  0  0  0           0  0  0
    6.2792    0.4208    0.0000 N   0  0  0  0  0  0           0  0  0
    6.2417   -1.3000    0.0000 C   0  0  0  0  0  0           0  0  0
   -0.8958   -2.1292    0.0000 N   0  0  0  0  0  0           0  0  0
    6.9542   -0.8875    0.0000 C   0  0  0  0  0  0           0  0  0
    5.5250   -2.5417    0.0000 C   0  0  0  0  0  0           0  0  0
    4.8125   -2.1292    0.0000 C   0  0  0  0  0  0           0  0  0
   -1.6083   -2.5417    0.0000 C   0  0  0  0  0  0           0  0  0
    6.9542   -2.5417    0.0000 C   0  0  0  0  0  0           0  0  0
    4.0917   -2.5417    0.0000 C   0  0  0  0  0  0           0  0  0
    0.5292   -2.1292    0.0000 C   0  0  0  0  0  0           0  0  0
    1.2500   -2.5417    0.0000 C   0  0  0  0  0  0           0  0  0
   -0.1833   -2.5417    0.0000 C   0  0  0  0  0  0           0  0  0
    7.6667   -1.3000    0.0000 C   0  0  0  0  0  0           0  0  0
    5.5250   -3.3667    0.0000 O   0  0  0  0  0  0           0  0  0
    7.6667   -2.1292    0.0000 C   0  0  0  0  0  0           0  0  0
   -1.6083   -3.3667    0.0000 C   0  0  0  0  0  0           0  0  0
   -0.8875   -3.7792    0.0000 C   0  0  0  0  0  0           0  0  0
    3.3792   -2.1292    0.0000 C   0  0  0  0  0  0           0  0  0
    1.9625   -2.1292    0.0000 C   0  0  0  0  0  0           0  0  0
    2.6750   -2.5375    0.0000 C   0  0  0  0  0  0           0  0  0
   -0.1750   -3.3667    0.0000 C   0  0  0  0  0  0           0  0  0
    6.9542   -3.3667    0.0000 O   0  0  0  0  0  0           0  0  0
    2.6750   -0.8875    0.0000 C   0  0  0  0  0  0           0  0  0
   -2.3208   -2.1375    0.0000 C   0  0  0  0  0  0           0  0  0
    1.9625   -1.3042    0.0000 C   0  0  0  0  0  0           0  0  0
    3.3875   -1.3000    0.0000 C   0  0  0  0  0  0           0  0  0
   -2.3125   -3.7792    0.0000 C   0  0  0  0  0  0           0  0  0
   -3.0333   -2.5500    0.0000 C   0  0  0  0  0  0           0  0  0
   -3.0250   -3.3750    0.0000 C   0  0  0  0  0  0           0  0  0
  2  4  1  0     0  0
  3  1  1  0     0  0
  4  1  2  0     0  0
  5  7  2  0     0  0
  6  3  1  0     0  0
  7  9  1  0     0  0
  8 17  2  0     0  0
  9  2  1  0     0  0
 10  5  1  0     0  0
 11 10  1  0     0  0
 12  8  1  0     0  0
 13 20  2  0     0  0
 14 11  2  0     0  0
 15 16  2  0     0  0
 16 24  1  0     0  0
 17 15  1  0     0  0
 18  9  2  0     0  0
 19 10  2  0     0  0
 20 18  1  0     0  0
 21 22  1  0     0  0
 22 26  2  0     0  0
 23 14  1  0     0  0
 24 25  1  0     0  0
 25 23  2  0     0  0
 26 17  1  0     0  0
 27 13  1  0     0  0
 28 31  2  0     0  0
 29 12  2  0     0  0
 30 28  1  0     0  0
 31 23  1  0     0  0
 32 21  2  0     0  0
 33 29  1  0     0  0
 34 32  1  0     0  0
  2  6  2  0     0  0
 13  5  1  0     0  0
 30 24  2  0     0  0
 12 21  1  0     0  0
 34 33  2  0     0  0
M  END