
  SciTegic01161211232D

 30 31  0  0  0  0            999 V2000
    2.6024   -2.6977    0.0000 N   0  0
    2.6003   -1.4977    0.0000 C   0  0
    3.6387   -0.8963    0.0000 O   0  0
    1.2990   -0.7500    0.0000 C   0  0
    1.2990    0.7500    0.0000 C   0  0
    0.0000    1.5000    0.0000 C   0  0
   -1.2990    0.7500    0.0000 C   0  0
   -1.2990   -0.7500    0.0000 C   0  0
    0.0000   -1.5000    0.0000 C   0  0
    0.0000   -2.7000    0.0000 O   0  0
   -0.0031    3.0008    0.0000 C   0  0
    1.0351    3.6026    0.0000 O   0  0
   -1.3039    3.7494    0.0000 C   0  0
   -1.3070    5.2502    0.0000 N   0  0
   -2.6061    6.0003    0.0000 C   0  0
   -2.6061    7.5003    0.0000 C   0  0
   -1.3071    8.2503    0.0000 N   0  0
   -0.0080    7.5003    0.0000 C   0  0
   -0.0080    6.0003    0.0000 C   0  0
   -1.3071    9.7511    0.0000 C   0  0
   -2.6050   10.5032    0.0000 C   0  0
   -2.6027   12.0032    0.0000 C   0  0
   -1.3025   12.7512    0.0000 C   0  0
   -0.0046   11.9991    0.0000 C   0  0
   -0.0069   10.4991    0.0000 C   0  0
    1.2963   12.7475    0.0000 C   0  0
    1.2990   13.9475    0.0000 F   0  0
    2.3344   12.1456    0.0000 F   0  0
    2.3368   13.3454    0.0000 F   0  0
    6.3990    5.6238    0.0000 Cl  0  0
  1  2  1  0
  2  3  2  0
  2  4  1  0
  4  5  2  0
  5  6  1  0
  6  7  2  0
  7  8  1  0
  8  9  2  0
  9  4  1  0
  9 10  1  0
  6 11  1  0
 11 12  1  0
 11 13  1  0
 13 14  1  0
 14 15  1  0
 15 16  1  0
 16 17  1  0
 17 18  1  0
 18 19  1  0
 19 14  1  0
 17 20  1  0
 20 21  2  0
 21 22  1  0
 22 23  2  0
 23 24  1  0
 24 25  2  0
 25 20  1  0
 24 26  1  0
 26 27  1  0
 26 28  1  0
 26 29  1  0
M  END