
  SciTegic01161211222D

 34 35  0  0  0  0            999 V2000
    2.6375    0.1333    0.0000 C   0  0  2  0  0  0
    3.3167    0.6083    0.0000 C   0  0  2  0  0  0
    1.8917    0.4833    0.0000 C   0  0
    3.2500    1.4250    0.0000 C   0  0
    4.0625    0.2500    0.0000 O   0  0
    2.7042   -0.6875    0.0000 O   0  0
    2.0292   -1.1542    0.0000 C   0  0
    4.1292   -0.5667    0.0000 C   0  0
    1.2792   -0.8042    0.0000 C   0  0
    4.8417   -0.1542    0.0000 C   0  0
   -1.5708   -1.0417    0.0000 C   0  0
    7.7000   -0.1542    0.0000 C   0  0
    5.5625   -0.5667    0.0000 C   0  0
    0.6042   -1.2750    0.0000 C   0  0
    3.9292    1.8958    0.0000 O   0  0
    1.8250    1.3083    0.0000 O   0  0
   -1.6333   -0.2167    0.0000 C   0  0
    7.7000    0.6708    0.0000 C   0  0
    1.2167    0.0208    0.0000 O   0  0
    2.5042    1.7833    0.0000 O   0  0
   -0.8208   -1.3917    0.0000 C   0  0
    6.9875   -0.5667    0.0000 C   0  0
    4.1292   -1.3917    0.0000 O   0  0
    2.0917   -1.9792    0.0000 O   0  0
    6.2750   -0.1542    0.0000 C   0  0
   -0.1458   -0.9250    0.0000 C   0  0
   -0.9583    0.2583    0.0000 C   0  0
    6.9792    1.0833    0.0000 C   0  0
   -2.2458   -1.5042    0.0000 O   0  0
    8.4125   -0.5667    0.0000 O   0  0
    6.2667    0.6625    0.0000 C   0  0
   -0.2125   -0.0917    0.0000 C   0  0
    8.4125    1.0833    0.0000 O   0  0
   -2.3833    0.1375    0.0000 O   0  0
  2  1  1  0
  3  1  1  0
  4  2  1  0
  2  5  1  6
  1  6  1  1
  7  6  1  0
  8  5  1  0
  9  7  1  0
 10  8  1  0
 11 21  1  0
 12 22  1  0
 13 10  2  0
 14  9  2  0
 15  4  1  0
 16  3  1  0
 17 27  1  0
 18 28  1  0
 19  3  2  0
 20  4  2  0
 21 26  2  0
 22 25  2  0
 23  8  2  0
 24  7  2  0
 25 13  1  0
 26 14  1  0
 27 32  2  0
 28 31  2  0
 29 11  1  0
 30 12  1  0
 31 25  1  0
 32 26  1  0
 33 18  1  0
 34 17  1  0
 11 17  2  0
 12 18  2  0
M  END