
          02060813472D 1   1.00000     0.00000     0

 76 79  0     1  0            999 V2000
    9.8724  -23.8523    0.0000 C   0  0  0  0  0  0           0  0  0
    9.1584  -23.4380    0.0000 S   0  0  0  0  0  0           0  0  0
    8.4388  -23.8437    0.0000 S   0  0  0  0  0  0           0  0  0
    7.7246  -23.4254    0.0000 C   0  0  0  0  0  0           0  0  0
    7.7312  -22.5951    0.0000 C   0  0  0  0  0  0           0  0  0
    7.0222  -22.1767    0.0000 C   0  0  0  0  0  0           0  0  0
    7.0308  -21.3518    0.0000 N   0  0  0  0  0  0           0  0  0
    6.2997  -22.5824    0.0000 O   0  0  0  0  0  0           0  0  0
    6.3169  -20.9321    0.0000 C   0  0  2  0  0  0           0  0  0
    6.3233  -20.1073    0.0000 C   0  0  0  0  0  0           0  0  0
    5.5972  -21.3370    0.0000 C   0  0  0  0  0  0           0  0  0
    4.8894  -20.9132    0.0000 C   0  0  0  0  0  0           0  0  0
    4.8963  -20.0891    0.0000 C   0  0  0  0  0  0           0  0  0
    4.1826  -19.6689    0.0000 C   0  0  0  0  0  0           0  0  0
    3.4610  -20.0750    0.0000 C   0  0  0  0  0  0           0  0  0
    3.4587  -20.9119    0.0000 C   0  0  0  0  0  0           0  0  0
    4.1707  -21.3261    0.0000 C   0  0  0  0  0  0           0  0  0
    2.7512  -19.6616    0.0000 O   0  0  0  0  0  0           0  0  0
    7.0438  -19.7016    0.0000 N   0  0  0  0  0  0           0  0  0
    5.6102  -19.6889    0.0000 O   0  0  0  0  0  0           0  0  0
    7.7570  -19.7095    0.0000 C   0  0  2  0  0  0           0  0  0
    8.4713  -19.7099    0.0000 C   0  0  0  0  0  0           0  0  0
    9.1845  -20.1305    0.0000 N   0  0  0  0  0  0           0  0  0
    8.4778  -18.8859    0.0000 O   0  0  0  0  0  0           0  0  0
    9.9090  -19.7248    0.0000 C   0  0  2  0  0  0           0  0  0
   10.6223  -20.1432    0.0000 C   0  0  0  0  0  0           0  0  0
    9.9156  -18.8945    0.0000 C   0  0  0  0  0  0           0  0  0
   10.6353  -18.4887    0.0000 C   0  0  0  0  0  0           0  0  0
   10.6418  -17.6639    0.0000 C   0  0  0  0  0  0           0  0  0
   11.3615  -17.2548    0.0000 N   0  0  0  0  0  0           0  0  0
    9.9285  -17.2454    0.0000 O   0  0  0  0  0  0           0  0  0
   11.3419  -19.7374    0.0000 O   0  0  0  0  0  0           0  0  0
   10.6117  -20.9681    0.0000 N   0  0  0  0  0  0           0  0  0
   11.3248  -21.3918    0.0000 C   0  0  2  0  0  0           0  0  0
   11.3183  -22.2167    0.0000 C   0  0  0  0  0  0           0  0  0
   12.0392  -20.9828    0.0000 C   0  0  0  0  0  0           0  0  0
   12.7571  -21.4065    0.0000 C   0  0  0  0  0  0           0  0  0
   13.4769  -20.9955    0.0000 N   0  0  0  0  0  0           0  0  0
   12.7507  -22.2315    0.0000 O   0  0  0  0  0  0           0  0  0
   10.5987  -22.6183    0.0000 N   0  0  0  0  0  0           0  0  0
   12.0262  -22.6309    0.0000 O   0  0  0  0  0  0           0  0  0
   10.5857  -23.4528    0.0000 C   0  0  2  0  0  0           0  0  0
   11.2990  -23.8670    0.0000 C   0  0  0  0  0  0           0  0  0
   12.0196  -23.4612    0.0000 O   0  0  0  0  0  0           0  0  0
    7.7505  -20.5670    0.0000 C   0  0  2  0  0  0           0  0  0
    7.7567  -18.9156    0.0000 H   0  0  0  0  0  0           0  0  0
    8.3980  -20.8711    0.0000 C   0  0  0  0  0  0           0  0  0
    8.4171  -21.8698    0.0000 C   0  0  0  0  0  0           0  0  0
    7.0727  -20.9003    0.0000 C   0  0  0  0  0  0           0  0  0
   11.2949  -24.6921    0.0000 N   0  0  3  0  0  0           0  0  0
   10.5794  -25.0966    0.0000 C   0  0  0  0  0  0           0  0  0
   11.9964  -25.9336    0.0000 C   0  0  0  0  0  0           0  0  0
   12.0090  -25.1088    0.0000 C   0  0  2  0  0  0           0  0  0
   12.7300  -24.6981    0.0000 C   0  0  0  0  0  0           0  0  0
   13.4410  -25.1167    0.0000 N   0  0  0  0  0  0           0  0  0
   12.7338  -23.8731    0.0000 O   0  0  0  0  0  0           0  0  0
   14.1557  -24.7124    0.0000 C   0  0  2  0  0  0           0  0  0
   14.8667  -25.1268    0.0000 C   0  0  0  0  0  0           0  0  0
   14.1637  -23.8873    0.0000 C   0  0  0  0  0  0           0  0  0
   14.8784  -23.4766    0.0000 C   0  0  3  0  0  0           0  0  0
   14.8885  -22.6515    0.0000 C   0  0  0  0  0  0           0  0  0
   15.5893  -23.8953    0.0000 C   0  0  0  0  0  0           0  0  0
   14.8629  -25.9520    0.0000 O   0  0  0  0  0  0           0  0  0
   15.5855  -24.7203    0.0000 N   0  0  0  0  0  0           0  0  0
   16.2965  -25.1411    0.0000 C   0  0  0  0  0  0           0  0  0
   17.0175  -24.7305    0.0000 C   0  0  0  0  0  0           0  0  0
   17.7285  -25.1490    0.0000 N   0  0  0  0  0  0           0  0  0
   17.0213  -23.9053    0.0000 O   0  0  0  0  0  0           0  0  0
   11.2774  -26.3412    0.0000 C   0  0  0  0  0  0           0  0  0
   10.5724  -25.9156    0.0000 C   0  0  0  0  0  0           0  0  0
    9.8545  -26.3184    0.0000 C   0  0  0  0  0  0           0  0  0
    9.8397  -27.1423    0.0000 C   0  0  0  0  0  0           0  0  0
   10.5519  -27.5651    0.0000 C   0  0  0  0  0  0           0  0  0
   11.2655  -27.1587    0.0000 C   0  0  0  0  0  0           0  0  0
    2.0374  -20.0751    0.0000 C   0  0  0  0  0  0           0  0  0
    1.3233  -19.6591    0.0000 C   0  0  0  0  0  0           0  0  0
 42  1  1  0     0  0
  1  2  1  0     0  0
  2  3  1  0     0  0
  3  4  1  0     0  0
  4  5  1  0     0  0
  5  6  1  0     0  0
  6  7  1  0     0  0
  6  8  2  0     0  0
  7  9  1  0     0  0
  9 10  1  0     0  0
  9 11  1  1     0  0
 11 12  1  0     0  0
 12 13  2  0     0  0
 13 14  1  0     0  0
 14 15  2  0     0  0
 15 16  1  0     0  0
 16 17  2  0     0  0
 17 12  1  0     0  0
 15 18  1  0     0  0
 10 19  1  0     0  0
 10 20  2  0     0  0
 19 21  1  0     0  0
 21 22  1  0     0  0
 22 23  1  0     0  0
 22 24  2  0     0  0
 23 25  1  0     0  0
 25 26  1  0     0  0
 25 27  1  1     0  0
 27 28  1  0     0  0
 28 29  1  0     0  0
 29 30  1  0     0  0
 29 31  2  0     0  0
 26 32  2  0     0  0
 26 33  1  0     0  0
 33 34  1  0     0  0
 34 35  1  0     0  0
 34 36  1  1     0  0
 36 37  1  0     0  0
 37 38  1  0     0  0
 37 39  2  0     0  0
 35 40  1  0     0  0
 35 41  2  0     0  0
 40 42  1  0     0  0
 42 43  1  6     0  0
 43 44  2  0     0  0
 21 45  1  0     0  0
 21 46  1  1     0  0
 45 47  1  0     0  0
 47 48  1  0     0  0
 45 49  1  6     0  0
 43 50  1  0     0  0
 50 51  1  0     0  0
 50 53  1  0     0  0
 51 70  1  0     0  0
 69 52  1  0     0  0
 52 53  1  0     0  0
 53 54  1  1     0  0
 54 55  1  0     0  0
 54 56  2  0     0  0
 55 57  1  0     0  0
 57 58  1  0     0  0
 57 59  1  1     0  0
 59 60  1  0     0  0
 60 61  1  0     0  0
 60 62  1  0     0  0
 58 63  2  0     0  0
 58 64  1  0     0  0
 64 65  1  0     0  0
 65 66  1  0     0  0
 66 67  1  0     0  0
 66 68  2  0     0  0
 69 70  2  0     0  0
 70 71  1  0     0  0
 71 72  2  0     0  0
 72 73  1  0     0  0
 73 74  2  0     0  0
 74 69  1  0     0  0
 18 75  1  0     0  0
 75 76  1  0     0  0
M  END