
  SciTegic07091215302D

 19 20  0  0  0  0            999 V2000
   -3.0348    1.1786    0.0000 Cl  0  0
    3.2411    2.0036    0.0000 C   0  0
    2.5266    1.5911    0.0000 C   0  0
    2.5266    0.7661    0.0000 C   0  0
    3.2411    0.3536    0.0000 C   0  0
    3.9556    0.7661    0.0000 C   0  0
    3.9556    1.5911    0.0000 C   0  0
    1.8121    2.0036    0.0000 C   0  0  2  0  0  0
    1.0976    1.5911    0.0000 C   0  0  2  0  0  0
    1.0976    0.7661    0.0000 C   0  0
    1.8121    0.3536    0.0000 C   0  0
    0.3831    2.0036    0.0000 C   0  0
   -0.3313    1.5911    0.0000 C   0  0
   -1.0850    1.9267    0.0000 N   0  0
   -1.6370    1.3136    0.0000 C   0  0
   -1.2245    0.5991    0.0000 C   0  0
   -0.4176    0.7706    0.0000 N   0  0
    1.0976    2.4161    0.0000 H   0  0
    1.8121    2.8286    0.0000 C   0  0
  2  3  1  0
  2  7  2  0
  4  5  1  0
  5  6  2  0
  6  7  1  0
  3  8  1  0
  3  4  2  0
 11  4  1  0
  8  9  1  0
  9 10  1  0
 10 11  1  0
  9 12  1  0
 12 13  1  0
 13 14  2  0
 13 17  1  0
 14 15  1  0
 15 16  1  0
 16 17  1  0
  9 18  1  1
  8 19  1  6
M  END