
          11280715522D 1   1.00000     0.00000     0

 37 41  0     0  0            999 V2000
   -4.6306   -0.5125    0.0000 C   0  0  0  0  0  0           0  0  0
   -4.6318   -1.3398    0.0000 C   0  0  0  0  0  0           0  0  0
   -3.9169   -1.7527    0.0000 C   0  0  0  0  0  0           0  0  0
   -3.9187   -0.0997    0.0000 C   0  0  0  0  0  0           0  0  0
   -3.2034   -0.5088    0.0000 C   0  0  0  0  0  0           0  0  0
   -3.2026   -1.3357    0.0000 C   0  0  0  0  0  0           0  0  0
   -2.4873   -1.7466    0.0000 N   0  0  0  0  0  0           0  0  0
   -1.7723   -1.3319    0.0000 C   0  0  0  0  0  0           0  0  0
   -1.7770   -0.5019    0.0000 C   0  0  0  0  0  0           0  0  0
   -2.4929   -0.0947    0.0000 N   0  0  0  0  0  0           0  0  0
   -1.0562   -1.7416    0.0000 O   0  0  0  0  0  0           0  0  0
   -1.0651   -0.0851    0.0000 C   0  0  0  0  0  0           0  0  0
   -0.3481   -0.4932    0.0000 N   0  0  0  0  0  0           0  0  0
   -1.0701    0.7399    0.0000 O   0  0  0  0  0  0           0  0  0
    0.3638   -0.0764    0.0000 C   0  0  0  0  0  0           0  0  0
    1.0785   -0.4879    0.0000 C   0  0  0  0  0  0           0  0  0
    1.7900   -0.0718    0.0000 C   0  0  0  0  0  0           0  0  0
    1.7854    0.7541    0.0000 C   0  0  0  0  0  0           0  0  0
    1.0634    1.1620    0.0000 C   0  0  0  0  0  0           0  0  0
    0.3549    0.7435    0.0000 C   0  0  0  0  0  0           0  0  0
    2.4968    1.1719    0.0000 O   0  0  0  0  0  0           0  0  0
   -1.0530   -2.5666    0.0000 C   0  0  0  0  0  0           0  0  0
    1.0555    1.9870    0.0000 C   0  0  0  0  0  0           0  0  0
    1.7660    2.4064    0.0000 N   0  0  3  0  0  0           0  0  0
    2.4844    1.9941    0.0000 C   0  0  0  0  0  0           0  0  0
    3.1928    2.4099    0.0000 C   0  0  0  0  0  0           0  0  0
    3.1891    3.2352    0.0000 N   0  0  3  0  0  0           0  0  0
    2.4709    3.6430    0.0000 C   0  0  0  0  0  0           0  0  0
    1.7563    3.2255    0.0000 C   0  0  0  0  0  0           0  0  0
    3.9012    3.6519    0.0000 C   0  0  0  0  0  0           0  0  0
    2.5068   -0.4803    0.0000 N   0  0  3  0  0  0           0  0  0
    2.5066   -1.3096    0.0000 C   0  0  0  0  0  0           0  0  0
    3.2192   -1.7180    0.0000 C   0  0  0  0  0  0           0  0  0
    3.9338   -1.3050    0.0000 N   0  0  3  0  0  0           0  0  0
    3.9312   -0.4791    0.0000 C   0  0  0  0  0  0           0  0  0
    3.2139   -0.0661    0.0000 C   0  0  0  0  0  0           0  0  0
    4.6491   -1.7162    0.0000 C   0  0  0  0  0  0           0  0  0
 17 18  1  0     0  0
  8  9  2  0     0  0
 18 19  2  0     0  0
  4  1  2  0     0  0
 19 20  1  0     0  0
 20 15  2  0     0  0
  9 10  1  0     0  0
 18 21  1  0     0  0
 10  5  2  0     0  0
 11 22  1  0     0  0
 19 23  1  0     0  0
  8 11  1  0     0  0
 23 24  1  0     0  0
 24 25  1  0     0  0
  2  3  2  0     0  0
  9 12  1  0     0  0
  5  6  1  0     0  0
 12 13  1  0     0  0
  3  6  1  0     0  0
 24 29  1  0     0  0
 25 26  1  0     0  0
 26 27  1  0     0  0
 27 28  1  0     0  0
 28 29  1  0     0  0
 12 14  2  0     0  0
 27 30  1  0     0  0
  6  7  2  0     0  0
 17 31  1  0     0  0
 31 32  1  0     0  0
 13 15  1  0     0  0
  1  2  1  0     0  0
 15 16  1  0     0  0
  7  8  1  0     0  0
 16 17  2  0     0  0
 31 36  1  0     0  0
 32 33  1  0     0  0
 33 34  1  0     0  0
 34 35  1  0     0  0
 35 36  1  0     0  0
  5  4  1  0     0  0
 34 37  1  0     0  0
M  END