
  CDK    9/16/09,9:54

 20 21  0  0  0  0  0  0  0  0999 V2000
    2.7792    1.9417    0.0000 C   0  0  0  0  0  0  0  0  0  0  0  0
    2.7792    1.1167    0.0000 C   0  0  0  0  0  0  0  0  0  0  0  0
    3.4912    0.7083    0.0000 C   0  0  0  0  0  0  0  0  0  0  0  0
    4.2032    1.1167    0.0000 C   0  0  0  0  0  0  0  0  0  0  0  0
    4.2032    1.9417    0.0000 N   0  0  0  0  0  0  0  0  0  0  0  0
    3.4912    2.3583    0.0000 C   0  0  0  0  0  0  0  0  0  0  0  0
    4.9189    2.3521    0.0000 C   0  0  0  0  0  0  0  0  0  0  0  0
    5.6321    1.9375    0.0000 C   0  0  0  0  0  0  0  0  0  0  0  0
    6.3478    2.3479    0.0000 C   0  0  0  0  0  0  0  0  0  0  0  0
    7.0611    1.9333    0.0000 O   0  0  0  0  0  0  0  0  0  0  0  0
    7.7768    2.3437    0.0000 C   0  0  0  0  0  0  0  0  0  0  0  0
    8.4900    1.9291    0.0000 C   0  0  0  0  0  0  0  0  0  0  0  0
    9.2057    2.3395    0.0000 C   0  0  0  0  0  0  0  0  0  0  0  0
    9.9189    1.9249    0.0000 C   0  0  0  0  0  0  0  0  0  0  0  0
    9.9115    1.0989    0.0000 C   0  0  0  0  0  0  0  0  0  0  0  0
   10.6239    0.6844    0.0000 C   0  0  0  0  0  0  0  0  0  0  0  0
   11.3406    1.0949    0.0000 C   0  0  0  0  0  0  0  0  0  0  0  0
   11.3403    1.9242    0.0000 C   0  0  0  0  0  0  0  0  0  0  0  0
   10.6273    2.3349    0.0000 C   0  0  0  0  0  0  0  0  0  0  0  0
   12.0544    0.6812    0.0000 Cl  0  0  0  0  0  0  0  0  0  0  0  0
  9 10  1  0  0  0  0 
  3  4  1  0  0  0  0 
 10 11  1  0  0  0  0 
  4  5  1  0  0  0  0 
 11 12  1  0  0  0  0 
  5  6  1  0  0  0  0 
 12 13  1  0  0  0  0 
 13 14  1  0  0  0  0 
  5  7  1  0  0  0  0 
 14 15  2  0  0  0  0 
  1  2  1  0  0  0  0 
 15 16  1  0  0  0  0 
  7  8  1  0  0  0  0 
 16 17  2  0  0  0  0 
  1  6  1  0  0  0  0 
 17 18  1  0  0  0  0 
  8  9  1  0  0  0  0 
 18 19  2  0  0  0  0 
 19 14  1  0  0  0  0 
  2  3  1  0  0  0  0 
 17 20  1  0  0  0  0 
M  END