
  CDK    9/16/09,10:4

 29 31  0  0  0  0  0  0  0  0999 V2000
    7.2958  -21.6625    0.0000 C   0  0  0  0  0  0  0  0  0  0  0  0
    8.0103  -21.2500    0.0000 N   0  0  0  0  0  0  0  0  0  0  0  0
    6.5814  -21.2500    0.0000 N   0  0  0  0  0  0  0  0  0  0  0  0
    7.2958  -22.4875    0.0000 S   0  0  0  0  0  0  0  0  0  0  0  0
    5.8669  -21.6625    0.0000 C   0  0  0  0  0  0  0  0  0  0  0  0
    5.1530  -21.2469    0.0000 C   0  0  0  0  0  0  0  0  0  0  0  0
    4.4390  -21.6587    0.0000 C   0  0  0  0  0  0  0  0  0  0  0  0
    4.4386  -22.4846    0.0000 C   0  0  0  0  0  0  0  0  0  0  0  0
    5.1581  -22.8969    0.0000 C   0  0  0  0  0  0  0  0  0  0  0  0
    5.8691  -22.4827    0.0000 C   0  0  0  0  0  0  0  0  0  0  0  0
    8.7248  -21.6625    0.0000 C   0  0  0  0  0  0  0  0  0  0  0  0
    8.7222  -22.4886    0.0000 C   0  0  0  0  0  0  0  0  0  0  0  0
    9.4359  -22.9010    0.0000 C   0  0  0  0  0  0  0  0  0  0  0  0
    9.4344  -21.2505    0.0000 C   0  0  0  0  0  0  0  0  0  0  0  0
   10.1487  -21.6592    0.0000 C   0  0  0  0  0  0  0  0  0  0  0  0
   10.1523  -22.4870    0.0000 C   0  0  0  0  0  0  0  0  0  0  0  0
   10.8678  -22.8977    0.0000 S   0  0  0  0  0  0  0  0  0  0  0  0
   11.5792  -23.3083    0.0000 N   0  0  0  0  0  0  0  0  0  0  0  0
   11.2794  -22.1827    0.0000 O   0  0  0  0  0  0  0  0  0  0  0  0
   10.4593  -23.6145    0.0000 O   0  0  0  0  0  0  0  0  0  0  0  0
    3.7246  -22.8980    0.0000 Cl  0  0  0  0  0  0  0  0  0  0  0  0
   11.5793  -24.1333    0.0000 C   0  0  0  0  0  0  0  0  0  0  0  0
   10.8625  -24.5440    0.0000 C   0  0  0  0  0  0  0  0  0  0  0  0
   10.8622  -25.3682    0.0000 C   0  0  0  0  0  0  0  0  0  0  0  0
   11.5773  -25.7814    0.0000 C   0  0  0  0  0  0  0  0  0  0  0  0
   12.2941  -25.3644    0.0000 C   0  0  0  0  0  0  0  0  0  0  0  0
   12.2908  -24.5415    0.0000 C   0  0  0  0  0  0  0  0  0  0  0  0
   11.5785  -26.6064    0.0000 O   0  0  0  0  0  0  0  0  0  0  0  0
   10.8646  -27.0200    0.0000 C   0  0  0  0  0  0  0  0  0  0  0  0
 15 14  2  0  0  0  0 
 14 11  1  0  0  0  0 
 15 16  1  0  0  0  0 
  1  4  2  0  0  0  0 
  7  8  2  0  0  0  0 
 16 17  1  0  0  0  0 
  8  9  1  0  0  0  0 
 17 18  1  0  0  0  0 
  3  5  1  0  0  0  0 
 17 19  2  0  0  0  0 
  9 10  2  0  0  0  0 
 17 20  2  0  0  0  0 
 10  5  1  0  0  0  0 
  8 21  1  0  0  0  0 
  1  3  1  0  0  0  0 
 18 22  1  0  0  0  0 
  2 11  1  0  0  0  0 
 22 23  2  0  0  0  0 
  5  6  2  0  0  0  0 
 23 24  1  0  0  0  0 
 11 12  2  0  0  0  0 
 24 25  2  0  0  0  0 
  1  2  1  0  0  0  0 
 25 26  1  0  0  0  0 
 12 13  1  0  0  0  0 
 26 27  2  0  0  0  0 
 27 22  1  0  0  0  0 
 13 16  2  0  0  0  0 
 25 28  1  0  0  0  0 
  6  7  1  0  0  0  0 
 28 29  1  0  0  0  0 
M  END