
  SciTegic10301317112D

 33 33  0  0  0  0            999 V2000
    0.1042   -0.1292    0.0000 S   0  0
   10.1034   -4.2039    0.0000 C   0  0  1  0  0  0
    3.3914   -0.1125    0.0000 C   0  0
   10.9283   -4.2538    0.0000 C   0  0
    9.7367   -3.4664    0.0000 N   0  0
    0.9249   -0.1250    0.0000 C   0  0
    8.9118   -3.4789    0.0000 C   0  0
    3.8122   -0.8249    0.0000 N   0  0
    0.1000   -0.9499    0.0000 O   0  0
    0.1042    0.6957    0.0000 O   0  0
    5.0538   -1.5291    0.0000 C   0  0
    7.1869   -2.1040    0.0000 C   0  0
    9.6534   -4.8996    0.0000 C   0  0
    2.5665   -0.1167    0.0000 C   0  0
   -0.7249   -0.1167    0.0000 N   0  0
    7.6661   -2.7665    0.0000 N   0  0
    5.8787   -1.5249    0.0000 N   0  0
    3.8039    0.6082    0.0000 O   0  0
   11.3866   -3.5664    0.0000 O   0  0
    8.5035   -4.1914    0.0000 O   0  0
    4.6413   -2.2415    0.0000 O   0  0
    7.5161   -1.3499    0.0000 O   0  0
    1.3291    0.5875    0.0000 C   0  0
    1.3416   -0.8374    0.0000 C   0  0
    2.1623   -0.8291    0.0000 C   0  0
    2.1498    0.5958    0.0000 C   0  0
    4.6371   -0.8166    0.0000 C   0  0
    8.4910   -2.7665    0.0000 C   0  0
    6.3662   -2.1915    0.0000 C   0  0
   11.2991   -4.9996    0.0000 O   0  0
   10.0159   -5.6370    0.0000 C   0  0
    8.8285   -4.8496    0.0000 C   0  0
   10.4366   -5.1538    0.0000 C   0  0
  2  5  1  0
  3 14  1  0
  4  2  1  0
  5  7  1  0
  6  1  1  0
  7 28  1  0
  8  3  1  0
  9  1  2  0
 10  1  2  0
 11 27  1  0
 12 29  1  0
  2 13  1  6
 14 25  2  0
 15  1  1  0
 16 12  1  0
 17 11  1  0
 18  3  2  0
 19  4  2  0
 20  7  2  0
 21 11  2  0
 22 12  2  0
 23  6  1  0
 24  6  2  0
 25 24  1  0
 26 23  2  0
 27  8  1  0
 28 16  1  0
 29 17  1  0
 30  4  1  0
 31 13  1  0
 32 13  1  0
 33 13  1  0
 14 26  1  0
M  END