
          01230816042D 1   1.00000     0.00000     0

 41 45  0     0  0            999 V2000
   14.3194   -0.8041    0.0000 C   0  0  0  0  0  0           0  0  0
   14.3182   -1.6315    0.0000 C   0  0  0  0  0  0           0  0  0
   15.0331   -2.0444    0.0000 C   0  0  0  0  0  0           0  0  0
   15.0313   -0.3914    0.0000 C   0  0  0  0  0  0           0  0  0
   16.4124   -2.1474    0.0000 C   0  0  0  0  0  0           0  0  0
   17.2455   -1.9284    0.0000 N   0  0  0  0  0  0           0  0  0
   17.5642   -1.1771    0.0000 N   0  0  3  0  0  0           0  0  0
   15.7469   -1.6332    0.0000 C   0  0  0  0  0  0           0  0  0
   15.7466   -0.8005    0.0000 C   0  0  0  0  0  0           0  0  0
   16.4258   -0.2588    0.0000 N   0  0  3  0  0  0           0  0  0
   17.2055   -0.4385    0.0000 C   0  0  0  0  0  0           0  0  0
   17.7195    0.2067    0.0000 O   0  0  0  0  0  0           0  0  0
   18.3889   -1.1561    0.0000 C   0  0  0  0  0  0           0  0  0
   18.8195   -1.8599    0.0000 C   0  0  0  0  0  0           0  0  0
   19.6442   -1.8389    0.0000 N   0  0  0  0  0  0           0  0  0
   18.4253   -2.5846    0.0000 O   0  0  0  0  0  0           0  0  0
   20.0748   -2.5426    0.0000 C   0  0  0  0  0  0           0  0  0
   19.6783   -3.2663    0.0000 C   0  0  0  0  0  0           0  0  0
   20.1081   -3.9695    0.0000 C   0  0  0  0  0  0           0  0  0
   20.9338   -3.9490    0.0000 C   0  0  0  0  0  0           0  0  0
   21.3277   -3.2192    0.0000 C   0  0  0  0  0  0           0  0  0
   20.8955   -2.5189    0.0000 C   0  0  0  0  0  0           0  0  0
   16.3907    0.5654    0.0000 C   0  0  0  0  0  0           0  0  0
   16.2482   -2.9559    0.0000 C   0  0  3  0  0  0           0  0  0
   15.4654   -3.2133    0.0000 C   0  0  0  0  0  0           0  0  0
   15.3000   -4.0179    0.0000 C   0  0  0  0  0  0           0  0  0
   15.9156   -4.5677    0.0000 C   0  0  0  0  0  0           0  0  0
   16.6994   -4.3072    0.0000 C   0  0  0  0  0  0           0  0  0
   16.8677   -3.4969    0.0000 C   0  0  0  0  0  0           0  0  0
   15.6593    0.9472    0.0000 C   0  0  0  0  0  0           0  0  0
   14.9631    0.5046    0.0000 O   0  0  0  0  0  0           0  0  0
   15.6242    1.7714    0.0000 C   0  0  3  0  0  0           0  0  0
   16.2679    2.2814    0.0000 C   0  0  0  0  0  0           0  0  0
   15.9798    3.0545    0.0000 C   0  0  0  0  0  0           0  0  0
   15.1555    3.0194    0.0000 C   0  0  0  0  0  0           0  0  0
   14.9343    2.2246    0.0000 C   0  0  0  0  0  0           0  0  0
   22.1523   -3.1953    0.0000 C   0  0  0  0  0  0           0  0  0
   22.5853   -3.8975    0.0000 C   0  0  0  0  0  0           0  0  0
   22.1937   -4.6237    0.0000 C   0  0  0  0  0  0           0  0  0
   22.6267   -5.3259    0.0000 O   0  0  0  0  0  0           0  0  0
   21.3690   -4.6476    0.0000 O   0  0  0  0  0  0           0  0  0
 19 20  2  0     0  0
  9 10  1  0     0  0
 20 21  1  0     0  0
 10 11  1  0     0  0
 21 22  2  0     0  0
 22 17  1  0     0  0
 11  7  1  0     0  0
 10 23  1  0     0  0
  8  9  1  0     0  0
  5 24  1  0     0  0
 24 25  1  0     0  0
  2  3  1  0     0  0
 11 12  2  0     0  0
  3  8  2  0     0  0
  7 13  1  0     0  0
  1  2  2  0     0  0
 24 29  1  0     0  0
 25 26  1  0     0  0
 26 27  1  0     0  0
 27 28  1  0     0  0
 28 29  1  0     0  0
 13 14  1  0     0  0
 23 30  1  0     0  0
  9  4  2  0     0  0
 30 31  2  0     0  0
 14 15  1  0     0  0
 30 32  1  0     0  0
 32 33  1  0     0  0
  4  1  1  0     0  0
 14 16  2  0     0  0
 15 17  1  0     0  0
 33 34  1  0     0  0
 34 35  1  0     0  0
 35 36  1  0     0  0
 36 32  1  0     0  0
  5  6  2  0     0  0
 21 37  1  0     0  0
 17 18  2  0     0  0
 37 38  1  0     0  0
  6  7  1  0     0  0
 38 39  1  0     0  0
 18 19  1  0     0  0
 39 40  1  0     0  0
  5  8  1  0     0  0
 39 41  2  0     0  0
M  END