
  SciTegic01161211242D

 44 46  0  0  0  0            999 V2000
    8.6167   -4.5250    0.0000 N   0  3
    3.6250   -4.9500    0.0000 C   0  0
    5.7667   -4.5292    0.0000 C   0  0
    0.0500   -6.2000    0.0000 C   0  0
    4.3375   -4.5375    0.0000 N   0  0
    5.0542   -4.9458    0.0000 C   0  0  1  0  0  0
    6.4833   -4.9417    0.0000 N   0  0
    2.9083   -4.5417    0.0000 N   0  0
   -0.6625   -5.7875    0.0000 O   0  0
    0.7667   -5.7875    0.0000 C   0  0
    3.6250   -5.7750    0.0000 O   0  0
    9.4125   -4.3042    0.0000 C   0  0
    5.7625   -3.7042    0.0000 O   0  0
    0.0500   -7.0250    0.0000 O   0  0
    7.9083   -4.9375    0.0000 C   0  0
    5.0542   -5.7708    0.0000 C   0  0
    7.1958   -4.5250    0.0000 C   0  0  2  0  0  0
   10.0000   -4.8833    0.0000 C   0  0
    1.4792   -6.2000    0.0000 C   0  0
    0.7667   -4.9625    0.0000 C   0  0
    2.1958   -4.9583    0.0000 C   0  0
    5.7708   -6.1792    0.0000 C   0  0
    9.7875   -5.6792    0.0000 C   0  0
    8.6208   -3.7000    0.0000 C   0  0
    7.2042   -6.9958    0.0000 C   0  0
    8.6125   -5.3500    0.0000 C   0  0
   10.3750   -6.2583    0.0000 C   0  0
    1.4792   -4.5458    0.0000 C   0  0
    2.1958   -5.7875    0.0000 C   0  0
    6.4833   -5.7667    0.0000 C   0  0
    5.7750   -7.0042    0.0000 C   0  0
    6.4875   -7.4125    0.0000 C   0  0
    7.1958   -6.1667    0.0000 C   0  0
    7.9208   -7.4083    0.0000 O   0  0
   10.1667   -7.0583    0.0000 O   0  0
   -1.3792   -6.2000    0.0000 C   0  0
    7.9042   -3.2875    0.0000 C   0  0
   11.3792   -5.2375    0.0000 C   0  0
   10.7875   -4.6625    0.0000 C   0  0
    7.1875   -3.7000    0.0000 C   0  0
   11.1708   -6.0375    0.0000 C   0  0
   -1.3792   -7.0250    0.0000 C   0  0
   -2.0917   -5.7875    0.0000 C   0  0
    3.5833   -8.4583    0.0000 I   0  5
  2  5  1  0
  3  7  1  0
  4 10  1  0
  5  6  1  0
  6  3  1  0
 17  7  1  1
  8  2  1  0
  9  4  1  0
 10 19  1  0
 11  2  2  0
 12  1  1  0
 13  3  2  0
 14  4  2  0
 15  1  1  0
  6 16  1  6
 17 15  1  0
 18 12  1  0
 19 29  2  0
 20 28  1  0
 21  8  1  0
 22 16  1  0
 23 18  2  0
 24  1  1  0
 25 33  1  0
 26  1  1  0
 27 23  1  0
 28 21  2  0
 29 21  1  0
 30 22  1  0
 31 22  2  0
 32 31  1  0
 33 30  2  0
 34 25  1  0
 35 27  1  0
 36  9  1  0
 37 24  1  0
 38 39  2  0
 39 18  1  0
 40 37  1  0
 41 38  1  0
 42 36  1  0
 43 36  1  0
 40 17  1  0
 41 27  2  0
 25 32  2  0
 10 20  2  0
M  CHG  2   1   1  44  -1
M  END