
  SciTegic01161211252D

 19 19  0  0  0  0            999 V2000
    7.0292   -7.7667    0.0000 N   0  0
    5.5250   -5.1625    0.0000 C   0  0
    6.1292   -5.1625    0.0000 C   0  0
    7.3292   -7.2500    0.0000 C   0  0
    7.0292   -5.6792    0.0000 O   0  0
    7.0292   -6.7250    0.0000 C   0  0
    6.4292   -5.6792    0.0000 C   0  0
    5.2167   -4.6417    0.0000 C   0  0
    7.3292   -6.2042    0.0000 C   0  0
    7.3292   -8.2917    0.0000 C   0  0
    6.4292   -6.7250    0.0000 O   0  0
    5.2250   -5.6792    0.0000 C   0  0
    5.5250   -6.2000    0.0000 C   0  0
    6.1292   -6.2000    0.0000 C   0  0
    4.6167   -4.6417    0.0000 C   0  0
    5.5167   -4.1167    0.0000 C   0  0
    7.9292   -8.2917    0.0000 C   0  0
    7.0292   -8.8167    0.0000 C   0  0
    4.3167   -4.1167    0.0000 C   0  0
  2  3  1  0
  3  7  2  0
  4  1  1  0
  5  9  1  0
  6  4  1  0
  7  5  1  0
  8  2  1  0
  9  6  1  0
 10  1  1  0
 11  6  1  0
 12 13  1  0
 13 14  2  0
 14  7  1  0
 15  8  1  0
 16  8  1  0
 17 10  1  0
 18 10  1  0
 19 15  1  0
 12  2  2  0
M  END