
  SciTegic12201609472D

 40 44  0  0  0  0            999 V2000
    2.3383   -1.3500    0.0000 C   0  0
    1.2990   -0.7500    0.0000 N   0  0
    1.2990    0.7500    0.0000 C   0  0
    0.0000    1.5000    0.0000 C   0  0
    0.0000   -1.5000    0.0000 C   0  0
   -1.2990   -0.7500    0.0000 C   0  0
   -1.2990    0.7500    0.0000 N   0  0
   -2.5987    1.5004    0.0000 C   0  0
   -2.6012    3.0004    0.0000 C   0  0
   -1.3042    3.7556    0.0000 N   0  0
   -1.3088    5.2565    0.0000 C   0  0
   -0.0119    6.0117    0.0000 C   0  0
    1.2885    5.2639    0.0000 C   0  0
    2.5863    6.0160    0.0000 N   0  0
    2.5838    7.5160    0.0000 C   0  0
    1.2835    8.2639    0.0000 C   0  0
   -0.0143    7.5117    0.0000 C   0  0
    3.6220    8.1177    0.0000 O   0  0
   -2.3501    5.8529    0.0000 O   0  0
   -3.9015    3.7484    0.0000 C   0  0
   -5.1993    2.9963    0.0000 C   0  0
   -6.5002    3.7446    0.0000 C   0  0
   -6.6428    5.2250    0.0000 C   0  0
   -8.1110    5.5322    0.0000 N   0  0
   -8.7276    6.8977    0.0000 C   0  0
  -10.2209    7.0477    0.0000 C   0  0
  -10.8385    8.4155    0.0000 N   0  0
  -12.3308    8.5676    0.0000 C   0  0
  -12.9453    9.9360    0.0000 C   0  0
  -12.0676   11.1523    0.0000 O   0  0
  -10.5753   11.0003    0.0000 C   0  0
   -9.9608    9.6320    0.0000 C   0  0
   -8.8568    4.2308    0.0000 N   0  0
   -7.8496    3.1193    0.0000 C   0  0
   -5.1969    1.4963    0.0000 C   0  0
   -3.8967    0.7484    0.0000 C   0  0
   -1.3152    8.2600    0.0000 C   0  0
   -1.3180    9.4600    0.0000 F   0  0
   -2.3533    7.6580    0.0000 F   0  0
   -2.3557    8.8578    0.0000 F   0  0
  1  2  1  0
  2  3  1  0
  3  4  1  0
  2  5  1  0
  5  6  1  0
  6  7  1  0
  4  7  1  0
  7  8  1  0
  8  9  2  0
  9 10  1  0
 10 11  1  0
 11 12  1  0
 12 13  2  0
 13 14  1  0
 14 15  1  0
 15 16  1  0
 16 17  2  0
 12 17  1  0
 15 18  2  0
 11 19  2  0
  9 20  1  0
 20 21  2  0
 21 22  1  0
 22 23  2  0
 23 24  1  0
 24 25  1  0
 25 26  1  0
 26 27  1  0
 27 28  1  0
 28 29  1  0
 29 30  1  0
 30 31  1  0
 31 32  1  0
 27 32  1  0
 24 33  1  0
 33 34  2  0
 22 34  1  0
 21 35  1  0
 35 36  2  0
  8 36  1  0
 37 38  1  0
 37 39  1  0
 37 40  1  0
 17 37  1  0
M  END