
  SciTegic12201615522D

 29 32  0  0  0  0            999 V2000
    3.3574   -2.8707    0.0000 O   0  0
    2.1825   -2.6263    0.0000 S   0  0
    2.9818   -1.7312    0.0000 O   0  0
   -4.9669    0.8711    0.0000 N   0  0
   -5.9730    1.9836    0.0000 C   0  0
   -5.2259    3.2843    0.0000 S   0  0
   -3.7580    2.9756    0.0000 C   0  0
   -3.6168    1.4950    0.0000 C   0  0
   -2.3155    0.7475    0.0000 C   0  0
   -2.3155   -0.7475    0.0000 C   0  0
   -1.0028   -1.5132    0.0000 C   0  0
   -1.0028    1.5132    0.0000 C   0  0
    0.2917    0.7475    0.0000 C   0  0
    0.2917   -0.7475    0.0000 C   0  0
    1.7138   -1.2033    0.0000 N   0  0
    2.5889    0.0182    0.0000 C   0  0
    1.7138    1.2033    0.0000 C   0  0
    1.1835   -3.7463    0.0000 C   0  0
    1.6537   -5.1707    0.0000 C   0  0
    0.6551   -6.2901    0.0000 C   0  0
   -0.8135   -5.9851    0.0000 C   0  0
   -1.2837   -4.5606    0.0000 C   0  0
   -0.2852   -3.4413    0.0000 C   0  0
   -1.8149   -7.1030    0.0000 C   0  0
   -3.2839   -6.7957    0.0000 C   0  0
   -4.2853   -7.9136    0.0000 C   0  0
   -3.9111   -9.0538    0.0000 O   0  0
   -5.4598   -7.6679    0.0000 O   0  0
   -7.1662    1.8556    0.0000 C   0  0
  2  1  2  0
  3  2  2  0
  4  5  2  0
  5  6  1  0
  6  7  1  0
  7  8  2  0
  8  4  1  0
  9 10  2  0
 10 11  1  0
 11 14  2  0
 13 12  2  0
 12  9  1  0
  8  9  1  0
 13 14  1  0
 14 15  1  0
 15 16  1  0
 16 17  1  0
 17 13  1  0
 15  2  1  0
  2 18  1  0
 18 19  2  0
 19 20  1  0
 20 21  2  0
 21 22  1  0
 22 23  2  0
 23 18  1  0
 21 24  1  0
 24 25  1  0
 25 26  1  0
 26 27  1  0
 26 28  2  0
  5 29  1  0
M  END