
  SciTegic01161211232D

 38 42  0  0  0  0            999 V2000
   -2.4544   -1.7610    0.0000 C   0  0
   -1.7380   -1.3477    0.0000 C   0  0
   -1.7409   -0.5172    0.0000 C   0  0
   -2.4562   -0.1080    0.0000 C   0  0
   -3.1693   -1.3482    0.0000 C   0  0
   -3.1726   -0.5193    0.0000 C   0  0
   -1.0279   -0.1020    0.0000 C   0  0
   -0.3119   -0.5118    0.0000 N   0  0
   -1.0311    0.7230    0.0000 O   0  0
    0.4010   -0.0966    0.0000 C   0  0
    1.1170   -0.5064    0.0000 C   0  0
    1.1170   -1.3303    0.0000 C   0  0
    1.8322   -1.7400    0.0000 C   0  0
    2.5461   -1.3247    0.0000 C   0  0
    2.5403   -0.4955    0.0000 C   0  0
    1.8245   -0.0895    0.0000 C   0  0
    3.2477   -0.0791    0.0000 C   0  0
    3.9655   -0.4881    0.0000 C   0  0
    4.6764   -0.0711    0.0000 C   0  0
    4.6709    0.7547    0.0000 C   0  0
    3.9484    1.1618    0.0000 C   0  0
    3.2404    0.7424    0.0000 C   0  0
    5.3937   -0.4788    0.0000 C   0  0
    5.4044   -1.2998    0.0000 N   0  0
    4.6950   -1.7252    0.0000 C   0  0
    4.7099   -2.5465    0.0000 C   0  0  2  0  0  0
    5.4310   -2.9481    0.0000 N   0  0
    6.1387   -2.5221    0.0000 C   0  0
    6.1253   -1.6946    0.0000 C   0  0
   -3.8874   -0.1073    0.0000 C   0  0
   -3.8881    0.7177    0.0000 N   0  0
    4.0025   -2.9709    0.0000 C   0  0
    3.2626   -1.7336    0.0000 F   0  0
   -3.1755    1.1283    0.0000 C   0  0
   -3.1741    1.9497    0.0000 C   0  0
   -3.8871    2.3655    0.0000 O   0  0
   -4.6031    1.9537    0.0000 C   0  0
   -4.6061    1.1260    0.0000 C   0  0
 18 19  1  0
  4  6  1  0
 19 20  2  0
  8 10  1  0
 20 21  1  0
  5  6  2  0
 21 22  2  0
 22 17  1  0
 15 17  1  0
 10 11  1  0
 19 23  1  0
  1  2  2  0
 23 24  1  0
 24 25  1  0
 11 12  2  0
  5  1  1  0
 12 13  1  0
  2  3  1  0
 13 14  2  0
 24 29  1  0
 25 26  1  0
 26 27  1  0
 27 28  1  0
 28 29  1  0
  3  7  1  0
  6 30  1  0
 14 15  1  0
 30 31  1  0
 26 32  1  1
 15 16  2  0
 14 33  1  0
 31 34  1  0
 16 11  1  0
  7  8  1  0
  3  4  2  0
 17 18  2  0
  7  9  2  0
 31 38  1  0
 34 35  1  0
 35 36  1  0
 36 37  1  0
 37 38  1  0
M  END