
  SciTegic12231509382D

 33 36  0  0  0  0            999 V2000
    0.2598    3.5063    0.0000 C   0  0
    0.2598    2.6813    0.0000 C   0  0
   -0.4547    2.2688    0.0000 C   0  0
   -0.4547    1.4438    0.0000 C   0  0
   -1.1691    1.0313    0.0000 C   0  0
   -1.8836    1.4438    0.0000 N   0  0
   -2.5981    1.0313    0.0000 C   0  0
   -2.5981    0.2063    0.0000 C   0  0
   -3.3125   -0.2062    0.0000 C   0  0
   -3.3125   -1.0312    0.0000 O   0  0
   -4.0270    0.2063    0.0000 O   0  0
   -1.8836   -0.2062    0.0000 C   0  0
   -1.1691    0.2063    0.0000 N   0  0
   -1.8836   -1.0312    0.0000 N   0  0
   -2.5981   -1.4437    0.0000 C   0  0
   -1.1691   -1.4437    0.0000 C   0  0
   -0.4547   -1.0312    0.0000 C   0  0
   -0.4547   -0.2062    0.0000 C   0  0
    0.2598    0.2063    0.0000 C   0  0
    0.9743   -0.2062    0.0000 C   0  0
    0.9743   -1.0312    0.0000 C   0  0
    0.2598   -1.4437    0.0000 C   0  0
    1.6887    0.2063    0.0000 C   0  0
    1.6887    1.0313    0.0000 C   0  0
    2.4032    1.4438    0.0000 C   0  0
    3.1177    1.0313    0.0000 C   0  0
    3.1177    0.2063    0.0000 C   0  0
    2.4032   -0.2062    0.0000 C   0  0
    2.4032   -1.0312    0.0000 C   0  0
    3.0707   -1.5161    0.0000 N   0  0
    2.8157   -2.3007    0.0000 N   0  0
    1.9907   -2.3007    0.0000 N   0  0
    1.7358   -1.5161    0.0000 N   0  0
  1  2  1  0
  2  3  1  0
  3  4  1  0
  4  5  1  0
  5  6  2  0
  6  7  1  0
  7  8  2  0
  8  9  1  0
  9 10  2  0
  9 11  1  0
  8 12  1  0
 12 13  2  0
  5 13  1  0
 12 14  1  0
 14 15  1  0
 14 16  1  0
 16 17  1  0
 17 18  2  0
 18 19  1  0
 19 20  2  0
 20 21  1  0
 21 22  2  0
 17 22  1  0
 20 23  1  0
 23 24  2  0
 24 25  1  0
 25 26  2  0
 26 27  1  0
 27 28  2  0
 23 28  1  0
 28 29  1  0
 29 30  1  0
 30 31  2  0
 31 32  1  0
 32 33  1  0
 29 33  2  0
M  END