
          11280714582D 1   1.00000     0.00000     0

 16 17  0     0  0            999 V2000
    3.6292   -3.6417    0.0000 N   0  0  3  0  0  0           0  0  0
    3.1500   -2.9792    0.0000 C   0  0  0  0  0  0           0  0  0
    4.8792   -2.9042    0.0000 C   0  0  0  0  0  0           0  0  0
    5.3000   -2.1750    0.0000 C   0  0  0  0  0  0           0  0  0
    6.5542   -1.4542    0.0000 N   0  0  3  0  0  0           0  0  0
    3.1500   -4.3167    0.0000 C   0  0  3  0  0  0           0  0  0
    2.3667   -3.2292    0.0000 C   0  0  0  0  0  0           0  0  0
    3.4167   -2.1792    0.0000 O   0  0  0  0  0  0           0  0  0
    2.3667   -4.0625    0.0000 C   0  0  0  0  0  0           0  0  0
    4.4542   -3.6375    0.0000 C   0  0  0  0  0  0           0  0  0
    5.7167   -1.4542    0.0000 C   0  0  0  0  0  0           0  0  0
    7.1167   -2.0667    0.0000 C   0  0  0  0  0  0           0  0  0
    6.9750   -0.7417    0.0000 C   0  0  0  0  0  0           0  0  0
    3.4167   -5.1000    0.0000 C   0  0  0  0  0  0           0  0  0
    7.8667   -1.7292    0.0000 C   0  0  0  0  0  0           0  0  0
    7.7875   -0.9167    0.0000 C   0  0  0  0  0  0           0  0  0
  2  1  1  0     0  0
  3 10  1  0     0  0
  4  3  3  0     0  0
  5 11  1  0     0  0
  6  1  1  0     0  0
  7  2  1  0     0  0
  8  2  2  0     0  0
  9  6  1  0     0  0
 10  1  1  0     0  0
 11  4  1  0     0  0
 12  5  1  0     0  0
 13  5  1  0     0  0
 14  6  1  0     0  0
 15 12  1  0     0  0
 16 13  1  0     0  0
  9  7  1  0     0  0
 16 15  1  0     0  0
M  END