
  SciTegic11201309402D

 57 60  0  0  0  0            999 V2000
    0.5914   -3.0903    0.0000 S   0  0
    1.3411   -3.4401    0.0000 N   0  0
    2.0158   -2.9653    0.0000 C   0  0  2  0  0  0
    7.0260   -2.9237    0.0000 C   0  0
    0.5914   -2.2657    0.0000 C   0  0
    7.7007   -2.4489    0.0000 N   0  0
    2.7612   -3.3110    0.0000 C   0  0
   -0.1249   -1.8533    0.0000 C   0  0
   -0.1249   -1.0287    0.0000 C   0  0
    3.4359   -2.8362    0.0000 N   0  0
    6.2763   -2.5780    0.0000 C   0  0  1  0  0  0
    8.4503   -2.7904    0.0000 C   0  0  2  0  0  0
    9.1250   -2.3156    0.0000 C   0  0
   -0.8454   -0.6164    0.0000 C   0  0
    3.7858   -0.9413    0.0000 N   0  0
    5.6016   -3.0528    0.0000 C   0  0
    2.0033   -2.1407    0.0000 C   0  0
    4.1856   -3.1777    0.0000 C   0  0  2  0  0  0
    2.5905   -1.5535    0.0000 C   0  0
   -0.1249   -2.6780    0.0000 O   0  0
    0.1749   -3.8025    0.0000 O   0  0
    2.4614   -0.7372    0.0000 N   0  0
    9.8747   -2.6655    0.0000 N   0  0
    3.1902   -0.3540    0.0000 C   0  0
    4.8603   -2.7030    0.0000 C   0  0  1  0  0  0
   -0.8454    0.2082    0.0000 N   0  0
    3.4109   -1.6784    0.0000 C   0  0
    7.1009   -3.7400    0.0000 O   0  0
    2.8362   -4.1273    0.0000 O   0  0
   11.1491   -0.8913    0.0000 N   0  0
    9.0500   -1.4993    0.0000 O   0  0
    4.2605   -4.0024    0.0000 C   0  0
    6.2014   -1.7534    0.0000 C   0  0
    8.5253   -3.6150    0.0000 C   0  0  2  0  0  0
   10.5494   -2.1907    0.0000 C   0  0
   10.4744   -1.3661    0.0000 C   0  0
    4.7853   -1.8866    0.0000 O   0  0
    1.3036   -1.8533    0.0000 C   0  0
    0.5789   -0.6164    0.0000 C   0  0
   -0.8454   -2.2740    0.0000 C   0  0
   -1.5576   -1.0370    0.0000 C   0  0
   -1.5576   -1.8616    0.0000 C   0  0
    1.2994   -1.0245    0.0000 C   0  0
    5.0019   -4.3480    0.0000 C   0  0
   11.0741   -0.0750    0.0000 C   0  0
   -0.1332    0.6205    0.0000 C   0  0
   -1.5576    0.6122    0.0000 C   0  0
    7.8506   -4.0898    0.0000 C   0  0
    6.8760   -1.2786    0.0000 C   0  0
    5.4600   -1.4036    0.0000 C   0  0
    9.2749   -3.9607    0.0000 C   0  0
    9.7247   -1.0287    0.0000 C   0  0
    5.6766   -3.8732    0.0000 C   0  0
    5.0769   -5.1643    0.0000 C   0  0
    7.8464   -4.9144    0.0000 C   0  0
   10.3245    0.2707    0.0000 C   0  0
    9.6498   -0.2041    0.0000 C   0  0
  2  1  1  0
  3  2  1  1
  4 11  1  0
  5  1  1  0
  6  4  1  0
  7  3  1  0
  8  5  1  0
  9  8  1  0
 10  7  1  0
 11 16  1  1
 12  6  1  6
 13 12  1  0
 14  9  2  0
 15 27  1  0
 16 25  1  0
  3 17  1  0
 18 10  1  6
 19 17  1  0
 20  1  2  0
 21  1  2  0
 22 19  1  0
 23 13  1  0
 24 22  2  0
 25 18  1  0
 26 14  1  0
 27 19  2  0
 28  4  2  0
 29  7  2  0
 30 36  2  0
 31 13  2  0
 18 32  1  0
 11 33  1  0
 12 34  1  0
 35 23  1  0
 36 35  1  0
 25 37  1  1
 38  5  2  0
 39 43  2  0
 40  8  2  0
 41 42  2  0
 42 40  1  0
 43 38  1  0
 44 32  1  0
 45 30  1  0
 46 26  1  0
 47 26  1  0
 48 34  1  0
 49 33  1  0
 50 33  1  0
 34 51  1  1
 52 36  1  0
 53 44  1  0
 54 44  1  0
 55 48  1  0
 56 57  1  0
 57 52  2  0
 39  9  1  0
 14 41  1  0
 15 24  1  0
 45 56  2  0
M  END