
          11280714582D 1   1.00000     0.00000     0

 33 37  0     0  0            999 V2000
    5.4625   -8.7542    0.0000 C   0  0  0  0  0  0           0  0  0
    6.1792   -4.2250    0.0000 C   0  0  0  0  0  0           0  0  0
    6.8917   -3.8042    0.0000 C   0  0  0  0  0  0           0  0  0
    4.7042   -9.0917    0.0000 N   0  0  0  0  0  0           0  0  0
    4.1542   -8.4792    0.0000 N   0  0  0  0  0  0           0  0  0
    5.3750   -7.9375    0.0000 N   0  0  0  0  0  0           0  0  0
    4.5667   -7.7667    0.0000 N   0  0  0  0  0  0           0  0  0
    6.1792   -9.1667    0.0000 C   0  0  0  0  0  0           0  0  0
    6.1792   -5.0500    0.0000 N   0  0  3  0  0  0           0  0  0
    6.8917   -2.9792    0.0000 C   0  0  0  0  0  0           0  0  0
    5.4667   -3.8125    0.0000 N   0  0  0  0  0  0           0  0  0
    6.8917   -8.7542    0.0000 C   0  0  0  0  0  0           0  0  0
    6.1792   -2.5667    0.0000 N   0  0  0  0  0  0           0  0  0
    7.6125   -4.2167    0.0000 N   0  0  0  0  0  0           0  0  0
    5.4667   -2.9792    0.0000 C   0  0  0  0  0  0           0  0  0
    6.8917   -7.9292    0.0000 C   0  0  0  0  0  0           0  0  0
    7.6042   -2.5667    0.0000 N   0  0  0  0  0  0           0  0  0
    6.8917   -5.4625    0.0000 C   0  0  0  0  0  0           0  0  0
    7.6125   -7.5167    0.0000 C   0  0  0  0  0  0           0  0  0
    6.1792   -7.5167    0.0000 C   0  0  0  0  0  0           0  0  0
    6.8917   -6.2875    0.0000 C   0  0  0  0  0  0           0  0  0
    7.6042   -6.6917    0.0000 C   0  0  0  0  0  0           0  0  0
    6.1792   -6.6917    0.0000 C   0  0  0  0  0  0           0  0  0
    5.4667   -5.4625    0.0000 C   0  0  0  0  0  0           0  0  0
    6.1792   -9.9917    0.0000 C   0  0  0  0  0  0           0  0  0
    7.6042   -9.1625    0.0000 C   0  0  0  0  0  0           0  0  0
    8.3250   -3.8042    0.0000 C   0  0  0  0  0  0           0  0  0
    8.3167   -2.9750    0.0000 C   0  0  0  0  0  0           0  0  0
    4.7500   -5.0500    0.0000 C   0  0  0  0  0  0           0  0  0
    4.0375   -5.4625    0.0000 C   0  0  0  0  0  0           0  0  0
    6.8917  -10.4042    0.0000 C   0  0  0  0  0  0           0  0  0
    7.6125   -9.9875    0.0000 C   0  0  0  0  0  0           0  0  0
    3.3250   -5.0500    0.0000 C   0  0  0  0  0  0           0  0  0
  2  9  1  0     0  0
  3  2  2  0     0  0
  4  1  1  0     0  0
  5  4  2  0     0  0
  6  1  2  0     0  0
  7  6  1  0     0  0
  8  1  1  0     0  0
  9 18  1  0     0  0
 10  3  1  0     0  0
 11  2  1  0     0  0
 12  8  2  0     0  0
 13 15  1  0     0  0
 14  3  1  0     0  0
 15 11  2  0     0  0
 16 12  1  0     0  0
 17 10  1  0     0  0
 18 21  1  0     0  0
 19 16  1  0     0  0
 20 16  2  0     0  0
 21 23  2  0     0  0
 22 19  2  0     0  0
 23 20  1  0     0  0
 24  9  1  0     0  0
 25  8  1  0     0  0
 26 12  1  0     0  0
 27 14  2  0     0  0
 28 27  1  0     0  0
 29 24  1  0     0  0
 30 29  1  0     0  0
 31 25  2  0     0  0
 32 31  1  0     0  0
 33 30  1  0     0  0
  5  7  1  0     0  0
 26 32  2  0     0  0
 21 22  1  0     0  0
 13 10  2  0     0  0
 17 28  2  0     0  0
M  END