
  SciTegic10261211122D

121125  0  0  0  0            999 V2000
    6.6250   -1.7167    0.0000 N   0  3
    0.2625   -1.3833    0.0000 C   0  0
    5.8875   -1.3833    0.0000 C   0  0
   -2.2250    1.0000    0.0000 S   0  0
    8.3750    1.0000    0.0000 S   0  0
   -0.4833   -1.7167    0.0000 N   0  0
    0.2625    1.0375    0.0000 S   0  0
    6.7625   -0.4083    0.0000 C   0  0
   -0.6125   -0.4125    0.0000 C   0  0
    7.1667   -1.1083    0.0000 C   0  0
    0.1750   -0.5833    0.0000 C   0  0
    5.9667   -0.5792    0.0000 C   0  0
   -1.0250   -1.1083    0.0000 C   0  0
   -2.5375   -4.5917    0.0000 S   0  0
    3.0750   -1.3958    0.0000 C   0  0
    0.9625   -1.7917    0.0000 C   0  0
    5.1875   -1.7875    0.0000 C   0  0
    3.9917   -9.8667    0.0000 C   0  0
    7.9708    0.2958    0.0000 C   0  0
   -1.8250    0.2958    0.0000 C   0  0
    7.1625    0.2917    0.0000 C   0  0
   -1.0125    0.2917    0.0000 C   0  0
   10.3833  -10.7125    0.0000 P   0  0
    4.7667  -10.9458    0.0000 C   0  0
    3.3292  -10.9292    0.0000 C   0  0
    3.5083  -11.3708    0.0000 C   0  0
   11.7875  -10.6417    0.0000 C   0  0
    2.3708   -1.7958    0.0000 C   0  0
    3.7792   -1.7917    0.0000 C   0  0
    1.6667   -1.3875    0.0000 C   0  0
    4.4792   -1.3875    0.0000 C   0  0
   11.8292  -11.4500    0.0000 C   0  0
    0.9625    0.6292    0.0000 C   0  0
    8.3250  -12.0167    0.0000 C   0  0
    7.5708  -10.8292    0.0000 N   0  0
    7.9750   -1.1083    0.0000 C   0  0
   -1.8292   -1.1083    0.0000 C   0  0
    3.9708   -9.0667    0.0000 N   0  0
    3.0750   -0.5875    0.0000 O   0  0
   -2.6417    1.7042    0.0000 O   0  5
    8.7750    1.7042    0.0000 O   0  5
   -0.4458    1.4458    0.0000 O   0  5
    8.2958  -11.2042    0.0000 C   0  0  1  0  0  0
   11.0667  -10.2708    0.0000 C   0  0
    6.8875  -11.2625    0.0000 C   0  0
   -2.9500   -5.2917    0.0000 O   0  5
   -1.5208    1.4042    0.0000 O   0  0
   -2.9250    0.5875    0.0000 O   0  0
    9.0833    0.6000    0.0000 O   0  0
    7.6667    1.3958    0.0000 O   0  0
    0.6667    1.7417    0.0000 O   0  0
   -0.1458    0.3375    0.0000 O   0  0
   -1.7833   -4.8917    0.0000 O   0  0
   -3.2958   -4.3000    0.0000 O   0  0
    3.2625   -8.6792    0.0000 C   0  0
    4.7375  -10.1417    0.0000 C   0  0
    3.4708  -10.5417    0.0000 C   0  0
    3.2917  -10.1500    0.0000 C   0  0
    4.0375  -11.1583    0.0000 C   0  0
    4.2583  -11.6375    0.0000 C   0  0
    2.7250  -11.6250    0.0000 C   0  0
   13.1125   -8.9542    0.0000 C   0  0
    8.9792  -10.7708    0.0000 C   0  0
    6.0042   -5.3750    0.0000 C   0  0
    9.9458  -10.0292    0.0000 O   0  0
    8.3792   -0.4083    0.0000 C   0  0
   -2.2292   -0.4083    0.0000 C   0  0
   12.4667  -10.2000    0.0000 C   0  0
   12.5500  -11.8292    0.0000 O   0  0
    9.0500  -12.3917    0.0000 O   0  0
    9.6958  -11.1458    0.0000 C   0  0
    6.6417   -2.5250    0.0000 C   0  0
    6.9208  -12.0750    0.0000 O   0  0
    2.5708   -9.0958    0.0000 O   0  0
   13.0750   -8.1417    0.0000 O   0  0
    6.6958   -4.9542    0.0000 O   0  0
    1.6625    1.0417    0.0000 C   0  0
    0.9625   -0.1792    0.0000 C   0  0
    5.4833  -11.3208    0.0000 C   0  0
    4.9958  -13.7542    0.0000 O   0  0
    1.1667   -9.7958    0.0000 O   0  0
    2.3708   -0.1792    0.0000 C   0  0
   10.8208  -11.3917    0.0000 O   0  0
    6.0208   -6.1833    0.0000 N   0  0
   -0.6542   -2.5083    0.0000 C   0  0
   12.4292   -9.3958    0.0000 C   0  0
   -2.3708   -3.8000    0.0000 C   0  0
    6.1708  -10.8833    0.0000 C   0  0
   11.1458  -11.8958    0.0000 O   0  0
    7.6417  -12.4500    0.0000 O   0  0
    0.3833    0.2042    0.0000 C   0  0
    0.9542   -0.7917    0.0000 C   0  0
    5.7500    0.2083    0.0000 C   0  0
    5.1750   -0.7875    0.0000 C   0  0
    1.2000  -10.6083    0.0000 C   0  0
    4.2792  -13.3708    0.0000 C   0  0
   13.8375   -9.3208    0.0000 O   0  5
    2.3708    0.6333    0.0000 C   0  0
    1.6708   -0.5792    0.0000 C   0  0
    2.6083  -10.5500    0.0000 C   0  0
    3.5375  -12.1792    0.0000 C   0  0
    3.7750   -2.6083    0.0000 C   0  0
    2.3708   -2.6042    0.0000 C   0  0
    3.0708   -3.0125    0.0000 C   0  0
    3.2458   -7.8667    0.0000 C   0  0
    5.2875   -4.9875    0.0000 C   0  0
    5.3292   -6.6042    0.0000 C   0  0
    1.9167  -10.9833    0.0000 C   0  0
    4.2500  -12.5583    0.0000 C   0  0
    5.9500   -2.9458    0.0000 C   0  0
   -1.4292   -2.7542    0.0000 C   0  0
   -1.5958   -3.5500    0.0000 C   0  0
    5.2708   -4.1792    0.0000 C   0  0
    3.9417   -7.4458    0.0000 C   0  0
    4.6167   -6.2125    0.0000 C   0  0
    3.9250   -6.6333    0.0000 C   0  0
    5.9667   -3.7542    0.0000 C   0  0
    7.2542    3.3625    0.0000 Na  0  3
   -2.6375    2.9083    0.0000 Na  0  3
    0.2500    2.6625    0.0000 Na  0  3
   -4.6583   -4.3083    0.0000 Na  0  3
  2 16  2  0
  3  1  2  0
  4 20  1  0
  5 19  1  0
  6  2  1  0
  7 33  1  0
  8 10  2  0
  9 11  1  0
 10  1  1  0
 11  2  1  0
 12  3  1  0
 13  6  1  0
 14 87  1  0
 15 29  2  0
 16 30  1  0
 17  3  1  0
 18 38  1  0
 19 66  1  0
 20 22  2  0
 21  8  1  0
 22  9  1  0
 23 71  1  0
 24 56  1  0
 25 58  1  0
 26 57  1  0
 27 44  1  0
 28 15  1  0
 29 31  1  0
 30 28  2  0
 31 17  2  0
 32 27  1  0
 33 77  1  0
 34 43  1  0
 35 45  1  0
 36 10  1  0
 37 13  1  0
 38 55  1  0
 39 15  1  0
 40  4  1  0
 41  5  1  0
 42  7  1  0
 43 35  1  1
 44 23  1  0
 45 88  1  0
 46 14  1  0
 47  4  2  0
 48  4  2  0
 49  5  2  0
 50  5  2  0
 51  7  2  0
 52  7  2  0
 53 14  2  0
 54 14  2  0
 55105  1  0
 56 18  1  0
 57 18  1  0
 58 18  1  0
 59 25  1  0
 60 26  1  0
 61 26  1  0
 62 86  1  0
 63 43  1  0
 64106  1  0
 65 23  2  0
 66 36  2  0
 67 37  2  0
 68 27  1  0
 69 32  2  0
 70 34  2  0
 71 63  1  0
 72  1  1  0
 73 45  2  0
 74 55  2  0
 75 62  2  0
 76 64  2  0
 77 98  2  0
 78 99  1  0
 79 24  1  0
 80 96  2  0
 81 95  2  0
 82 39  1  0
 83 23  1  0
 84 64  1  0
 85  6  1  0
 86 68  1  0
 87112  1  0
 88 79  1  0
 89 32  1  0
 90 34  1  0
 91 11  1  0
 92 11  1  0
 93 12  1  0
 94 12  1  0
 95108  1  0
 96109  1  0
 97 62  1  0
 98 82  1  0
 99 82  2  0
100 25  1  0
101 26  1  0
102 29  1  0
103104  1  0
104102  1  0
105114  1  0
106113  1  0
107 84  1  0
108100  1  0
109101  1  0
110 72  1  0
111 85  1  0
112111  1  0
113117  1  0
114116  1  0
115107  1  0
116115  1  0
117110  1  0
 12  8  1  0
 21 19  2  0
103 28  1  0
 78 33  2  0
  9 13  2  0
 67 20  1  0
 24 60  1  0
 25 61  1  0
 24 59  1  0
M  CHG  8   1   1  40  -1  41  -1  42  -1  46  -1  97  -1 118   1 119   1
M  CHG  2 120   1 121   1
M  END