
          11280715422D 1   1.00000     0.00000     0

 30 33  0     0  0            999 V2000
    0.1500    0.8458    0.0000 C   0  0  0  0  0  0           0  0  0
   -0.8458   -0.0292    0.0000 C   0  0  0  0  0  0           0  0  0
   -0.6708    0.7625    0.0000 N   0  0  0  0  0  0           0  0  0
   -0.1333   -0.4542    0.0000 N   0  0  3  0  0  0           0  0  0
    0.4792    0.1000    0.0000 C   0  0  0  0  0  0           0  0  0
   -1.5708   -0.1292    0.0000 C   0  0  0  0  0  0           0  0  0
    0.5625    1.5625    0.0000 C   0  0  0  0  0  0           0  0  0
   -1.9833    0.5875    0.0000 C   0  0  0  0  0  0           0  0  0
    1.3875    1.5625    0.0000 N   0  0  0  0  0  0           0  0  0
   -0.1333   -1.2875    0.0000 C   0  0  0  0  0  0           0  0  0
   -1.9833   -0.8375    0.0000 C   0  0  0  0  0  0           0  0  0
   -2.8083    0.5875    0.0000 C   0  0  0  0  0  0           0  0  0
    0.5292    2.3833    0.0000 O   0  0  0  0  0  0           0  0  0
    0.5667   -1.6917    0.0000 C   0  0  0  0  0  0           0  0  0
   -0.8500   -1.6875    0.0000 C   0  0  0  0  0  0           0  0  0
   -3.2208   -0.1250    0.0000 C   0  0  0  0  0  0           0  0  0
   -1.5708    1.3000    0.0000 Cl  0  0  0  0  0  0           0  0  0
    1.2917   -0.0792    0.0000 C   0  0  0  0  0  0           0  0  0
   -2.8083   -0.8375    0.0000 C   0  0  0  0  0  0           0  0  0
   -0.1500   -2.9250    0.0000 C   0  0  0  0  0  0           0  0  0
    2.2125    1.5625    0.0000 C   0  0  3  0  0  0           0  0  0
   -0.8583   -2.5000    0.0000 C   0  0  0  0  0  0           0  0  0
    0.5667   -2.5167    0.0000 C   0  0  0  0  0  0           0  0  0
   -4.0458   -0.1167    0.0000 Cl  0  0  0  0  0  0           0  0  0
   -0.1583   -3.7500    0.0000 Cl  0  0  0  0  0  0           0  0  0
    2.6167    0.8458    0.0000 C   0  0  0  0  0  0           0  0  0
    2.6167    2.2750    0.0000 C   0  0  0  0  0  0           0  0  0
    3.4417    0.8458    0.0000 C   0  0  0  0  0  0           0  0  0
    3.4500    2.2708    0.0000 C   0  0  0  0  0  0           0  0  0
    3.8542    1.5625    0.0000 C   0  0  0  0  0  0           0  0  0
  2  3  2  0     0  0
  3  1  1  0     0  0
  4  5  1  0     0  0
  5  1  2  0     0  0
  6  2  1  0     0  0
  7  1  1  0     0  0
  8  6  2  0     0  0
  9  7  1  0     0  0
 10  4  1  0     0  0
 11  6  1  0     0  0
 12  8  1  0     0  0
 13  7  2  0     0  0
 14 10  1  0     0  0
 15 10  2  0     0  0
 16 19  1  0     0  0
 17  8  1  0     0  0
 18  5  1  0     0  0
 19 11  2  0     0  0
 20 22  2  0     0  0
 21  9  1  0     0  0
 22 15  1  0     0  0
 23 14  2  0     0  0
 24 16  1  0     0  0
 25 20  1  0     0  0
 26 21  1  0     0  0
 27 21  1  0     0  0
 28 26  1  0     0  0
 29 27  1  0     0  0
 30 29  1  0     0  0
  4  2  1  0     0  0
 20 23  1  0     0  0
 30 28  1  0     0  0
 16 12  2  0     0  0
M  END