
          11280714492D 1   1.00000     0.00000     0

 17 17  0     0  0            999 V2000
    1.9875   -2.1250    0.0000 C   0  0  3  0  0  0           0  0  0
    2.2875   -1.6042    0.0000 C   0  0  0  0  0  0           0  0  0
    1.6875   -1.6042    0.0000 C   0  0  0  0  0  0           0  0  0
    1.4625   -3.6250    0.0000 N   0  0  0  0  0  0           0  0  0
    4.3917   -4.0917    0.0000 N   0  0  0  0  0  0           0  0  0
    4.9167   -3.7917    0.0000 C   0  0  3  0  0  0           0  0  0
    2.3167   -4.0917    0.0000 O   0  0  0  0  0  0           0  0  0
    1.4625   -3.0250    0.0000 C   0  0  0  0  0  0           0  0  0
    1.9875   -2.7250    0.0000 C   0  0  0  0  0  0           0  0  0
    3.3542   -4.0917    0.0000 C   0  0  3  0  0  0           0  0  0
    3.8750   -3.7917    0.0000 C   0  0  0  0  0  0           0  0  0
    2.8375   -3.7917    0.0000 C   0  0  0  0  0  0           0  0  0
    3.3542   -4.6917    0.0000 O   0  0  0  0  0  0           0  0  0
    5.4292   -3.4917    0.0000 C   0  0  0  0  0  0           0  0  0
    5.4292   -4.0917    0.0000 C   0  0  0  0  0  0           0  0  0
    4.9167   -3.1917    0.0000 C   0  0  0  0  0  0           0  0  0
    0.9417   -2.7250    0.0000 C   0  0  0  0  0  0           0  0  0
  2  1  1  0     0  0
  3  1  1  0     0  0
  4  8  2  0     0  0
  5 11  1  0     0  0
  6  5  1  0     0  0
  7  4  1  0     0  0
  8  9  1  0     0  0
  9  1  1  0     0  0
 10 12  1  0     0  0
 11 10  1  0     0  0
 12  7  1  0     0  0
 13 10  1  0     0  0
 14  6  1  0     0  0
 15  6  1  0     0  0
 16  6  1  0     0  0
 17  8  1  0     0  0
  2  3  1  0     0  0
M  END