
  SciTegic01061414252D

 16 18  0  0  0  0            999 V2000
   19.2934   -9.4431    0.0000 C   0  0
   19.2922  -10.2626    0.0000 C   0  0
   20.0003  -10.6716    0.0000 N   0  0
   19.9985   -9.0342    0.0000 C   0  0
   20.7071   -9.4395    0.0000 C   0  0
   20.7079  -10.2585    0.0000 C   0  0
   21.4164  -10.6655    0.0000 C   0  0
   22.1247  -10.2547    0.0000 C   0  0
   22.1199   -9.4326    0.0000 C   0  0
   21.4108   -9.0292    0.0000 C   0  0
   19.9945   -8.2227    0.0000 N   0  0
   20.7028   -7.8132    0.0000 C   0  0
   20.7023   -6.9996    0.0000 C   0  0
   19.9952   -6.5892    0.0000 N   0  0
   19.2869   -6.9987    0.0000 C   0  0
   19.2857   -7.8185    0.0000 C   0  0
  1  2  2  0
  2  3  1  0
  3  6  2  0
  5  4  2  0
  4  1  1  0
  5  6  1  0
  6  7  1  0
  7  8  2  0
  8  9  1  0
  9 10  2  0
 10  5  1  0
 11 12  1  0
 11 16  1  0
 12 13  1  0
 13 14  1  0
 14 15  1  0
 15 16  1  0
  4 11  1  0
M  END