
  SciTegic01091216402D

 22 23  0  0  0  0            999 V2000
    7.9561   -8.1337    0.0000 N   0  0
    8.0348   -8.9559    0.0000 N   0  0
    8.8378   -9.1309    0.0000 C   0  0
    9.2564   -8.4193    0.0000 C   0  0
    8.7090   -7.8038    0.0000 C   0  0
    7.2445   -7.7151    0.0000 C   0  0
    6.5275   -8.1221    0.0000 N   0  0
    7.2519   -6.8931    0.0000 N   0  0
   10.0786   -8.3404    0.0000 C   0  0
   10.5558   -9.0096    0.0000 C   0  0
    7.9688   -6.4861    0.0000 C   0  0
    8.6784   -6.9012    0.0000 C   0  0
    5.8173   -7.7059    0.0000 S   0  0
    6.2329   -6.9975    0.0000 O   0  0
    5.1154   -8.1405    0.0000 C   0  0
    5.1415   -8.9645    0.0000 C   0  0
    4.4395   -9.3992    0.0000 C   0  0
    3.7115   -9.0097    0.0000 C   0  0
    3.6854   -8.1857    0.0000 C   0  0
    4.3874   -7.7511    0.0000 C   0  0
    3.0137   -9.4443    0.0000 Cl  0  0
    5.2296   -7.1157    0.0000 O   0  0
  1  2  1  0
  2  3  2  0
  3  4  1  0
  4  5  1  0
  1  5  1  0
  6  7  2  0
  6  8  1  0
  1  6  1  0
  9 10  1  0
  4  9  1  0
 11 12  1  0
  8 11  1  0
 13 14  2  0
 15 16  1  0
 16 17  2  0
 17 18  1  0
 18 19  2  0
 19 20  1  0
 15 20  2  0
 13 15  1  0
 18 21  1  0
  7 13  1  0
 13 22  2  0
M  END