
  SciTegic11201309402D

 22 24  0  0  1  0            999 V2000
    0.2297   -5.3027    0.0000 N   0  0
   -4.0584   -5.3027    0.0000 C   0  0
   -2.6262   -5.3027    0.0000 O   0  0
   -1.1983   -5.3027    0.0000 C   0  0  1  0  0  0
   -3.3444   -5.7160    0.0000 C   0  0
   -0.4760   -5.7160    0.0000 C   0  0  2  0  0  0
   -1.9123   -5.7160    0.0000 C   0  0
   -4.7807   -5.7160    0.0000 C   0  0
   -1.1983   -4.4760    0.0000 O   0  0
   -4.0542   -6.9561    0.0000 C   0  0
    0.9437   -5.7160    0.0000 C   0  0
   -3.3402   -6.5427    0.0000 C   0  0
   -4.0667   -4.4843    0.0000 C   0  0
   -4.7807   -6.5510    0.0000 C   0  0
   -0.4760   -6.5427    0.0000 C   0  0
   -5.4863   -5.3152    0.0000 C   0  0
    0.9437   -6.5427    0.0000 C   0  0
   -4.7807   -4.0751    0.0000 C   0  0
    0.2297   -6.9561    0.0000 C   0  0
   -5.4947   -4.4968    0.0000 C   0  0
   -0.4843   -4.8893    0.0000 H   0  0
   -1.9123   -4.8893    0.0000 H   0  0
  2  5  2  0
  3  7  1  0
  4  6  1  0
  5  3  1  0
  6  1  1  0
  7  4  1  0
  8  2  1  0
  4  9  1  0
 10 12  2  0
 11  1  1  0
 12  5  1  0
 13  2  1  0
 14 10  1  0
 15  6  1  0
 16  8  1  0
 17 11  1  0
 18 13  2  0
 19 17  1  0
 20 18  1  0
  6 21  1  6
  4 22  1  6
 19 15  1  0
 14  8  2  0
 16 20  2  0
M  END