
          11280715402D 1   1.00000     0.00000     0

 46 50  0     0  0            999 V2000
   11.0500    2.7708    0.0000 S   0  0  3  0  0  0           0  0  0
   11.7750    1.5333    0.0000 C   0  0  0  0  0  0           0  0  0
   11.7667    2.3583    0.0000 N   0  0  0  0  0  0           0  0  0
   12.4917    1.1208    0.0000 C   0  0  0  0  0  0           0  0  0
   15.4292   -2.3667    0.0000 S   0  0  3  0  0  0           0  0  0
   11.0625    1.1208    0.0000 N   0  0  0  0  0  0           0  0  0
   11.7750   -0.1167    0.0000 N   0  0  0  0  0  0           0  0  0
   11.0625    0.2958    0.0000 C   0  0  0  0  0  0           0  0  0
   12.4917    0.2958    0.0000 C   0  0  0  0  0  0           0  0  0
   10.3292    2.3583    0.0000 C   0  0  0  0  0  0           0  0  0
   13.2042    1.5375    0.0000 O   0  0  0  0  0  0           0  0  0
   10.3417   -0.1167    0.0000 C   0  0  3  0  0  0           0  0  0
    9.6167    2.7833    0.0000 N   0  0  0  0  0  0           0  0  0
    9.9292   -0.8292    0.0000 C   0  0  0  0  0  0           0  0  0
    9.5167   -0.1167    0.0000 C   0  0  0  0  0  0           0  0  0
   16.2167   -2.1292    0.0000 C   0  0  0  0  0  0           0  0  0
   11.4542    3.4833    0.0000 O   0  0  0  0  0  0           0  0  0
   13.9167    1.1333    0.0000 C   0  0  0  0  0  0           0  0  0
   10.3292    3.1833    0.0000 O   0  0  0  0  0  0           0  0  0
   15.0000   -1.6542    0.0000 O   0  0  0  0  0  0           0  0  0
   15.8500   -3.0750    0.0000 O   0  0  0  0  0  0           0  0  0
   14.6417   -2.5917    0.0000 N   0  0  0  0  0  0           0  0  0
    8.9000    2.3750    0.0000 C   0  0  0  0  0  0           0  0  0
    8.8917    1.5500    0.0000 C   0  0  0  0  0  0           0  0  0
   10.3250    1.5375    0.0000 C   0  0  0  0  0  0           0  0  0
   14.6250    1.5458    0.0000 C   0  0  0  0  0  0           0  0  0
    9.6042    1.1333    0.0000 C   0  0  0  0  0  0           0  0  0
   16.8167   -2.7042    0.0000 C   0  0  0  0  0  0           0  0  0
   16.4125   -1.3292    0.0000 C   0  0  0  0  0  0           0  0  0
   13.2042   -0.1167    0.0000 O   0  0  0  0  0  0           0  0  0
    8.1750    1.1458    0.0000 C   0  0  3  0  0  0           0  0  0
   17.2042   -1.1000    0.0000 C   0  0  0  0  0  0           0  0  0
   17.6125   -2.4750    0.0000 C   0  0  0  0  0  0           0  0  0
   17.8042   -1.6667    0.0000 C   0  0  0  0  0  0           0  0  0
   14.6167    2.3708    0.0000 O   0  0  0  0  0  0           0  0  0
   13.9250   -1.3542    0.0000 C   0  0  0  0  0  0           0  0  0
   13.9250   -2.1792    0.0000 C   0  0  0  0  0  0           0  0  0
   13.9167    0.3083    0.0000 C   0  0  0  0  0  0           0  0  0
   13.2042   -0.9417    0.0000 C   0  0  0  0  0  0           0  0  0
   15.3417    1.1458    0.0000 C   0  0  0  0  0  0           0  0  0
    7.4625    1.5583    0.0000 C   0  0  0  0  0  0           0  0  0
    8.1667    0.3208    0.0000 C   0  0  0  0  0  0           0  0  0
   18.6000   -1.4375    0.0000 C   0  0  0  0  0  0           0  0  0
   13.9042    2.7833    0.0000 C   0  0  0  0  0  0           0  0  0
   14.6292   -0.1042    0.0000 C   0  0  0  0  0  0           0  0  0
   15.3500    0.3125    0.0000 C   0  0  0  0  0  0           0  0  0
  2  3  1  0     0  0
  3  1  1  0     0  0
  4  2  2  0     0  0
  5 22  1  0     0  0
  6  2  1  0     0  0
  7  8  1  0     0  0
  8  6  2  0     0  0
  9  4  1  0     0  0
 10  1  1  0     0  0
 11  4  1  0     0  0
 12  8  1  0     0  0
 13 10  2  0     0  0
 14 12  1  0     0  0
 15 12  1  0     0  0
 16  5  1  0     0  0
 17  1  2  0     0  0
 18 11  1  0     0  0
 19  1  2  0     0  0
 20  5  2  0     0  0
 21  5  2  0     0  0
 22 37  1  0     0  0
 23 13  1  0     0  0
 24 27  1  0     0  0
 25 10  1  0     0  0
 26 18  1  0     0  0
 27 25  2  0     0  0
 28 16  2  0     0  0
 29 16  1  0     0  0
 30  9  1  0     0  0
 31 24  1  0     0  0
 32 29  2  0     0  0
 33 28  1  0     0  0
 34 32  1  0     0  0
 35 26  1  0     0  0
 36 39  1  0     0  0
 37 36  1  0     0  0
 38 18  2  0     0  0
 39 30  1  0     0  0
 40 26  2  0     0  0
 41 31  1  0     0  0
 42 31  1  0     0  0
 43 34  1  0     0  0
 44 35  1  0     0  0
 45 38  1  0     0  0
 46 45  2  0     0  0
 24 23  2  0     0  0
  9  7  2  0     0  0
 15 14  1  0     0  0
 46 40  1  0     0  0
 34 33  2  0     0  0
M  END