
  SciTegic11111309142D

 48 52  0  0  1  0            999 V2000
   -4.9600  -21.9108    0.0000 C   0  0
    2.1256  -16.9576    0.0000 C   0  0
    1.3410  -17.2125    0.0000 C   0  0
    1.3410  -18.0375    0.0000 C   0  0
    2.1256  -18.2925    0.0000 C   0  0
    2.6105  -17.6250    0.0000 C   0  0
   -2.1630  -20.8984    0.0000 O   0  0
   -1.3425  -20.8122    0.0000 C   0  0
   -1.0070  -20.0585    0.0000 C   0  0
   -1.4919  -19.3911    0.0000 C   0  0
   -1.1563  -18.6374    0.0000 C   0  0
   -0.3359  -18.5512    0.0000 C   0  0
    0.1491  -19.2186    0.0000 C   0  0
   -0.1865  -19.9723    0.0000 C   0  0
   -2.3124  -19.4773    0.0000 Cl  0  0
    0.2984  -20.6397    0.0000 Cl  0  0
    0.9696  -19.1324    0.0000 S   0  0
    1.0558  -19.9528    0.0000 O   0  0
    0.8833  -18.3119    0.0000 O   0  0
    2.8401  -18.7050    0.0000 C   0  0
    3.5545  -18.2925    0.0000 N   0  0
    2.8401  -19.5300    0.0000 O   0  0
    3.5545  -17.4675    0.0000 C   0  0
    4.2690  -17.0550    0.0000 C   0  0
    4.9835  -17.4675    0.0000 N   0  0
    4.9835  -18.2925    0.0000 C   0  0
    4.2690  -18.7050    0.0000 C   0  0
    5.6979  -17.0550    0.0000 C   0  0
    5.6979  -16.2300    0.0000 O   0  0
    6.4124  -17.4675    0.0000 C   0  0
    7.1269  -17.0550    0.0000 C   0  0  2  0  0  0
    7.8414  -17.4675    0.0000 C   0  0
    8.5558  -17.0550    0.0000 C   0  0
    9.2703  -17.4675    0.0000 C   0  0
   -2.4986  -21.6521    0.0000 C   0  0
   -3.1697  -23.1594    0.0000 C   0  0
   -2.3492  -23.0732    0.0000 C   0  0
   -2.0136  -22.3195    0.0000 C   0  0
   -3.6546  -22.4920    0.0000 C   0  0
   -3.3190  -21.7383    0.0000 C   0  0
   -3.8040  -21.0709    0.0000 N   0  0
   -4.6244  -21.1571    0.0000 C   0  0
   -4.4751  -22.5782    0.0000 C   0  0
   -5.1094  -20.4897    0.0000 C   0  0
   -4.8106  -23.3319    0.0000 C   0  0
    9.9848  -17.0550    0.0000 N   0  0
    7.1269  -16.2300    0.0000 N   0  0
    1.7900  -19.0461    0.0000 N   0  0
 10 15  1  0
 14 16  1  0
 13 17  1  0
 17 18  2  0
 17 19  2  0
  5 20  1  0
 20 21  1  0
 20 22  2  0
 21 23  1  0
 21 27  1  0
 23 24  1  0
 24 25  1  0
 25 26  1  0
 26 27  1  0
 25 28  1  0
 28 29  2  0
 28 30  1  0
 30 31  1  0
 31 32  1  0
 32 33  1  0
 33 34  1  0
  7 35  1  0
 35 40  2  0
  2  3  1  0
 39 36  2  0
  3  4  1  0
 36 37  1  0
  4  5  1  0
 37 38  2  0
 38 35  1  0
  5  6  1  0
  6  2  1  0
 39 40  1  0
  7  8  1  0
 40 41  1  0
  8  9  1  0
 41 42  2  0
 42  1  1  0
  9 10  2  0
  1 43  2  0
 43 39  1  0
 10 11  1  0
 42 44  1  0
 11 12  2  0
 43 45  1  0
 12 13  1  0
 34 46  1  0
 13 14  2  0
 31 47  1  1
 14  9  1  0
 17 48  1  0
 48  5  1  0
M  END