
  SciTegic12231509382D

 25 29  0  0  0  0            999 V2000
    1.3356   -1.3791    0.0000 C   0  0
    1.3404   -2.1970    0.0000 C   0  0
    0.6242   -0.9775    0.0000 C   0  0
    2.7631   -3.8470    0.0000 N   0  0
    2.0517   -2.6034    0.0000 C   0  0
    0.6387   -2.6276    0.0000 C   0  0
   -0.0967   -1.3985    0.0000 C   0  0
    0.4355   -0.1646    0.0000 O   0  0
    2.0614   -3.4309    0.0000 C   0  0
    3.5179   -3.5131    0.0000 C   0  0
    4.0697   -4.1228    0.0000 C   0  0
   -0.7209   -0.8565    0.0000 O   0  0
   -0.4016   -0.0920    0.0000 C   0  0
   -0.0822   -2.2260    0.0000 C   0  0
    3.6583   -4.8245    0.0000 C   0  0
    4.8765   -4.3107    0.0000 C   0  0
    2.8598   -4.6503    0.0000 C   0  0
    2.0469   -0.9582    0.0000 C   0  0
    2.7631   -2.1970    0.0000 C   0  0
    2.7631   -1.3695    0.0000 C   0  0
    5.1064   -5.1056    0.0000 C   0  0
    5.4387   -3.7069    0.0000 C   0  0
    5.9108   -5.2893    0.0000 C   0  0
    6.2372   -3.8996    0.0000 C   0  0
    6.4730   -4.6853    0.0000 C   0  0
  2  1  2  0
  3  1  1  0
  4  9  1  0
  5  2  1  0
  6  2  1  0
  7  3  2  0
  8  3  1  0
  5  9  1  0
 10  4  1  0
 11 10  1  0
 12  7  1  0
 13  8  1  0
 14  7  1  0
 15 17  1  0
 11 16  1  0
 17  4  1  0
 18  1  1  0
 19 20  1  0
 20 18  1  0
 21 16  2  0
 22 16  1  0
 23 21  1  0
 24 22  2  0
 25 24  1  0
 19  5  1  0
 12 13  1  0
  6 14  2  0
 11 15  1  0
 25 23  2  0
M  END