
  SciTegic12011114592D

 12 13  0  0  0  0            999 V2000
    0.3572   -0.8250    0.0000 N   0  0
    1.0717   -0.4125    0.0000 C   0  0
    1.0717    0.4125    0.0000 C   0  0
    0.3572    0.8250    0.0000 C   0  0
   -0.3572    0.4125    0.0000 C   0  0
   -1.0717    0.8250    0.0000 C   0  0
   -1.7862    0.4125    0.0000 C   0  0
   -1.0717   -0.8250    0.0000 C   0  0
   -0.3572   -0.4125    0.0000 C   0  0
    1.7862   -0.8250    0.0000 N   0  0
   -1.7862   -0.4125    0.0000 C   0  0
   -2.5007   -0.8250    0.0000 Br  0  0
  1  2  2  0
  2  3  1  0
  3  4  2  0
  4  5  1  0
  5  6  2  0
  6  7  1  0
  7 11  2  0
 11  8  1  0
  8  9  2  0
  1  9  1  0
  5  9  1  0
  2 10  1  0
 11 12  1  0
M  END