
  SciTegic05171617262D

 39 41  0  0  0  0            999 V2000
    2.3383   -1.3500    0.0000 O   0  0
    1.2990   -0.7500    0.0000 C   0  0
    1.2990    0.7500    0.0000 C   0  0
    0.0000    1.5000    0.0000 C   0  0
   -1.2990    0.7500    0.0000 C   0  0
   -1.2990   -0.7500    0.0000 C   0  0
   -2.3383   -1.3500    0.0000 O   0  0
    0.0000   -1.5000    0.0000 C   0  0
    0.0000   -2.7000    0.0000 O   0  0
   -0.0031    3.0008    0.0000 C   0  0
    1.0351    3.6026    0.0000 O   0  0
   -1.3039    3.7494    0.0000 O   0  0
   -1.3070    5.2502    0.0000 C   0  0
   -2.6078    5.9988    0.0000 C   0  0
   -2.6109    7.4996    0.0000 C   0  0
   -3.9118    8.2481    0.0000 O   0  0
   -3.9149    9.7490    0.0000 C   0  0
   -2.8767   10.3508    0.0000 O   0  0
   -5.2157   10.4975    0.0000 C   0  0
   -5.2210   11.9975    0.0000 C   0  0
   -6.5226   12.7430    0.0000 C   0  0
   -6.5268   13.9430    0.0000 O   0  0
   -7.8190   11.9885    0.0000 C   0  0
   -8.8603   12.5849    0.0000 O   0  0
   -7.8138   10.4885    0.0000 C   0  0
   -8.8510    9.8849    0.0000 O   0  0
   -6.5122    9.7430    0.0000 C   0  0
   -3.9078    5.2487    0.0000 O   0  0
   -5.2078    5.9987    0.0000 C   0  0
   -5.2078    7.1987    0.0000 O   0  0
   -6.5078    5.2487    0.0000 C   0  0
   -7.8082    5.9964    0.0000 C   0  0
   -9.1060    5.2442    0.0000 C   0  0
  -10.1462    5.8424    0.0000 O   0  0
   -9.1034    3.7442    0.0000 C   0  0
  -10.1416    3.1424    0.0000 O   0  0
   -7.8031    2.9964    0.0000 C   0  0
   -7.8010    1.7964    0.0000 O   0  0
   -6.5053    3.7487    0.0000 C   0  0
  1  2  1  0
  2  3  2  0
  3  4  1  0
  4  5  2  0
  5  6  1  0
  6  7  1  0
  6  8  2  0
  2  8  1  0
  8  9  1  0
  4 10  1  0
 10 11  2  0
 10 12  1  0
 12 13  1  0
 13 14  1  0
 14 15  1  0
 15 16  1  0
 16 17  1  0
 17 18  2  0
 17 19  1  0
 19 20  2  0
 20 21  1  0
 21 22  1  0
 21 23  2  0
 23 24  1  0
 23 25  1  0
 25 26  1  0
 25 27  2  0
 19 27  1  0
 14 28  1  0
 28 29  1  0
 29 30  2  0
 29 31  1  0
 31 32  2  0
 32 33  1  0
 33 34  1  0
 33 35  2  0
 35 36  1  0
 35 37  1  0
 37 38  1  0
 37 39  2  0
 31 39  1  0
M  END