
  SciTegic11161115462D

 40 43  0  0  0  0            999 V2000
   19.5109  -20.1597    0.0000 C   0  0
   19.5091  -18.5068    0.0000 C   0  0
   20.2245  -18.9160    0.0000 C   0  0
   20.2279  -19.7489    0.0000 C   0  0
   20.9470  -20.1602    0.0000 C   0  0
   21.6674  -19.7430    0.0000 C   0  0
   21.6640  -18.9101    0.0000 C   0  0
   20.9402  -18.4942    0.0000 O   0  0
   20.9493  -20.9851    0.0000 O   0  0
   18.7962  -19.7469    0.0000 C   0  0
   18.7975  -18.9180    0.0000 C   0  0
   22.3771  -18.4953    0.0000 C   0  0
   23.0920  -18.9077    0.0000 C   0  0
   23.8047  -18.4937    0.0000 C   0  0
   23.8026  -17.6679    0.0000 C   0  0
   23.0819  -17.2578    0.0000 C   0  0
   22.3721  -17.6742    0.0000 C   0  0
   24.5152  -17.2522    0.0000 C   0  0
   25.2315  -17.6616    0.0000 N   0  0
   24.5115  -16.4273    0.0000 O   0  0
   25.9440  -17.2459    0.0000 C   0  0  2  0  0  0
   26.6603  -17.6553    0.0000 C   0  0
   27.3728  -17.2396    0.0000 N   0  0
   26.6639  -18.4802    0.0000 O   0  0
   25.9404  -16.4209    0.0000 C   0  0
   26.6530  -16.0054    0.0000 C   0  0
   26.6493  -15.1804    0.0000 C   0  0
   27.3692  -16.4146    0.0000 C   0  0
   18.0795  -20.1625    0.0000 N   0  3
   18.0788  -20.9875    0.0000 O   0  0
   17.3655  -19.7494    0.0000 O   0  5
   18.0832  -18.5051    0.0000 N   0  0
   18.0837  -17.6802    0.0000 C   0  0  1  0  0  0
   18.7984  -17.2681    0.0000 C   0  0
   17.3696  -17.2673    0.0000 C   0  0
   19.5102  -17.6815    0.0000 C   0  0
   20.2227  -17.2729    0.0000 C   0  0
   20.2275  -16.4476    0.0000 C   0  0
   19.5134  -16.0326    0.0000 C   0  0
   18.7947  -16.4427    0.0000 C   0  0
 18 19  1  0
 10  1  1  0
 18 20  2  0
  5  9  2  0
 21 19  1  1
 10 11  2  0
 21 22  1  0
  1  4  2  0
 22 23  1  0
 22 24  2  0
  3  2  2  0
 21 25  1  0
  7 12  1  0
 25 26  1  0
  2 11  1  0
 26 27  1  0
 12 13  2  0
 26 28  1  0
  3  4  1  0
 13 14  1  0
  3  8  1  0
 29 30  2  0
 29 31  1  0
 10 29  1  0
 14 15  2  0
 11 32  1  0
  4  5  1  0
 33 32  1  6
 15 16  1  0
 33 34  1  0
  5  6  1  0
 33 35  1  0
 34 36  1  0
 16 17  2  0
 17 12  1  0
  6  7  2  0
 15 18  1  0
  7  8  1  0
 34 40  1  0
 36 37  1  0
 37 38  1  0
 38 39  1  0
 39 40  1  0
M  CHG  2  29   1  31  -1
M  END