
  SciTegic06051315212D

 30 34  0  0  0  0            999 V2000
   12.8838   -4.9485    0.0000 C   0  0
   12.8826   -5.7680    0.0000 N   0  0
   13.5907   -6.1770    0.0000 C   0  0
   14.3004   -5.7676    0.0000 C   0  0
   14.2975   -4.9449    0.0000 C   0  0
   13.5889   -4.5396    0.0000 C   0  0
   14.9428   -4.4432    0.0000 N   0  0
   15.6836   -3.3454    0.0000 N   0  0
   14.9152   -3.6255    0.0000 C   0  0
   16.1868   -3.9907    0.0000 C   0  0
   15.7275   -4.6657    0.0000 C   0  0
   16.0824   -5.3989    0.0000 C   0  0
   16.8964   -5.4583    0.0000 C   0  0
   17.3543   -4.7786    0.0000 C   0  0
   16.9968   -4.0481    0.0000 C   0  0
   13.5905   -6.9942    0.0000 N   0  0
   12.8827   -7.4026    0.0000 C   0  0
   14.1923   -3.2481    0.0000 C   0  0
   14.1617   -2.4304    0.0000 C   0  0
   12.7819   -3.3064    0.0000 C   0  0
   13.5046   -3.6833    0.0000 C   0  0
   12.7472   -2.4857    0.0000 C   0  0
   13.4419   -2.0504    0.0000 C   0  0
   13.4114   -1.2330    0.0000 C   0  0
   12.6868   -0.8499    0.0000 C   0  0
   11.9916   -1.2902    0.0000 C   0  0
   12.0256   -2.1061    0.0000 C   0  0
   12.1751   -6.9939    0.0000 C   0  0  2  0  0  0
   11.4673   -7.4023    0.0000 C   0  0
   12.1753   -6.1767    0.0000 O   0  0
  1  2  2  0
  2  3  1  0
  3  4  2  0
  4  5  1  0
  5  6  2  0
  6  1  1  0
  5  7  1  0
  7 11  1  0
 10  8  1  0
  8  9  2  0
  9  7  1  0
 10 11  2  0
 11 12  1  0
 12 13  2  0
 13 14  1  0
 14 15  2  0
 15 10  1  0
  3 16  1  0
 16 17  1  0
 18 19  2  0
 19 23  1  0
 22 20  1  0
 20 21  2  0
 21 18  1  0
  9 18  1  0
 22 23  1  0
 23 24  2  0
 24 25  1  0
 25 26  2  0
 26 27  1  0
 27 22  2  0
 17 28  1  0
 28 29  1  0
 28 30  1  6
M  END