
  SciTegic02011310462D

 21 22  0  0  0  0            999 V2000
    9.3830   -4.1684    0.0000 N   0  0
   10.0974   -3.7559    0.0000 C   0  0
   10.8119   -4.1684    0.0000 N   0  0
   10.0974   -2.9309    0.0000 N   0  0
    8.6685   -3.7559    0.0000 C   0  0
    6.5251   -4.1684    0.0000 C   0  0
    7.2395   -3.7559    0.0000 C   0  0
    7.9540   -4.1684    0.0000 C   0  0
    7.9540   -4.9934    0.0000 C   0  0
    7.2395   -5.4059    0.0000 C   0  0
    6.5251   -4.9934    0.0000 C   0  0
    5.8106   -3.7559    0.0000 C   0  0
    5.0961   -4.1684    0.0000 C   0  0
    4.3817   -3.7559    0.0000 C   0  0
    4.3817   -2.9309    0.0000 C   0  0
    5.0961   -2.5184    0.0000 C   0  0
    5.8106   -2.9309    0.0000 C   0  0
    3.6672   -2.5184    0.0000 C   0  0
    2.9527   -2.9309    0.0000 C   0  0
    2.9527   -2.1059    0.0000 C   0  0
    3.6672   -1.6934    0.0000 C   0  0
  1  2  1  0
  2  3  1  0
  2  4  2  0
  6  7  1  0
  7  8  2  0
  8  9  1  0
  9 10  2  0
 10 11  1  0
  6 11  2  0
 12 13  1  0
 13 14  2  0
 14 15  1  0
 15 16  2  0
 16 17  1  0
 12 17  2  0
  6 12  1  0
 18 19  1  0
 18 21  1  0
 18 20  1  0
 15 18  1  0
  5  8  1  0
  1  5  1  0
M  END