
  SciTegic06051313522D

 36 40  0  0  0  0            999 V2000
    5.0750   -3.7947    0.0000 C   0  0
    4.3657   -3.3876    0.0000 C   0  0
    6.3379   -6.6679    0.0000 C   0  0
    5.0750   -7.0783    0.0000 C   0  0
   10.8528   -7.3777    0.0000 C   0  0
   11.2632   -6.6679    0.0000 O   0  0
    5.7849   -3.3843    0.0000 C   0  0
    4.3652   -5.0261    0.0000 N   0  0
    6.4948   -3.7947    0.0000 C   0  0
    7.5693   -5.9580    0.0000 C   0  0
    5.8572   -7.3334    0.0000 N   0  0
    2.9417   -5.0261    0.0000 F   0  0
    4.3652   -7.4887    0.0000 N   0  0
    3.6511   -7.0783    0.0000 C   0  0
    6.4948   -4.6156    0.0000 C   0  0
    2.2261   -5.4351    0.0000 F   0  0
    4.3652   -5.8470    0.0000 C   0  0
    5.8572   -6.0023    0.0000 C   0  0
   10.8528   -5.9580    0.0000 C   0  0
    7.1546   -6.6679    0.0000 C   0  0
    8.7964   -6.6679    0.0000 C   0  0
    2.9412   -5.8470    0.0000 C   0  0
    7.5693   -7.3777    0.0000 C   0  0
    8.3901   -7.3777    0.0000 C   0  0
    2.2300   -6.2570    0.0000 F   0  0
    5.0750   -4.6156    0.0000 C   0  0
    9.6215   -6.6679    0.0000 N   0  0
    3.6511   -6.2574    0.0000 C   0  0
    3.6547   -2.9773    0.0000 N   0  0
   10.0320   -5.9580    0.0000 C   0  0
   10.0320   -7.3777    0.0000 C   0  0
    5.0750   -6.2574    0.0000 C   0  0
    5.7849   -5.0261    0.0000 C   0  0
    8.3901   -5.9580    0.0000 C   0  0
    7.1624   -5.2493    0.0000 O   0  0
    7.5728   -4.5426    0.0000 C   0  0
 22 25  1  0
  3 20  1  0
 33 15  1  0
  1  7  2  0
 10 20  1  0
  6 19  1  0
 14 13  1  0
  4 13  2  0
  1  2  1  0
 28 14  2  0
 28 22  1  0
 15  9  2  0
 32 17  2  0
 22 16  1  0
 18  3  2  0
 19 30  1  0
 27 30  1  0
 22 12  1  0
  1 26  1  0
 10 34  2  0
  4 11  1  0
 20 23  2  0
 31  5  1  0
 27 31  1  0
 26  8  1  0
  9  7  1  0
  2 29  3  0
 11  3  1  0
  5  6  1  0
 21 27  1  0
  8 17  1  0
  4 32  1  0
 26 33  2  0
 23 24  1  0
 21 34  1  0
 24 21  2  0
 32 18  1  0
 17 28  1  0
 10 35  1  0
 35 36  1  0
M  END