
  CDK    9/16/09,9:47

 48 51  0  0  0  0  0  0  0  0999 V2000
   16.1360   -7.6625    0.0000 N   0  0  0  0  0  0  0  0  0  0  0  0
   15.5270   -7.1089    0.0000 C   0  0  0  0  0  0  0  0  0  0  0  0
   16.8578   -7.2553    0.0000 C   0  0  0  0  0  0  0  0  0  0  0  0
   17.5621   -7.6801    0.0000 C   0  0  0  0  0  0  0  0  0  0  0  0
   18.2861   -7.2852    0.0000 C   0  0  0  0  0  0  0  0  0  0  0  0
   18.9918   -7.7139    0.0000 C   0  0  0  0  0  0  0  0  0  0  0  0
   19.7143   -7.3150    0.0000 C   0  0  0  0  0  0  0  0  0  0  0  0
   20.4201   -7.7438    0.0000 C   0  0  0  0  0  0  0  0  0  0  0  0
   21.1441   -7.3488    0.0000 C   0  0  0  0  0  0  0  0  0  0  0  0
   21.8483   -7.7736    0.0000 O   0  0  0  0  0  0  0  0  0  0  0  0
   21.1607   -6.5214    0.0000 O   0  0  0  0  0  0  0  0  0  0  0  0
   18.3027   -6.4578    0.0000 O   0  0  0  0  0  0  0  0  0  0  0  0
   19.7325   -6.4916    0.0000 O   0  0  0  0  0  0  0  0  0  0  0  0
   15.7928   -8.4161    0.0000 C   0  0  0  0  0  0  0  0  0  0  0  0
   16.1989   -9.1324    0.0000 C   0  0  0  0  0  0  0  0  0  0  0  0
   15.7844   -9.8466    0.0000 C   0  0  0  0  0  0  0  0  0  0  0  0
   16.1898  -10.5603    0.0000 C   0  0  0  0  0  0  0  0  0  0  0  0
   17.0156  -10.5646    0.0000 C   0  0  0  0  0  0  0  0  0  0  0  0
   17.4309   -9.8475    0.0000 C   0  0  0  0  0  0  0  0  0  0  0  0
   17.0219   -9.1383    0.0000 C   0  0  0  0  0  0  0  0  0  0  0  0
   17.4219  -11.2849    0.0000 F   0  0  0  0  0  0  0  0  0  0  0  0
   15.5102   -6.2845    0.0000 C   0  0  0  0  0  0  0  0  0  0  0  0
   14.8083   -7.5207    0.0000 C   0  0  0  0  0  0  0  0  0  0  0  0
   14.9776   -8.3309    0.0000 C   0  0  0  0  0  0  0  0  0  0  0  0
   16.2000   -5.8332    0.0000 C   0  0  0  0  0  0  0  0  0  0  0  0
   14.7755   -5.9107    0.0000 C   0  0  0  0  0  0  0  0  0  0  0  0
   14.5692   -9.0478    0.0000 C   0  0  0  0  0  0  0  0  0  0  0  0
   13.7441   -9.0473    0.0000 C   0  0  0  0  0  0  0  0  0  0  0  0
   13.3358   -9.7633    0.0000 C   0  0  0  0  0  0  0  0  0  0  0  0
   13.7524  -10.4765    0.0000 C   0  0  0  0  0  0  0  0  0  0  0  0
   14.5818  -10.4691    0.0000 C   0  0  0  0  0  0  0  0  0  0  0  0
   14.9864   -9.7524    0.0000 C   0  0  0  0  0  0  0  0  0  0  0  0
   13.3450  -11.1938    0.0000 F   0  0  0  0  0  0  0  0  0  0  0  0
   14.0556   -7.1825    0.0000 S   0  0  0  0  0  0  0  0  0  0  0  0
   13.3385   -6.7672    0.0000 N   0  0  0  0  0  0  0  0  0  0  0  0
   12.6234   -7.1787    0.0000 C   0  0  0  0  0  0  0  0  0  0  0  0
   11.9135   -6.7625    0.0000 C   0  0  0  0  0  0  0  0  0  0  0  0
   11.1989   -7.1733    0.0000 C   0  0  0  0  0  0  0  0  0  0  0  0
   11.1973   -7.9993    0.0000 C   0  0  0  0  0  0  0  0  0  0  0  0
   11.9163   -8.4126    0.0000 C   0  0  0  0  0  0  0  0  0  0  0  0
   12.6279   -7.9994    0.0000 C   0  0  0  0  0  0  0  0  0  0  0  0
   13.6794   -7.9168    0.0000 O   0  0  0  0  0  0  0  0  0  0  0  0
   14.4357   -6.4502    0.0000 O   0  0  0  0  0  0  0  0  0  0  0  0
   10.4828   -8.4118    0.0000 C   0  0  0  0  0  0  0  0  0  0  0  0
    9.7683   -7.9993    0.0000 C   0  0  0  0  0  0  0  0  0  0  0  0
    9.0538   -8.4117    0.0000 O   0  0  0  0  0  0  0  0  0  0  0  0
    9.7683   -7.1742    0.0000 O   0  0  0  0  0  0  0  0  0  0  0  0
    8.3392   -7.9992    0.0000 C   0  0  0  0  0  0  0  0  0  0  0  0
 14 15  1  0  0  0  0 
 18 21  1  0  0  0  0 
  2 22  1  0  0  0  0 
 23 24  1  0  0  0  0 
 22 25  1  0  0  0  0 
 22 26  1  0  0  0  0 
 24 27  1  0  0  0  0 
 14  1  1  0  0  0  0 
 27 28  2  0  0  0  0 
  1  2  1  0  0  0  0 
 28 29  1  0  0  0  0 
  2 23  2  0  0  0  0 
 29 30  2  0  0  0  0 
  1  3  1  0  0  0  0 
 30 31  1  0  0  0  0 
  3  4  1  0  0  0  0 
 31 32  2  0  0  0  0 
 32 27  1  0  0  0  0 
  4  5  1  0  0  0  0 
 30 33  1  0  0  0  0 
  5  6  1  0  0  0  0 
 23 34  1  0  0  0  0 
  6  7  1  0  0  0  0 
 34 35  1  0  0  0  0 
  7  8  1  0  0  0  0 
 35 36  1  0  0  0  0 
  8  9  1  0  0  0  0 
 36 37  2  0  0  0  0 
  9 10  1  0  0  0  0 
 37 38  1  0  0  0  0 
  9 11  2  0  0  0  0 
 38 39  2  0  0  0  0 
  5 12  1  1  0  0  0 
 39 40  1  0  0  0  0 
  7 13  1  1  0  0  0 
 40 41  2  0  0  0  0 
 41 36  1  0  0  0  0 
 14 24  2  0  0  0  0 
 34 42  2  0  0  0  0 
 15 16  2  0  0  0  0 
 34 43  2  0  0  0  0 
 16 17  1  0  0  0  0 
 39 44  1  0  0  0  0 
 17 18  2  0  0  0  0 
 44 45  1  0  0  0  0 
 18 19  1  0  0  0  0 
 45 46  1  0  0  0  0 
 19 20  2  0  0  0  0 
 45 47  2  0  0  0  0 
 20 15  1  0  0  0  0 
 46 48  1  0  0  0  0 
M  END