
          11280714502D 1   1.00000     0.00000     0

 25 29  0     1  0            999 V2000
    2.2042   -3.3750    0.0000 C   0  0  0  0  0  0           0  0  0
    2.1917   -4.1917    0.0000 C   0  0  0  0  0  0           0  0  0
    1.4792   -2.9625    0.0000 C   0  0  0  0  0  0           0  0  0
    3.6250   -5.8542    0.0000 N   0  0  3  0  0  0           0  0  0
    2.9167   -4.6167    0.0000 C   0  0  1  0  0  0           0  0  0
    1.4875   -4.6167    0.0000 C   0  0  0  0  0  0           0  0  0
    0.7750   -3.3750    0.0000 C   0  0  0  0  0  0           0  0  0
    1.3042   -2.1625    0.0000 O   0  0  0  0  0  0           0  0  0
    2.9125   -5.4417    0.0000 C   0  0  0  0  0  0           0  0  0
    4.3167   -5.4042    0.0000 C   0  0  0  0  0  0           0  0  0
    4.9542   -5.9292    0.0000 C   0  0  1  0  0  0           0  0  0
    0.1625   -2.8292    0.0000 O   0  0  0  0  0  0           0  0  0
    0.4917   -2.0792    0.0000 C   0  0  0  0  0  0           0  0  0
    0.7750   -4.2042    0.0000 C   0  0  0  0  0  0           0  0  0
    4.6542   -6.6917    0.0000 C   0  0  0  0  0  0           0  0  0
    5.7542   -5.7125    0.0000 C   0  0  0  0  0  0           0  0  0
    3.8375   -6.6542    0.0000 C   0  0  0  0  0  0           0  0  0
    2.9167   -2.9542    0.0000 C   0  0  0  0  0  0           0  0  0
    3.6292   -4.2042    0.0000 C   0  0  0  0  0  0           0  0  0
    3.6292   -3.3750    0.0000 C   0  0  0  0  0  0           0  0  0
    6.3292   -6.3000    0.0000 C   0  0  0  0  0  0           0  0  0
    5.9542   -4.9167    0.0000 C   0  0  0  0  0  0           0  0  0
    6.7542   -4.7042    0.0000 C   0  0  0  0  0  0           0  0  0
    7.1292   -6.0875    0.0000 C   0  0  0  0  0  0           0  0  0
    7.3417   -5.2875    0.0000 C   0  0  0  0  0  0           0  0  0
  2  1  1  0     0  0
  3  1  2  0     0  0
  4  9  1  0     0  0
  5  2  1  0     0  0
  6  2  2  0     0  0
  7  3  1  0     0  0
  8  3  1  0     0  0
  5  9  1  6     0  0
 10  4  1  0     0  0
 11 10  1  0     0  0
 12  7  1  0     0  0
 13  8  1  0     0  0
 14  7  2  0     0  0
 15 17  1  0     0  0
 11 16  1  6     0  0
 17  4  1  0     0  0
 18  1  1  0     0  0
 19 20  1  0     0  0
 20 18  1  0     0  0
 21 16  2  0     0  0
 22 16  1  0     0  0
 23 22  2  0     0  0
 24 21  1  0     0  0
 25 23  1  0     0  0
 19  5  1  0     0  0
 12 13  1  0     0  0
  6 14  1  0     0  0
 11 15  1  0     0  0
 25 24  2  0     0  0
M  END