
  CDK    9/16/09,9:55

 33 36  0  0  0  0  0  0  0  0999 V2000
    7.9369   -9.7194    0.0000 C   0  0  0  0  0  0  0  0  0  0  0  0
    7.9665  -10.5538    0.0000 N   0  0  0  0  0  0  0  0  0  0  0  0
    8.7000  -10.9371    0.0000 C   0  0  0  0  0  0  0  0  0  0  0  0
    9.4013  -10.4934    0.0000 C   0  0  0  0  0  0  0  0  0  0  0  0
    9.3648   -9.6633    0.0000 N   0  0  0  0  0  0  0  0  0  0  0  0
    8.6298   -9.2748    0.0000 C   0  0  0  0  0  0  0  0  0  0  0  0
   10.0698   -9.2233    0.0000 S   0  0  0  0  0  0  0  0  0  0  0  0
   10.7564   -8.7738    0.0000 C   0  0  0  0  0  0  0  0  0  0  0  0
   10.5128   -9.9139    0.0000 O   0  0  0  0  0  0  0  0  0  0  0  0
    9.6243   -8.5232    0.0000 O   0  0  0  0  0  0  0  0  0  0  0  0
    7.2701  -10.9896    0.0000 C   0  0  0  0  0  0  0  0  0  0  0  0
    6.5424  -10.6110    0.0000 N   0  0  0  0  0  0  0  0  0  0  0  0
    5.8384  -11.0511    0.0000 C   0  0  0  0  0  0  0  0  0  0  0  0
    5.8742  -11.8769    0.0000 C   0  0  0  0  0  0  0  0  0  0  0  0
    6.6094  -12.2597    0.0000 C   0  0  0  0  0  0  0  0  0  0  0  0
    7.3097  -11.8169    0.0000 C   0  0  0  0  0  0  0  0  0  0  0  0
    5.1791  -12.3215    0.0000 C   0  0  0  0  0  0  0  0  0  0  0  0
    4.4578  -12.7328    0.0000 F   0  0  0  0  0  0  0  0  0  0  0  0
    5.6042  -13.0285    0.0000 F   0  0  0  0  0  0  0  0  0  0  0  0
    4.7548  -11.6082    0.0000 F   0  0  0  0  0  0  0  0  0  0  0  0
   10.7624   -7.9591    0.0000 C   0  0  0  0  0  0  0  0  0  0  0  0
   10.0314   -8.2589    0.0000 C   0  0  0  0  0  0  0  0  0  0  0  0
   10.4690   -7.7434    0.0000 C   0  0  0  0  0  0  0  0  0  0  0  0
   11.0865   -7.3882    0.0000 C   0  0  0  0  0  0  0  0  0  0  0  0
   10.8808   -6.7226    0.0000 C   0  0  0  0  0  0  0  0  0  0  0  0
   11.7660   -7.8729    0.0000 C   0  0  0  0  0  0  0  0  0  0  0  0
   11.4506   -8.4180    0.0000 C   0  0  0  0  0  0  0  0  0  0  0  0
   11.0859   -5.9306    0.0000 C   0  0  0  0  0  0  0  0  0  0  0  0
   10.1666   -6.3106    0.0000 C   0  0  0  0  0  0  0  0  0  0  0  0
   11.6654   -6.8005    0.0000 H   0  0  0  0  0  0  0  0  0  0  0  0
   11.6362   -9.2137    0.0000 O   0  0  0  0  0  0  0  0  0  0  0  0
    7.2130   -9.3403    0.0000 C   0  0  0  0  0  0  0  0  0  0  0  0
    8.0346  -12.1940    0.0000 F   0  0  0  0  0  0  0  0  0  0  0  0
 15 16  2  0  0  0  0 
 16 11  1  0  0  0  0 
  2 11  1  0  0  0  0 
 14 17  1  0  0  0  0 
  5  7  1  0  0  0  0 
 17 18  1  0  0  0  0 
  1  2  1  0  0  0  0 
 17 19  1  0  0  0  0 
 17 20  1  0  0  0  0 
  7  8  1  0  0  0  0 
  1  6  1  0  0  0  0 
  7  9  2  0  0  0  0 
  2  3  1  0  0  0  0 
  7 10  2  0  0  0  0 
  3  4  1  0  0  0  0 
 22 23  1  0  0  0  0 
 23 24  1  0  0  0  0 
 22 21  1  0  0  0  0 
 21 25  1  0  0  0  0 
 25 24  1  0  0  0  0 
 24 26  1  0  0  0  0 
 26 27  1  0  0  0  0 
 27 21  1  0  0  0  0 
 11 12  2  0  0  0  0 
 25 28  1  0  0  0  0 
 12 13  1  0  0  0  0 
 25 29  1  0  0  0  0 
 13 14  2  0  0  0  0 
 24 30  1  6  0  0  0 
  4  5  1  0  0  0  0 
 21  8  1  1  0  0  0 
 27 31  1  6  0  0  0 
 14 15  1  0  0  0  0 
  1 32  1  1  0  0  0 
  5  6  1  0  0  0  0 
 16 33  1  0  0  0  0 
M  END