
  SciTegic12201611262D

 28 30  0  0  0  0            999 V2000
    2.5973   -1.5031    0.0000 C   0  0
    1.2990   -0.7500    0.0000 C   0  0
    1.2990    0.7500    0.0000 C   0  0
    0.0000    1.5000    0.0000 C   0  0
   -1.2990    0.7500    0.0000 C   0  0
   -1.2990   -0.7500    0.0000 C   0  0
    0.0000   -1.5000    0.0000 C   0  0
    3.6375   -0.9049    0.0000 O   0  0
    2.5951   -3.0039    0.0000 O   0  0
    0.0000   -2.7000    0.0000 O   0  0
   -2.3383    1.3500    0.0000 O   0  0
    2.5972    1.5031    0.0000 C   0  0
    2.5951    3.0039    0.0000 C   0  0
    3.8933    3.7570    0.0000 C   0  0
    5.2447    3.1360    0.0000 N   0  0
    6.2484    4.2507    0.0000 C   0  0
    5.4984    5.5498    0.0000 C   0  0
    4.0312    5.2379    0.0000 N   0  0
    2.9122    6.2341    0.0000 C   0  0
    3.2150    7.7041    0.0000 C   0  0
    4.6397    8.1737    0.0000 C   0  0
    4.9453    9.6422    0.0000 C   0  0
    3.8264   10.6412    0.0000 C   0  0
    2.4018   10.1716    0.0000 C   0  0
    2.0961    8.7031    0.0000 C   0  0
    0.0000    2.7000    0.0000 Cl  0  0
    3.6331   -3.6060    0.0000 C   0  0
    0.9564    8.3275    0.0000 C   0  0
  1  2  1  0
  2  3  1  0
  3  4  2  0
  4  5  1  0
  5  6  2  0
  6  7  1  0
  2  7  2  0
  1  8  2  0
  1  9  1  0
  7 10  1  0
  5 11  1  0
 12 13  1  0
 14 15  2  0
 15 16  1  0
 16 17  2  0
 17 18  1  0
 14 18  1  0
 19 20  1  0
 20 21  1  0
 21 22  2  0
 22 23  1  0
 23 24  2  0
 24 25  1  0
 20 25  2  0
 18 19  1  0
 13 14  1  0
  3 12  1  0
  4 26  1  0
  9 27  1  0
 25 28  1  0
M  END