
          11280715572D 1   1.00000     0.00000     0

 77 81  0     1  0            999 V2000
   -1.2089   -7.8042    0.0000 N   0  0  0  0  0  0           0  0  0
   -0.5968   -7.4500    0.0000 C   0  0  1  0  0  0           0  0  0
   -0.5968   -6.7417    0.0000 C   0  0  0  0  0  0           0  0  0
    0.0192   -6.3883    0.0000 C   0  0  0  0  0  0           0  0  0
    0.5813   -6.8204    0.0000 C   0  0  0  0  0  0           0  0  0
    1.1645   -6.4176    0.0000 N   0  0  0  0  0  0           0  0  0
    0.9636   -5.7396    0.0000 C   0  0  0  0  0  0           0  0  0
    0.2563   -5.7210    0.0000 N   0  0  0  0  0  0           0  0  0
   -0.3375   -9.6042    0.0000 C   0  0  0  0  0  0           0  0  0
    0.3708   -9.6042    0.0000 C   0  0  0  0  0  0           0  0  0
    0.5901   -8.9326    0.0000 C   0  0  2  0  0  0           0  0  0
    0.0166   -8.5125    0.0000 N   0  0  3  0  0  0           0  0  0
   -0.5567   -8.9326    0.0000 C   0  0  0  0  0  0           0  0  0
   10.4049   -8.9202    0.0000 N   0  0  0  0  0  0           0  0  0
   11.0169   -8.5661    0.0000 C   0  0  2  0  0  0           0  0  0
   11.6331   -8.9202    0.0000 C   0  0  0  0  0  0           0  0  0
   11.6331   -9.6286    0.0000 O   0  0  0  0  0  0           0  0  0
   11.0169   -7.8577    0.0000 C   0  0  0  0  0  0           0  0  0
   11.6331   -6.7952    0.0000 C   0  0  0  0  0  0           0  0  0
   12.2451   -6.4411    0.0000 C   0  0  0  0  0  0           0  0  0
   12.8572   -6.7952    0.0000 C   0  0  0  0  0  0           0  0  0
   12.8572   -7.5036    0.0000 C   0  0  0  0  0  0           0  0  0
   12.2451   -7.8577    0.0000 C   0  0  0  0  0  0           0  0  0
   11.6331   -7.5036    0.0000 C   0  0  0  0  0  0           0  0  0
    8.5636   -8.5655    0.0000 N   0  0  0  0  0  0           0  0  0
    9.1756   -8.9196    0.0000 C   0  0  2  0  0  0           0  0  0
    9.7918   -8.5655    0.0000 C   0  0  0  0  0  0           0  0  0
    9.7918   -7.8571    0.0000 O   0  0  0  0  0  0           0  0  0
    9.1756   -9.6280    0.0000 C   0  0  1  0  0  0           0  0  0
    9.7918   -9.9821    0.0000 C   0  0  0  0  0  0           0  0  0
    8.5636   -9.9821    0.0000 C   0  0  0  0  0  0           0  0  0
    8.5636  -10.6905    0.0000 C   0  0  0  0  0  0           0  0  0
    9.7845   -9.2780    0.0000 H   0  0  0  0  0  0           0  0  0
    5.4955   -8.9214    0.0000 N   0  0  0  0  0  0           0  0  0
    6.1075   -8.5673    0.0000 C   0  0  2  0  0  0           0  0  0
    6.7237   -8.9214    0.0000 C   0  0  3  0  0  0           0  0  0
    6.7237   -9.6298    0.0000 O   0  0  0  0  0  0           0  0  0
    6.1075   -7.8589    0.0000 C   0  0  0  0  0  0           0  0  0
    6.7237   -7.5048    0.0000 C   0  0  3  0  0  0           0  0  0
    6.7237   -6.7964    0.0000 C   0  0  0  0  0  0           0  0  0
    7.3357   -7.8589    0.0000 C   0  0  0  0  0  0           0  0  0
    3.6542   -8.5667    0.0000 N   0  0  0  0  0  0           0  0  0
    4.2662   -8.9208    0.0000 C   0  0  2  0  0  0           0  0  0
    4.8824   -8.5667    0.0000 C   0  0  0  0  0  0           0  0  0
    4.8824   -7.8583    0.0000 O   0  0  0  0  0  0           0  0  0
    4.2662   -9.6292    0.0000 C   0  0  0  0  0  0           0  0  0
    4.8823   -9.9826    0.0000 C   0  0  0  0  0  0           0  0  0
    5.4443   -9.5505    0.0000 C   0  0  0  0  0  0           0  0  0
    6.0276   -9.9533    0.0000 N   0  0  0  0  0  0           0  0  0
    5.8266  -10.6312    0.0000 C   0  0  0  0  0  0           0  0  0
    5.1193  -10.6498    0.0000 N   0  0  0  0  0  0           0  0  0
    1.8134   -8.9219    0.0000 N   0  0  0  0  0  0           0  0  0
    2.4254   -8.5678    0.0000 C   0  0  2  0  0  0           0  0  0
    3.0416   -8.9219    0.0000 C   0  0  0  0  0  0           0  0  0
    3.0416   -9.6303    0.0000 O   0  0  0  0  0  0           0  0  0
    2.4254   -7.8594    0.0000 C   0  0  0  0  0  0           0  0  0
    3.0416   -6.7969    0.0000 C   0  0  0  0  0  0           0  0  0
    3.6536   -6.4428    0.0000 C   0  0  0  0  0  0           0  0  0
    4.2656   -6.7969    0.0000 C   0  0  0  0  0  0           0  0  0
    4.2656   -7.5053    0.0000 C   0  0  0  0  0  0           0  0  0
    3.6536   -7.8594    0.0000 C   0  0  0  0  0  0           0  0  0
    3.0416   -7.5053    0.0000 C   0  0  0  0  0  0           0  0  0
    1.1958   -8.5750    0.0000 C   0  0  0  0  0  0           0  0  0
    1.1875   -7.8667    0.0000 O   0  0  0  0  0  0           0  0  0
    7.3368   -8.5667    0.0000 C   0  0  0  0  0  0           0  0  0
    7.9505   -8.9202    0.0000 C   0  0  0  0  0  0           0  0  0
    7.9512   -9.6286    0.0000 O   0  0  0  0  0  0           0  0  0
   12.2462   -8.5655    0.0000 N   0  0  0  0  0  0           0  0  0
    1.2000   -9.2833    0.0000 H   0  0  0  0  0  0           0  0  0
    0.0166   -7.8042    0.0000 C   0  0  0  0  0  0           0  0  0
    0.6300   -7.4500    0.0000 O   0  0  0  0  0  0           0  0  0
   -1.8227   -7.4506    0.0000 C   0  0  0  0  0  0           0  0  0
   -2.4357   -7.8054    0.0000 C   0  0  0  0  0  0           0  0  0
   -1.8234   -6.7423    0.0000 O   0  0  0  0  0  0           0  0  0
   -3.0495   -7.4519    0.0000 C   0  0  3  0  0  0           0  0  0
   -3.6626   -7.8066    0.0000 C   0  0  0  0  0  0           0  0  0
   -3.0502   -6.7435    0.0000 C   0  0  0  0  0  0           0  0  0
 35 38  1  1     0  0
 38 39  1  0     0  0
 39 40  1  0     0  0
 39 41  1  0     0  0
 15 18  1  1     0  0
 18 24  1  0     0  0
 24 19  1  0     0  0
 19 20  2  0     0  0
 20 21  1  0     0  0
 21 22  2  0     0  0
 22 23  1  0     0  0
 23 24  2  0     0  0
 11 12  1  0     0  0
 12 13  1  0     0  0
 42 43  1  0     0  0
 43 44  1  0     0  0
 44 45  2  0     0  0
 43 46  1  6     0  0
 47 48  2  0     0  0
 48 49  1  0     0  0
 49 50  1  0     0  0
 50 51  2  0     0  0
 51 47  1  0     0  0
 46 47  1  0     0  0
 13  9  1  0     0  0
  6  7  1  0     0  0
  7  8  2  0     0  0
  8  4  1  0     0  0
  3  4  1  0     0  0
  9 10  1  0     0  0
 25 26  1  0     0  0
 26 27  1  0     0  0
 27 28  2  0     0  0
 26 29  1  0     0  0
 29 30  1  1     0  0
 52 53  1  0     0  0
 53 54  1  0     0  0
 54 55  2  0     0  0
 53 56  1  1     0  0
 56 62  1  0     0  0
 62 57  1  0     0  0
 57 58  2  0     0  0
 58 59  1  0     0  0
 59 60  2  0     0  0
 60 61  1  0     0  0
 61 62  2  0     0  0
 29 31  1  0     0  0
 63 52  1  0     0  0
 31 32  1  0     0  0
 63 64  2  0     0  0
 54 42  1  0     0  0
 44 34  1  0     0  0
 36 65  1  0     0  0
 26 33  1  1     0  0
 65 66  1  0     0  0
 66 25  1  0     0  0
  1  2  1  0     0  0
 66 67  2  0     0  0
 27 14  1  0     0  0
  2  3  1  1     0  0
 16 68  1  0     0  0
 63 11  1  0     0  0
  4  5  2  0     0  0
 11 69  1  1     0  0
  5  6  1  0     0  0
 12 70  1  0     0  0
 10 11  1  0     0  0
 70 71  2  0     0  0
 70  2  1  0     0  0
 14 15  1  0     0  0
  1 72  1  0     0  0
 15 16  1  0     0  0
 72 73  1  0     0  0
 16 17  2  0     0  0
 72 74  2  0     0  0
 34 35  1  0     0  0
 73 75  1  0     0  0
 35 36  1  0     0  0
 75 76  1  0     0  0
 36 37  1  0     0  0
 75 77  1  0     0  0
M  END