
  SciTegic01161211262D

 27 30  0  0  0  0            999 V2000
   -2.8714  -18.1996    0.0000 C   0  0
   -0.2720  -18.7504    0.0000 N   0  0
    0.4425  -19.1644    0.0000 C   0  0
    0.4413  -19.9902    0.0000 O   0  0
    1.1582  -18.7525    0.0000 C   0  0
    1.8711  -19.1673    0.0000 C   0  0
    2.5863  -18.7561    0.0000 N   0  0
    2.5880  -17.9296    0.0000 C   0  0
    1.8684  -17.5158    0.0000 C   0  0
    1.1561  -17.9293    0.0000 C   0  0
    3.3031  -17.5168    0.0000 O   0  0
    4.0182  -17.9297    0.0000 C   0  0
    4.0133  -18.7557    0.0000 C   0  0
    4.7275  -19.1686    0.0000 C   0  0
    5.4437  -18.7557    0.0000 C   0  0
    5.4412  -17.9257    0.0000 C   0  0
    4.7263  -17.5166    0.0000 C   0  0
   -0.9556  -19.2138    0.0000 C   0  0
   -1.7467  -18.9703    0.0000 C   0  0
   -0.2132  -17.9272    0.0000 C   0  0
   -2.0514  -18.2042    0.0000 N   0  0
   -0.8200  -17.3651    0.0000 C   0  0
   -1.6371  -17.4913    0.0000 C   0  0
   -3.4481  -17.6165    0.0000 C   0  0
   -4.0312  -18.1931    0.0000 C   0  0
   -3.4546  -18.7763    0.0000 C   0  0
    6.1593  -19.1678    0.0000 Cl  0  0
 13 14  1  0
  7  8  2  0
 14 15  2  0
  3  5  1  0
 15 16  1  0
  8  9  1  0
 16 17  2  0
 17 12  1  0
  2 18  1  0
  9 10  2  0
 18 19  1  0
 10  5  1  0
  2 20  1  0
  5  6  2  0
 19 21  1  0
  8 11  1  0
 20 22  1  0
  3  4  2  0
 21 23  1  0
 22 23  1  0
 21  1  1  0
  1 24  1  0
 11 12  1  0
  6  7  1  0
 12 13  2  0
 24 25  1  0
 25 26  1  0
 26  1  1  0
  2  3  1  0
 15 27  1  0
M  END