
  CDK    9/16/09,9:58

 21 24  0  0  0  0  0  0  0  0999 V2000
    3.0418    2.4431    0.0000 C   0  0  0  0  0  0  0  0  0  0  0  0
    3.0406    1.6154    0.0000 C   0  0  0  0  0  0  0  0  0  0  0  0
    3.7535    1.2024    0.0000 C   0  0  0  0  0  0  0  0  0  0  0  0
    3.7515    2.8558    0.0000 C   0  0  0  0  0  0  0  0  0  0  0  0
    4.4697    2.4470    0.0000 C   0  0  0  0  0  0  0  0  0  0  0  0
    4.4703    1.6200    0.0000 C   0  0  0  0  0  0  0  0  0  0  0  0
    5.2570    1.3649    0.0000 N   0  0  0  0  0  0  0  0  0  0  0  0
    5.7428    2.0344    0.0000 C   0  0  0  0  0  0  0  0  0  0  0  0
    5.2562    2.7030    0.0000 N   0  0  0  0  0  0  0  0  0  0  0  0
    6.5678    2.0349    0.0000 N   0  0  0  0  0  0  0  0  0  0  0  0
    6.9808    1.3207    0.0000 C   0  0  0  0  0  0  0  0  0  0  0  0
    6.5684    0.6095    0.0000 C   0  0  0  0  0  0  0  0  0  0  0  0
    6.9778   -0.1025    0.0000 C   0  0  0  0  0  0  0  0  0  0  0  0
    7.8033   -0.1062    0.0000 C   0  0  0  0  0  0  0  0  0  0  0  0
    7.8062    1.3267    0.0000 C   0  0  0  0  0  0  0  0  0  0  0  0
    8.2144    0.6100    0.0000 C   0  0  0  0  0  0  0  0  0  0  0  0
    9.0372    0.6060    0.0000 C   0  0  0  0  0  0  0  0  0  0  0  0
    9.4530    1.3179    0.0000 C   0  0  0  0  0  0  0  0  0  0  0  0
    9.0399    2.0355    0.0000 C   0  0  0  0  0  0  0  0  0  0  0  0
    8.2184    2.0359    0.0000 C   0  0  0  0  0  0  0  0  0  0  0  0
    8.2150   -0.8211    0.0000 C   0  0  0  0  0  0  0  0  0  0  0  0
  8 10  1  0  0  0  0 
  5  6  1  0  0  0  0 
 10 11  1  0  0  0  0 
 11 12  1  0  0  0  0 
  2  3  1  0  0  0  0 
  3  6  2  0  0  0  0 
 11 15  1  0  0  0  0 
 12 13  1  0  0  0  0 
 13 14  1  0  0  0  0 
 14 16  1  0  0  0  0 
  1  2  2  0  0  0  0 
  5  4  2  0  0  0  0 
 15 16  2  0  0  0  0 
  6  7  1  0  0  0  0 
 16 17  1  0  0  0  0 
  7  8  1  0  0  0  0 
 17 18  2  0  0  0  0 
  8  9  2  0  0  0  0 
 18 19  1  0  0  0  0 
  9  5  1  0  0  0  0 
 19 20  2  0  0  0  0 
 20 15  1  0  0  0  0 
  4  1  1  0  0  0  0 
 14 21  1  0  0  0  0 
M  END