
          02060813472D 1   1.00000     0.00000     0

 69 70  0     1  0            999 V2000
    6.3860   -4.1472    0.0000 C   0  0  0  0  0  0           0  0  0
    5.6697   -3.7246    0.0000 S   0  0  0  0  0  0           0  0  0
    4.9521   -4.1350    0.0000 S   0  0  0  0  0  0           0  0  0
    4.2440   -3.7201    0.0000 C   0  0  0  0  0  0           0  0  0
    4.2485   -2.8897    0.0000 C   0  0  0  0  0  0           0  0  0
    3.5330   -2.4714    0.0000 C   0  0  0  0  0  0           0  0  0
    3.5517   -1.6492    0.0000 N   0  0  0  0  0  0           0  0  0
    2.8228   -2.8775    0.0000 O   0  0  0  0  0  0           0  0  0
    2.8314   -1.2289    0.0000 C   0  0  1  0  0  0           0  0  0
    2.8399   -0.4004    0.0000 C   0  0  0  0  0  0           0  0  0
    2.1116   -1.6300    0.0000 C   0  0  0  0  0  0           0  0  0
    1.4139   -1.2099    0.0000 C   0  0  0  0  0  0           0  0  0
    1.4191   -0.3871    0.0000 C   0  0  0  0  0  0           0  0  0
    0.7025    0.0331    0.0000 C   0  0  0  0  0  0           0  0  0
   -0.0154   -0.3781    0.0000 C   0  0  0  0  0  0           0  0  0
   -0.0197   -1.2089    0.0000 C   0  0  0  0  0  0           0  0  0
    0.6867   -1.6165    0.0000 C   0  0  0  0  0  0           0  0  0
    3.5605    0.0036    0.0000 N   0  0  0  0  0  0           0  0  0
    2.1299    0.0085    0.0000 O   0  0  0  0  0  0           0  0  0
    4.2760   -0.0064    0.0000 C   0  0  2  0  0  0           0  0  0
    4.9876   -0.0083    0.0000 C   0  0  0  0  0  0           0  0  0
    5.7032   -0.4253    0.0000 N   0  0  0  0  0  0           0  0  0
    4.9922    0.8171    0.0000 O   0  0  0  0  0  0           0  0  0
    6.4183   -0.0213    0.0000 C   0  0  2  0  0  0           0  0  0
    7.1339   -0.4438    0.0000 C   0  0  0  0  0  0           0  0  0
    6.4228    0.8049    0.0000 C   0  0  0  0  0  0           0  0  0
    7.1426    1.2090    0.0000 C   0  0  0  0  0  0           0  0  0
    7.1565    2.0333    0.0000 C   0  0  0  0  0  0           0  0  0
    7.8764    2.4448    0.0000 N   0  0  0  0  0  0           0  0  0
    6.4409    2.4517    0.0000 O   0  0  0  0  0  0           0  0  0
    7.8474   -0.0397    0.0000 O   0  0  0  0  0  0           0  0  0
    7.1254   -1.2681    0.0000 N   0  0  0  0  0  0           0  0  0
    7.8345   -1.6830    0.0000 C   0  0  2  0  0  0           0  0  0
    7.8301   -2.5073    0.0000 C   0  0  0  0  0  0           0  0  0
    8.5462   -1.2808    0.0000 C   0  0  0  0  0  0           0  0  0
    9.2632   -1.7011    0.0000 C   0  0  0  0  0  0           0  0  0
    9.9864   -1.2898    0.0000 N   0  0  0  0  0  0           0  0  0
    9.2589   -2.5254    0.0000 O   0  0  0  0  0  0           0  0  0
    7.1103   -2.9114    0.0000 N   0  0  0  0  0  0           0  0  0
    8.5374   -2.9254    0.0000 O   0  0  0  0  0  0           0  0  0
    7.1019   -3.7471    0.0000 C   0  0  2  0  0  0           0  0  0
    7.8111   -4.1601    0.0000 C   0  0  0  0  0  0           0  0  0
    8.5234   -3.7558    0.0000 O   0  0  0  0  0  0           0  0  0
    4.2676   -0.8651    0.0000 C   0  0  2  0  0  0           0  0  0
    4.2754    0.8184    0.0000 H   0  0  0  0  0  0           0  0  0
    5.0102   -1.3254    0.0000 C   0  0  0  0  0  0           0  0  0
    4.9952   -2.2578    0.0000 C   0  0  0  0  0  0           0  0  0
    3.6202   -1.2278    0.0000 C   0  0  0  0  0  0           0  0  0
    7.8081   -4.9849    0.0000 N   0  0  0  0  0  0           0  0  0
    8.1049   -6.1122    0.0000 C   0  0  0  0  0  0           0  0  0
    8.5143   -5.3943    0.0000 C   0  0  3  0  0  0           0  0  0
    9.2322   -5.8100    0.0000 C   0  0  0  0  0  0           0  0  0
    9.2322   -6.6351    0.0000 N   0  0  0  0  0  0           0  0  0
    9.9480   -5.3943    0.0000 O   0  0  0  0  0  0           0  0  0
    9.9480   -7.0446    0.0000 C   0  0  2  0  0  0           0  0  0
    9.9480   -7.8696    0.0000 C   0  0  0  0  0  0           0  0  0
   10.6639   -6.6351    0.0000 C   0  0  0  0  0  0           0  0  0
   11.3764   -7.0446    0.0000 C   0  0  3  0  0  0           0  0  0
   12.0881   -6.6351    0.0000 C   0  0  0  0  0  0           0  0  0
   11.3764   -7.8696    0.0000 C   0  0  0  0  0  0           0  0  0
    9.2322   -8.2791    0.0000 O   0  0  0  0  0  0           0  0  0
   10.6639   -8.2791    0.0000 N   0  0  0  0  0  0           0  0  0
   10.6639   -9.1041    0.0000 C   0  0  0  0  0  0           0  0  0
   11.3764   -9.5177    0.0000 C   0  0  0  0  0  0           0  0  0
   12.0881   -9.1041    0.0000 N   0  0  0  0  0  0           0  0  0
   11.3764  -10.3429    0.0000 O   0  0  0  0  0  0           0  0  0
    8.9300   -4.6785    0.0000 C   0  0  0  0  0  0           0  0  0
   -0.7255    0.0424    0.0000 C   0  0  0  0  0  0           0  0  0
   -0.7183    0.8674    0.0000 C   0  0  0  0  0  0           0  0  0
 41  1  1  0     0  0
  1  2  1  0     0  0
  2  3  1  0     0  0
  3  4  1  0     0  0
  4  5  1  0     0  0
  5  6  1  0     0  0
  6  7  1  0     0  0
  6  8  2  0     0  0
  7  9  1  0     0  0
  9 10  1  0     0  0
  9 11  1  6     0  0
 11 12  1  0     0  0
 12 13  2  0     0  0
 13 14  1  0     0  0
 14 15  2  0     0  0
 15 16  1  0     0  0
 16 17  2  0     0  0
 17 12  1  0     0  0
 10 18  1  0     0  0
 10 19  2  0     0  0
 18 20  1  0     0  0
 20 21  1  0     0  0
 21 22  1  0     0  0
 21 23  2  0     0  0
 22 24  1  0     0  0
 24 25  1  0     0  0
 24 26  1  1     0  0
 26 27  1  0     0  0
 27 28  1  0     0  0
 28 29  1  0     0  0
 28 30  2  0     0  0
 25 31  2  0     0  0
 25 32  1  0     0  0
 32 33  1  0     0  0
 33 34  1  0     0  0
 33 35  1  1     0  0
 35 36  1  0     0  0
 36 37  1  0     0  0
 36 38  2  0     0  0
 34 39  1  0     0  0
 34 40  2  0     0  0
 39 41  1  0     0  0
 41 42  1  6     0  0
 42 43  2  0     0  0
 20 44  1  0     0  0
 20 45  1  1     0  0
 44 46  1  0     0  0
 46 47  1  0     0  0
 44 48  1  6     0  0
 42 49  1  0     0  0
 49 51  1  0     0  0
 50 51  1  0     0  0
 51 52  1  0     0  0
 52 53  1  0     0  0
 52 54  2  0     0  0
 53 55  1  0     0  0
 55 56  1  0     0  0
 55 57  1  1     0  0
 57 58  1  0     0  0
 58 59  1  0     0  0
 58 60  1  0     0  0
 56 61  2  0     0  0
 56 62  1  0     0  0
 62 63  1  0     0  0
 63 64  1  0     0  0
 64 65  1  0     0  0
 64 66  2  0     0  0
 51 67  1  0     0  0
 15 68  1  0     0  0
 68 69  1  0     0  0
M  END