
  SciTegic04021211102D

 30 32  0  0  0  0            999 V2000
   19.1819   -5.9708    0.0000 C   0  0
   19.1807   -6.7982    0.0000 C   0  0
   19.8956   -7.2110    0.0000 C   0  0
   20.6120   -6.7977    0.0000 C   0  0
   20.6091   -5.9672    0.0000 C   0  0
   19.8938   -5.5580    0.0000 C   0  0
   19.8954   -8.0360    0.0000 C   0  0
   19.8913   -4.7330    0.0000 N   0  0
   20.5576   -4.2474    0.0000 C   0  0
   20.3005   -3.4619    0.0000 C   0  0
   19.4740   -3.4660    0.0000 C   0  0
   19.2240   -4.2528    0.0000 N   0  0
   19.0546   -2.7555    0.0000 C   0  0
   19.4603   -2.0371    0.0000 C   0  0
   18.2297   -2.7634    0.0000 C   0  0
   18.7097   -1.9995    0.0000 C   0  0
   21.2734   -4.6577    0.0000 N   0  0
   21.9866   -4.2429    0.0000 C   0  0
   22.7023   -4.6532    0.0000 N   0  0
   21.9840   -3.4179    0.0000 O   0  0
   23.4074   -3.4152    0.0000 N   0  0
   23.4155   -4.2385    0.0000 C   0  0
   24.2010   -4.4853    0.0000 S   0  0
   24.6784   -3.8144    0.0000 C   0  0
   24.1879   -3.1532    0.0000 C   0  0
   19.1808   -8.4484    0.0000 C   0  0
   19.1806   -9.2734    0.0000 O   0  0
   18.4664   -8.0357    0.0000 O   0  0
   18.4660   -9.6857    0.0000 C   0  0
   18.4658  -10.5107    0.0000 C   0  0
  3  7  1  0
 13 15  1  0
  3  4  2  0
 13 16  1  0
  6  8  1  0
  9 17  1  0
  9 10  2  0
 17 18  1  0
 18 19  1  0
  4  5  1  0
 18 20  2  0
 19 22  1  0
 21 22  2  0
  2  3  1  0
  5  6  2  0
  8  9  1  0
 10 11  1  0
 11 12  2  0
 22 23  1  0
 23 24  1  0
 24 25  2  0
 25 21  1  0
 12  8  1  0
  7 26  1  0
  6  1  1  0
 26 27  1  0
 11 13  1  0
 26 28  2  0
  1  2  2  0
 27 29  1  0
 13 14  1  0
 29 30  1  0
M  END