
  Mrv0541 04051115152D          

 24 25  0  0  0  0            999 V2000
   -2.8028    2.0536    0.0000 O   0  0  0  0  0  0  0  0  0  0  0  0
   -2.0884    1.6411    0.0000 C   0  0  0  0  0  0  0  0  0  0  0  0
   -1.3739    2.0536    0.0000 O   0  0  0  0  0  0  0  0  0  0  0  0
   -2.0884    0.8161    0.0000 C   0  0  0  0  0  0  0  0  0  0  0  0
   -2.7558    0.3312    0.0000 S   0  0  0  0  0  0  0  0  0  0  0  0
   -2.5009   -0.4534    0.0000 C   0  0  0  0  0  0  0  0  0  0  0  0
   -1.6759   -0.4534    0.0000 C   0  0  0  0  0  0  0  0  0  0  0  0
   -1.4209    0.3312    0.0000 C   0  0  0  0  0  0  0  0  0  0  0  0
   -0.6363    0.5862    0.0000 C   0  0  0  0  0  0  0  0  0  0  0  0
   -0.0232    0.0341    0.0000 N   0  0  0  0  0  0  0  0  0  0  0  0
    0.7614    0.2891    0.0000 C   0  0  0  0  0  0  0  0  0  0  0  0
    0.9329    1.0960    0.0000 O   0  0  0  0  0  0  0  0  0  0  0  0
   -0.1947   -0.7728    0.0000 C   0  0  0  0  0  0  0  0  0  0  0  0
   -0.9794   -1.0278    0.0000 O   0  0  0  0  0  0  0  0  0  0  0  0
    0.4184   -1.3249    0.0000 C   0  0  0  0  0  0  0  0  0  0  0  0
    0.2468   -2.1319    0.0000 Br  0  0  0  0  0  0  0  0  0  0  0  0
    1.2030   -1.0699    0.0000 C   0  0  0  0  0  0  0  0  0  0  0  0
    1.3745   -0.2630    0.0000 N   0  0  0  0  0  0  0  0  0  0  0  0
    2.1591   -0.0080    0.0000 C   0  0  0  0  0  0  0  0  0  0  0  0
    2.3307    0.7989    0.0000 C   0  0  2  0  0  0  0  0  0  0  0  0
    1.7176    1.3510    0.0000 N   0  0  0  0  0  0  0  0  0  0  0  0
    3.1153    1.0539    0.0000 C   0  0  0  0  0  0  0  0  0  0  0  0
    3.2868    1.8609    0.0000 O   0  0  0  0  0  0  0  0  0  0  0  0
    3.7284    0.5018    0.0000 O   0  0  0  0  0  0  0  0  0  0  0  0
  6  5  1  0  0  0  0
  7  6  2  0  0  0  0
  4  5  1  0  0  0  0
  8  7  1  0  0  0  0
  8  4  2  0  0  0  0
  9  8  1  0  0  0  0
  4  2  1  0  0  0  0
 19 18  1  0  0  0  0
 19 20  1  0  0  0  0
 17 18  1  0  0  0  0
 15 17  2  0  0  0  0
 11 18  1  0  0  0  0
 16 15  1  0  0  0  0
 15 13  1  0  0  0  0
 11 12  2  0  0  0  0
 11 10  1  0  0  0  0
 13 10  1  0  0  0  0
 13 14  2  0  0  0  0
  9 10  1  0  0  0  0
 22 24  2  0  0  0  0
  2  3  2  0  0  0  0
  2  1  1  0  0  0  0
 22 20  1  0  0  0  0
 22 23  1  0  0  0  0
 20 21  1  6  0  0  0
M  END