
          11280714552D 1   1.00000     0.00000     0

 32 35  0     0  0            999 V2000
   -1.9833   -1.9875    0.0000 O   0  0  0  0  0  0           0  0  0
   -1.9833   -3.6417    0.0000 O   0  0  0  0  0  0           0  0  0
   -1.2708   -2.4042    0.0000 C   0  0  3  0  0  0           0  0  0
   -1.2708   -3.2292    0.0000 C   0  0  3  0  0  0           0  0  0
   -2.6958   -2.4042    0.0000 C   0  0  0  0  0  0           0  0  0
    3.0167   -3.2417    0.0000 C   0  0  0  0  0  0           0  0  0
   -2.7000   -3.2292    0.0000 C   0  0  0  0  0  0           0  0  0
   -0.5500   -1.9917    0.0000 C   0  0  0  0  0  0           0  0  0
    3.0167   -2.4250    0.0000 C   0  0  0  0  0  0           0  0  0
    3.7292   -3.6625    0.0000 C   0  0  0  0  0  0           0  0  0
    0.1625   -2.4125    0.0000 C   0  0  0  0  0  0           0  0  0
   -0.5500   -1.1750    0.0000 C   0  0  0  0  0  0           0  0  0
    2.3042   -3.6542    0.0000 O   0  0  0  0  0  0           0  0  0
   -0.5583   -3.6417    0.0000 C   0  0  0  0  0  0           0  0  0
    0.1625   -3.2375    0.0000 N   0  0  0  0  0  0           0  0  0
    0.1625   -0.7625    0.0000 C   0  0  0  0  0  0           0  0  0
    0.8750   -2.0042    0.0000 C   0  0  0  0  0  0           0  0  0
    0.8792   -1.1750    0.0000 C   0  0  0  0  0  0           0  0  0
    2.3042   -2.0125    0.0000 O   0  0  0  0  0  0           0  0  0
    3.7250   -4.4875    0.0000 O   0  0  0  0  0  0           0  0  0
    4.4500   -2.4292    0.0000 C   0  0  0  0  0  0           0  0  0
   -3.4125   -1.9917    0.0000 C   0  0  0  0  0  0           0  0  0
   -3.4125   -3.6417    0.0000 C   0  0  0  0  0  0           0  0  0
    3.7292   -2.0125    0.0000 C   0  0  0  0  0  0           0  0  0
    4.4417   -3.2542    0.0000 C   0  0  0  0  0  0           0  0  0
    0.8750   -3.6500    0.0000 C   0  0  0  0  0  0           0  0  0
    1.5917   -3.2417    0.0000 C   0  0  0  0  0  0           0  0  0
    1.5917   -0.7667    0.0000 C   0  0  0  0  0  0           0  0  0
    3.0042   -4.8917    0.0000 C   0  0  0  0  0  0           0  0  0
    2.3042   -1.1875    0.0000 C   0  0  0  0  0  0           0  0  0
   -4.1250   -2.4042    0.0000 C   0  0  0  0  0  0           0  0  0
   -4.1250   -3.2292    0.0000 C   0  0  0  0  0  0           0  0  0
  2  7  1  0     0  0
  3  1  1  0     0  0
  4  3  1  0     0  0
  5  1  1  0     0  0
  6 13  1  0     0  0
  7  5  1  0     0  0
  3  8  1  0     0  0
  9  6  1  0     0  0
 10  6  2  0     0  0
 11  8  2  0     0  0
 12  8  1  0     0  0
 13 27  1  0     0  0
  4 14  1  0     0  0
 15 14  1  0     0  0
 16 12  2  0     0  0
 17 11  1  0     0  0
 18 16  1  0     0  0
 19  9  1  0     0  0
 20 10  1  0     0  0
 21 25  2  0     0  0
 22  5  2  0     0  0
 23  7  2  0     0  0
 24  9  2  0     0  0
 25 10  1  0     0  0
 26 15  1  0     0  0
 27 26  1  0     0  0
 28 18  1  0     0  0
 29 20  1  0     0  0
 30 19  1  0     0  0
 31 22  1  0     0  0
 32 31  2  0     0  0
  2  4  1  0     0  0
 32 23  1  0     0  0
 18 17  2  0     0  0
 21 24  1  0     0  0
M  END