
  SciTegic02271515072D

 28 31  0  0  0  0            999 V2000
   12.0129  -14.1811    0.0000 C   0  0
   12.0118  -15.0007    0.0000 C   0  0
   12.7198  -15.4096    0.0000 N   0  0
   12.7181  -13.7723    0.0000 C   0  0
   13.4267  -14.1775    0.0000 C   0  0
   13.4269  -15.0007    0.0000 C   0  0
   14.2099  -15.2549    0.0000 S   0  0
   14.6936  -14.5887    0.0000 C   0  0
   14.2095  -13.9230    0.0000 C   0  0
   13.9148  -12.5386    0.0000 C   0  0
   13.1155  -12.7087    0.0000 O   0  0
   11.3091  -13.7685    0.0000 C   0  0
   11.3179  -12.9516    0.0000 C   0  0
   10.6149  -12.5391    0.0000 C   0  0
    9.9047  -12.9423    0.0000 C   0  0
    9.9018  -13.7624    0.0000 C   0  0
   10.6054  -14.1712    0.0000 C   0  0
    9.1992  -12.5299    0.0000 O   0  0
    9.1928  -14.1687    0.0000 O   0  0
    8.4864  -13.7579    0.0000 C   0  0
    8.4893  -12.9347    0.0000 C   0  0
   14.5313  -13.1257    0.0000 N   0  0
   14.1399  -11.6924    0.0000 C   0  0
   14.9868  -11.4661    0.0000 C   0  0
   15.2129  -10.6242    0.0000 C   0  0
   14.5956  -10.0027    0.0000 C   0  0
   13.7488  -10.2290    0.0000 C   0  0
   13.5192  -11.0769    0.0000 C   0  0
  1  2  2  0
  2  3  1  0
  3  6  2  0
  5  4  2  0
  4  1  1  0
  5  6  1  0
  6  7  1  0
  7  8  1  0
  8  9  2  0
  9  5  1  0
  9 22  1  0
 22 10  1  0
 23 10  1  0
 10 11  2  0
  1 12  1  0
 12 13  2  0
 13 14  1  0
 14 15  2  0
 15 16  1  0
 16 17  2  0
 17 12  1  0
 15 18  1  0
 16 19  1  0
 19 20  1  0
 18 21  1  0
 23 24  1  0
 23 28  1  0
 24 25  1  0
 25 26  1  0
 26 27  1  0
 27 28  1  0
M  END