
  SciTegic02011310422D

 24 27  0  0  0  0            999 V2000
    7.6514  -22.8636    0.0000 C   0  0
    8.3698  -23.2716    0.0000 C   0  0
    9.0810  -22.8535    0.0000 C   0  0
    9.0738  -22.0274    0.0000 C   0  0
    8.3554  -21.6193    0.0000 C   0  0
    7.6442  -22.0374    0.0000 C   0  0
   11.2320  -24.0706    0.0000 C   0  0
   11.2269  -23.2480    0.0000 C   0  0
   10.5085  -22.8399    0.0000 C   0  0
    9.7973  -23.2580    0.0000 C   0  0
    9.8045  -24.0842    0.0000 C   0  0
   10.5207  -24.4887    0.0000 N   0  0
   12.0211  -24.3217    0.0000 N   0  0
   12.0127  -22.9860    0.0000 C   0  0
   12.5004  -23.6483    0.0000 C   0  0
   12.4330  -22.2764    0.0000 C   0  0
   13.2574  -22.2856    0.0000 C   0  0
   13.6784  -21.5760    0.0000 C   0  0
   13.2750  -20.8572    0.0000 C   0  0
   12.4506  -20.8480    0.0000 C   0  0
   12.0297  -21.5576    0.0000 C   0  0
    6.9402  -23.2849    0.0000 C   0  0
   14.5033  -21.5859    0.0000 N   0  0
    6.2323  -23.7061    0.0000 N   0  0
  3  4  1  0
  4  5  2  0
  5  6  1  0
  1  6  2  0
  7  8  1  0
  8  9  2  0
  9 10  1  0
 10 11  2  0
 11 12  1  0
  7 12  2  0
 14 15  2  0
 13 15  1  0
  7 13  1  0
  8 14  1  0
 16 17  1  0
 17 18  2  0
 18 19  1  0
 19 20  2  0
 20 21  1  0
 16 21  2  0
 14 16  1  0
  3 10  1  0
  1 22  1  0
  1  2  1  0
 18 23  1  0
  2  3  2  0
 22 24  3  0
M  END