
  SciTegic01091216402D

 22 23  0  0  0  0            999 V2000
    2.4259   -2.2581    0.0000 N   0  0
    2.5110   -3.0802    0.0000 N   0  0
    3.3178   -3.2528    0.0000 C   0  0
    3.7313   -2.5375    0.0000 C   0  0
    3.1788   -1.9258    0.0000 C   0  0
    1.7127   -1.8482    0.0000 C   0  0
    0.9983   -2.2609    0.0000 N   0  0
    1.7117   -1.0220    0.0000 N   0  0
    4.2821   -1.9223    0.0000 C   0  0
    4.3974   -3.0239    0.0000 C   0  0
    2.4261   -0.6093    0.0000 C   0  0
    3.1414   -1.0228    0.0000 C   0  0
    0.2825   -1.8433    0.0000 S   0  0
    0.6929   -1.1342    0.0000 O   0  0
   -0.4292   -2.2630    0.0000 C   0  0
   -0.4208   -3.0879    0.0000 C   0  0
   -1.1283   -3.5076    0.0000 C   0  0
   -1.8483   -3.1024    0.0000 C   0  0
   -1.8567   -2.2774    0.0000 C   0  0
   -1.1450   -1.8577    0.0000 C   0  0
   -1.1200   -4.3326    0.0000 Cl  0  0
   -0.3083   -1.2542    0.0000 O   0  0
  1  2  1  0
  2  3  2  0
  3  4  1  0
  4  5  1  0
  1  5  1  0
  6  7  2  0
  6  8  1  0
  1  6  1  0
  4  9  1  0
  4 10  1  0
 11 12  1  0
  8 11  1  0
 13 14  2  0
 15 16  1  0
 16 17  2  0
 17 18  1  0
 18 19  2  0
 19 20  1  0
 15 20  2  0
 13 15  1  0
 17 21  1  0
  7 13  1  0
 13 22  2  0
M  END