
  CDK    9/16/09,9:58

 22 25  0  0  0  0  0  0  0  0999 V2000
    3.6239  -14.4881    0.0000 C   0  0  0  0  0  0  0  0  0  0  0  0
    3.6226  -15.3158    0.0000 C   0  0  0  0  0  0  0  0  0  0  0  0
    4.3356  -15.7286    0.0000 C   0  0  0  0  0  0  0  0  0  0  0  0
    4.3336  -14.0753    0.0000 C   0  0  0  0  0  0  0  0  0  0  0  0
    5.0518  -14.4842    0.0000 C   0  0  0  0  0  0  0  0  0  0  0  0
    5.0524  -15.3112    0.0000 C   0  0  0  0  0  0  0  0  0  0  0  0
    5.8391  -15.5663    0.0000 N   0  0  0  0  0  0  0  0  0  0  0  0
    6.3248  -14.8968    0.0000 C   0  0  0  0  0  0  0  0  0  0  0  0
    5.8381  -14.2281    0.0000 N   0  0  0  0  0  0  0  0  0  0  0  0
    7.1498  -14.8962    0.0000 N   0  0  0  0  0  0  0  0  0  0  0  0
    7.5629  -15.6104    0.0000 C   0  0  0  0  0  0  0  0  0  0  0  0
    7.1503  -16.3215    0.0000 C   0  0  0  0  0  0  0  0  0  0  0  0
    7.5599  -17.0337    0.0000 C   0  0  0  0  0  0  0  0  0  0  0  0
    8.3852  -17.0373    0.0000 C   0  0  0  0  0  0  0  0  0  0  0  0
    8.3883  -15.6044    0.0000 C   0  0  0  0  0  0  0  0  0  0  0  0
    8.7963  -16.3212    0.0000 C   0  0  0  0  0  0  0  0  0  0  0  0
    9.6192  -16.3252    0.0000 C   0  0  0  0  0  0  0  0  0  0  0  0
   10.0350  -15.6131    0.0000 C   0  0  0  0  0  0  0  0  0  0  0  0
    9.6220  -14.8957    0.0000 C   0  0  0  0  0  0  0  0  0  0  0  0
    8.8004  -14.8951    0.0000 C   0  0  0  0  0  0  0  0  0  0  0  0
   10.0351  -14.1816    0.0000 C   0  0  0  0  0  0  0  0  0  0  0  0
   10.0282  -17.0416    0.0000 C   0  0  0  0  0  0  0  0  0  0  0  0
  5  6  1  0  0  0  0 
 10 11  1  0  0  0  0 
 11 12  1  0  0  0  0 
  2  3  1  0  0  0  0 
  3  6  2  0  0  0  0 
 11 15  1  0  0  0  0 
 12 13  1  0  0  0  0 
 13 14  1  0  0  0  0 
 14 16  1  0  0  0  0 
  1  2  2  0  0  0  0 
  5  4  2  0  0  0  0 
 15 16  2  0  0  0  0 
  6  7  1  0  0  0  0 
 16 17  1  0  0  0  0 
  7  8  1  0  0  0  0 
 17 18  2  0  0  0  0 
  8  9  2  0  0  0  0 
 18 19  1  0  0  0  0 
  9  5  1  0  0  0  0 
 19 20  2  0  0  0  0 
 20 15  1  0  0  0  0 
  4  1  1  0  0  0  0 
 19 21  1  0  0  0  0 
  8 10  1  0  0  0  0 
 17 22  1  0  0  0  0 
M  END