
  SciTegic05171617272D

 32 35  0  0  1  0            999 V2000
    2.9230   -7.3009    0.0000 C   0  0
    2.0463   -6.4815    0.0000 O   0  0
    2.3840   -5.0218    0.0000 C   0  0
    1.4028   -3.8873    0.0000 N   0  0
    2.1852   -2.6281    0.0000 C   0  0
    3.6393   -2.9446    0.0000 C   0  0
    3.7662   -4.4393    0.0000 S   0  0
    1.7138   -1.2033    0.0000 C   0  0
    2.5889    0.0182    0.0000 N   0  0
    1.7138    1.2033    0.0000 N   0  0
    2.0825    2.3453    0.0000 C   0  0
    0.2917    0.7475    0.0000 C   0  0
   -1.0028    1.5132    0.0000 N   0  0
   -2.3155    0.7475    0.0000 C   0  0
   -3.6217    1.4865    0.0000 O   0  0
   -4.9153    0.7255    0.0000 C   0  0
   -6.2216    1.4644    0.0000 C   0  0
   -6.2318    2.6643    0.0000 O   0  0
   -7.5151    0.7033    0.0000 N   0  0
   -8.8215    1.4422    0.0000 C   0  0  1  0  0  0
   -8.8317    2.6421    0.0000 C   0  0
  -10.1150    0.6811    0.0000 C   0  0
  -11.4218    1.4177    0.0000 C   0  0
  -12.7130    0.6544    0.0000 C   0  0
  -12.6977   -0.8455    0.0000 C   0  0
  -13.7307   -1.4561    0.0000 C   0  0
  -11.3910   -1.5821    0.0000 C   0  0
  -10.0997   -0.8189    0.0000 C   0  0
   -2.3155   -0.7475    0.0000 C   0  0
   -1.0028   -1.5132    0.0000 C   0  0
   -0.9991   -2.7132    0.0000 C   0  0
    0.2917   -0.7475    0.0000 C   0  0
  1  2  1  0
  2  3  1  0
  3  4  2  0
  4  5  1  0
  5  6  2  0
  6  7  1  0
  3  7  1  0
  5  8  1  0
  8  9  2  0
  9 10  1  0
 10 11  1  0
 10 12  1  0
 12 13  2  0
 13 14  1  0
 14 15  1  0
 15 16  1  0
 16 17  1  0
 17 18  2  0
 17 19  1  0
 19 20  1  0
 20 21  1  6
 20 22  1  0
 22 23  2  0
 23 24  1  0
 24 25  2  0
 25 26  1  0
 25 27  1  0
 27 28  2  0
 22 28  1  0
 14 29  2  0
 29 30  1  0
 30 31  1  0
 30 32  2  0
  8 32  1  0
 12 32  1  0
M  END