
  SciTegic06281210282D

 33 36  0  0  0  0            999 V2000
    5.0083  -18.1583    0.0000 O   0  0
    5.0125  -18.9833    0.0000 S   0  0
    5.7249  -18.5672    0.0000 O   0  0
    1.7403  -20.1977    0.0000 C   0  0
    1.7403  -21.0227    0.0000 C   0  0
    2.4547  -21.4352    0.0000 C   0  0
    3.1692  -21.0227    0.0000 C   0  0
    3.1692  -20.1977    0.0000 C   0  0
    2.4547  -19.7852    0.0000 C   0  0
    3.9528  -21.2787    0.0000 N   0  0
    4.4387  -20.6102    0.0000 N   0  0
    3.9538  -19.9428    0.0000 C   0  0
    2.4547  -18.9602    0.0000 O   0  0
    1.7403  -18.5477    0.0000 C   0  0
    3.9541  -22.1037    0.0000 C   0  0
    3.2402  -22.5173    0.0000 C   0  0
    2.5252  -22.1059    0.0000 C   0  0
    1.8113  -22.5195    0.0000 C   0  0
    1.8126  -23.3445    0.0000 C   0  0
    2.5276  -23.7559    0.0000 C   0  0
    3.2415  -23.3423    0.0000 C   0  0
    4.2088  -19.1582    0.0000 N   0  0
    5.5678  -19.5998    0.0000 C   0  0
    5.3963  -20.4054    0.0000 C   0  0
    6.1107  -20.8180    0.0000 C   0  0
    6.7239  -20.2659    0.0000 C   0  0
    6.3882  -19.5123    0.0000 S   0  0
    7.5309  -20.4374    0.0000 Cl  0  0
    2.5288  -24.5809    0.0000 C   0  0
    1.8150  -24.9944    0.0000 N   0  0
    1.0999  -24.5830    0.0000 C   0  0
    0.3860  -24.9965    0.0000 C   0  0
    1.0987  -23.7580    0.0000 O   0  0
 12  8  1  0
  9 13  1  0
 13 14  1  0
 10 15  1  0
 15 16  1  0
 16 17  2  0
 17 18  1  0
 18 19  2  0
 19 20  1  0
 20 21  2  0
 21 16  1  0
 12 22  1  0
 22  2  1  0
  2  1  2  0
  2 23  1  0
 23 24  2  0
  3  2  2  0
  4  5  2  0
  5  6  1  0
  6  7  2  0
 24 25  1  0
 25 26  2  0
 26 27  1  0
 27 23  1  0
  7  8  1  0
 26 28  1  0
  8  9  2  0
 20 29  1  0
  9  4  1  0
 29 30  1  0
  7 10  1  0
 30 31  1  0
 10 11  1  0
 31 32  1  0
 11 12  2  0
 31 33  2  0
M  END