
          11280715372D 1   1.00000     0.00000     0

 22 24  0     0  0            999 V2000
   -1.1208   -0.3792    0.0000 C   0  0  0  0  0  0           0  0  0
   -0.6083   -0.6792    0.0000 C   0  0  0  0  0  0           0  0  0
   -0.0833   -0.3792    0.0000 C   0  0  0  0  0  0           0  0  0
   -0.0833    0.2208    0.0000 C   0  0  0  0  0  0           0  0  0
   -1.1208    0.2208    0.0000 C   0  0  0  0  0  0           0  0  0
   -0.6083    0.5208    0.0000 O   0  0  0  0  0  0           0  0  0
   -1.6375   -0.6792    0.0000 C   0  0  0  0  0  0           0  0  0
   -1.6375    0.5208    0.0000 C   0  0  0  0  0  0           0  0  0
   -2.1625   -0.3792    0.0000 C   0  0  0  0  0  0           0  0  0
   -2.1625    0.2208    0.0000 C   0  0  0  0  0  0           0  0  0
   -0.6083   -1.2792    0.0000 O   0  0  0  0  0  0           0  0  0
    0.4417    0.5208    0.0000 C   0  0  0  0  0  0           0  0  0
   -2.7000    0.5083    0.0000 O   0  0  0  0  0  0           0  0  0
   -1.6333   -1.2792    0.0000 O   0  0  0  0  0  0           0  0  0
   -3.2208    0.1833    0.0000 C   0  0  3  0  0  0           0  0  0
    0.9625    0.2208    0.0000 C   0  0  0  0  0  0           0  0  0
    0.4417    1.1208    0.0000 C   0  0  0  0  0  0           0  0  0
   -3.7458    0.4708    0.0000 C   0  0  0  0  0  0           0  0  0
   -3.1875   -0.4167    0.0000 C   0  0  0  0  0  0           0  0  0
    0.9625    1.4250    0.0000 C   0  0  0  0  0  0           0  0  0
    1.4875    0.5208    0.0000 C   0  0  0  0  0  0           0  0  0
    1.4875    1.1208    0.0000 C   0  0  0  0  0  0           0  0  0
  2  1  1  0     0  0
  3  2  1  0     0  0
  4  6  1  0     0  0
  5  1  2  0     0  0
  6  5  1  0     0  0
  7  1  1  0     0  0
  8  5  1  0     0  0
  9  7  2  0     0  0
 10  9  1  0     0  0
 11  2  2  0     0  0
 12  4  1  0     0  0
 13 10  1  0     0  0
 14  7  1  0     0  0
 15 13  1  0     0  0
 16 12  2  0     0  0
 17 12  1  0     0  0
 18 15  1  0     0  0
 19 15  1  0     0  0
 20 17  2  0     0  0
 21 16  1  0     0  0
 22 20  1  0     0  0
 10  8  2  0     0  0
  4  3  2  0     0  0
 22 21  2  0     0  0
M  END