
  SciTegic02271515072D

 28 31  0  0  0  0            999 V2000
    4.2826  -13.9459    0.0000 C   0  0
    4.2815  -14.7654    0.0000 C   0  0
    4.9895  -15.1744    0.0000 C   0  0
    4.9878  -13.5370    0.0000 C   0  0
    5.6964  -13.9423    0.0000 C   0  0
    5.6966  -14.7654    0.0000 C   0  0
    6.4796  -15.0196    0.0000 O   0  0
    6.9633  -14.3535    0.0000 N   0  0
    6.4792  -13.6877    0.0000 C   0  0
    6.1845  -12.3033    0.0000 C   0  0
    5.3852  -12.4735    0.0000 O   0  0
    3.5789  -13.5332    0.0000 C   0  0
    3.5876  -12.7164    0.0000 C   0  0
    2.8847  -12.3038    0.0000 C   0  0
    2.1744  -12.7070    0.0000 C   0  0
    2.1715  -13.5271    0.0000 C   0  0
    2.8751  -13.9360    0.0000 C   0  0
    1.4689  -12.2947    0.0000 O   0  0
    1.4625  -13.9335    0.0000 O   0  0
    0.7561  -13.5226    0.0000 C   0  0
    0.7590  -12.6994    0.0000 C   0  0
    6.8010  -12.8905    0.0000 N   0  0
    6.4096  -11.4572    0.0000 C   0  0
    7.2565  -11.2308    0.0000 C   0  0
    7.4826  -10.3889    0.0000 C   0  0
    6.8653   -9.7674    0.0000 C   0  0
    6.0185   -9.9938    0.0000 C   0  0
    5.7889  -10.8416    0.0000 C   0  0
  1  2  2  0
  2  3  1  0
  3  6  2  0
  5  4  2  0
  4  1  1  0
  5  6  1  0
  6  7  1  0
  7  8  1  0
  8  9  2  0
  9  5  1  0
  9 22  1  0
 22 10  1  0
 23 10  1  0
 10 11  2  0
  1 12  1  0
 12 13  2  0
 13 14  1  0
 14 15  2  0
 15 16  1  0
 16 17  2  0
 17 12  1  0
 15 18  1  0
 16 19  1  0
 19 20  1  0
 18 21  1  0
 23 24  1  0
 23 28  1  0
 24 25  1  0
 25 26  1  0
 26 27  1  0
 27 28  1  0
M  END