
          11280715502D 1   1.00000     0.00000     0

 29 32  0     0  0            999 V2000
   -1.0583   -6.4708    0.0000 C   0  0  3  0  0  0           0  0  0
   -1.0583   -7.2958    0.0000 C   0  0  0  0  0  0           0  0  0
   -0.3463   -7.7042    0.0000 C   0  0  0  0  0  0           0  0  0
    0.3657   -7.2958    0.0000 N   0  0  3  0  0  0           0  0  0
    0.3657   -6.4708    0.0000 C   0  0  0  0  0  0           0  0  0
   -0.3463   -6.0542    0.0000 C   0  0  0  0  0  0           0  0  0
   -1.7740   -6.0604    0.0000 C   0  0  0  0  0  0           0  0  0
   -2.4873   -6.4750    0.0000 C   0  0  0  0  0  0           0  0  0
   -3.2458   -6.1400    0.0000 C   0  0  0  0  0  0           0  0  0
   -3.7961   -6.7547    0.0000 N   0  0  0  0  0  0           0  0  0
   -3.3815   -7.4680    0.0000 C   0  0  0  0  0  0           0  0  0
   -2.5751   -7.2940    0.0000 N   0  0  0  0  0  0           0  0  0
    1.0796   -7.7094    0.0000 C   0  0  0  0  0  0           0  0  0
    1.7946   -7.2979    0.0000 C   0  0  0  0  0  0           0  0  0
    2.5085   -7.7114    0.0000 C   0  0  0  0  0  0           0  0  0
    3.2236   -7.3000    0.0000 O   0  0  0  0  0  0           0  0  0
    3.9375   -7.7135    0.0000 C   0  0  0  0  0  0           0  0  0
    3.9335   -8.5386    0.0000 C   0  0  0  0  0  0           0  0  0
    4.6466   -8.9520    0.0000 C   0  0  0  0  0  0           0  0  0
    5.3626   -8.5405    0.0000 C   0  0  0  0  0  0           0  0  0
    5.3612   -7.7112    0.0000 C   0  0  0  0  0  0           0  0  0
    4.6475   -7.3015    0.0000 C   0  0  0  0  0  0           0  0  0
    6.1554   -7.2681    0.0000 C   0  0  0  0  0  0           0  0  0
    6.8767   -7.6684    0.0000 N   0  0  3  0  0  0           0  0  0
    6.8843   -8.4909    0.0000 C   0  0  0  0  0  0           0  0  0
    7.6015   -8.8912    0.0000 C   0  0  0  0  0  0           0  0  0
    8.3114   -8.4701    0.0000 C   0  0  0  0  0  0           0  0  0
    8.2994   -7.6442    0.0000 C   0  0  0  0  0  0           0  0  0
    7.5775   -7.2394    0.0000 C   0  0  0  0  0  0           0  0  0
 13 14  1  0     0  0
  1  7  1  0     0  0
 14 15  1  0     0  0
  1  2  1  0     0  0
 15 16  1  0     0  0
  7  8  1  0     0  0
 16 17  1  0     0  0
  8  9  2  0     0  0
 17 18  2  0     0  0
  1  6  1  0     0  0
 18 19  1  0     0  0
  2  3  1  0     0  0
 19 20  2  0     0  0
  3  4  1  0     0  0
 20 21  1  0     0  0
  4  5  1  0     0  0
 21 22  2  0     0  0
 22 17  1  0     0  0
  9 10  1  0     0  0
 21 23  1  0     0  0
 10 11  1  0     0  0
 23 24  1  0     0  0
 24 25  1  0     0  0
 11 12  2  0     0  0
 12  8  1  0     0  0
  5  6  1  0     0  0
  4 13  1  0     0  0
 24 29  1  0     0  0
 25 26  1  0     0  0
 26 27  1  0     0  0
 27 28  1  0     0  0
 28 29  1  0     0  0
M  END