
  CDK    9/16/09,9:44

 18 19  0  0  0  0  0  0  0  0999 V2000
   14.0652   -2.3666    0.0000 C   0  0  0  0  0  0  0  0  0  0  0  0
   14.0641   -3.1940    0.0000 C   0  0  0  0  0  0  0  0  0  0  0  0
   14.7789   -3.6069    0.0000 C   0  0  0  0  0  0  0  0  0  0  0  0
   15.4953   -3.1935    0.0000 C   0  0  0  0  0  0  0  0  0  0  0  0
   15.4925   -2.3630    0.0000 C   0  0  0  0  0  0  0  0  0  0  0  0
   14.7771   -1.9539    0.0000 C   0  0  0  0  0  0  0  0  0  0  0  0
   13.3507   -1.9543    0.0000 C   0  0  0  0  0  0  0  0  0  0  0  0
   12.6363   -2.3670    0.0000 C   0  0  0  0  0  0  0  0  0  0  0  0
   11.8873   -2.0291    0.0000 N   0  0  0  0  0  0  0  0  0  0  0  0
   11.3354   -2.6423    0.0000 C   0  0  0  0  0  0  0  0  0  0  0  0
   11.7481   -3.3567    0.0000 N   0  0  0  0  0  0  0  0  0  0  0  0
   12.5550   -3.1849    0.0000 C   0  0  0  0  0  0  0  0  0  0  0  0
   16.2054   -1.9478    0.0000 C   0  0  0  0  0  0  0  0  0  0  0  0
   16.9167   -1.5292    0.0000 C   0  0  0  0  0  0  0  0  0  0  0  0
   17.6277   -1.1107    0.0000 C   0  0  0  0  0  0  0  0  0  0  0  0
   18.3375   -0.6917    0.0000 C   0  0  0  0  0  0  0  0  0  0  0  0
   18.0466   -1.8214    0.0000 C   0  0  0  0  0  0  0  0  0  0  0  0
   17.2093   -0.3996    0.0000 C   0  0  0  0  0  0  0  0  0  0  0  0
  4  5  1  0  0  0  0 
  2  3  1  0  0  0  0 
  5  6  2  0  0  0  0 
  9 10  2  0  0  0  0 
 10 11  1  0  0  0  0 
 11 12  1  0  0  0  0 
 12  8  2  0  0  0  0 
  6  1  1  0  0  0  0 
  5 13  1  0  0  0  0 
  1  2  2  0  0  0  0 
 13 14  3  0  0  0  0 
  1  7  1  0  0  0  0 
 14 15  1  0  0  0  0 
  3  4  2  0  0  0  0 
 15 16  1  0  0  0  0 
  7  8  1  0  0  0  0 
 15 17  1  0  0  0  0 
  8  9  1  0  0  0  0 
 15 18  1  0  0  0  0 
M  END