
          11280714512D 1   1.00000     0.00000     0

 16 17  0     0  0            999 V2000
    2.7250   -2.7417    0.0000 C   0  0  0  0  0  0           0  0  0
    2.7250   -3.5667    0.0000 C   0  0  0  0  0  0           0  0  0
    4.0000   -3.1417    0.0000 C   0  0  0  0  0  0           0  0  0
    3.5125   -2.4792    0.0000 S   0  0  0  0  0  0           0  0  0
    3.5125   -3.8167    0.0000 N   0  0  0  0  0  0           0  0  0
    2.0042   -2.3292    0.0000 C   0  0  0  0  0  0           0  0  0
    1.3000   -2.7417    0.0000 C   0  0  0  0  0  0           0  0  0
    2.0042   -3.9792    0.0000 C   0  0  0  0  0  0           0  0  0
    4.8250   -3.1417    0.0000 O   0  0  0  0  0  0           0  0  0
    1.3000   -3.5667    0.0000 C   0  0  0  0  0  0           0  0  0
    2.0000   -1.5042    0.0000 C   0  0  3  0  0  0           0  0  0
    2.7250   -0.2667    0.0000 N   0  0  0  0  0  0           0  0  0
    2.0042   -4.8042    0.0000 O   0  0  0  0  0  0           0  0  0
    1.2875   -1.0917    0.0000 O   0  0  0  0  0  0           0  0  0
    2.7250   -1.0917    0.0000 C   0  0  0  0  0  0           0  0  0
    3.4375    0.1333    0.0000 C   0  0  0  0  0  0           0  0  0
  2  1  2  0     0  0
  3  4  1  0     0  0
  4  1  1  0     0  0
  5  2  1  0     0  0
  6  1  1  0     0  0
  7  6  2  0     0  0
  8  2  1  0     0  0
  9  3  1  0     0  0
 10  7  1  0     0  0
 11  6  1  0     0  0
 12 15  1  0     0  0
 13  8  1  0     0  0
 14 11  1  0     0  0
 15 11  1  0     0  0
 16 12  1  0     0  0
  3  5  2  0     0  0
  8 10  2  0     0  0
M  END