
  CDK    9/16/09,9:52

 19 21  0  0  0  0  0  0  0  0999 V2000
   -2.1470  -14.2104    0.0000 N   0  0  0  0  0  0  0  0  0  0  0  0
   -2.1481  -15.0376    0.0000 C   0  0  0  0  0  0  0  0  0  0  0  0
   -1.4334  -15.4504    0.0000 C   0  0  0  0  0  0  0  0  0  0  0  0
   -0.7171  -15.0372    0.0000 C   0  0  0  0  0  0  0  0  0  0  0  0
   -0.7199  -14.2067    0.0000 N   0  0  0  0  0  0  0  0  0  0  0  0
   -1.4352  -13.7977    0.0000 C   0  0  0  0  0  0  0  0  0  0  0  0
   -0.0044  -15.4476    0.0000 N   0  0  0  0  0  0  0  0  0  0  0  0
   -0.0051  -16.2735    0.0000 C   0  0  0  0  0  0  0  0  0  0  0  0
    0.7059  -16.6847    0.0000 C   0  0  0  0  0  0  0  0  0  0  0  0
    1.4220  -16.2747    0.0000 N   0  0  0  0  0  0  0  0  0  0  0  0
    1.4227  -15.4488    0.0000 C   0  0  0  0  0  0  0  0  0  0  0  0
    0.7072  -15.0331    0.0000 C   0  0  0  0  0  0  0  0  0  0  0  0
    2.1355  -16.6887    0.0000 C   0  0  0  0  0  0  0  0  0  0  0  0
   -1.4377  -12.9728    0.0000 N   0  0  0  0  0  0  0  0  0  0  0  0
   -2.8628  -15.4495    0.0000 N   0  0  0  0  0  0  0  0  0  0  0  0
   -3.6176  -15.1149    0.0000 C   0  0  0  0  0  0  0  0  0  0  0  0
   -4.1700  -15.7274    0.0000 C   0  0  0  0  0  0  0  0  0  0  0  0
   -3.7580  -16.4422    0.0000 C   0  0  0  0  0  0  0  0  0  0  0  0
   -2.9512  -16.2712    0.0000 C   0  0  0  0  0  0  0  0  0  0  0  0
  5  6  2  0  0  0  0 
  7 12  1  0  0  0  0 
  8  9  1  0  0  0  0 
  9 10  1  0  0  0  0 
 10 11  1  0  0  0  0 
 11 12  1  0  0  0  0 
  4  7  1  0  0  0  0 
  6  1  1  0  0  0  0 
 10 13  1  0  0  0  0 
  7  8  1  0  0  0  0 
  6 14  1  0  0  0  0 
  1  2  2  0  0  0  0 
  2 15  1  0  0  0  0 
 15 16  1  0  0  0  0 
  3  4  2  0  0  0  0 
  4  5  1  0  0  0  0 
  2  3  1  0  0  0  0 
 16 17  1  0  0  0  0 
 17 18  1  0  0  0  0 
 18 19  1  0  0  0  0 
 19 15  1  0  0  0  0 
M  END