
          11280715042D 1   1.00000     0.00000     0

 24 26  0     0  0            999 V2000
    1.0167   -2.6625    0.0000 C   0  0  3  0  0  0           0  0  0
    1.0167   -3.1250    0.0000 C   0  0  3  0  0  0           0  0  0
    1.4417   -2.9000    0.0000 N   0  3  3  0  0  0           0  0  0
    0.5917   -2.8625    0.0000 O   0  0  0  0  0  0           0  0  0
    1.1792   -3.4667    0.0000 C   0  0  3  0  0  0           0  0  0
    1.1250   -2.3542    0.0000 C   0  0  3  0  0  0           0  0  0
   -1.0958   -2.8917    0.0000 C   0  0  0  0  0  0           0  0  0
   -1.4083   -3.4417    0.0000 C   0  0  3  0  0  0           0  0  0
    0.4917   -3.4417    0.0000 C   0  0  0  0  0  0           0  0  0
    0.4917   -2.3500    0.0000 C   0  0  0  0  0  0           0  0  0
    0.1792   -2.9000    0.0000 C   0  0  3  0  0  0           0  0  0
   -0.4583   -2.9000    0.0000 O   0  0  0  0  0  0           0  0  0
   -1.4083   -2.3417    0.0000 O   0  0  0  0  0  0           0  0  0
   -2.0458   -3.4417    0.0000 C   0  0  0  0  0  0           0  0  0
    3.2500   -3.7625    0.0000 Br  0  5  0  0  0  0           0  0  0
    2.0000   -3.6042    0.0000 C   0  0  0  0  0  0           0  0  0
    1.9917   -2.2500    0.0000 C   0  0  0  0  0  0           0  0  0
   -1.0958   -4.0000    0.0000 C   0  0  0  0  0  0           0  0  0
   -0.4583   -4.0000    0.0000 O   0  0  0  0  0  0           0  0  0
   -2.3625   -3.9917    0.0000 C   0  0  0  0  0  0           0  0  0
   -2.3583   -2.8917    0.0000 C   0  0  0  0  0  0           0  0  0
   -2.9958   -2.8917    0.0000 C   0  0  0  0  0  0           0  0  0
   -3.0000   -3.9875    0.0000 C   0  0  0  0  0  0           0  0  0
   -3.3083   -3.4292    0.0000 C   0  0  0  0  0  0           0  0  0
  2  1  1  0     0  0
  3  6  1  0     0  0
  4  1  1  0     0  0
  5  2  1  0     0  0
  6  1  1  0     0  0
  7 12  1  0     0  0
  8  7  1  0     0  0
  9  5  1  0     0  0
 10  6  1  0     0  0
 11 10  1  0     0  0
 12 11  1  0     0  0
 13  7  2  0     0  0
 14  8  1  0     0  0
 16  3  1  0     0  0
 17  3  1  0     0  0
 18  8  1  0     0  0
 19 18  1  0     0  0
 20 14  2  0     0  0
 21 14  1  0     0  0
 22 21  2  0     0  0
 23 20  1  0     0  0
 24 23  2  0     0  0
  4  2  1  0     0  0
  3  5  1  0     0  0
  9 11  1  0     0  0
 22 24  1  0     0  0
M  CHG  2   3   1  15  -1
M  END