
  Mrv0541 05211314572D          

 27 28  0  0  0  0            999 V2000
   -2.8304   -0.4521    0.0000 C   0  0  0  0  0  0  0  0  0  0  0  0
   -2.1159   -0.0396    0.0000 N   0  0  0  0  0  0  0  0  0  0  0  0
   -2.8304   -1.2771    0.0000 C   0  0  0  0  0  0  0  0  0  0  0  0
    2.1709    0.7854    0.0000 C   0  0  0  0  0  0  0  0  0  0  0  0
   -0.6870    0.7854    0.0000 N   0  0  0  0  0  0  0  0  0  0  0  0
   -2.1630   -1.7620    0.0000 O   0  0  0  0  0  0  0  0  0  0  0  0
   -3.5449   -0.0396    0.0000 O   0  0  0  0  0  0  0  0  0  0  0  0
   -3.4978   -1.7620    0.0000 C   0  0  0  0  0  0  0  0  0  0  0  0
   -2.1159    0.7854    0.0000 C   0  0  0  0  0  0  0  0  0  0  0  0
   -1.4015   -0.4521    0.0000 C   0  0  0  0  0  0  0  0  0  0  0  0
    2.8854    1.1979    0.0000 C   0  0  0  0  0  0  0  0  0  0  0  0
    2.1709   -0.0396    0.0000 C   0  0  0  0  0  0  0  0  0  0  0  0
   -2.4179   -2.5466    0.0000 C   0  0  0  0  0  0  0  0  0  0  0  0
   -3.2429   -2.5466    0.0000 C   0  0  0  0  0  0  0  0  0  0  0  0
   -1.4015    1.1979    0.0000 C   0  0  0  0  0  0  0  0  0  0  0  0
   -0.6870   -0.0396    0.0000 C   0  0  0  0  0  0  0  0  0  0  0  0
    1.4564    1.1979    0.0000 O   0  0  0  0  0  0  0  0  0  0  0  0
    5.8391    0.0000    0.0000 Cl  0  0  0  0  0  0  0  0  0  0  0  0
    1.4564   -0.4521    0.0000 O   0  0  0  0  0  0  0  0  0  0  0  0
    2.8854    2.0229    0.0000 O   0  0  0  0  0  0  0  0  0  0  0  0
    0.0275    1.1979    0.0000 C   0  0  0  0  0  0  0  0  0  0  0  0
    0.7420    0.7854    0.0000 C   0  0  0  0  0  0  0  0  0  0  0  0
    3.5998   -0.0396    0.0000 C   0  0  0  0  0  0  0  0  0  0  0  0
    3.5998    0.7854    0.0000 C   0  0  0  0  0  0  0  0  0  0  0  0
    2.8854   -0.4521    0.0000 C   0  0  0  0  0  0  0  0  0  0  0  0
    1.4564   -1.2771    0.0000 C   0  0  0  0  0  0  0  0  0  0  0  0
    3.5998    2.4354    0.0000 C   0  0  0  0  0  0  0  0  0  0  0  0
  1  2  1  0  0  0  0
  1  3  1  0  0  0  0
  3  6  1  0  0  0  0
  1  7  2  0  0  0  0
  3  8  2  0  0  0  0
  2  9  1  0  0  0  0
  2 10  1  0  0  0  0
  4 11  2  0  0  0  0
  4 12  1  0  0  0  0
  6 13  1  0  0  0  0
  8 14  1  0  0  0  0
 13 14  2  0  0  0  0
  5 15  1  0  0  0  0
  9 15  1  0  0  0  0
  5 16  1  0  0  0  0
 10 16  1  0  0  0  0
  4 17  1  0  0  0  0
 12 19  1  0  0  0  0
 11 20  1  0  0  0  0
  5 21  1  0  0  0  0
 17 22  1  0  0  0  0
 21 22  1  0  0  0  0
 11 24  1  0  0  0  0
 23 24  2  0  0  0  0
 12 25  2  0  0  0  0
 23 25  1  0  0  0  0
 19 26  1  0  0  0  0
 20 27  1  0  0  0  0
M  END