
  CDK    6/4/10,11:41

 34 37  0  0  0  0  0  0  0  0999 V2000
   -4.6764  -11.7625    0.0000 C   0  0  0  0  0  0  0  0  0  0  0  0
   -4.6776  -12.5898    0.0000 C   0  0  0  0  0  0  0  0  0  0  0  0
   -3.9628  -13.0027    0.0000 C   0  0  0  0  0  0  0  0  0  0  0  0
   -3.2463  -12.5894    0.0000 C   0  0  0  0  0  0  0  0  0  0  0  0
   -3.2492  -11.7588    0.0000 C   0  0  0  0  0  0  0  0  0  0  0  0
   -3.9646  -11.3497    0.0000 C   0  0  0  0  0  0  0  0  0  0  0  0
   -2.5363  -11.3436    0.0000 C   0  0  0  0  0  0  0  0  0  0  0  0
   -1.8203  -11.7534    0.0000 N   0  0  0  0  0  0  0  0  0  0  0  0
   -2.5394  -10.5186    0.0000 O   0  0  0  0  0  0  0  0  0  0  0  0
   -1.7272  -12.5725    0.0000 N   0  0  0  0  0  0  0  0  0  0  0  0
   -0.9196  -12.7410    0.0000 C   0  0  0  0  0  0  0  0  0  0  0  0
   -0.5098  -12.0249    0.0000 C   0  0  0  0  0  0  0  0  0  0  0  0
   -1.0642  -11.4140    0.0000 C   0  0  0  0  0  0  0  0  0  0  0  0
   -0.8955  -10.6065    0.0000 O   0  0  0  0  0  0  0  0  0  0  0  0
   -0.5812  -13.4934    0.0000 C   0  0  0  0  0  0  0  0  0  0  0  0
    0.3147  -12.0146    0.0000 N   0  0  0  0  0  0  0  0  0  0  0  0
    0.7364  -12.7237    0.0000 N   0  0  0  0  0  0  0  0  0  0  0  0
    1.5613  -12.7131    0.0000 C   0  0  0  0  0  0  0  0  0  0  0  0
    1.9782  -13.4224    0.0000 C   0  0  0  0  0  0  0  0  0  0  0  0
    2.8024  -13.4122    0.0000 C   0  0  0  0  0  0  0  0  0  0  0  0
    3.2065  -12.6919    0.0000 C   0  0  0  0  0  0  0  0  0  0  0  0
    2.7804  -11.9805    0.0000 C   0  0  0  0  0  0  0  0  0  0  0  0
    1.9577  -11.9942    0.0000 C   0  0  0  0  0  0  0  0  0  0  0  0
    4.0314  -12.6802    0.0000 S   0  0  0  0  0  0  0  0  0  0  0  0
    4.8542  -12.6792    0.0000 N   0  0  0  0  0  0  0  0  0  0  0  0
    4.0251  -11.8553    0.0000 O   0  0  0  0  0  0  0  0  0  0  0  0
    4.0401  -13.5052    0.0000 O   0  0  0  0  0  0  0  0  0  0  0  0
    5.2676  -13.3931    0.0000 C   0  0  0  0  0  0  0  0  0  0  0  0
    4.8530  -14.1060    0.0000 N   0  0  0  0  0  0  0  0  0  0  0  0
    5.2657  -14.8194    0.0000 C   0  0  0  0  0  0  0  0  0  0  0  0
    6.0916  -14.8188    0.0000 C   0  0  0  0  0  0  0  0  0  0  0  0
    6.5030  -14.0987    0.0000 C   0  0  0  0  0  0  0  0  0  0  0  0
    6.0879  -13.3882    0.0000 N   0  0  0  0  0  0  0  0  0  0  0  0
   -5.3924  -13.0018    0.0000 N   0  0  0  0  0  0  0  0  0  0  0  0
  7  8  1  0  0  0  0 
 16 17  2  0  0  0  0 
 17 18  1  0  0  0  0 
  7  9  2  0  0  0  0 
 18 19  2  0  0  0  0 
  8 10  1  0  0  0  0 
 19 20  1  0  0  0  0 
  4  5  1  0  0  0  0 
 20 21  2  0  0  0  0 
  2  3  1  0  0  0  0 
 21 22  1  0  0  0  0 
  5  6  2  0  0  0  0 
 22 23  2  0  0  0  0 
 23 18  1  0  0  0  0 
  6  1  1  0  0  0  0 
 21 24  1  0  0  0  0 
 10 11  2  0  0  0  0 
 24 25  1  0  0  0  0 
 11 12  1  0  0  0  0 
 24 26  2  0  0  0  0 
 12 13  1  0  0  0  0 
 24 27  2  0  0  0  0 
 13  8  1  0  0  0  0 
 25 28  1  0  0  0  0 
  1  2  2  0  0  0  0 
 28 29  2  0  0  0  0 
 13 14  2  0  0  0  0 
 29 30  1  0  0  0  0 
  5  7  1  0  0  0  0 
 30 31  2  0  0  0  0 
 11 15  1  0  0  0  0 
 31 32  1  0  0  0  0 
  3  4  2  0  0  0  0 
 32 33  2  0  0  0  0 
 33 28  1  0  0  0  0 
 12 16  1  0  0  0  0 
  2 34  1  0  0  0  0 
M  END