
          11280714522D 1   1.00000     0.00000     0

 27 27  0     0  0            999 V2000
    5.3917   -0.2167    0.0000 C   0  0  0  0  0  0           0  0  0
    5.8167    0.4875    0.0000 N   0  0  0  0  0  0           0  0  0
    4.5667   -0.2917    0.0000 C   0  0  0  0  0  0           0  0  0
    5.9292   -0.8500    0.0000 S   0  0  0  0  0  0           0  0  0
    6.6292    0.2958    0.0000 C   0  0  0  0  0  0           0  0  0
    4.2167   -1.0375    0.0000 C   0  0  0  0  0  0           0  0  0
   11.7167   -2.8125    0.0000 C   0  0  0  0  0  0           0  0  0
    6.6917   -0.5292    0.0000 C   0  0  0  0  0  0           0  0  0
   10.1792   -0.2625    0.0000 C   0  0  0  0  0  0           0  0  0
   12.3000   -3.4000    0.0000 O   0  0  0  0  0  0           0  0  0
   11.9292   -2.0167    0.0000 O   0  0  0  0  0  0           0  0  0
   10.9792   -0.0500    0.0000 O   0  0  0  0  0  0           0  0  0
   13.1000   -3.1875    0.0000 C   0  0  3  0  0  0           0  0  0
   10.9167   -3.0250    0.0000 N   0  0  0  0  0  0           0  0  0
    4.6875   -1.7167    0.0000 N   0  0  0  0  0  0           0  0  0
    3.3917   -1.1042    0.0000 N   0  0  0  0  0  0           0  0  0
    9.6042    0.3208    0.0000 N   0  0  0  0  0  0           0  0  0
    7.9917    0.7083    0.0000 S   0  0  0  0  0  0           0  0  0
    7.1917    0.8958    0.0000 C   0  0  0  0  0  0           0  0  0
    9.9667   -1.0542    0.0000 C   0  0  0  0  0  0           0  0  0
   12.3792   -2.7750    0.0000 C   0  0  0  0  0  0           0  0  0
   13.1000   -4.0042    0.0000 C   0  0  0  0  0  0           0  0  0
   13.8125   -2.7750    0.0000 C   0  0  0  0  0  0           0  0  0
    9.3667    1.1125    0.0000 C   0  0  0  0  0  0           0  0  0
   10.3292   -2.4417    0.0000 C   0  0  0  0  0  0           0  0  0
    8.5625    1.3083    0.0000 C   0  0  0  0  0  0           0  0  0
   10.5500   -1.6417    0.0000 C   0  0  0  0  0  0           0  0  0
  2  1  2  0     0  0
  3  1  1  0     0  0
  4  1  1  0     0  0
  5  2  1  0     0  0
  6  3  2  0     0  0
  7 14  1  0     0  0
  8  4  1  0     0  0
  9 17  1  0     0  0
 10  7  1  0     0  0
 11  7  2  0     0  0
 12  9  2  0     0  0
 13 10  1  0     0  0
 14 25  1  0     0  0
 15  6  1  0     0  0
 16  6  1  0     0  0
 17 24  1  0     0  0
 18 19  1  0     0  0
 19  5  1  0     0  0
 20  9  1  0     0  0
 21 13  1  0     0  0
 22 13  1  0     0  0
 23 13  1  0     0  0
 24 26  1  0     0  0
 25 27  1  0     0  0
 26 18  1  0     0  0
 27 20  1  0     0  0
  5  8  2  0     0  0
M  END