
  SciTegic11261411132D

 34 37  0  0  0  0            999 V2000
   11.1430   -4.3116    0.0000 S   0  0
   10.7305   -5.0261    0.0000 O   0  0
   11.5555   -3.5971    0.0000 O   0  0
   13.2864   -5.5491    0.0000 O   0  0
    6.8562   -2.6616    0.0000 O   0  0
   11.8575   -4.7241    0.0000 N   0  0
   14.0009   -4.3116    0.0000 N   0  0
    8.2851   -2.6616    0.0000 N   0  0
   10.4285   -3.8991    0.0000 C   0  0
   12.5720   -4.3116    0.0000 C   0  0
    8.9996   -3.8991    0.0000 C   0  0
    8.9996   -3.0741    0.0000 C   0  0
    9.7141   -4.3116    0.0000 C   0  0
   13.2864   -4.7241    0.0000 C   0  0
   10.4285   -3.0741    0.0000 C   0  0
   12.5720   -3.4866    0.0000 C   0  0
    9.7141   -2.6616    0.0000 C   0  0
   14.7154   -4.7241    0.0000 C   0  0
    8.2851   -4.3116    0.0000 C   0  0
    7.5707   -3.0741    0.0000 C   0  0
   15.4298   -4.3116    0.0000 C   0  0
   14.7154   -5.5491    0.0000 C   0  0
    7.5707   -3.8991    0.0000 C   0  0
   11.8575   -3.0741    0.0000 C   0  0
   13.2864   -3.0741    0.0000 C   0  0
   16.1443   -4.7241    0.0000 C   0  0
   15.4298   -5.9616    0.0000 C   0  0
   11.8575   -2.2491    0.0000 C   0  0
   13.2864   -2.2491    0.0000 C   0  0
   16.1443   -5.5491    0.0000 C   0  0
   15.4298   -3.4866    0.0000 C   0  0
   12.5720   -1.8366    0.0000 C   0  0
   14.0009   -5.9616    0.0000 C   0  0
   16.1443   -3.0741    0.0000 C   0  0
  1  2  2  0
  1  3  2  0
  1  6  1  0
  1  9  1  0
  4 14  2  0
  5 20  2  0
  6 10  1  0
  7 14  1  0
  7 18  1  0
  8 12  1  0
  8 20  1  0
  9 13  1  0
  9 15  2  0
 10 14  1  0
 10 16  1  0
 11 12  1  0
 11 13  2  0
 11 19  1  0
 12 17  2  0
 15 17  1  0
 16 24  2  0
 16 25  1  0
 18 21  1  0
 18 22  2  0
 19 23  1  0
 20 23  1  0
 21 26  2  0
 21 31  1  0
 22 27  1  0
 22 33  1  0
 24 28  1  0
 25 29  2  0
 26 30  1  0
 27 30  2  0
 28 32  2  0
 29 32  1  0
 31 34  1  0
M  END