
          11280714552D 1   1.00000     0.00000     0

 35 39  0     0  0            999 V2000
    1.0750  -14.0792    0.0000 N   0  0  3  0  0  0           0  0  0
    1.8750  -13.8542    0.0000 C   0  0  0  0  0  0           0  0  0
    1.1250  -12.7292    0.0000 N   0  0  0  0  0  0           0  0  0
    1.0417  -18.6875    0.0000 C   0  0  0  0  0  0           0  0  0
    1.9042  -13.0167    0.0000 C   0  0  0  0  0  0           0  0  0
    0.6042  -13.3875    0.0000 C   0  0  0  0  0  0           0  0  0
    1.7917  -18.6292    0.0000 C   0  0  0  0  0  0           0  0  0
    2.2750  -17.9625    0.0000 N   0  0  3  0  0  0           0  0  0
    2.4917  -14.3917    0.0000 C   0  0  0  0  0  0           0  0  0
    0.5500  -18.0250    0.0000 N   0  0  0  0  0  0           0  0  0
   -0.2333  -18.2875    0.0000 N   0  0  0  0  0  0           0  0  0
   -0.2250  -19.1125    0.0000 N   0  0  0  0  0  0           0  0  0
    0.5625  -19.3542    0.0000 N   0  0  0  0  0  0           0  0  0
    2.2792  -15.1917    0.0000 C   0  0  0  0  0  0           0  0  0
    0.6000  -15.1167    0.0000 C   0  0  0  0  0  0           0  0  0
    1.8542  -17.2500    0.0000 C   0  0  0  0  0  0           0  0  0
    2.8542  -15.7792    0.0000 C   0  0  0  0  0  0           0  0  0
    3.0625  -18.2125    0.0000 C   0  0  0  0  0  0           0  0  0
    2.2792  -19.2917    0.0000 C   0  0  0  0  0  0           0  0  0
    3.0667  -19.0375    0.0000 C   0  0  0  0  0  0           0  0  0
    2.6375  -16.5750    0.0000 O   0  0  0  0  0  0           0  0  0
    1.0292  -17.2542    0.0000 C   0  0  0  0  0  0           0  0  0
    2.2542  -16.5292    0.0000 C   0  0  0  0  0  0           0  0  0
    1.0167  -15.8292    0.0000 C   0  0  0  0  0  0           0  0  0
    2.5792  -12.5500    0.0000 C   0  0  0  0  0  0           0  0  0
   -0.2125  -13.3542    0.0000 C   0  0  0  0  0  0           0  0  0
    3.3042  -14.2500    0.0000 C   0  0  0  0  0  0           0  0  0
    3.6542  -15.5667    0.0000 O   0  0  0  0  0  0           0  0  0
    0.6125  -16.5500    0.0000 C   0  0  0  0  0  0           0  0  0
    1.8417  -15.8167    0.0000 C   0  0  0  0  0  0           0  0  0
   -0.6000  -12.6250    0.0000 C   0  0  0  0  0  0           0  0  0
    3.3750  -12.7667    0.0000 C   0  0  0  0  0  0           0  0  0
    3.7000  -13.5167    0.0000 C   0  0  0  0  0  0           0  0  0
   -1.4208  -12.5917    0.0000 C   0  0  0  0  0  0           0  0  0
   -1.8083  -11.8625    0.0000 C   0  0  0  0  0  0           0  0  0
  2  1  1  0     0  0
  3  6  2  0     0  0
  4  7  1  0     0  0
  5  2  2  0     0  0
  6  1  1  0     0  0
  7  8  1  0     0  0
  8 16  1  0     0  0
  9  2  1  0     0  0
 10  4  1  0     0  0
 11 10  2  0     0  0
 12 13  1  0     0  0
 13  4  2  0     0  0
 14  9  2  0     0  0
 15  1  1  0     0  0
 16 23  1  0     0  0
 17 14  1  0     0  0
 18  8  1  0     0  0
 19  7  2  0     0  0
 20 18  2  0     0  0
 21 17  2  0     0  0
 22 29  1  0     0  0
 23 30  2  0     0  0
 24 15  1  0     0  0
 25  5  1  0     0  0
 26  6  1  0     0  0
 27  9  1  0     0  0
 28 17  1  0     0  0
 29 24  2  0     0  0
 30 24  1  0     0  0
 31 26  1  0     0  0
 32 25  1  0     0  0
 33 27  1  0     0  0
 34 31  1  0     0  0
 35 34  1  0     0  0
  5  3  1  0     0  0
 22 16  2  0     0  0
 32 33  1  0     0  0
 19 20  1  0     0  0
 11 12  1  0     0  0
M  END