
  SciTegic06051315212D

 23 25  0  0  0  0            999 V2000
   29.2689  -11.2013    0.0000 N   0  0
   28.5553  -10.7927    0.0000 C   0  0
   29.9824  -10.7886    0.0000 C   0  0
   29.9824   -9.9673    0.0000 C   0  0
   29.2689   -9.5587    0.0000 C   0  0
   28.5553   -9.9673    0.0000 C   0  0
   27.8459   -9.5587    0.0000 C   0  0
   27.1324   -9.9673    0.0000 C   0  0
   27.1324  -10.7927    0.0000 C   0  0
   27.8459  -11.2013    0.0000 C   0  0
   30.6928  -11.1936    0.0000 C   0  0
   31.4006  -10.7830    0.0000 C   0  0
   32.1080  -11.1906    0.0000 C   0  0
   32.1087  -12.0087    0.0000 C   0  0
   31.3962  -12.4174    0.0000 C   0  0
   30.6918  -12.0074    0.0000 C   0  0
   29.2677   -8.7408    0.0000 C   0  0
   29.9754   -8.3322    0.0000 O   0  0
   28.5599   -8.3322    0.0000 O   0  0
   30.6894   -9.5574    0.0000 C   0  0
   32.8161  -12.4179    0.0000 C   0  0
   32.8153  -13.2351    0.0000 C   0  0
   33.5242  -12.0100    0.0000 C   0  0
 10  2  1  0
  2  6  2  0
  2  1  1  0
  1  3  2  0
  3  4  1  0
  4  5  2  0
  5  6  1  0
  6  7  1  0
  7  8  2  0
  8  9  1  0
  9 10  2  0
 11 12  2  0
 12 13  1  0
 13 14  2  0
 14 15  1  0
 15 16  2  0
 16 11  1  0
  3 11  1  0
 17 18  1  0
 17 19  2  0
  5 17  1  0
  4 20  1  0
 14 21  1  0
 21 22  1  0
 21 23  1  0
M  END