
  SciTegic11201309402D

100 94  0  0  0  0            999 V2000
   -2.8353    5.5582    0.0000 C   0  0  1  0  0  0
   -3.5498    5.1457    0.0000 C   0  0
   -2.1209    5.1457    0.0000 C   0  0  1  0  0  0
   -2.8353    3.9082    0.0000 C   0  0  1  0  0  0
   -2.1209    4.3207    0.0000 O   0  0
   -3.5498    4.3207    0.0000 C   0  0
   -2.1209    2.6707    0.0000 C   0  0  1  0  0  0
   -1.4064    3.0832    0.0000 C   0  0
   -2.1209    1.8457    0.0000 C   0  0  1  0  0  0
   -0.6919    1.8457    0.0000 C   0  0  2  0  0  0
   -1.1705    1.2163    0.0000 O   0  0
   -0.6919    2.6707    0.0000 C   0  0
    2.8804   -4.3418    0.0000 C   0  0  1  0  0  0
    3.5949   -4.7543    0.0000 C   0  0
    2.1660   -4.7543    0.0000 C   0  0  1  0  0  0
    2.8804   -5.9918    0.0000 C   0  0  1  0  0  0
    2.1660   -5.5793    0.0000 O   0  0
    3.5949   -5.5793    0.0000 C   0  0
   -0.6919    0.1957    0.0000 C   0  0  1  0  0  0
    0.0226    0.6082    0.0000 C   0  0  1  0  0  0
   -0.6919   -0.6293    0.0000 C   0  0
    0.7370   -0.6293    0.0000 O   0  0
    0.0226   -1.0418    0.0000 C   0  0  1  0  0  0
    0.7370    0.1957    0.0000 C   0  0
    1.4515   -1.8668    0.0000 C   0  0  2  0  0  0
    0.7370   -3.1043    0.0000 C   0  0
    2.1660   -2.2793    0.0000 C   0  0
    2.1660   -3.1043    0.0000 C   0  0  1  0  0  0
    1.4515   -3.5168    0.0000 O   0  0
    0.7370   -2.2793    0.0000 C   0  0  1  0  0  0
   -4.2643    5.5582    0.0000 O   0  0
   -2.8353    6.3832    0.0000 O   0  0
   -1.4064    5.5582    0.0000 C   0  0
   -1.4064    6.3832    0.0000 O   0  0
   -0.6919    6.7957    0.0000 S   0  0
   -0.2794    6.0813    0.0000 O   0  0
   -1.1044    7.5102    0.0000 O   0  0
    0.0226    7.2082    0.0000 O   0  5
   -4.2643    3.9082    0.0000 N   0  0
   -4.9787    4.3207    0.0000 S   0  0
   -4.5662    5.0352    0.0000 O   0  0
   -5.3912    3.6063    0.0000 O   0  0
   -5.6932    4.7332    0.0000 O   0  5
   -2.8353    3.0832    0.0000 O   0  0
   -1.4064    3.9082    0.0000 O   0  0
    0.0226    3.0832    0.0000 O   0  0
   -2.9098    1.6044    0.0000 C   0  0
   -3.0953    0.8006    0.0000 O   0  5
   -3.5132    2.1670    0.0000 O   0  0
    7.7862    0.0000    0.0000 Na  0  3
    0.0226    1.4332    0.0000 O   0  0
   -1.4064    0.6082    0.0000 O   0  0
   -2.0362    0.8518    0.0000 S   0  0
   -2.6190    0.3189    0.0000 O   0  0
   -2.4480    1.3377    0.0000 O   0  0
   -1.5746    1.9177    0.0000 O   0  5
    1.4515    0.6082    0.0000 C   0  0
    1.4515    1.4332    0.0000 O   0  0
    2.1660    1.8457    0.0000 S   0  0
    2.8804    2.2582    0.0000 O   0  0
    2.5785    1.1313    0.0000 O   0  0
    1.7535    2.5602    0.0000 O   0  5
    0.0226   -1.8668    0.0000 O   0  0
    1.4515   -1.0418    0.0000 O   0  0
    0.0226   -3.5168    0.0000 C   0  0
    0.0226   -4.3418    0.0000 O   0  5
   -0.6919   -3.1043    0.0000 O   0  0
    2.8804   -1.8668    0.0000 N   0  0
    2.8804   -1.0418    0.0000 S   0  0
    2.8804   -0.2168    0.0000 O   0  0
    2.0554   -1.0418    0.0000 O   0  0
    3.7054   -1.0418    0.0000 O   0  5
    2.8804   -3.5168    0.0000 O   0  0
    4.3094   -4.3418    0.0000 O   0  0
    4.3094   -5.9918    0.0000 N   0  0
    4.3094   -6.8168    0.0000 S   0  0
    4.3094   -7.6418    0.0000 O   0  0
    3.4844   -6.8168    0.0000 O   0  0
    5.1344   -6.8168    0.0000 O   0  5
    2.8804   -6.8168    0.0000 O   0  0
    1.4515   -4.3418    0.0000 C   0  0
    0.7370   -4.7543    0.0000 O   0  0
    0.7370   -5.5793    0.0000 S   0  0
    1.5620   -5.5793    0.0000 O   0  0
   -0.0880   -5.5793    0.0000 O   0  0
    0.7370   -6.4043    0.0000 O   0  5
   -1.4064   -1.0418    0.0000 O   0  0
   -2.1209   -0.6293    0.0000 S   0  0
   -2.5334   -1.3437    0.0000 O   0  0
   -2.8353   -0.2168    0.0000 O   0  0
   -1.7084    0.0852    0.0000 O   0  5
   -7.1461    4.0212    0.0000 Na  0  3
   -1.4534   -6.4436    0.0000 Na  0  3
    6.9039   -6.6616    0.0000 Na  0  3
    6.1771    0.5329    0.0000 Na  0  3
    2.1075    4.9902    0.0000 Na  0  3
   -6.2256   -0.3391    0.0000 Na  0  3
   -5.3051   -1.8653    0.0000 Na  0  3
   -4.9175   -2.9553    0.0000 Na  0  3
   -3.0280   -5.0144    0.0000 Na  0  3
  1  2  1  0
  1  3  1  0
  4  5  1  0
  4  6  1  0
  6  2  1  0
  3  5  1  0
  7  8  1  0
  7  9  1  0
 12  8  1  0
  9 11  1  0
 10 11  1  0
 10 12  1  0
 13 14  1  0
 13 15  1  0
 18 14  1  0
 15 17  1  0
 16 17  1  0
 16 18  1  0
 19 20  1  0
 19 21  1  0
 20 24  1  0
 23 21  1  0
 22 23  1  0
 22 24  1  0
 29 26  1  0
 28 29  1  0
 25 30  1  0
 30 26  1  0
 25 27  1  0
  2 31  1  0
  1 32  1  6
  3 33  1  6
 33 34  1  0
 34 35  1  0
 35 36  2  0
 35 37  2  0
 35 38  1  0
  6 39  1  0
 39 40  1  0
 40 41  2  0
 40 42  2  0
 40 43  1  0
  4 44  1  6
  7 44  1  1
  8 45  1  0
 12 46  1  0
  9 47  1  1
 47 48  1  0
 47 49  2  0
 10 51  1  6
 20 51  1  6
 19 52  1  1
 52 53  1  0
 53 54  2  0
 53 55  2  0
 53 56  1  0
 24 57  1  0
 57 58  1  0
 58 59  1  0
 59 60  2  0
 59 61  2  0
 59 62  1  0
 23 63  1  1
 30 63  1  1
 25 64  1  6
 26 65  1  0
 65 66  1  0
 65 67  2  0
 68 69  1  0
 69 70  2  0
 69 71  2  0
 69 72  1  0
 28 27  1  0
 27 68  1  0
 28 73  1  6
 13 73  1  1
 14 74  1  0
 18 75  1  0
 75 76  1  0
 76 77  2  0
 76 78  2  0
 76 79  1  0
 16 80  1  1
 15 81  1  1
 81 82  1  0
 82 83  1  0
 83 84  2  0
 83 85  2  0
 83 86  1  0
 21 87  1  0
 87 88  1  0
 88 89  2  0
 88 90  2  0
 88 91  1  0
M  CHG  8  38  -1  43  -1  48  -1  50   1  56  -1  62  -1  66  -1  72  -1
M  CHG  8  79  -1  86  -1  91  -1  92   1  93   1  94   1  95   1  96   1
M  CHG  4  97   1  98   1  99   1 100   1
M  END