
          11280715142D 1   1.00000     0.00000     0

 47 52  0     1  0            999 V2000
    0.1417   -3.1542    0.0000 C   0  0  2  0  0  0           0  0  0
    0.1250   -1.2875    0.0000 N   0  0  3  0  0  0           0  0  0
    0.5542   -3.8667    0.0000 C   0  0  1  0  0  0           0  0  0
   -0.5125   -2.6417    0.0000 C   0  0  0  0  0  0           0  0  0
    0.4292    0.1083    0.0000 C   0  0  0  0  0  0           0  0  0
   -0.5125   -1.8125    0.0000 C   0  0  0  0  0  0           0  0  0
    0.3500   -5.3750    0.0000 C   0  0  0  0  0  0           0  0  0
    0.9542   -2.9625    0.0000 N   0  0  0  0  0  0           0  0  0
   -0.1250   -0.5000    0.0000 C   0  0  0  0  0  0           0  0  0
   -0.4458   -3.7375    0.0000 C   0  0  0  0  0  0           0  0  0
    0.9375   -1.4667    0.0000 C   0  0  0  0  0  0           0  0  0
    1.2292   -0.0667    0.0000 C   0  0  0  0  0  0           0  0  0
    0.1750    0.8875    0.0000 C   0  0  0  0  0  0           0  0  0
    1.3500   -4.0792    0.0000 C   0  0  0  0  0  0           0  0  0
    0.1375   -4.5792    0.0000 O   0  0  0  0  0  0           0  0  0
    1.1375   -5.5792    0.0000 N   0  0  0  0  0  0           0  0  0
   -0.2375   -5.9542    0.0000 N   0  0  0  0  0  0           0  0  0
   -0.2333   -4.5292    0.0000 C   0  0  0  0  0  0           0  0  0
    1.7875    0.5458    0.0000 C   0  0  0  0  0  0           0  0  0
    0.7250    1.5000    0.0000 C   0  0  0  0  0  0           0  0  0
    1.3042   -2.2125    0.0000 C   0  0  0  0  0  0           0  0  0
   -0.8333   -5.1125    0.0000 C   0  0  0  0  0  0           0  0  0
    1.5375    1.3333    0.0000 C   0  0  0  0  0  0           0  0  0
    1.3542   -6.3750    0.0000 C   0  0  0  0  0  0           0  0  0
   -0.0250   -6.7500    0.0000 C   0  0  0  0  0  0           0  0  0
    0.7667   -6.9625    0.0000 C   0  0  0  0  0  0           0  0  0
    1.4417   -0.8167    0.0000 O   0  0  0  0  0  0           0  0  0
    1.5625   -4.8750    0.0000 O   0  0  0  0  0  0           0  0  0
   -1.2458   -5.8250    0.0000 C   0  0  0  0  0  0           0  0  0
    2.0292   -0.2792    0.0000 F   0  0  0  0  0  0           0  0  0
   -0.6333    1.0583    0.0000 F   0  0  0  0  0  0           0  0  0
    2.1417   -3.8625    0.0000 O   0  0  0  0  0  0           0  0  0
   -1.2333   -3.0542    0.0000 C   0  0  0  0  0  0           0  0  0
    2.0875    1.9458    0.0000 F   0  0  0  0  0  0           0  0  0
   -1.2458   -3.5125    0.0000 C   0  0  0  0  0  0           0  0  0
   -1.2333   -1.4000    0.0000 C   0  0  0  0  0  0           0  0  0
   -1.6250   -4.8875    0.0000 C   0  0  0  0  0  0           0  0  0
   -1.8333   -4.0875    0.0000 C   0  0  0  0  0  0           0  0  0
    2.1500   -6.5875    0.0000 C   0  0  0  0  0  0           0  0  0
   -0.6083   -7.3292    0.0000 C   0  0  0  0  0  0           0  0  0
   -0.8458   -6.5375    0.0000 C   0  0  0  0  0  0           0  0  0
   -2.0750   -5.8125    0.0000 C   0  0  0  0  0  0           0  0  0
   -1.9458   -2.6417    0.0000 C   0  0  0  0  0  0           0  0  0
   -1.9458   -1.8125    0.0000 C   0  0  0  0  0  0           0  0  0
   -2.4958   -6.5167    0.0000 C   0  0  0  0  0  0           0  0  0
   -1.2583   -7.2417    0.0000 C   0  0  0  0  0  0           0  0  0
   -2.0875   -7.2417    0.0000 C   0  0  0  0  0  0           0  0  0
  2  6  1  0     0  0
  3  1  1  0     0  0
  4  1  1  0     0  0
  5  9  1  0     0  0
  6  4  1  0     0  0
  7 15  1  0     0  0
  8  1  1  0     0  0
  9  2  1  0     0  0
  1 10  1  1     0  0
 11 21  1  0     0  0
 12  5  2  0     0  0
 13  5  1  0     0  0
 14  3  1  0     0  0
  3 15  1  1     0  0
 16  7  1  0     0  0
 17  7  2  0     0  0
 18 10  2  0     0  0
 19 12  1  0     0  0
 20 13  2  0     0  0
 21  8  1  0     0  0
 22 18  1  0     0  0
 23 20  1  0     0  0
 24 16  2  0     0  0
 25 17  1  0     0  0
 26 25  2  0     0  0
 27 11  2  0     0  0
 28 14  2  0     0  0
 29 22  1  0     0  0
 30 12  1  0     0  0
 31 13  1  0     0  0
 32 14  1  0     0  0
 33  4  2  0     0  0
 34 23  1  0     0  0
 35 10  1  0     0  0
 36  6  2  0     0  0
 37 38  1  0     0  0
 38 35  2  0     0  0
 39 24  1  0     0  0
 40 25  1  0     0  0
 41 29  1  0     0  0
 42 29  2  0     0  0
 43 33  1  0     0  0
 44 43  2  0     0  0
 45 42  1  0     0  0
 46 41  2  0     0  0
 47 45  2  0     0  0
  2 11  1  0     0  0
 22 37  2  0     0  0
 36 44  1  0     0  0
 24 26  1  0     0  0
 46 47  1  0     0  0
 19 23  2  0     0  0
M  END