
          05080814032D 1   1.00000     0.00000     0

 35 40  0     1  0            999 V2000
   -5.9445    1.1412    0.0000 C   0  0  0  0  0  0           0  0  0
   -5.9445    0.3116    0.0000 C   0  0  0  0  0  0           0  0  0
   -5.2300   -0.1009    0.0000 N   0  0  3  0  0  0           0  0  0
   -4.5110    0.3116    0.0000 C   0  0  0  0  0  0           0  0  0
   -4.5110    1.1412    0.0000 C   0  0  0  0  0  0           0  0  0
   -5.2300    1.5583    0.0000 O   0  0  0  0  0  0           0  0  0
   -5.2312   -0.9259    0.0000 C   0  0  0  0  0  0           0  0  0
   -4.5173   -1.3393    0.0000 C   0  0  0  0  0  0           0  0  0
   -4.5184   -2.1643    0.0000 C   0  0  0  0  0  0           0  0  0
   -3.8045   -2.5778    0.0000 O   0  0  0  0  0  0           0  0  0
   -3.0895   -2.1663    0.0000 C   0  0  0  0  0  0           0  0  0
   -2.3783   -2.5810    0.0000 C   0  0  0  0  0  0           0  0  0
   -2.3810   -0.9310    0.0000 C   0  0  0  0  0  0           0  0  0
   -3.0926   -1.3442    0.0000 C   0  0  0  0  0  0           0  0  0
   -1.6621   -1.3444    0.0000 C   0  0  0  0  0  0           0  0  0
   -1.6637   -2.1725    0.0000 C   0  0  0  0  0  0           0  0  0
   -0.2311   -1.3471    0.0000 C   0  0  0  0  0  0           0  0  0
   -0.9481   -0.9294    0.0000 C   0  0  1  0  0  0           0  0  0
   -0.2328   -2.1753    0.0000 N   0  0  3  0  0  0           0  0  0
   -0.9515   -2.5812    0.0000 C   0  0  2  0  0  0           0  0  0
   -0.7876   -3.3902    0.0000 C   0  0  0  0  0  0           0  0  0
    0.0326   -3.4844    0.0000 C   0  0  0  0  0  0           0  0  0
    0.3753   -2.7334    0.0000 C   0  0  0  0  0  0           0  0  0
   -0.9476   -0.1044    0.0000 C   0  0  0  0  0  0           0  0  0
   -1.6683   -2.9883    0.0000 H   0  0  0  0  0  0           0  0  0
   -0.2329    0.3033    0.0000 C   0  0  0  0  0  0           0  0  0
   -0.2321    1.1275    0.0000 C   0  0  0  0  0  0           0  0  0
   -0.9469    1.5412    0.0000 C   0  0  0  0  0  0           0  0  0
   -1.6639    1.1247    0.0000 C   0  0  0  0  0  0           0  0  0
   -1.6612    0.3018    0.0000 C   0  0  0  0  0  0           0  0  0
   -0.9440    2.3670    0.0000 N   0  0  3  0  0  0           0  0  0
   -0.2770    2.8525    0.0000 N   0  0  0  0  0  0           0  0  0
   -0.5325    3.6370    0.0000 C   0  0  0  0  0  0           0  0  0
   -1.3576    3.6363    0.0000 C   0  0  0  0  0  0           0  0  0
   -1.6118    2.8515    0.0000 C   0  0  0  0  0  0           0  0  0
  1  6  1  0     0  0
 15 18  1  0     0  0
 16 20  1  0     0  0
 19 17  1  0     0  0
 17 18  1  0     0  0
 19 20  1  0     0  0
  8  9  1  0     0  0
  2  3  1  0     0  0
  9 10  1  0     0  0
  3  4  1  0     0  0
 10 11  1  0     0  0
 20 21  1  0     0  0
 21 22  1  0     0  0
 22 23  1  0     0  0
 23 19  1  0     0  0
  4  5  1  0     0  0
 18 24  1  6     0  0
 11 12  2  0     0  0
 20 25  1  1     0  0
 12 16  1  0     0  0
 24 26  2  0     0  0
  5  6  1  0     0  0
 26 27  1  0     0  0
 15 13  1  0     0  0
 27 28  2  0     0  0
 28 29  1  0     0  0
 13 14  2  0     0  0
 29 30  2  0     0  0
 30 24  1  0     0  0
 31 32  1  0     0  0
 14 11  1  0     0  0
 15 16  2  0     0  0
  3  7  1  0     0  0
  1  2  1  0     0  0
  7  8  1  0     0  0
 32 33  2  0     0  0
 33 34  1  0     0  0
 34 35  2  0     0  0
 35 31  1  0     0  0
 28 31  1  0     0  0
M  END