
  SciTegic02271515072D

 27 30  0  0  0  0            999 V2000
    3.2426  -20.0665    0.0000 C   0  0
    3.2414  -20.8861    0.0000 C   0  0
    3.9495  -21.2950    0.0000 N   0  0
    3.9477  -19.6577    0.0000 C   0  0
    4.6563  -20.0629    0.0000 C   0  0
    4.6566  -20.8861    0.0000 C   0  0
    5.4395  -21.1403    0.0000 S   0  0
    5.9233  -20.4741    0.0000 N   0  0
    5.4391  -19.8084    0.0000 C   0  0
    5.6914  -19.0311    0.0000 N   0  0
    5.1444  -18.4240    0.0000 C   0  0
    5.3967  -17.6467    0.0000 C   0  0
    4.3451  -18.5942    0.0000 O   0  0
    2.5388  -19.6539    0.0000 C   0  0
    2.5476  -18.8371    0.0000 C   0  0
    1.8446  -18.4245    0.0000 C   0  0
    1.1344  -18.8277    0.0000 C   0  0
    1.1315  -19.6478    0.0000 C   0  0
    1.8350  -20.0567    0.0000 C   0  0
    0.4288  -18.4153    0.0000 O   0  0
    0.4225  -20.0541    0.0000 O   0  0
   -0.2856  -19.6433    0.0000 C   0  0
   -0.2885  -18.8201    0.0000 C   0  0
    6.1746  -17.3904    0.0000 C   0  0
    6.1743  -16.5732    0.0000 C   0  0
    5.3970  -16.3209    0.0000 C   0  0
    4.9170  -16.9823    0.0000 C   0  0
  1  2  2  0
  2  3  1  0
  3  6  2  0
  5  4  2  0
  4  1  1  0
  5  6  1  0
  6  7  1  0
  7  8  1  0
  8  9  2  0
  9  5  1  0
  9 10  1  0
 10 11  1  0
 11 12  1  0
 11 13  2  0
  1 14  1  0
 14 15  2  0
 15 16  1  0
 16 17  2  0
 17 18  1  0
 18 19  2  0
 19 14  1  0
 17 20  1  0
 18 21  1  0
 21 22  1  0
 20 23  1  0
 12 24  1  0
 24 25  1  0
 25 26  1  0
 26 27  1  0
 27 12  1  0
M  END