
  SciTegic03161212222D

 25 28  0  0  0  0            999 V2000
   -8.7509   -0.6187    0.0000 C   0  0
   -9.4654   -1.0312    0.0000 C   0  0
   -9.4654   -1.8562    0.0000 C   0  0
   -8.7509   -2.2687    0.0000 C   0  0
   -8.0364   -1.8562    0.0000 C   0  0
   -8.0364   -1.0312    0.0000 C   0  0
   -8.5794    0.1882    0.0000 N   0  0
   -7.7589    0.2745    0.0000 N   0  0
   -7.4234   -0.4792    0.0000 C   0  0
   -6.6164   -0.6506    0.0000 C   0  0
   -6.0330   -0.0673    0.0000 C   0  0
   -5.2361   -0.2808    0.0000 C   0  0
   -5.0226   -1.0777    0.0000 C   0  0
   -4.2257   -1.2912    0.0000 C   0  0
   -3.6423   -0.7079    0.0000 C   0  0
   -3.8558    0.0890    0.0000 C   0  0
   -4.6527    0.3026    0.0000 C   0  0
   -2.8454   -0.9214    0.0000 C   0  0
   -2.2621   -0.3380    0.0000 O   0  0
   -2.6319   -1.7183    0.0000 N   0  0
   -3.2152   -2.3016    0.0000 C   0  0
   -3.0017   -3.0986    0.0000 C   0  0
   -2.2048   -3.3121    0.0000 N   0  0
   -1.6215   -2.7287    0.0000 C   0  0
   -1.8350   -1.9318    0.0000 C   0  0
  1  2  1  0
  2  3  2  0
  3  4  1  0
  4  5  2  0
  5  6  1  0
  1  7  1  0
  1  6  2  0
  6  9  1  0
  7  8  1  0
  8  9  2  0
  9 10  1  0
 10 11  2  0
 11 12  1  0
 12 13  2  0
 17 12  1  0
 13 14  1  0
 14 15  2  0
 15 16  1  0
 16 17  2  0
 15 18  1  0
 18 19  2  0
 18 20  1  0
 20 21  1  0
 25 20  1  0
 21 22  1  0
 22 23  1  0
 23 24  1  0
 24 25  1  0
M  END