
          11280714492D 1   1.00000     0.00000     0

 13 14  0     0  0            999 V2000
    2.6000   -1.7417    0.0000 N   0  0  3  0  0  0           0  0  0
    2.0542   -1.9917    0.0000 C   0  0  3  0  0  0           0  0  0
    3.0042   -2.1917    0.0000 C   0  0  0  0  0  0           0  0  0
    2.1167   -2.5875    0.0000 C   0  0  0  0  0  0           0  0  0
    1.5292   -1.6917    0.0000 C   0  0  0  0  0  0           0  0  0
    2.7042   -2.7125    0.0000 C   0  0  0  0  0  0           0  0  0
    3.6000   -2.1292    0.0000 O   0  0  0  0  0  0           0  0  0
    1.0125   -0.7917    0.0000 N   0  0  0  0  0  0           0  0  0
    2.7167   -1.1542    0.0000 C   0  0  0  0  0  0           0  0  0
    1.5292   -1.0917    0.0000 C   0  0  0  0  0  0           0  0  0
    1.0125   -1.9917    0.0000 C   0  0  0  0  0  0           0  0  0
    0.4917   -1.0917    0.0000 C   0  0  0  0  0  0           0  0  0
    0.4917   -1.6917    0.0000 C   0  0  0  0  0  0           0  0  0
  2  1  1  0     0  0
  3  1  1  0     0  0
  4  2  1  0     0  0
  5  2  1  0     0  0
  6  3  1  0     0  0
  7  3  2  0     0  0
  8 10  2  0     0  0
  9  1  1  0     0  0
 10  5  1  0     0  0
 11  5  2  0     0  0
 12 13  2  0     0  0
 13 11  1  0     0  0
  6  4  1  0     0  0
 12  8  1  0     0  0
M  END