
  SciTegic05171617272D

 34 37  0  0  1  0            999 V2000
   -5.2132    8.0880    0.0000 C   0  0
   -6.2494    7.4828    0.0000 C   0  0  2  0  0  0
   -6.2413    5.9820    0.0000 C   0  0
   -4.9380    5.2378    0.0000 N   0  0
   -4.9300    3.7369    0.0000 C   0  0
   -5.9662    3.1317    0.0000 O   0  0
   -3.6267    2.9927    0.0000 C   0  0
   -3.6187    1.4919    0.0000 O   0  0
   -2.3155    0.7475    0.0000 C   0  0
   -2.3155   -0.7475    0.0000 C   0  0
   -1.0028   -1.5132    0.0000 C   0  0
    0.2917   -0.7475    0.0000 C   0  0
    1.7138   -1.2033    0.0000 C   0  0
    2.5889    0.0182    0.0000 N   0  0
    1.7138    1.2033    0.0000 N   0  0
    2.0825    2.3453    0.0000 C   0  0
    0.2917    0.7475    0.0000 C   0  0
   -1.0028    1.5132    0.0000 N   0  0
    2.1852   -2.6281    0.0000 C   0  0
    3.6221   -3.0405    0.0000 C   0  0
    3.9838   -4.4963    0.0000 C   0  0
    2.9039   -5.5373    0.0000 C   0  0
    1.4624   -5.1227    0.0000 C   0  0
    1.1007   -3.6669    0.0000 C   0  0
   -0.9940   -3.0137    0.0000 C   0  0
   -2.0293   -3.6205    0.0000 F   0  0
    0.0489   -3.6073    0.0000 F   0  0
   -0.9864   -4.2137    0.0000 F   0  0
   -7.5527    8.2271    0.0000 C   0  0
   -8.8493    7.4728    0.0000 C   0  0
  -10.1508    8.2184    0.0000 C   0  0
  -10.1559    9.7184    0.0000 C   0  0
   -8.8594   10.4727    0.0000 C   0  0
   -7.5578    9.7271    0.0000 C   0  0
  2  1  1  6
  2  3  1  0
  3  4  1  0
  4  5  1  0
  5  6  2  0
  5  7  1  0
  7  8  1  0
  8  9  1  0
  9 10  2  0
 10 11  1  0
 11 12  2  0
 12 13  1  0
 13 14  2  0
 14 15  1  0
 15 16  1  0
 15 17  1  0
 12 17  1  0
 17 18  2  0
  9 18  1  0
 13 19  1  0
 19 20  2  0
 20 21  1  0
 21 22  2  0
 22 23  1  0
 23 24  2  0
 19 24  1  0
 11 25  1  0
 25 26  1  0
 25 27  1  0
 25 28  1  0
  2 29  1  0
 29 30  2  0
 30 31  1  0
 31 32  2  0
 32 33  1  0
 33 34  2  0
 29 34  1  0
M  END