
          11280715112D 1   1.00000     0.00000     0

 32 35  0     0  0            999 V2000
    1.9792   -0.8792    0.0000 N   0  0  3  0  0  0           0  0  0
    2.4625   -0.5292    0.0000 C   0  0  0  0  0  0           0  0  0
    2.2750    0.0458    0.0000 N   0  0  3  0  0  0           0  0  0
    1.6750    0.0458    0.0000 N   0  0  0  0  0  0           0  0  0
    1.4917   -0.5292    0.0000 C   0  0  0  0  0  0           0  0  0
    4.5667   -1.7792    0.0000 C   0  0  0  0  0  0           0  0  0
    4.2667   -0.8625    0.0000 N   0  0  0  0  0  0           0  0  0
    4.0792   -1.4292    0.0000 N   0  0  0  0  0  0           0  0  0
    4.8667   -0.8542    0.0000 N   0  0  0  0  0  0           0  0  0
    5.0542   -1.4292    0.0000 N   0  0  0  0  0  0           0  0  0
    4.5750   -2.3792    0.0000 C   0  0  0  0  0  0           0  0  0
    4.0542   -2.6792    0.0000 C   0  0  0  0  0  0           0  0  0
    1.9792   -1.4792    0.0000 C   0  0  0  0  0  0           0  0  0
    3.0292   -0.7125    0.0000 O   0  0  0  0  0  0           0  0  0
    3.5375   -2.3792    0.0000 C   0  0  0  0  0  0           0  0  0
    2.6292    0.5333    0.0000 C   0  0  3  0  0  0           0  0  0
    3.0250   -2.6792    0.0000 C   0  0  0  0  0  0           0  0  0
    3.5417   -1.7792    0.0000 C   0  0  0  0  0  0           0  0  0
    2.5000   -1.7792    0.0000 C   0  0  0  0  0  0           0  0  0
    0.9250   -0.7167    0.0000 C   0  0  0  0  0  0           0  0  0
    2.5042   -2.3792    0.0000 C   0  0  0  0  0  0           0  0  0
    3.0167   -1.4792    0.0000 C   0  0  0  0  0  0           0  0  0
    5.0917   -2.6792    0.0000 C   0  0  0  0  0  0           0  0  0
    4.0542   -3.2792    0.0000 C   0  0  0  0  0  0           0  0  0
    3.2250    0.4708    0.0000 C   0  0  0  0  0  0           0  0  0
    2.3792    1.0750    0.0000 C   0  0  0  0  0  0           0  0  0
    0.4750   -0.3167    0.0000 C   0  0  0  0  0  0           0  0  0
   -0.0958   -0.5042    0.0000 C   0  0  0  0  0  0           0  0  0
    4.5750   -3.5792    0.0000 C   0  0  0  0  0  0           0  0  0
    5.0917   -3.2792    0.0000 C   0  0  0  0  0  0           0  0  0
    3.5750    0.9583    0.0000 C   0  0  0  0  0  0           0  0  0
   -0.5458   -0.1042    0.0000 C   0  0  0  0  0  0           0  0  0
  2  1  1  0     0  0
  3  2  1  0     0  0
  4  5  2  0     0  0
  5  1  1  0     0  0
  6 11  1  0     0  0
  7  8  2  0     0  0
  8  6  1  0     0  0
  9 10  1  0     0  0
 10  6  2  0     0  0
 11 12  2  0     0  0
 12 15  1  0     0  0
 13  1  1  0     0  0
 14  2  2  0     0  0
 15 18  2  0     0  0
 16  3  1  0     0  0
 17 21  2  0     0  0
 18 22  1  0     0  0
 19 13  1  0     0  0
 20  5  1  0     0  0
 21 19  1  0     0  0
 22 19  2  0     0  0
 23 11  1  0     0  0
 24 12  1  0     0  0
 25 16  1  0     0  0
 26 16  1  0     0  0
 27 20  1  0     0  0
 28 27  1  0     0  0
 29 24  2  0     0  0
 30 29  1  0     0  0
 31 25  1  0     0  0
 32 28  1  0     0  0
  3  4  1  0     0  0
 17 15  1  0     0  0
 30 23  2  0     0  0
  9  7  1  0     0  0
M  END