
  SciTegic09261414462D

141149  0  0  0  0            999 V2000
    3.5412   -7.2907    0.0000 C   0  0
    3.5032   -9.7371    0.0000 C   0  0
    5.6444   -8.5493    0.0000 C   0  0
    4.9527   -7.3088    0.0000 C   0  0
    4.9204   -9.7661    0.0000 C   0  0
    2.0971   -8.8982    0.0000 C   0  0
    4.2231   -8.5252    0.0000 C   0  0
    3.5139   -8.9222    0.0000 C   0  0
    5.8635   -7.7626    0.0000 C   0  0
    5.2891   -7.1794    0.0000 O   0  0
    4.2755   -5.2416    0.0000 O   0  0
    4.2394   -7.7088    0.0000 C   0  0
    5.6252  -10.1850    0.0000 C   0  0
    6.6552   -7.5547    0.0000 O   0  0
    2.8189   -7.6827    0.0000 O   0  0
    4.2673   -6.0681    0.0000 C   0  0
    3.5506   -6.4699    0.0000 C   0  0
    6.3318   -9.7905    0.0000 C   0  0
    4.9690   -6.4925    0.0000 C   0  0
    4.9295   -8.9463    0.0000 C   0  0
    7.0327  -10.2071    0.0000 N   0  0
    1.3579  -10.1138    0.0000 O   0  0
    2.8116   -8.5000    0.0000 C   0  0
    2.7823  -10.1351    0.0000 C   0  0
    2.0841   -9.7170    0.0000 C   0  0
    6.3489   -8.9704    0.0000 C   0  0
    7.7456   -9.8076    0.0000 C   0  0
    8.4480  -10.2252    0.0000 N   0  0
    7.7560   -8.9905    0.0000 S   0  0
   11.8189  -12.1668    0.0000 C   0  0
    9.8000  -10.2230    0.0000 C   0  0
   19.9038  -12.1772    0.0000 O   0  0
   13.8401  -11.0036    0.0000 O   0  0
   15.1879  -10.2279    0.0000 C   0  0  2  0  0  0
   31.3618  -11.0268    0.0000 C   0  0
   20.5761  -11.0108    0.0000 O   0  0
   13.8401   -8.6708    0.0000 O   0  0
   33.3778   -9.8580    0.0000 C   0  0  1  0  0  0
   21.9270  -10.2368    0.0000 C   0  0
   23.9472   -9.0716    0.0000 O   0  0
   30.0160   -7.9138    0.0000 C   0  0
   24.9005   -6.4745    0.0000 C   0  0
   27.9865  -11.4063    0.0000 C   0  0
   21.2516   -9.0681    0.0000 C   0  0
   11.8208  -11.3892    0.0000 C   0  0
   24.6227  -10.2363    0.0000 N   0  0
   29.2191  -11.6695    0.0000 N   0  0
    9.1215   -9.0520    0.0000 C   0  0
   22.5994   -9.8437    0.0000 N   0  0
   11.1482  -11.0001    0.0000 C   0  0
   25.9705  -10.2380    0.0000 C   0  0
   29.3385   -9.8526    0.0000 C   0  0  1  0  0  0
   25.2901   -8.4942    0.0000 C   0  0
   10.4738   -9.8290    0.0000 N   0  0
   29.0728  -13.0877    0.0000 C   0  0
   22.6024   -9.0681    0.0000 C   0  0
   24.9029   -9.1679    0.0000 C   0  0
   27.3141  -11.0215    0.0000 C   0  0
   34.0533   -7.9195    0.0000 C   0  0
   25.2950   -9.8473    0.0000 C   0  0  1  0  0  0
    9.8008   -7.8873    0.0000 O   0  0
   19.2313  -10.2333    0.0000 C   0  0  2  0  0  0
   23.2717  -12.5733    0.0000 O   0  0
   12.4905  -11.0017    0.0000 C   0  0
   25.8453   -9.2889    0.0000 C   0  0
   15.8644   -9.8348    0.0000 C   0  0
   27.5488  -12.7606    0.0000 C   0  0
   21.9270   -8.6773    0.0000 C   0  0
   11.1482  -10.2233    0.0000 C   0  0  2  0  0  0
   27.9865   -9.8508    0.0000 C   0  0
   34.0533  -10.2488    0.0000 C   0  0
   17.2080   -9.8366    0.0000 C   0  0  1  0  0  0
   17.8835  -11.0090    0.0000 O   0  0
   32.0341   -9.8562    0.0000 C   0  0
   18.1555   -8.8742    0.0000 C   0  0
   13.1642  -11.3925    0.0000 C   0  0
   28.6661  -10.2417    0.0000 N   0  0
   30.6863   -9.8545    0.0000 N   0  0
   23.2748  -11.0161    0.0000 C   0  0
   12.4884  -12.5578    0.0000 C   0  0
   31.3634   -8.6916    0.0000 C   0  0
   17.4051   -9.0803    0.0000 C   0  0
   18.5559   -9.8384    0.0000 N   0  0
   29.3385   -9.0788    0.0000 C   0  0
   19.9038   -9.8401    0.0000 C   0  0
    9.1215   -9.8288    0.0000 C   0  0  2  0  0  0
   28.8282  -12.3474    0.0000 C   0  0
   25.2889   -7.1475    0.0000 C   0  0
   30.6908   -7.5204    0.0000 C   0  0
   32.7055  -10.2470    0.0000 N   0  0
    9.8000  -10.9983    0.0000 O   0  0
   13.1632  -12.1686    0.0000 C   0  0
   30.0140  -10.2435    0.0000 C   0  0
   19.2313  -11.0108    0.0000 C   0  0
   12.4922  -10.2245    0.0000 N   0  0
   25.9705  -11.0197    0.0000 O   0  0
   21.9270  -11.0143    0.0000 O   0  0
   30.0140  -11.0250    0.0000 O   0  0
   27.3141  -10.2399    0.0000 C   0  0  1  0  0  0
   28.5471  -13.6644    0.0000 C   0  0
    9.8008   -8.6655    0.0000 C   0  0
   34.7256   -9.8598    0.0000 O   0  0
   23.9472  -12.1825    0.0000 C   0  0
   30.0140   -8.6880    0.0000 C   0  0
   19.9038   -9.0663    0.0000 O   0  0
   12.4923   -8.6725    0.0000 C   0  0
   21.9270   -7.9034    0.0000 C   0  0
   24.6195  -12.5716    0.0000 O   0  0
   10.4762   -9.0520    0.0000 N   0  0
   23.9472   -9.8455    0.0000 C   0  0
   19.9038  -11.3956    0.0000 C   0  0
   17.8835  -10.2315    0.0000 C   0  0
   32.0341   -9.0823    0.0000 O   0  0
   13.8401  -10.2262    0.0000 C   0  0
   11.8211   -9.0556    0.0000 O   0  0
   24.9017   -7.8212    0.0000 C   0  0
   34.0533   -8.6934    0.0000 C   0  0
   34.0533  -11.0304    0.0000 O   0  0
   21.2516   -9.8419    0.0000 C   0  0  2  0  0  0
   11.8211   -9.8298    0.0000 C   0  0
   15.8644   -9.0609    0.0000 O   0  0
   30.6887   -9.0807    0.0000 C   0  0
   13.1646   -9.8313    0.0000 C   0  0  2  0  0  0
   27.9865   -9.0770    0.0000 O   0  0
   13.1646   -9.0574    0.0000 C   0  0  2  0  0  0
   33.3778   -9.0800    0.0000 C   0  0
   15.1879  -11.0054    0.0000 C   0  0
   28.6992  -11.0956    0.0000 C   0  0
   20.5792  -10.2351    0.0000 N   0  0
   14.5124   -9.8330    0.0000 N   0  0
   26.6428   -9.8491    0.0000 N   0  0
   23.9472  -11.4009    0.0000 C   0  0
   16.8129   -9.1596    0.0000 C   0  0
   34.7288   -9.0800    0.0000 C   0  0
   28.0662  -12.1839    0.0000 C   0  0
   16.5398  -10.2298    0.0000 N   0  0
   23.2748  -10.2386    0.0000 C   0  0  1  0  0  0
   27.7852  -13.5050    0.0000 C   0  0
   31.3644   -7.9156    0.0000 C   0  0
   31.3618  -10.2452    0.0000 C   0  0  1  0  0  0
   18.3516   -8.1254    0.0000 C   0  0
 25 24  1  0
  9 10  2  0
 16 19  1  0
 13  5  1  0
 26  3  2  0
 17  1  2  0
  3  9  1  0
  5 20  2  0
 13 18  2  0
 24  2  2  0
 17 16  1  0
  6 25  2  0
  4 12  1  0
  3 20  1  0
  6 23  1  0
 23  8  2  0
  2  8  1  0
 19  4  2  0
 11 16  2  0
 12  7  2  0
  9 14  1  0
 23 15  1  0
  8  7  1  0
  1 12  1  0
 22 25  1  0
 15  1  1  0
 18 21  1  0
 20  7  1  0
 18 26  1  0
 21 27  1  0
 27 28  1  0
 27 29  2  0
117 59  1  0
 34 66  1  0
 70124  2  0
 52 84  1  1
 51131  1  0
 94111  1  0
 85129  1  0
 93 98  2  0
125 37  1  1
 82 75  1  0
 99 70  1  0
137110  1  0
 71102  1  0
 78140  1  0
 74 90  1  0
 53116  1  0
 66121  2  0
 83 62  1  0
 34127  1  6
 39 97  2  0
103108  2  0
120115  2  0
123125  1  0
112 73  2  0
 48101  1  0
120 95  1  0
 60 65  1  1
110 46  1  0
 92 80  2  0
 81139  1  0
 46 60  1  0
 93 78  1  0
140 74  1  0
135 87  2  0
 74113  2  0
111 32  2  0
131 99  1  0
 30 45  2  0
138 67  2  0
 84104  1  0
 38 71  1  0
 86 31  1  0
 31 91  2  0
 89 41  1  0
 66136  1  0
 87 55  1  0
139 89  2  0
 85105  2  0
100138  1  0
 47128  1  0
 80 30  1  0
 57 53  1  0
117134  1  0
123 95  1  1
 52 93  1  0
 69 50  1  6
 38126  1  1
 28 86  1  0
101109  1  0
 86 48  1  1
119 44  1  1
114130  1  0
 75141  1  0
116 88  1  0
132103  1  0
 31 54  1  0
 58 43  1  0
129119  1  0
 62 94  1  6
122 81  2  0
 99 58  1  6
 88 42  2  0
125106  1  0
101 61  2  0
 77 52  1  0
114 33  2  0
103 63  1  0
 51 96  2  0
 60 51  1  0
 68107  1  0
 41104  2  0
 60 57  1  0
130 34  1  0
119 39  1  0
 72133  1  1
 76 92  1  0
 67135  1  0
 69120  1  0
128 43  2  0
 50 45  1  0
137 79  1  6
140 35  1  6
111 36  1  0
 44 68  1  0
 90 38  1  0
104122  1  0
112 83  1  0
110 40  2  0
 55100  2  0
 45 64  1  0
 54 69  1  0
 79132  1  0
 70 77  1  0
 62 85  1  0
 43135  1  0
 87 47  1  0
141 42  1  0
 64 76  2  0
126117  1  0
 72 82  1  0
 71118  2  0
 49137  1  0
 39 49  1  0
123114  1  0
136 72  1  0
 68 56  1  0
 72112  1  0
M  END