
          11280715122D 1   1.00000     0.00000     0

 33 36  0     0  0            999 V2000
    6.6667   -6.3417    0.0000 C   0  0  0  0  0  0           0  0  0
    6.1375   -7.5667    0.0000 N   0  0  0  0  0  0           0  0  0
    6.8417   -7.1500    0.0000 N   0  0  0  0  0  0           0  0  0
    5.5167   -7.0375    0.0000 N   0  0  0  0  0  0           0  0  0
    3.6542   -2.0125    0.0000 C   0  0  0  0  0  0           0  0  0
    5.8500   -6.2667    0.0000 N   0  0  0  0  0  0           0  0  0
    7.2167   -5.7250    0.0000 C   0  0  0  0  0  0           0  0  0
    4.3667   -2.4250    0.0000 N   0  0  3  0  0  0           0  0  0
    5.0792   -0.4167    0.0000 C   0  0  0  0  0  0           0  0  0
    3.6542   -1.1792    0.0000 C   0  0  0  0  0  0           0  0  0
    7.2167   -4.9000    0.0000 C   0  0  0  0  0  0           0  0  0
    4.2792   -0.6375    0.0000 N   0  0  0  0  0  0           0  0  0
    2.9417   -2.4250    0.0000 N   0  0  0  0  0  0           0  0  0
    6.5042   -4.4875    0.0000 C   0  0  0  0  0  0           0  0  0
    4.3667   -3.2500    0.0000 C   0  0  0  0  0  0           0  0  0
    5.6667   -1.0000    0.0000 O   0  0  0  0  0  0           0  0  0
    5.2917    0.3833    0.0000 N   0  0  0  0  0  0           0  0  0
    5.7917   -4.9000    0.0000 C   0  0  0  0  0  0           0  0  0
    6.5042   -3.6542    0.0000 C   0  0  0  0  0  0           0  0  0
    5.0792   -3.6625    0.0000 C   0  0  0  0  0  0           0  0  0
    5.7875   -3.2417    0.0000 C   0  0  0  0  0  0           0  0  0
    5.0792   -4.4875    0.0000 C   0  0  0  0  0  0           0  0  0
    5.0792   -2.0125    0.0000 C   0  0  0  0  0  0           0  0  0
    7.9292   -6.1375    0.0000 C   0  0  0  0  0  0           0  0  0
    7.9292   -4.4875    0.0000 C   0  0  0  0  0  0           0  0  0
    2.9417   -0.7667    0.0000 C   0  0  0  0  0  0           0  0  0
    2.2292   -2.0125    0.0000 C   0  0  0  0  0  0           0  0  0
    6.0875    0.6000    0.0000 C   0  0  0  0  0  0           0  0  0
    5.7875   -2.4250    0.0000 C   0  0  0  0  0  0           0  0  0
    2.2292   -1.1875    0.0000 C   0  0  0  0  0  0           0  0  0
    8.6417   -5.7250    0.0000 C   0  0  0  0  0  0           0  0  0
    8.6417   -4.8917    0.0000 C   0  0  0  0  0  0           0  0  0
    6.4917   -2.0167    0.0000 C   0  0  0  0  0  0           0  0  0
  2  3  2  0     0  0
  3  1  1  0     0  0
  4  6  1  0     0  0
  5  8  1  0     0  0
  6  1  2  0     0  0
  7  1  1  0     0  0
  8 15  1  0     0  0
  9 12  1  0     0  0
 10  5  1  0     0  0
 11  7  2  0     0  0
 12 10  1  0     0  0
 13  5  2  0     0  0
 14 11  1  0     0  0
 15 20  1  0     0  0
 16  9  2  0     0  0
 17  9  1  0     0  0
 18 14  2  0     0  0
 19 14  1  0     0  0
 20 21  1  0     0  0
 21 19  2  0     0  0
 22 18  1  0     0  0
 23  8  1  0     0  0
 24  7  1  0     0  0
 25 11  1  0     0  0
 26 10  2  0     0  0
 27 13  1  0     0  0
 28 17  1  0     0  0
 29 23  1  0     0  0
 30 27  2  0     0  0
 31 24  2  0     0  0
 32 31  1  0     0  0
 33 29  1  0     0  0
  2  4  1  0     0  0
 25 32  2  0     0  0
 22 20  2  0     0  0
 30 26  1  0     0  0
M  END