
  Mrv0541 09091311432D          

 29 31  0  0  0  0            999 V2000
   -0.8977   -1.7077    0.0000 C   0  0  0  0  0  0  0  0  0  0  0  0
   -1.6116   -1.3027    0.0000 C   0  0  0  0  0  0  0  0  0  0  0  0
   -2.3256   -1.7077    0.0000 C   0  0  0  0  0  0  0  0  0  0  0  0
    0.5428    2.4383    0.0000 C   0  0  0  0  0  0  0  0  0  0  0  0
    1.2568    1.1983    0.0000 N   0  0  0  0  0  0  0  0  0  0  0  0
   -0.8977   -2.5428    0.0000 C   0  0  0  0  0  0  0  0  0  0  0  0
    1.2568    2.0250    0.0000 C   0  0  0  0  0  0  0  0  0  0  0  0
   -2.3256   -2.5428    0.0000 C   0  0  0  0  0  0  0  0  0  0  0  0
   -0.1712   -1.3027    0.0000 N   0  0  0  0  0  0  0  0  0  0  0  0
   -1.6116   -2.9478    0.0000 C   0  0  0  0  0  0  0  0  0  0  0  0
    0.5428   -1.7077    0.0000 C   0  0  0  0  0  0  0  0  0  0  0  0
   -0.1837    2.0041    0.0000 C   0  0  0  0  0  0  0  0  0  0  0  0
   -0.8977    1.5866    0.0000 N   0  0  0  0  0  0  0  0  0  0  0  0
    1.2568   -0.4677    0.0000 N   0  0  0  0  0  0  0  0  0  0  0  0
    1.9708    2.4383    0.0000 C   0  0  0  0  0  0  0  0  0  0  0  0
    0.5428    3.2651    0.0000 C   0  0  0  0  0  0  0  0  0  0  0  0
    1.9708    0.7849    0.0000 C   0  0  0  0  0  0  0  0  0  0  0  0
    0.5428    0.7849    0.0000 C   0  0  0  0  0  0  0  0  0  0  0  0
    1.2568   -1.3027    0.0000 C   0  0  0  0  0  0  0  0  0  0  0  0
    0.5428   -2.5428    0.0000 O   0  0  0  0  0  0  0  0  0  0  0  0
   -1.6116   -0.4677    0.0000 H   0  0  0  0  0  0  0  0  0  0  0  0
   -0.1837   -2.9478    0.0000 H   0  0  0  0  0  0  0  0  0  0  0  0
   -3.0521   -2.9603    0.0000 H   0  0  0  0  0  0  0  0  0  0  0  0
    0.5428   -0.0543    0.0000 C   0  0  0  0  0  0  0  0  0  0  0  0
    1.9708   -0.0543    0.0000 C   0  0  0  0  0  0  0  0  0  0  0  0
    1.2568    3.6784    0.0000 C   0  0  0  0  0  0  0  0  0  0  0  0
    1.9708    3.2651    0.0000 C   0  0  0  0  0  0  0  0  0  0  0  0
    1.2568    4.5010    0.0000 H   0  0  0  0  0  0  0  0  0  0  0  0
   -3.0521   -1.3027    0.0000 C   0  0  0  0  0  0  0  0  0  0  0  0
  2  1  2  0  0  0  0
  3  2  1  0  0  0  0
  4  7  1  0  0  0  0
  5 17  1  0  0  0  0
  6  1  1  0  0  0  0
  7  5  1  0  0  0  0
  8 10  1  0  0  0  0
  9  1  1  0  0  0  0
 10  6  2  0  0  0  0
 11  9  1  0  0  0  0
 12  4  1  0  0  0  0
 13 12  3  0  0  0  0
 14 19  1  0  0  0  0
 15  7  2  0  0  0  0
 16  4  2  0  0  0  0
 17 25  1  0  0  0  0
 18 24  1  0  0  0  0
 19 11  1  0  0  0  0
 20 11  2  0  0  0  0
 21  2  1  0  0  0  0
 22  6  1  0  0  0  0
 23  8  1  0  0  0  0
 24 14  1  0  0  0  0
 25 14  1  0  0  0  0
 26 27  2  0  0  0  0
 27 15  1  0  0  0  0
 28 26  1  0  0  0  0
 29  3  1  0  0  0  0
  3  8  2  0  0  0  0
 18  5  1  0  0  0  0
 16 26  1  0  0  0  0
M  ISO  4  21   3  22   3  23   3  28   3
M  END