
          11280715362D 1   1.00000     0.00000     0

 32 34  0     1  0            999 V2000
    4.8917   -3.5167    0.0000 C   0  0  0  0  0  0           0  0  0
    3.8750   -5.2667    0.0000 N   0  0  3  0  0  0           0  0  0
    4.8917   -4.6917    0.0000 C   0  0  0  0  0  0           0  0  0
    4.3875   -4.3917    0.0000 C   0  0  0  0  0  0           0  0  0
    4.8875   -5.2792    0.0000 C   0  0  0  0  0  0           0  0  0
    4.3875   -3.8042    0.0000 C   0  0  0  0  0  0           0  0  0
    3.8792   -4.6792    0.0000 C   0  0  0  0  0  0           0  0  0
    5.4000   -3.8167    0.0000 C   0  0  2  0  0  0           0  0  0
    5.9167   -3.5292    0.0000 N   0  0  3  0  0  0           0  0  0
    5.4000   -4.4000    0.0000 C   0  0  0  0  0  0           0  0  0
    4.9000   -2.9250    0.0000 C   0  0  0  0  0  0           0  0  0
    5.9250   -2.9417    0.0000 C   0  0  0  0  0  0           0  0  0
    5.4125   -2.6375    0.0000 C   0  0  2  0  0  0           0  0  0
    7.6292   -4.7792    0.0000 C   0  0  0  0  0  0           0  0  0
    8.8375   -4.7917    0.0000 C   0  0  0  0  0  0           0  0  0
    7.9292   -4.2667    0.0000 C   0  0  0  0  0  0           0  0  0
    8.5292   -4.2667    0.0000 C   0  0  0  0  0  0           0  0  0
    3.2792   -5.8417    0.0000 C   0  0  3  0  0  0           0  0  0
    9.4375   -4.7917    0.0000 O   0  0  0  0  0  0           0  0  0
    7.9292   -5.3042    0.0000 O   0  0  0  0  0  0           0  0  0
    3.3750   -4.3917    0.0000 C   0  0  0  0  0  0           0  0  0
    3.8792   -3.5125    0.0000 C   0  0  0  0  0  0           0  0  0
    6.4250   -3.8292    0.0000 C   0  0  0  0  0  0           0  0  0
    7.0292   -4.7792    0.0000 O   0  0  0  0  0  0           0  0  0
    8.5292   -5.3042    0.0000 O   0  0  0  0  0  0           0  0  0
    5.4167   -2.0417    0.0000 C   0  0  0  0  0  0           0  0  0
    5.9375   -1.7542    0.0000 O   0  0  0  0  0  0           0  0  0
    3.3750   -3.8042    0.0000 C   0  0  0  0  0  0           0  0  0
    2.4875   -5.6167    0.0000 C   0  0  0  0  0  0           0  0  0
    3.4792   -6.6417    0.0000 C   0  0  0  0  0  0           0  0  0
    5.9125   -4.1042    0.0000 H   0  0  0  0  0  0           0  0  0
    4.9000   -2.3417    0.0000 H   0  0  0  0  0  0           0  0  0
  2  7  1  0     0  0
  3 10  1  0     0  0
  4  6  2  0     0  0
  5  3  2  0     0  0
  6  1  1  0     0  0
  7  4  1  0     0  0
  8  1  1  0     0  0
  9  8  1  0     0  0
 10  8  1  0     0  0
 11  1  2  0     0  0
 12 13  1  0     0  0
 13 11  1  0     0  0
 15 17  1  0     0  0
 16 14  1  0     0  0
 17 16  2  0     0  0
 18  2  1  0     0  0
 19 15  2  0     0  0
 20 14  2  0     0  0
 21  7  2  0     0  0
 22  6  1  0     0  0
 23  9  1  0     0  0
 24 14  1  0     0  0
 25 15  1  0     0  0
 26 13  1  0     0  0
 27 26  1  0     0  0
 28 22  2  0     0  0
 29 18  1  0     0  0
 30 18  1  0     0  0
  8 31  1  1     0  0
 13 32  1  6     0  0
  3  4  1  0     0  0
 12  9  1  0     0  0
 28 21  1  0     0  0
  5  2  1  0     0  0
M  END