
          11280715492D 1   1.00000     0.00000     0

 18 20  0     0  0            999 V2000
   11.4599  -12.9814    0.0000 N   0  0  0  0  0  0           0  0  0
   11.9266  -12.3009    0.0000 C   0  0  0  0  0  0           0  0  0
   11.4209  -11.6458    0.0000 C   0  0  0  0  0  0           0  0  0
   12.7513  -12.2777    0.0000 C   0  0  0  0  0  0           0  0  0
   13.1837  -12.9803    0.0000 O   0  0  0  0  0  0           0  0  0
   13.1435  -11.5520    0.0000 N   0  0  3  0  0  0           0  0  0
   13.9671  -11.5328    0.0000 C   0  0  0  0  0  0           0  0  0
   14.3594  -10.8111    0.0000 C   0  0  0  0  0  0           0  0  0
   13.9304  -10.1060    0.0000 N   0  0  3  0  0  0           0  0  0
   13.1047  -10.1272    0.0000 C   0  0  0  0  0  0           0  0  0
   12.7080  -10.8536    0.0000 C   0  0  0  0  0  0           0  0  0
   14.3254   -9.3817    0.0000 C   0  0  0  0  0  0           0  0  0
   10.6638  -12.7468    0.0000 C   0  0  0  0  0  0           0  0  0
   10.6421  -11.9235    0.0000 C   0  0  0  0  0  0           0  0  0
    9.8524  -11.6897    0.0000 S   0  0  0  0  0  0           0  0  0
    9.3859  -12.3685    0.0000 C   0  0  0  0  0  0           0  0  0
    9.8875  -13.0218    0.0000 C   0  0  0  0  0  0           0  0  0
    8.5612  -12.3903    0.0000 Cl  0  0  0  0  0  0           0  0  0
  2  4  1  0     0  0
  6 11  1  0     0  0
  7  8  1  0     0  0
  8  9  1  0     0  0
  9 10  1  0     0  0
 10 11  1  0     0  0
  4  5  2  0     0  0
  9 12  1  0     0  0
 13 14  2  0     0  0
  1  2  1  0     0  0
  4  6  1  0     0  0
  6  7  1  0     0  0
  2  3  2  0     0  0
  3 14  1  0     0  0
 14 15  1  0     0  0
 15 16  1  0     0  0
 16 17  2  0     0  0
 17 13  1  0     0  0
 13  1  1  0     0  0
 16 18  1  0     0  0
M  END