
  SciTegic04151115542D

 26 29  0  0  0  0            999 V2000
    8.3267  -11.4230    0.0000 C   0  0
    7.9141  -10.7079    0.0000 C   0  0
    7.0852  -10.7107    0.0000 C   0  0
    6.6768  -11.4248    0.0000 C   0  0
    7.9146  -12.1365    0.0000 C   0  0
    7.0934  -12.1369    0.0000 C   0  0
    7.5046  -13.4005    0.0000 C   0  0
    8.1683  -12.9177    0.0000 N   0  0
    7.5050  -14.2281    0.0000 N   0  0
    6.7885  -14.6423    0.0000 C   0  0
    6.0716  -14.2289    0.0000 C   0  0
    5.3551  -14.6430    0.0000 C   0  0
    4.6382  -14.2296    0.0000 C   0  0
    8.8943  -13.3149    0.0000 C   0  0
    9.6014  -12.8849    0.0000 C   0  0
   10.3274  -13.2822    0.0000 N   0  0
    9.5825  -12.0575    0.0000 O   0  0
   10.4356  -14.0989    0.0000 C   0  0
   11.2488  -14.2524    0.0000 C   0  0
   11.0784  -12.9243    0.0000 C   0  0
   11.6415  -13.5272    0.0000 C   0  0
   12.4432  -13.3404    0.0000 C   0  0
   12.6828  -12.5512    0.0000 C   0  0
   12.1146  -11.9487    0.0000 C   0  0
   11.3151  -12.1388    0.0000 C   0  0
    6.8399  -12.9181    0.0000 N   0  0
  5  1  1  0
 11 12  1  0
  2  3  1  0
 12 13  1  0
  8 14  1  0
  3  4  2  0
 14 15  1  0
  6 26  1  0
 15 16  1  0
 26  7  2  0
 15 17  2  0
 16 18  1  0
  7  8  1  0
  8  5  1  0
 18 19  1  0
 19 21  1  0
 20 16  1  0
  4  6  1  0
  7  9  1  0
 20 21  2  0
  5  6  2  0
 21 22  1  0
  9 10  1  0
 22 23  2  0
  1  2  2  0
 23 24  1  0
 10 11  1  0
 24 25  2  0
 25 20  1  0
M  END