
  SciTegic01061111512D

 27 29  0  0  0  0            999 V2000
   17.4712  -11.4886    0.0000 C   0  0  2  0  0  0
   17.4712  -12.3136    0.0000 C   0  0  1  0  0  0
   18.1839  -12.7199    0.0000 C   0  0  1  0  0  0
   18.8965  -12.3136    0.0000 C   0  0  2  0  0  0
   18.8965  -11.4886    0.0000 C   0  0  1  0  0  0
   18.1839  -11.0698    0.0000 O   0  0
   19.6087  -11.0761    0.0000 S   0  0
   19.6111  -10.2510    0.0000 C   0  0
   19.6069  -12.7251    0.0000 O   0  0
   18.1839  -13.5450    0.0000 N   0  0
   17.5179  -14.0357    0.0000 C   0  0
   17.7717  -14.8206    0.0000 C   0  0
   18.5967  -14.8206    0.0000 N   0  0
   18.8503  -14.0357    0.0000 N   0  0
   16.7568  -12.7251    0.0000 O   0  0
   16.7550  -11.0761    0.0000 C   0  0
   16.7526  -10.2510    0.0000 O   0  0
   17.2891  -15.4888    0.0000 S   0  0
   16.4644  -15.4835    0.0000 C   0  0
   16.0571  -14.7636    0.0000 C   0  0
   15.2328  -14.7580    0.0000 C   0  0
   14.8169  -15.4708    0.0000 C   0  0
   15.2271  -16.1909    0.0000 C   0  0
   16.0500  -16.1931    0.0000 C   0  0
   16.8701  -16.1985    0.0000 O   0  0
   18.0849  -15.6968    0.0000 O   0  0
   13.9919  -15.4666    0.0000 C   0  0
 12 13  1  0
 13 14  2  0
 14 10  1  0
  5  7  1  1
  2 15  1  1
  1  2  1  0
  1 16  1  1
  7  8  1  0
 16 17  1  0
  1  6  1  0
 12 18  1  0
  4  9  1  6
 18 19  1  0
  2  3  1  0
 19 20  2  0
  3 10  1  1
 20 21  1  0
 10 11  1  0
 21 22  2  0
  3  4  1  0
 22 23  1  0
  4  5  1  0
 23 24  2  0
 24 19  1  0
  5  6  1  0
 18 25  2  0
 18 26  2  0
 11 12  2  0
 22 27  1  0
M  END