
  SciTegic01161211222D

 13 14  0  0  0  0            999 V2000
   -0.2583   -3.0792    0.0000 N   0  0
    2.2917   -1.3417    0.0000 N   0  0
   -0.1250   -2.4917    0.0000 C   0  0
   -1.0958   -2.5917    0.0000 N   0  0
   -0.8500   -3.1417    0.0000 C   0  0
   -0.6500   -2.1917    0.0000 C   0  0
    0.4000   -2.1917    0.0000 C   0  0
    0.9250   -2.4917    0.0000 C   0  0
    1.7125   -1.1875    0.0000 C   0  0
    2.4417   -1.9167    0.0000 C   0  0
    1.4500   -2.1917    0.0000 C   0  0
    1.2875   -1.6125    0.0000 C   0  0
    2.0292   -2.3417    0.0000 C   0  0
  2 10  1  0
  3  1  1  0
  4  5  1  0
  5  1  2  0
  6  3  2  0
  7  3  1  0
  8  7  1  0
  9 12  1  0
 10 13  1  0
 11  8  1  0
 12 11  1  0
 13 11  1  0
  6  4  1  0
  9  2  1  0
M  END