
  SciTegic01161211252D

 20 23  0  0  0  0            999 V2000
   -5.6211  -12.5192    0.0000 C   0  0
   -5.6223  -13.3470    0.0000 C   0  0
   -4.9070  -13.7601    0.0000 C   0  0
   -4.9088  -12.1062    0.0000 C   0  0
   -4.1931  -12.5155    0.0000 C   0  0
   -4.1923  -13.3429    0.0000 C   0  0
   -3.4767  -13.7540    0.0000 N   0  0
   -3.4823  -12.1012    0.0000 C   0  0
   -2.7660  -12.5086    0.0000 N   0  0
   -2.7629  -13.3360    0.0000 C   0  0
   -1.9751  -13.5887    0.0000 C   0  0
   -1.7170  -14.3728    0.0000 O   0  0
   -3.4867  -11.2757    0.0000 O   0  0
   -1.9801  -12.2501    0.0000 C   0  0
   -1.4967  -12.9165    0.0000 C   0  0
   -0.6798  -12.8303    0.0000 C   0  0
   -0.3452  -12.0782    0.0000 C   0  0
   -0.8337  -11.4115    0.0000 C   0  0
   -1.6489  -11.5012    0.0000 C   0  0
    0.4756  -11.9901    0.0000 F   0  0
  5  4  2  0
  4  1  1  0
 10 11  1  0
 11 15  1  0
 14  9  1  0
  2  3  1  0
 11 12  2  0
  5  6  1  0
  8 13  2  0
  3  6  2  0
  6  7  1  0
 14 15  2  0
  7 10  2  0
 15 16  1  0
  1  2  2  0
 16 17  2  0
  9  8  1  0
 17 18  1  0
  8  5  1  0
 18 19  2  0
 19 14  1  0
  9 10  1  0
 17 20  1  0
M  END