
  SciTegic12171312552D

 47 54  0  0  0  0            999 V2000
   21.1972  -19.2013    0.0000 C   0  0
   22.2886  -19.7122    0.0000 O   0  0
   21.1938  -18.3743    0.0000 C   0  0
   21.7833  -17.7903    0.0000 N   0  0
   21.4101  -17.0492    0.0000 N   0  0
   20.5892  -17.1756    0.0000 N   0  0
   20.4563  -17.9941    0.0000 C   0  0
   20.1747  -16.4603    0.0000 C   0  0
   19.3480  -16.4616    0.0000 C   0  0
   18.9377  -15.7440    0.0000 C   0  0
   18.1178  -17.1798    0.0000 C   0  0
   18.9424  -17.1753    0.0000 C   0  0
   17.6988  -16.4623    0.0000 C   0  0
   18.1152  -15.7470    0.0000 C   0  0
   17.7062  -15.0329    0.0000 C   0  0
   16.8736  -16.4633    0.0000 C   0  0
   16.4630  -15.7428    0.0000 C   0  0
   16.8790  -15.0305    0.0000 C   0  0
   16.4702  -14.3162    0.0000 C   0  0
   15.6456  -14.3129    0.0000 C   0  0
   15.2314  -15.0300    0.0000 C   0  0
   15.6425  -15.7414    0.0000 C   0  0
   18.1219  -14.3183    0.0000 O   0  0
   16.4586  -17.1783    0.0000 O   0  0
   23.1943  -19.2013    0.0000 C   0  0
   22.6124  -17.7902    0.0000 N   0  0
   23.1944  -18.3710    0.0000 C   0  0
   23.9267  -17.9970    0.0000 C   0  0
   23.7982  -17.1843    0.0000 N   0  0
   22.9850  -17.0573    0.0000 N   0  0
   24.1989  -16.4611    0.0000 C   0  0
   25.0254  -16.4466    0.0000 C   0  0
   25.4488  -17.1540    0.0000 C   0  0
   26.2456  -15.7053    0.0000 C   0  0
   25.4213  -15.7230    0.0000 C   0  0
   26.6761  -16.4161    0.0000 C   0  0
   26.2711  -17.1375    0.0000 C   0  0
   26.6912  -17.8450    0.0000 C   0  0
   27.5009  -16.4022    0.0000 C   0  0
   27.9226  -17.1158    0.0000 C   0  0
   27.5179  -17.8347    0.0000 C   0  0
   27.9380  -18.5426    0.0000 C   0  0
   28.7628  -18.5327    0.0000 C   0  0
   29.1655  -17.8091    0.0000 C   0  0
   28.7431  -17.1042    0.0000 C   0  0
   27.9045  -15.6807    0.0000 O   0  0
   26.2866  -18.5660    0.0000 O   0  0
  1  3  1  0
  1  2  1  0
  3  4  1  0
  4  5  2  0
  5  6  1  0
  6  7  1  0
  7  3  2  0
  6  8  1  0
  8  9  1  0
  9 10  2  0
 10 14  1  0
 13 11  1  0
 11 12  2  0
 12  9  1  0
 13 14  2  0
 13 16  1  0
 14 15  1  0
 15 18  1  0
 17 16  1  0
 17 18  2  0
 18 19  1  0
 19 20  2  0
 20 21  1  0
 21 22  2  0
 22 17  1  0
 15 23  2  0
 16 24  2  0
  2 25  1  0
 25 27  1  0
 26 27  1  0
 27 28  2  0
 28 29  1  0
 29 30  1  0
 30 26  2  0
 29 31  1  0
 31 32  1  0
 32 33  2  0
 33 37  1  0
 36 34  1  0
 34 35  2  0
 35 32  1  0
 36 37  2  0
 36 39  1  0
 37 38  1  0
 38 41  1  0
 40 39  1  0
 40 41  2  0
 41 42  1  0
 42 43  2  0
 43 44  1  0
 44 45  2  0
 45 40  1  0
 39 46  2  0
 38 47  2  0
M  END