
  SciTegic01111613442D

 26 28  0  0  0  0            999 V2000
    1.2990   -0.7500    0.0000 C   0  0
   -1.2990    0.7500    0.0000 N   0  0
    1.2990    0.7500    0.0000 C   0  0
    0.0000   -1.5000    0.0000 C   0  0
    1.2641   -2.2299    0.0000 C   0  0
   -3.8912    5.2578    0.0000 C   0  0
   -5.1894    6.0109    0.0000 C   0  0
   -2.8509    5.8560    0.0000 O   0  0
   -1.2990   -0.7500    0.0000 C   0  0
    0.0000    1.5000    0.0000 C   0  0
    2.5451   -3.0103    0.0000 C   0  0
   -0.0523   -2.9490    0.0000 C   0  0
   -5.1895    7.5109    0.0000 C   0  0
   -6.4886    5.2609    0.0000 C   0  0
    2.3239   -0.1258    0.0000 O   0  0
    1.1933   -5.2290    0.0000 C   0  0
   -7.7876    7.5110    0.0000 C   0  0
   -0.0877   -4.4486    0.0000 C   0  0
   -6.4885    8.2609    0.0000 C   0  0
    2.5097   -4.5099    0.0000 C   0  0
   -7.7876    6.0110    0.0000 C   0  0
   -8.8268    8.1110    0.0000 F   0  0
    1.1650   -6.4287    0.0000 Cl  0  0
   -2.5973    1.5031    0.0000 C   0  0
   -2.5951    3.0039    0.0000 C   0  0
   -3.8933    3.7570    0.0000 C   0  0
  2  9  1  0
  3  1  1  0
  4  1  1  0
  5  1  1  0
  6 26  1  0
  7  6  1  0
  8  6  2  0
  9  4  1  0
 10  3  1  0
 11  5  1  0
 12  5  2  0
 13  7  1  0
 14  7  2  0
 15  1  1  0
 16 18  2  0
 17 21  2  0
 18 12  1  0
 19 13  2  0
 20 11  2  0
 21 14  1  0
 22 17  1  0
 23 16  1  0
 24  2  1  0
 25 24  1  0
 26 25  1  0
 10  2  1  0
 16 20  1  0
 19 17  1  0
M  END