
  SciTegic11081110012D

 36 38  0  0  0  0            999 V2000
    4.2491   -7.5400    0.0000 C   0  0
    4.4591   -8.3157    0.0000 C   0  0  1  0  0  0
    6.0986   -7.5002    0.0000 C   0  0
    5.9049   -8.3345    0.0000 N   0  0
    5.1874   -8.6713    0.0000 C   0  0
    5.1811   -9.4962    0.0000 O   0  0
    3.7481   -8.7351    0.0000 N   0  0
    3.0297   -8.3293    0.0000 C   0  0
    2.3192   -8.7485    0.0000 C   0  0
    3.0219   -7.5044    0.0000 O   0  0
    6.6146   -8.7551    0.0000 C   0  0
    7.3337   -8.3507    0.0000 C   0  0
    8.0435   -8.7713    0.0000 N   0  0
    7.3431   -7.5257    0.0000 O   0  0
    4.7629   -6.8604    0.0000 C   0  0
    5.5921   -6.8561    0.0000 C   0  0
    6.0011   -6.1370    0.0000 C   0  0
    5.5822   -5.4217    0.0000 C   0  0
    4.7498   -5.4301    0.0000 C   0  0
    4.3445   -6.1497    0.0000 C   0  0
    8.7626   -8.3669    0.0000 C   0  0
    9.4723   -8.7875    0.0000 C   0  0
    9.4587   -9.6093    0.0000 C   0  0
   10.1676  -10.0298    0.0000 C   0  0
   10.8877   -9.6254    0.0000 C   0  0
   10.8945   -8.7961    0.0000 C   0  0
   10.1850   -8.3794    0.0000 C   0  0
   11.6122   -8.3892    0.0000 C   0  0
   12.3234   -8.8073    0.0000 F   0  0
   11.6186   -7.5643    0.0000 F   0  0
   12.3208   -7.9708    0.0000 F   0  0
   10.1579  -10.8547    0.0000 C   0  0
    9.4386  -11.2588    0.0000 F   0  0
   10.8674  -11.2757    0.0000 F   0  0
   10.1500  -11.6792    0.0000 F   0  0
    8.0341   -9.5962    0.0000 C   0  0
 17 18  2  0
  3  4  1  0
 18 19  1  0
  8  9  1  0
 19 20  2  0
 20 15  1  0
  4  5  1  0
 13 21  1  0
  8 10  2  0
 21 22  1  0
  5  2  1  0
 22 23  2  0
  4 11  1  0
 23 24  1  0
 16  3  1  0
 24 25  2  0
 11 12  1  0
 25 26  1  0
 26 27  2  0
 27 22  1  0
 12 13  1  0
 26 28  1  0
  5  6  2  0
 28 29  1  0
 12 14  2  0
 28 30  1  0
 15  1  1  0
 28 31  1  0
  2  7  1  1
 24 32  1  0
 15 16  2  0
 32 33  1  0
  1  2  1  0
 32 34  1  0
 16 17  1  0
 32 35  1  0
  7  8  1  0
 13 36  1  0
M  END