
  SciTegic04021211102D

 28 30  0  0  0  0            999 V2000
   -4.1508  -17.3178    0.0000 C   0  0
   -4.1520  -18.1414    0.0000 C   0  0
   -3.4376  -18.5523    0.0000 C   0  0
   -2.7215  -18.1408    0.0000 C   0  0
   -2.7246  -17.3140    0.0000 C   0  0
   -3.4395  -16.9026    0.0000 C   0  0
   -2.0197  -16.8975    0.0000 C   0  0
   -1.3039  -17.3115    0.0000 C   0  0
   -0.5920  -16.8945    0.0000 C   0  0
   -0.5948  -16.0725    0.0000 N   0  0
   -1.3156  -15.6649    0.0000 C   0  0
   -2.0245  -16.0800    0.0000 N   0  0
   -3.4378  -19.3778    0.0000 C   0  0
   -2.7240  -19.7886    0.0000 N   0  0
   -2.0142  -19.3782    0.0000 C   0  0
   -1.3003  -19.7889    0.0000 C   0  0
   -3.4421  -16.0815    0.0000 C   0  0
   -1.3220  -14.8394    0.0000 N   0  0
   -0.5863  -19.3785    0.0000 C   0  0
   -4.1866  -19.8107    0.0000 O   0  0
    0.1618  -19.8125    0.0000 C   0  0
    0.1601  -20.6773    0.0000 N   0  0
    0.9082  -21.1111    0.0000 C   0  0
    0.9064  -21.9759    0.0000 O   0  0
    1.6580  -20.6802    0.0000 C   0  0
    1.6597  -19.8154    0.0000 C   0  0
    0.9117  -19.3815    0.0000 S   0  0
   -4.9009  -18.5738    0.0000 C   0  0
  1  2  2  0
 13 14  1  0
  3  4  2  0
 14 15  1  0
  7  8  2  0
 15 16  1  0
  6 17  1  0
  8  9  1  0
 11 18  1  0
  4  5  1  0
 16 19  1  0
  9 10  2  0
 13 20  2  0
  2  3  1  0
 19 21  1  0
 10 11  1  0
 21 22  1  0
  5  6  2  0
 22 23  1  0
 11 12  2  0
 23 24  2  0
 12  7  1  0
 23 25  1  0
  5  7  1  0
 25 26  1  0
  6  1  1  0
 26 27  1  0
  9 27  1  0
  3 13  1  0
  2 28  1  0
M  END