
  Mrv0541 05211314572D          

 23 23  0  0  0  0            999 V2000
   -1.8717    0.7778    0.0000 C   0  0  0  0  0  0  0  0  0  0  0  0
   -1.3868    0.1103    0.0000 N   0  0  0  0  0  0  0  0  0  0  0  0
   -1.7223   -0.6433    0.0000 C   0  0  0  0  0  0  0  0  0  0  0  0
   -2.5428   -0.7296    0.0000 C   0  0  0  0  0  0  0  0  0  0  0  0
   -3.0277   -0.0621    0.0000 N   0  0  0  0  0  0  0  0  0  0  0  0
   -2.6922    0.6915    0.0000 C   0  0  0  0  0  0  0  0  0  0  0  0
   -0.5663    0.1966    0.0000 C   0  0  0  0  0  0  0  0  0  0  0  0
   -0.0143   -0.4165    0.0000 S   0  0  0  0  0  0  0  0  0  0  0  0
    0.7394   -0.0810    0.0000 C   0  0  0  0  0  0  0  0  0  0  0  0
    0.6532    0.7395    0.0000 C   0  0  0  0  0  0  0  0  0  0  0  0
   -0.1538    0.9110    0.0000 N   0  0  0  0  0  0  0  0  0  0  0  0
    1.4539   -0.4935    0.0000 C   0  0  0  0  0  0  0  0  0  0  0  0
    2.1683   -0.0810    0.0000 C   0  0  0  0  0  0  0  0  0  0  0  0
    2.8828   -0.4935    0.0000 N   0  0  0  0  0  0  0  0  0  0  0  0
    2.8828   -1.3185    0.0000 C   0  0  0  0  0  0  0  0  0  0  0  0
   -3.8482   -0.1484    0.0000 C   0  0  0  0  0  0  0  0  0  0  0  0
   -4.3331    0.5191    0.0000 C   0  0  0  0  0  0  0  0  0  0  0  0
   -5.1536    0.4328    0.0000 C   0  0  0  0  0  0  0  0  0  0  0  0
    3.5973   -0.0810    0.0000 C   0  0  0  0  0  0  0  0  0  0  0  0
    3.5973    0.7440    0.0000 O   0  0  0  0  0  0  0  0  0  0  0  0
    4.3118   -0.4935    0.0000 C   0  0  0  0  0  0  0  0  0  0  0  0
    5.0262   -0.0810    0.0000 C   0  0  0  0  0  0  0  0  0  0  0  0
    7.2655    0.0000    0.0000 Br  0  0  0  0  0  0  0  0  0  0  0  0
 10 11  1  0  0  0  0
 11  7  2  0  0  0  0
  4  5  1  0  0  0  0
  9 12  1  0  0  0  0
  5  6  1  0  0  0  0
 12 13  1  0  0  0  0
 13 14  1  0  0  0  0
  2  7  1  0  0  0  0
 14 15  1  0  0  0  0
  7  8  1  0  0  0  0
  5 16  1  0  0  0  0
  1  2  1  0  0  0  0
 16 17  1  0  0  0  0
  1  6  1  0  0  0  0
 17 18  1  0  0  0  0
  2  3  1  0  0  0  0
 14 19  1  0  0  0  0
  3  4  1  0  0  0  0
 19 20  2  0  0  0  0
  8  9  1  0  0  0  0
 19 21  1  0  0  0  0
  9 10  2  0  0  0  0
 21 22  1  0  0  0  0
M  END