
  SciTegic09261414462D

144151  0  0  0  0            999 V2000
    4.1183   -6.5738    0.0000 C   0  0
    4.0804   -9.0202    0.0000 C   0  0
    6.2215   -7.8324    0.0000 C   0  0
    5.5298   -6.5919    0.0000 C   0  0
    5.4975   -9.0492    0.0000 C   0  0
    2.6742   -8.1813    0.0000 C   0  0
    4.8002   -7.8083    0.0000 C   0  0
    4.0910   -8.2053    0.0000 C   0  0
    6.4406   -7.0456    0.0000 C   0  0
    5.8662   -6.4624    0.0000 O   0  0
    4.8526   -4.5247    0.0000 O   0  0
    4.8165   -6.9919    0.0000 C   0  0
    6.2023   -9.4681    0.0000 C   0  0
    7.2323   -6.8377    0.0000 O   0  0
    3.3960   -6.9657    0.0000 O   0  0
    4.8444   -5.3511    0.0000 C   0  0
    4.1277   -5.7530    0.0000 C   0  0
    6.9089   -9.0735    0.0000 C   0  0
    5.5462   -5.7756    0.0000 C   0  0
    5.5066   -8.2294    0.0000 C   0  0
    7.6098   -9.4902    0.0000 N   0  0
    1.9350   -9.3969    0.0000 O   0  0
    3.3887   -7.7831    0.0000 C   0  0
    3.3594   -9.4182    0.0000 C   0  0
    2.6612   -9.0001    0.0000 C   0  0
    6.9260   -8.2535    0.0000 C   0  0
    8.3227   -9.0907    0.0000 C   0  0
    9.0251   -9.5082    0.0000 N   0  0
    8.3331   -8.2735    0.0000 S   0  0
   13.2859  -11.9764    0.0000 C   0  0
   29.6607  -10.7658    0.0000 C   0  0
   20.4142  -10.3430    0.0000 C   0  0
   16.8509   -8.2859    0.0000 O   0  0
   30.4144  -10.4322    0.0000 C   0  0
   24.6810  -11.9939    0.0000 O   0  0
   14.7196   -7.8684    0.0000 O   0  0
   37.4937  -10.3643    0.0000 C   0  0
   32.5132   -6.6631    0.0000 C   0  0
   26.1087   -9.5264    0.0000 N   0  0
   11.8699  -10.3323    0.0000 C   0  0
   41.0498   -9.1362    0.0000 N   0  0
   36.7871   -8.3090    0.0000 C   0  0
   33.2238  -10.3590    0.0000 C   0  0
   30.8024  -12.5361    0.0000 C   0  0
   18.2715   -9.1078    0.0000 C   0  0  2  0  0  0
   30.9602  -11.0440    0.0000 N   0  0
   14.0029  -10.7480    0.0000 C   0  0
   32.5112   -8.3049    0.0000 C   0  0
   23.2594   -7.8791    0.0000 C   0  0
   27.5293  -10.3518    0.0000 O   0  0
   21.1208  -11.5788    0.0000 O   0  0
   35.3552   -9.1291    0.0000 C   0  0  1  0  0  0
   12.5813   -9.1010    0.0000 C   0  0
   28.9540  -10.3536    0.0000 C   0  0
   30.3786   -9.5318    0.0000 N   0  0
   25.3949   -9.1167    0.0000 C   0  0
   31.0895   -9.1237    0.0000 C   0  0  2  0  0  0
   26.8155   -9.1184    0.0000 C   0  0  1  0  0  0
   22.5456   -9.1131    0.0000 C   0  0  2  0  0  0
   11.1572   -9.1002    0.0000 N   0  0
   23.2594   -7.0590    0.0000 C   0  0
   36.7840   -9.1309    0.0000 N   0  0
   13.2908   -9.5105    0.0000 N   0  0
   33.9347   -8.3072    0.0000 O   0  0
   14.7196   -9.5123    0.0000 C   0  0
   10.4449   -9.5091    0.0000 C   0  0
    9.7363   -9.1000    0.0000 C   0  0  2  0  0  0
   10.4457   -7.8633    0.0000 C   0  0
   37.4937   -9.5406    0.0000 C   0  0  2  0  0  0
   21.1208   -8.2912    0.0000 O   0  0
   23.2594  -10.3465    0.0000 O   0  0
   28.9540   -9.5300    0.0000 C   0  0  1  0  0  0
   14.0059   -9.1025    0.0000 C   0  0  2  0  0  0
   23.9660   -9.1149    0.0000 N   0  0
   21.1208   -9.1113    0.0000 C   0  0
   18.2715   -8.2877    0.0000 C   0  0
   31.8034  -10.3573    0.0000 O   0  0
   11.1595   -8.2770    0.0000 N   0  0
   16.1402   -9.5140    0.0000 C   0  0  1  0  0  0
   26.8155   -8.2984    0.0000 C   0  0
   34.6444   -9.5371    0.0000 N   0  0
   38.9184   -9.5424    0.0000 N   0  0
   16.1402  -10.3377    0.0000 C   0  0
   12.5810  -10.7446    0.0000 C   0  0
   14.0019  -11.5689    0.0000 C   0  0
   26.1057  -11.9921    0.0000 O   0  0
   24.6841   -9.5246    0.0000 C   0  0  1  0  0  0
   25.3949   -8.2965    0.0000 O   0  0
   40.3389   -9.5442    0.0000 C   0  0
   29.1967  -12.1945    0.0000 C   0  0
   21.8347   -9.5211    0.0000 N   0  0
   30.5468  -11.7590    0.0000 C   0  0
   20.4142   -9.5193    0.0000 C   0  0  1  0  0  0
   13.2879  -10.3346    0.0000 C   0  0
   35.3552   -8.3090    0.0000 C   0  0
   29.6607   -9.1220    0.0000 C   0  0
   36.0733   -9.5389    0.0000 C   0  0
   38.2046   -9.1327    0.0000 C   0  0
   36.0733   -7.8951    0.0000 C   0  0
   12.5813   -8.2805    0.0000 O   0  0
   10.4449  -10.3305    0.0000 O   0  0
   31.8034   -7.8897    0.0000 C   0  0
   24.6841  -10.3483    0.0000 C   0  0
   25.3949  -10.7605    0.0000 C   0  0
   29.4523  -12.9757    0.0000 C   0  0
   36.0733  -10.3626    0.0000 O   0  0
   31.8034   -9.5336    0.0000 C   0  0
    9.7363   -8.2770    0.0000 C   0  0
   29.7482  -11.5841    0.0000 C   0  0
   16.8509   -9.1059    0.0000 C   0  0
   33.9347   -9.1274    0.0000 C   0  0
   32.5100   -9.1256    0.0000 N   0  0
   25.3949  -11.5842    0.0000 C   0  0
   11.8699   -9.5093    0.0000 C   0  0  1  0  0  0
   12.5790  -11.5671    0.0000 C   0  0
   15.4263   -9.1042    0.0000 N   0  0
   33.2241   -7.0725    0.0000 C   0  0
   39.6292   -8.3143    0.0000 C   0  0
   18.9854  -10.3412    0.0000 O   0  0
   19.7004   -9.1096    0.0000 N   0  0
   23.2594   -9.5229    0.0000 C   0  0
   33.2238   -9.5353    0.0000 C   0  0  1  0  0  0
   14.7196  -10.3358    0.0000 O   0  0
   38.2046   -8.3125    0.0000 O   0  0
   28.2401   -9.1202    0.0000 N   0  0
   40.3389  -10.3679    0.0000 O   0  0
   22.5456   -8.2930    0.0000 C   0  0
   27.5293   -9.5282    0.0000 C   0  0
   40.3389   -7.9004    0.0000 O   0  0
   39.6292   -9.1344    0.0000 C   0  0  2  0  0  0
   31.8054   -7.0707    0.0000 C   0  0
   21.1208  -10.7551    0.0000 C   0  0
   13.2909   -7.8702    0.0000 C   0  0
   17.5649   -9.5158    0.0000 N   0  0
   29.6607   -8.3019    0.0000 O   0  0
   21.8317  -10.3430    0.0000 N   0  0
   30.2550  -13.1465    0.0000 C   0  0
   23.9692   -8.2930    0.0000 C   0  0
   33.2231   -7.8933    0.0000 C   0  0
   18.9854   -9.5176    0.0000 C   0  0
   10.4457   -7.0430    0.0000 O   0  0
   36.0733   -7.0750    0.0000 C   0  0
   31.0895   -8.3037    0.0000 C   0  0
   14.0059   -8.2824    0.0000 C   0  0  1  0  0  0
 25 24  1  0
  9 10  2  0
 16 19  1  0
 13  5  1  0
 26  3  2  0
 17  1  2  0
  3  9  1  0
  5 20  2  0
 13 18  2  0
 24  2  2  0
 17 16  1  0
  6 25  2  0
  4 12  1  0
  3 20  1  0
  6 23  1  0
 23  8  2  0
  2  8  1  0
 19  4  2  0
 11 16  2  0
 12  7  2  0
  9 14  1  0
 23 15  1  0
  8  7  1  0
  1 12  1  0
 22 25  1  0
 15  1  1  0
 18 21  1  0
 20  7  1  0
 18 26  1  0
 21 27  1  0
 27 28  1  0
 27 29  2  0
 53100  2  0
 89 41  1  0
111 81  1  0
120 93  1  0
 85 30  2  0
 97 62  1  0
 65123  2  0
118129  1  0
130 89  1  0
 48139  2  0
 32132  1  0
114 53  1  0
140120  1  0
 57107  1  0
144133  1  0
 30115  1  0
143102  1  0
108 68  1  0
 31109  1  0
115 84  2  0
 96135  2  0
128 50  2  0
 99142  1  0
 56 88  2  0
117 38  2  0
 34 31  2  0
 84 94  1  0
132 51  2  0
112122  1  0
 53 63  1  0
140119  2  0
128125  1  0
107112  1  0
121 71  2  0
 81 52  1  0
139117  1  0
103104  1  0
 74 87  1  0
 62 69  1  0
 98124  2  0
 73144  1  0
121 74  1  0
113 35  1  0
 79110  1  0
122111  1  0
 39 58  1  0
 82130  1  0
 67 66  1  0
 69 37  1  6
 49 61  1  0
 65116  1  0
 98 82  1  0
 72 96  1  0
104113  1  0
 73 65  1  0
 97106  2  0
 66 60  1  0
110134  1  0
127 49  1  0
132136  1  0
 79 83  1  6
 87103  1  6
 67108  1  1
 69 98  1  0
 40 84  1  0
131102  2  0
130118  1  1
 92 46  1  0
 47 85  1  0
 99 42  1  0
107 77  2  0
 89126  2  0
 75 70  2  0
 59127  1  1
 58128  1  0
122 43  1  6
110 33  2  0
 56 39  1  0
 94 47  2  0
 52 97  1  0
105 90  2  0
 44137  2  0
 45140  1  0
 96 55  1  0
137105  1  0
 68 78  1  0
116 79  1  0
 57143  1  1
 92 44  1  0
 93 75  1  0
 49138  1  0
 91 59  1  0
 75 91  1  0
109 92  2  0
134 45  1  0
 46 34  1  0
 66101  2  0
125 72  1  0
113 86  2  0
 93 32  1  6
 52 95  1  1
 73 63  1  1
144 36  1  1
 28 67  1  0
 55 57  1  0
 59121  1  0
102 48  1  0
 72 54  1  6
 58 80  1  1
 45 76  1  1
 54 31  1  0
 87 56  1  0
 90109  1  0
 95 99  1  0
 68141  2  0
114 40  1  6
 38131  1  0
 60114  1  0
111 64  2  0
M  END