
  SciTegic04091415222D

 47 50  0  0  0  0            999 V2000
   16.3742  -16.9642    0.0000 C   0  0  2  0  0  0
    7.2282  -18.1373    0.0000 S   0  0
   15.1076  -16.5536    0.0000 O   0  0
    8.6867  -17.1068    0.0000 H   0  0
   17.6351  -15.6734    0.0000 N   0  0
    6.9502  -15.9874    0.0000 N   0  0
    6.2534  -16.6202    0.0000 H   0  0
    7.6939  -15.6280    0.0000 C   0  0
   15.6563  -14.8490    0.0000 C   0  0
    6.6612  -17.5350    0.0000 C   0  0
   16.1457  -15.5162    0.0000 N   0  0
   13.5058  -18.6803    0.0000 O   0  0
   11.5821  -18.9316    0.0000 O   0  0
   16.1416  -14.1839    0.0000 N   0  0
   17.6328  -13.1979    0.0000 N   0  0
    7.0580  -16.8023    0.0000 C   0  0  1  0  0  0
   16.9258  -14.4344    0.0000 C   0  0
   13.6903  -17.5293    0.0000 C   0  0
   10.1318  -18.1447    0.0000 C   0  0
    8.7084  -18.1745    0.0000 C   0  0
   17.1993  -16.9630    0.0000 O   0  0
   15.8929  -17.6291    0.0000 C   0  0  2  0  0  0
   14.4432  -17.8622    0.0000 C   0  0
   16.9240  -15.2605    0.0000 C   0  0
    7.9811  -17.7809    0.0000 C   0  0  1  0  0  0
   11.5645  -18.1070    0.0000 C   0  0
   13.0227  -18.0083    0.0000 S   0  0
   12.6855  -18.7696    0.0000 O   0  0
    7.8749  -16.9570    0.0000 C   0  0  1  0  0  0
   17.6346  -14.0229    0.0000 C   0  0
   10.8372  -17.7135    0.0000 C   0  0
    7.8430  -14.8166    0.0000 O   0  0
   12.2657  -17.6755    0.0000 N   0  5
   15.8909  -16.3006    0.0000 C   0  0  1  0  0  0
   18.3527  -15.2612    0.0000 C   0  0
   16.1480  -18.4134    0.0000 O   0  0
   15.1110  -17.3747    0.0000 C   0  0  1  0  0  0
    8.2656  -16.2292    0.0000 N   0  0
    9.4088  -17.7513    0.0000 C   0  0
   18.3504  -14.4320    0.0000 N   0  0
   11.5865  -15.2293    0.0000 C   0  0
   13.0154  -15.2335    0.0000 C   0  0
   12.2988  -13.9918    0.0000 C   0  0
   13.0110  -13.5792    0.0000 C   0  0
   10.8742  -14.8167    0.0000 C   0  0
   12.2988  -14.8211    0.0000 N   0  3
   13.0154  -16.0628    0.0000 C   0  0
 16 10  1  0
  2 25  1  0
 37 22  1  0
 29  4  1  1
 24  5  1  0
 22  1  1  0
  3 37  1  0
 20 39  1  0
 26 33  1  0
 25 20  1  6
 11 24  1  0
  1 21  1  6
  6 16  1  0
 38  8  1  0
 26 13  2  0
 22 36  1  6
 34  3  1  0
 39 19  1  0
 10  2  1  0
  1 34  1  0
 37 23  1  1
 19 31  1  0
 30 17  1  0
 16  7  1  1
 40 30  2  0
 28 27  2  0
  9 11  1  0
 29 38  1  0
 18 23  1  0
  8  6  1  0
 27 12  2  0
 33 27  1  0
 17 14  1  0
 35 40  1  0
 25 29  1  0
 27 18  1  0
 29 16  1  0
  8 32  2  0
 14  9  2  0
 34 11  1  1
 30 15  1  0
  5 35  2  0
 17 24  2  0
 31 26  1  0
 46 43  1  0
 41 46  1  0
 41 45  1  0
 42 47  1  0
 46 42  1  0
 43 44  1  0
M  CHG  2  33  -1  46   1
M  END