
  CDK    9/16/09,10:8

 13 14  0  0  0  0  0  0  0  0999 V2000
   -4.6925   -2.5429    0.0000 C   0  0  0  0  0  0  0  0  0  0  0  0
   -4.6937   -3.3679    0.0000 C   0  0  0  0  0  0  0  0  0  0  0  0
   -3.9808   -3.7797    0.0000 C   0  0  0  0  0  0  0  0  0  0  0  0
   -3.9826   -2.1313    0.0000 C   0  0  0  0  0  0  0  0  0  0  0  0
   -3.2693   -2.5392    0.0000 C   0  0  0  0  0  0  0  0  0  0  0  0
   -3.2705   -3.3700    0.0000 C   0  0  0  0  0  0  0  0  0  0  0  0
   -2.5556   -3.7841    0.0000 N   0  0  0  0  0  0  0  0  0  0  0  0
   -1.8349   -3.3721    0.0000 C   0  0  0  0  0  0  0  0  0  0  0  0
   -1.8337   -2.5413    0.0000 C   0  0  0  0  0  0  0  0  0  0  0  0
   -2.5532   -2.1226    0.0000 C   0  0  0  0  0  0  0  0  0  0  0  0
   -1.1202   -2.1317    0.0000 O   0  0  0  0  0  0  0  0  0  0  0  0
   -1.1236   -3.7854    0.0000 O   0  0  0  0  0  0  0  0  0  0  0  0
   -5.4051   -2.1317    0.0000 F   0  0  0  0  0  0  0  0  0  0  0  0
  3  6  2  0  0  0  0 
  1  2  2  0  0  0  0 
  5  4  2  0  0  0  0 
  4  1  1  0  0  0  0 
  5 10  1  0  0  0  0 
  6  7  1  0  0  0  0 
  7  8  1  0  0  0  0 
  8  9  1  0  0  0  0 
  9 10  2  0  0  0  0 
  5  6  1  0  0  0  0 
  9 11  1  0  0  0  0 
  8 12  2  0  0  0  0 
  2  3  1  0  0  0  0 
  1 13  1  0  0  0  0 
M  END