
  SciTegic10121214042D

 51 55  0  0  0  0            999 V2000
    8.4389   -4.8639    0.0000 C   0  0
    9.1493   -4.4572    0.0000 C   0  0
    9.8540   -4.8639    0.0000 N   0  0
    7.7342   -4.4686    0.0000 N   0  0
    4.8869   -4.4744    0.0000 C   0  0
    7.0181   -4.8697    0.0000 C   0  0
    4.1765   -4.8869    0.0000 C   0  0
    5.6030   -4.8811    0.0000 N   0  0
    8.4389   -5.6775    0.0000 C   0  0
    9.8654   -5.6775    0.0000 C   0  0
    3.4604   -4.4744    0.0000 C   0  0
    6.3077   -4.4686    0.0000 C   0  0  2  0  0  0
    3.8327   -1.4781    0.0000 C   0  0
    9.1435   -6.1014    0.0000 C   0  0
    3.0994   -1.8792    0.0000 C   0  0
    2.7499   -4.8869    0.0000 C   0  0
   10.5701   -4.4515    0.0000 C   0  0
    4.5546   -1.8906    0.0000 C   0  0
    9.1435   -3.6322    0.0000 O   0  0
    4.8182   -3.7812    0.0000 O   0  0
    2.0339   -4.4744    0.0000 C   0  0
    7.0123   -5.6947    0.0000 O   0  0
    6.3077   -3.6437    0.0000 C   0  0
    3.4604   -3.6437    0.0000 C   0  0
    3.0937   -2.4406    0.0000 O   0  0
    2.0281   -3.6494    0.0000 C   0  0
    2.7499   -3.2312    0.0000 C   0  0
    4.3369   -2.6984    0.0000 C   0  0
    5.3510   -1.6729    0.0000 C   0  0
   11.2805   -4.8639    0.0000 C   0  0
    5.7233   -3.0593    0.0000 C   0  0
    2.4062   -1.4667    0.0000 O   0  0
   12.7013   -5.6717    0.0000 C   0  0
    4.9213   -3.2713    0.0000 C   0  0
    5.9295   -2.2573    0.0000 C   0  0
   11.2805   -5.6775    0.0000 C   0  0
   11.9794   -4.4515    0.0000 C   0  0
   12.6898   -4.8468    0.0000 C   0  0
   11.9852   -6.0842    0.0000 C   0  0
    3.5921   -5.4655    0.0000 C   0  0
    4.7608   -5.4655    0.0000 C   0  0
    3.2484   -0.8937    0.0000 C   0  0
    4.4171   -0.8937    0.0000 C   0  0
   13.4059   -6.0842    0.0000 O   0  0
    7.7170   -6.0900    0.0000 C   0  0
    1.3234   -4.8983    0.0000 C   0  0
    1.3120   -3.2369    0.0000 C   0  0
   13.4059   -6.9092    0.0000 C   0  0
    0.6073   -4.4916    0.0000 C   0  0
    0.6015   -3.6608    0.0000 C   0  0
    7.1038   -4.3411    0.0000 H   0  0
  2  1  1  0
  3  2  1  0
  4  1  1  0
  5  8  1  0
  6  4  1  0
  7  5  1  0
  8 12  1  0
  9  1  2  0
 10 14  2  0
 11  7  1  0
 12  6  1  0
 13 18  1  0
 14  9  1  0
 15 13  1  0
 16 11  2  0
 17  3  1  0
 18 29  2  0
 19  2  2  0
 20  5  2  0
 21 16  1  0
 22  6  2  0
 12 23  1  6
 24 11  1  0
 25 15  2  0
 26 27  1  0
 27 24  2  0
 28 34  2  0
 29 35  1  0
 30 17  1  0
 31 23  1  0
 32 15  1  0
 33 38  1  0
 34 31  1  0
 35 31  2  0
 36 30  2  0
 37 30  1  0
 38 37  2  0
 39 36  1  0
 40  7  1  0
 41  7  1  0
 42 13  1  0
 43 13  1  0
 44 33  1  0
 45  9  1  0
 46 21  1  0
 47 26  1  0
 48 44  1  0
 49 46  2  0
 50 47  2  0
  3 10  1  0
 33 39  2  0
 28 18  1  0
 26 21  2  0
 50 49  1  0
 12 51  1  1
M  END