
          11280715092D 1   1.00000     0.00000     0

 18 19  0     0  0            999 V2000
    0.2250   -4.9875    0.0000 C   0  0  0  0  0  0           0  0  0
   -0.4875   -4.5792    0.0000 C   0  0  0  0  0  0           0  0  0
    0.9375   -4.5750    0.0000 C   0  0  0  0  0  0           0  0  0
    0.9292   -3.7500    0.0000 C   0  0  0  0  0  0           0  0  0
   -1.2083   -4.9917    0.0000 C   0  0  0  0  0  0           0  0  0
   -0.4875   -3.7542    0.0000 O   0  0  0  0  0  0           0  0  0
    0.2167   -3.3417    0.0000 O   0  0  0  0  0  0           0  0  0
   -1.9208   -4.5750    0.0000 C   0  0  0  0  0  0           0  0  0
   -1.2000   -5.8125    0.0000 C   0  0  0  0  0  0           0  0  0
    1.6500   -3.3375    0.0000 O   0  0  0  0  0  0           0  0  0
   -1.9125   -6.2250    0.0000 C   0  0  0  0  0  0           0  0  0
   -2.6333   -4.9875    0.0000 C   0  0  0  0  0  0           0  0  0
   -2.6333   -5.8125    0.0000 C   0  0  0  0  0  0           0  0  0
    0.2250   -5.8167    0.0000 C   0  0  0  0  0  0           0  0  0
    1.6542   -4.9875    0.0000 C   0  0  0  0  0  0           0  0  0
   -3.3458   -6.2292    0.0000 C   0  0  0  0  0  0           0  0  0
    0.9375   -6.2292    0.0000 C   0  0  0  0  0  0           0  0  0
    1.6542   -5.8167    0.0000 C   0  0  0  0  0  0           0  0  0
  2  1  1  0     0  0
  3  1  1  0     0  0
  4  3  1  0     0  0
  5  2  1  0     0  0
  6  2  2  0     0  0
  7  4  2  0     0  0
  8  5  2  0     0  0
  9  5  1  0     0  0
 10  4  1  0     0  0
 11  9  2  0     0  0
 12  8  1  0     0  0
 13 11  1  0     0  0
 14  1  2  0     0  0
 15  3  2  0     0  0
 16 13  1  0     0  0
 17 14  1  0     0  0
 18 17  2  0     0  0
 15 18  1  0     0  0
 13 12  2  0     0  0
M  END