
  CDK    9/16/09,10:4

 34 37  0  0  0  0  0  0  0  0999 V2000
   12.4197   -2.8960    0.0000 C   0  0  0  0  0  0  0  0  0  0  0  0
   13.2491   -2.8770    0.0000 C   0  0  0  0  0  0  0  0  0  0  0  0
   13.6452   -2.1534    0.0000 C   0  0  0  0  0  0  0  0  0  0  0  0
   13.2164   -1.4439    0.0000 C   0  0  0  0  0  0  0  0  0  0  0  0
   12.3871   -1.4628    0.0000 C   0  0  0  0  0  0  0  0  0  0  0  0
   11.9864   -2.1912    0.0000 N   0  0  0  0  0  0  0  0  0  0  0  0
   12.6219   -2.5154    0.0000 C   0  0  0  0  0  0  0  0  0  0  0  0
   12.9453   -1.8204    0.0000 C   0  0  0  0  0  0  0  0  0  0  0  0
   11.1619   -2.2187    0.0000 C   0  0  0  0  0  0  0  0  0  0  0  0
   14.4702   -2.1431    0.0000 C   0  0  0  0  0  0  0  0  0  0  0  0
   15.2951   -2.1289    0.0000 C   0  0  0  0  0  0  0  0  0  0  0  0
   14.4824   -2.9680    0.0000 O   0  0  0  0  0  0  0  0  0  0  0  0
   14.4580   -1.3182    0.0000 C   0  0  0  0  0  0  0  0  0  0  0  0
   15.1671   -0.8980    0.0000 C   0  0  0  0  0  0  0  0  0  0  0  0
   15.1552   -0.0738    0.0000 C   0  0  0  0  0  0  0  0  0  0  0  0
   14.4341    0.3289    0.0000 C   0  0  0  0  0  0  0  0  0  0  0  0
   13.7235   -0.0986    0.0000 C   0  0  0  0  0  0  0  0  0  0  0  0
   13.7389   -0.9214    0.0000 C   0  0  0  0  0  0  0  0  0  0  0  0
   15.7181   -2.8385    0.0000 C   0  0  0  0  0  0  0  0  0  0  0  0
   16.5422   -2.8247    0.0000 C   0  0  0  0  0  0  0  0  0  0  0  0
   16.9430   -2.1026    0.0000 C   0  0  0  0  0  0  0  0  0  0  0  0
   16.5138   -1.3930    0.0000 C   0  0  0  0  0  0  0  0  0  0  0  0
   15.6911   -1.4104    0.0000 C   0  0  0  0  0  0  0  0  0  0  0  0
   10.7258   -1.5183    0.0000 C   0  0  0  0  0  0  0  0  0  0  0  0
    9.9013   -1.5457    0.0000 O   0  0  0  0  0  0  0  0  0  0  0  0
    9.4652   -0.8455    0.0000 C   0  0  0  0  0  0  0  0  0  0  0  0
    8.6407   -0.8728    0.0000 C   0  0  0  0  0  0  0  0  0  0  0  0
    8.2083   -0.1712    0.0000 C   0  0  0  0  0  0  0  0  0  0  0  0
    7.3845   -0.1982    0.0000 C   0  0  0  0  0  0  0  0  0  0  0  0
    6.9952   -0.9266    0.0000 C   0  0  0  0  0  0  0  0  0  0  0  0
    7.4358   -1.6292    0.0000 C   0  0  0  0  0  0  0  0  0  0  0  0
    8.2581   -1.5986    0.0000 C   0  0  0  0  0  0  0  0  0  0  0  0
    8.6973   -2.2970    0.0000 Br  0  0  0  0  0  0  0  0  0  0  0  0
   12.0403    1.3429    0.0000 Br  0  0  0  0  0  0  0  0  0  0  0  0
 15 16  2  0  0  0  0 
 16 17  1  0  0  0  0 
  7  8  1  0  0  0  0 
 17 18  2  0  0  0  0 
 18 13  1  0  0  0  0 
  3  8  1  0  0  0  0 
 11 19  2  0  0  0  0 
  1  2  1  0  0  0  0 
 19 20  1  0  0  0  0 
  6  9  1  0  0  0  0 
 20 21  2  0  0  0  0 
  1  6  1  0  0  0  0 
 21 22  1  0  0  0  0 
  3 10  1  0  0  0  0 
 22 23  2  0  0  0  0 
 23 11  1  0  0  0  0 
  2  3  1  0  0  0  0 
  9 24  1  0  0  0  0 
 10 11  1  0  0  0  0 
 24 25  1  0  0  0  0 
  3  4  1  0  0  0  0 
 25 26  1  0  0  0  0 
 10 12  1  0  0  0  0 
 26 27  1  0  0  0  0 
  4  5  1  0  0  0  0 
 27 28  2  0  0  0  0 
 10 13  1  0  0  0  0 
 28 29  1  0  0  0  0 
  5  6  1  0  0  0  0 
 29 30  2  0  0  0  0 
 13 14  2  0  0  0  0 
 30 31  1  0  0  0  0 
 31 32  2  0  0  0  0 
 32 27  1  0  0  0  0 
 14 15  1  0  0  0  0 
 32 33  1  0  0  0  0 
  6  7  1  0  0  0  0 
M  CHG  1   6   1
M  CHG  1  34  -1
M  END