
          05080814042D 1   1.00000     0.00000     0

 35 39  0     1  0            999 V2000
   -3.7774   -4.7530    0.0000 C   0  0  0  0  0  0           0  0  0
   -4.4881   -5.1679    0.0000 C   0  0  0  0  0  0           0  0  0
   -4.4811   -5.9942    0.0000 C   0  0  0  0  0  0           0  0  0
   -3.7673   -6.3977    0.0000 C   0  0  0  0  0  0           0  0  0
   -3.0641   -5.1602    0.0000 C   0  0  0  0  0  0           0  0  0
   -3.0580   -5.9879    0.0000 C   0  0  0  0  0  0           0  0  0
   -2.3422   -6.3942    0.0000 C   0  0  0  0  0  0           0  0  0
   -2.3543   -4.7389    0.0000 C   0  0  0  0  0  0           0  0  0
   -1.6338   -5.1497    0.0000 C   0  0  2  0  0  0           0  0  0
   -1.6293   -5.9793    0.0000 C   0  0  2  0  0  0           0  0  0
   -0.9125   -6.3880    0.0000 N   0  0  3  0  0  0           0  0  0
   -0.1957   -5.9715    0.0000 C   0  0  0  0  0  0           0  0  0
   -0.2003   -5.1419    0.0000 C   0  0  1  0  0  0           0  0  0
   -0.9216   -4.7287    0.0000 C   0  0  0  0  0  0           0  0  0
   -1.6417   -4.3208    0.0000 H   0  0  0  0  0  0           0  0  0
   -1.6375   -6.8042    0.0000 H   0  0  0  0  0  0           0  0  0
    0.5124   -4.7262    0.0000 C   0  0  0  0  0  0           0  0  0
    1.2287   -5.1355    0.0000 N   0  0  3  0  0  0           0  0  0
    0.5087   -3.9012    0.0000 O   0  0  0  0  0  0           0  0  0
    1.2264   -5.9637    0.0000 C   0  0  0  0  0  0           0  0  0
    1.9386   -6.3729    0.0000 C   0  0  0  0  0  0           0  0  0
    2.6536   -5.9607    0.0000 N   0  0  3  0  0  0           0  0  0
    2.6519   -5.1347    0.0000 C   0  0  0  0  0  0           0  0  0
    1.9351   -4.7210    0.0000 C   0  0  0  0  0  0           0  0  0
   -3.7813   -3.9280    0.0000 O   0  0  0  0  0  0           0  0  0
   -4.4978   -3.5189    0.0000 C   0  0  0  0  0  0           0  0  0
   -0.9092   -7.2129    0.0000 C   0  0  0  0  0  0           0  0  0
    3.3684   -6.3727    0.0000 C   0  0  0  0  0  0           0  0  0
    3.3645   -7.1969    0.0000 C   0  0  0  0  0  0           0  0  0
    4.0784   -7.6088    0.0000 C   0  0  0  0  0  0           0  0  0
    4.7935   -7.1958    0.0000 C   0  0  0  0  0  0           0  0  0
    4.7903   -6.3665    0.0000 C   0  0  0  0  0  0           0  0  0
    4.0758   -5.9583    0.0000 C   0  0  0  0  0  0           0  0  0
    5.5098   -7.6040    0.0000 C   0  0  0  0  0  0           0  0  0
    6.2251   -8.0151    0.0000 N   0  0  0  0  0  0           0  0  0
  6  7  1  0     0  0
 13 17  1  1     0  0
  7 10  1  0     0  0
 17 18  1  0     0  0
  9  8  1  0     0  0
 17 19  2  0     0  0
 18 20  1  0     0  0
  9 10  1  0     0  0
  3  4  2  0     0  0
  4  6  1  0     0  0
  5  6  2  0     0  0
  1  2  2  0     0  0
 18 24  1  0     0  0
 20 21  1  0     0  0
 21 22  1  0     0  0
 22 23  1  0     0  0
 23 24  1  0     0  0
  5  1  1  0     0  0
  1 25  1  0     0  0
  2  3  1  0     0  0
 25 26  1  0     0  0
  9 14  1  0     0  0
 11 27  1  0     0  0
 10 11  1  0     0  0
 22 28  1  0     0  0
 11 12  1  0     0  0
 28 29  2  0     0  0
 12 13  1  0     0  0
 29 30  1  0     0  0
 13 14  1  0     0  0
 30 31  2  0     0  0
 31 32  1  0     0  0
  9 15  1  6     0  0
 32 33  2  0     0  0
 33 28  1  0     0  0
  5  8  1  0     0  0
 10 16  1  1     0  0
 34 35  3  0     0  0
 31 34  1  0     0  0
M  END