
  SciTegic04151115542D

 21 23  0  0  0  0            999 V2000
   -3.8848   -8.1208    0.0000 C   0  0
   -3.8859   -8.9482    0.0000 N   0  0
   -3.1711   -9.3610    0.0000 C   0  0
   -3.1729   -7.7080    0.0000 N   0  0
   -2.4575   -8.1172    0.0000 C   0  0
   -2.4527   -8.9436    0.0000 C   0  0
   -1.6652   -9.1944    0.0000 N   0  0
   -1.1833   -8.5229    0.0000 C   0  0
   -1.6730   -7.8572    0.0000 N   0  0
   -4.5993   -7.7085    0.0000 N   0  0
   -3.1679  -10.1838    0.0000 N   0  0
   -2.4518  -10.5935    0.0000 C   0  0
   -2.4537  -11.4178    0.0000 C   0  0
   -1.7385  -11.8274    0.0000 C   0  0
   -1.0247  -11.4121    0.0000 C   0  0
   -1.0305  -10.5828    0.0000 C   0  0
   -1.7463  -10.1769    0.0000 C   0  0
   -0.3191  -10.1650    0.0000 O   0  0
    0.3984  -10.5722    0.0000 C   0  0
   -3.1680  -11.8307    0.0000 O   0  0
   -3.1675  -12.6557    0.0000 C   0  0
  1 10  1  0
  5  6  1  0
  3 11  1  0
 11 12  1  0
  2  3  1  0
 12 13  2  0
  3  6  2  0
 13 14  1  0
  1  2  2  0
 14 15  2  0
  5  4  2  0
 15 16  1  0
  6  7  1  0
 16 17  2  0
 17 12  1  0
  7  8  2  0
 16 18  1  0
  8  9  1  0
 18 19  1  0
  9  5  1  0
 13 20  1  0
  4  1  1  0
 20 21  1  0
M  END