
  SciTegic11201309402D

 82 86  0  0  1  0            999 V2000
    2.9950   -4.2875    0.0000 N   0  0
    3.6826   -4.7338    0.0000 C   0  0
    9.1172   -4.3635    0.0000 N   0  0
    4.4165   -4.3635    0.0000 C   0  0  1  0  0  0
    7.9668   -5.5173    0.0000 C   0  0
    4.9024   -5.0313    0.0000 N   0  0
    7.1833   -5.7718    0.0000 N   0  0
    6.3602   -0.5587    0.0000 C   0  0
    7.1833   -0.5587    0.0000 N   0  0
    9.1172   -1.9669    0.0000 N   0  0
    9.3750   -3.5735    0.0000 C   0  0
    5.5734   -5.5173    0.0000 C   0  0
    8.6312   -1.3025    0.0000 C   0  0
    2.0066   -5.3784    0.0000 C   0  0
   12.4592    0.0859    0.0000 N   0  3
    8.6312   -5.0313    0.0000 C   0  0  2  0  0  0
    6.3602   -5.7718    0.0000 C   0  0  2  0  0  0
    5.5734   -0.8165    0.0000 C   0  0
    2.2248   -4.5850    0.0000 C   0  0  2  0  0  0
    9.3750   -2.7504    0.0000 C   0  0  2  0  0  0
    7.9668   -0.8165    0.0000 C   0  0  2  0  0  0
    1.5802   -6.9751    0.0000 C   0  0
    2.5917   -5.9635    0.0000 N   0  0
    1.3686   -7.7684    0.0000 N   0  0
    6.2280   -6.5850    0.0000 C   0  0
   13.2889    0.0760    0.0000 N   0  5
    0.5686   -7.9866    0.0000 C   0  0  2  0  0  0
    0.3603   -8.7800    0.0000 C   0  0
    5.4577   -6.8825    0.0000 C   0  0
   11.6361    0.0958    0.0000 N   0  0
    2.3801   -6.7569    0.0000 C   0  0  1  0  0  0
    4.1652   -2.7504    0.0000 S   0  0
    4.4165   -1.9669    0.0000 S   0  0
    3.6429   -5.5635    0.0000 O   0  0
    8.3436   -6.2511    0.0000 O   0  0
    1.2132   -5.5933    0.0000 O   0  0
    6.2280    0.2545    0.0000 O   0  0
   10.1882   -3.7090    0.0000 O   0  0
    5.1999   -6.2511    0.0000 O   0  0
    9.2163   -0.7174    0.0000 O   0  0
    4.1652   -3.5735    0.0000 C   0  0
    8.3436   -0.0728    0.0000 C   0  0
   10.1882   -2.6215    0.0000 C   0  0
    0.9950   -6.3900    0.0000 O   0  0
   -0.0099   -7.4015    0.0000 C   0  0
   -0.4364   -8.9948    0.0000 O   0  0
    5.3288   -7.6957    0.0000 O   0  0
    0.9421   -9.3651    0.0000 N   0  0
    4.9024   -1.3025    0.0000 C   0  0
    9.2163   -5.6131    0.0000 C   0  0
    2.9487   -3.4644    0.0000 C   0  0
   10.8130    0.0496    0.0000 C   0  0
    4.8131   -6.3602    0.0000 N   0  0
    9.1668   -0.0331    0.0000 C   0  0
   -0.8099   -7.6163    0.0000 C   0  0
   -2.3999   -8.0428    0.0000 C   0  0
   10.7105   -3.2661    0.0000 C   0  0
    5.9437   -1.5504    0.0000 C   0  0
    5.1999   -0.0728    0.0000 C   0  0
   10.4361   -0.6876    0.0000 C   0  0
   10.3667    0.7405    0.0000 C   0  0
   -1.3884   -7.0346    0.0000 C   0  0
    9.6130   -0.7273    0.0000 C   0  0
   -1.0181   -8.4130    0.0000 C   0  0
    9.5403    0.7008    0.0000 C   0  0
    3.7024  -10.1055    0.0000 N   0  0
   -2.1884   -7.2428    0.0000 C   0  0
   -1.8115   -8.6279    0.0000 C   0  0
    1.7057   -3.9404    0.0000 C   0  0
   -3.1999   -8.2544    0.0000 O   0  0
    2.1553   -3.2462    0.0000 C   0  0
    2.9652   -7.3420    0.0000 C   0  0
    3.1173   -9.5238    0.0000 C   0  0
   10.0163   -5.3982    0.0000 C   0  0
    9.0047   -6.4098    0.0000 C   0  0
   11.5237   -3.1371    0.0000 C   0  0
   10.4130   -4.0363    0.0000 C   0  0
    2.7504   -8.1420    0.0000 C   0  0
    3.3322   -8.7271    0.0000 C   0  0
   10.9320   -4.6743    0.0000 C   0  0
   12.0427   -3.7784    0.0000 C   0  0
   11.7452   -4.5454    0.0000 C   0  0
  2  1  1  0
  3 16  1  0
  4  2  1  6
  5  7  1  0
  6  4  1  0
  7 17  1  0
  8 18  1  0
  9  8  1  0
 10 13  1  0
 11  3  1  0
 12  6  1  0
 13 21  1  0
 19 14  1  6
 15 30  2  0
 16  5  1  0
 17 12  1  0
 18 49  1  0
 19  1  1  0
 20 11  1  0
 21  9  1  0
 31 22  1  0
 23 14  1  0
 24 22  1  0
 17 25  1  1
 26 15  2  0
 27 24  1  6
 28 27  1  0
 29 25  1  0
 30 52  1  0
 31 23  1  1
 32 41  1  0
 33 32  1  0
 34  2  2  0
 35  5  2  0
 36 14  2  0
 37  8  2  0
 38 11  2  0
 39 12  2  0
 40 13  2  0
  4 41  1  0
 21 42  1  1
 20 43  1  1
 44 22  2  0
 27 45  1  0
 46 28  2  0
 47 29  2  0
 48 28  1  0
 49 33  1  0
 16 50  1  1
 51  1  1  0
 52 61  1  0
 53 29  1  0
 54 42  1  0
 55 45  1  0
 56 68  1  0
 57 43  1  0
 58 18  1  0
 59 18  1  0
 60 63  1  0
 61 65  2  0
 62 55  2  0
 63 54  2  0
 64 55  1  0
 65 54  1  0
 66 73  1  0
 67 62  1  0
 68 64  2  0
 69 19  1  0
 70 56  1  0
 71 51  1  0
 72 31  1  0
 73 79  1  0
 74 50  1  0
 75 50  1  0
 76 57  1  0
 77 57  2  0
 78 72  1  0
 79 78  1  0
 80 77  1  0
 81 76  2  0
 82 80  2  0
 69 71  1  0
 56 67  2  0
 20 10  1  0
 60 52  2  0
 82 81  1  0
M  CHG  2  15   1  26  -1
M  END