
          11280715422D 1   1.00000     0.00000     0

 21 22  0     0  0            999 V2000
    5.3167   -2.9750    0.0000 N   0  0  3  0  0  0           0  0  0
    6.0417   -2.5667    0.0000 C   0  0  3  0  0  0           0  0  0
    4.7292   -2.3875    0.0000 N   0  0  0  0  0  0           0  0  0
    4.1167   -3.5792    0.0000 C   0  0  0  0  0  0           0  0  0
    3.9917   -2.7625    0.0000 N   0  0  0  0  0  0           0  0  0
    4.9417   -3.7125    0.0000 C   0  0  0  0  0  0           0  0  0
    6.7542   -2.1542    0.0000 C   0  0  3  0  0  0           0  0  0
    5.3292   -2.1542    0.0000 C   0  0  3  0  0  0           0  0  0
    7.4667   -2.5667    0.0000 C   0  0  3  0  0  0           0  0  0
    6.9292   -1.5542    0.0000 O   0  0  0  0  0  0           0  0  0
    6.1542   -2.1542    0.0000 C   0  0  3  0  0  0           0  0  0
    3.5292   -4.1625    0.0000 C   0  0  0  0  0  0           0  0  0
    3.7417   -4.9625    0.0000 O   0  0  0  0  0  0           0  0  0
    8.0792   -3.1167    0.0000 S   0  0  0  0  0  0           0  0  0
    6.7542   -2.9750    0.0000 O   0  0  0  0  0  0           0  0  0
    2.7375   -3.9500    0.0000 N   0  0  0  0  0  0           0  0  0
    4.9042   -1.4375    0.0000 O   0  0  0  0  0  0           0  0  0
    5.9292   -1.3542    0.0000 C   0  0  0  0  0  0           0  0  0
    6.5167   -0.7667    0.0000 O   0  0  0  0  0  0           0  0  0
    7.9167   -3.9250    0.0000 C   0  0  0  0  0  0           0  0  0
    2.1542   -4.5292    0.0000 C   0  0  0  0  0  0           0  0  0
  2  1  1  0     0  0
  3  1  1  0     0  0
  4  6  2  0     0  0
  5  3  2  0     0  0
  6  1  1  0     0  0
  7  2  1  0     0  0
  8  2  1  0     0  0
  9  7  1  0     0  0
 10 11  1  0     0  0
 11  8  1  0     0  0
 12  4  1  0     0  0
 13 12  2  0     0  0
 14  9  1  0     0  0
 15  7  1  0     0  0
 16 12  1  0     0  0
 17  8  1  0     0  0
 18 11  1  0     0  0
 19 18  1  0     0  0
 20 14  1  0     0  0
 21 16  1  0     0  0
  4  5  1  0     0  0
  9 10  1  0     0  0
M  END