
          11280714582D 1   1.00000     0.00000     0

 45 47  0     1  0            999 V2000
    5.0125    0.1750    0.0000 N   0  0  3  0  0  0           0  0  0
    4.4542    0.4333    0.0000 C   0  0  0  0  0  0           0  0  0
   10.0417   -1.7667    0.0000 N   0  3  0  0  0  0           0  0  0
    5.8167   -0.5417    0.0000 C   0  0  0  0  0  0           0  0  0
    5.6000    0.0208    0.0000 C   0  0  2  0  0  0           0  0  0
    7.4167   -0.8542    0.0000 C   0  0  0  0  0  0           0  0  0
    2.9167   -0.0292    0.0000 C   0  0  0  0  0  0           0  0  0
    6.3792   -0.8667    0.0000 N   0  0  0  0  0  0           0  0  0
    3.4167    0.3250    0.0000 N   0  0  0  0  0  0           0  0  0
    6.9042   -0.5667    0.0000 C   0  0  1  0  0  0           0  0  0
    3.9625    0.0750    0.0000 C   0  0  1  0  0  0           0  0  0
    7.9292   -0.5542    0.0000 N   0  0  0  0  0  0           0  0  0
    1.8667   -0.1292    0.0000 N   0  0  0  0  0  0           0  0  0
    9.5167   -1.4667    0.0000 C   0  0  0  0  0  0           0  0  0
    1.3250    0.1208    0.0000 C   0  0  0  0  0  0           0  0  0
    2.3667    0.2250    0.0000 C   0  0  1  0  0  0           0  0  0
   10.0417   -2.3667    0.0000 O   0  5  0  0  0  0           0  0  0
   10.5542   -1.4667    0.0000 O   0  0  0  0  0  0           0  0  0
   -0.1958   -0.3250    0.0000 C   0  0  0  0  0  0           0  0  0
    4.4000    1.0375    0.0000 O   0  0  0  0  0  0           0  0  0
    5.5167   -1.0542    0.0000 O   0  0  0  0  0  0           0  0  0
    7.4167   -1.4542    0.0000 O   0  0  0  0  0  0           0  0  0
    2.9792   -0.6375    0.0000 O   0  0  0  0  0  0           0  0  0
    6.8917    0.0333    0.0000 C   0  0  0  0  0  0           0  0  0
    1.2625    0.7125    0.0000 O   0  0  0  0  0  0           0  0  0
   -0.7333   -0.0792    0.0000 O   0  0  0  0  0  0           0  0  0
    9.5167   -0.8542    0.0000 C   0  0  0  0  0  0           0  0  0
    8.9917   -1.7792    0.0000 C   0  0  0  0  0  0           0  0  0
    8.4667   -0.8667    0.0000 C   0  0  0  0  0  0           0  0  0
    4.9792    0.7833    0.0000 C   0  0  0  0  0  0           0  0  0
    0.8417   -0.2292    0.0000 C   0  0  0  0  0  0           0  0  0
    0.2917    0.0208    0.0000 C   0  0  0  0  0  0           0  0  0
   -0.1333   -0.9167    0.0000 O   0  0  0  0  0  0           0  0  0
    8.9917   -0.5542    0.0000 C   0  0  0  0  0  0           0  0  0
    8.4667   -1.4667    0.0000 C   0  0  0  0  0  0           0  0  0
    7.4292    0.3458    0.0000 C   0  0  0  0  0  0           0  0  0
    5.9292    0.5333    0.0000 C   0  0  0  0  0  0           0  0  0
    5.5417    1.0083    0.0000 C   0  0  0  0  0  0           0  0  0
    4.0167   -0.5167    0.0000 C   0  0  0  0  0  0           0  0  0
    2.3042    0.8333    0.0000 C   0  0  0  0  0  0           0  0  0
    7.4167    0.9458    0.0000 C   0  0  0  0  0  0           0  0  0
    7.9542    0.0333    0.0000 C   0  0  0  0  0  0           0  0  0
    7.9542    1.2583    0.0000 C   0  0  0  0  0  0           0  0  0
    8.4792    0.3458    0.0000 C   0  0  0  0  0  0           0  0  0
    8.4792    0.9583    0.0000 C   0  0  0  0  0  0           0  0  0
  2  1  1  0     0  0
  3 14  1  0     0  0
  5  4  1  1     0  0
  5  1  1  0     0  0
  6 10  1  0     0  0
  7  9  1  0     0  0
  8  4  1  0     0  0
  9 11  1  0     0  0
 10  8  1  0     0  0
 11  2  1  0     0  0
 12  6  1  0     0  0
 13 16  1  0     0  0
 14 28  2  0     0  0
 15 13  1  0     0  0
 16  7  1  0     0  0
 17  3  1  0     0  0
 18  3  2  0     0  0
 19 32  1  0     0  0
 20  2  2  0     0  0
 21  4  2  0     0  0
 22  6  2  0     0  0
 23  7  2  0     0  0
 10 24  1  1     0  0
 25 15  2  0     0  0
 26 19  2  0     0  0
 27 34  2  0     0  0
 28 35  1  0     0  0
 29 12  1  0     0  0
 30  1  1  0     0  0
 31 15  1  0     0  0
 32 31  1  0     0  0
 33 19  1  0     0  0
 34 29  1  0     0  0
 35 29  2  0     0  0
 36 24  1  0     0  0
 37  5  1  0     0  0
 38 30  1  0     0  0
 11 39  1  6     0  0
 16 40  1  1     0  0
 41 36  1  0     0  0
 42 36  2  0     0  0
 43 41  2  0     0  0
 44 42  1  0     0  0
 45 44  2  0     0  0
 37 38  1  0     0  0
 45 43  1  0     0  0
 14 27  1  0     0  0
M  CHG  2   3   1  17  -1
M  END