
  SciTegic02131210002D

 48 50  0  0  0  0            999 V2000
   -1.5042   -7.9375    0.0000 C   0  0  1  0  0  0
   -1.5042   -8.7625    0.0000 C   0  0  1  0  0  0
   -0.7921   -9.1708    0.0000 C   0  0  2  0  0  0
   -0.0801   -8.7625    0.0000 C   0  0  2  0  0  0
   -0.0801   -7.9375    0.0000 C   0  0  2  0  0  0
   -0.7921   -7.5208    0.0000 C   0  0  2  0  0  0
    0.6355   -7.5271    0.0000 O   0  0
   -0.7921   -6.6958    0.0000 O   0  0
   -2.2198   -7.5271    0.0000 O   0  0
   -2.2180   -9.1760    0.0000 O   0  0
   -0.7921   -9.9958    0.0000 O   0  0
    0.6337   -9.1760    0.0000 O   0  0
    1.3488   -7.9417    0.0000 P   0  0
    1.9292   -7.3542    0.0000 O   0  0
    0.6792   -8.4333    0.0000 O   0  0
    2.0583   -8.3542    0.0000 O   0  0
    2.7740   -7.9438    0.0000 C   0  0
    3.4873   -8.3584    0.0000 C   0  0
    4.2030   -7.9481    0.0000 C   0  0
    4.9162   -8.3627    0.0000 C   0  0
    5.6319   -7.9524    0.0000 C   0  0
    6.3451   -8.3670    0.0000 C   0  0
    7.0608   -7.9566    0.0000 N   0  0
    7.7741   -8.3713    0.0000 C   0  0
    8.4898   -7.9609    0.0000 C   0  0
    7.7716   -9.1963    0.0000 O   0  0
    9.2030   -8.3755    0.0000 C   0  0
    9.9187   -7.9652    0.0000 C   0  0
   10.6319   -8.3798    0.0000 C   0  0
   11.3469   -7.9698    0.0000 C   0  0  2  0  0  0
   11.9942   -8.4781    0.0000 S   0  0
   12.6784   -8.0171    0.0000 C   0  0
   11.6270   -7.1947    0.0000 C   0  0  2  0  0  0
   12.4498   -7.2251    0.0000 C   0  0  1  0  0  0
   12.7329   -6.4520    0.0000 N   0  0
   12.0851   -5.9437    0.0000 C   0  0
   11.4017   -6.4029    0.0000 N   0  0
   12.1155   -5.1193    0.0000 O   0  0
   13.2708   -7.2250    0.0000 H   0  0
   10.8000   -7.1917    0.0000 H   0  0
   -2.2168  -10.0010    0.0000 P   0  0
   -2.9331   -7.9417    0.0000 P   0  0
   -2.9375  -10.4083    0.0000 O   0  0
   -2.2250  -10.8250    0.0000 O   0  0
   -1.5083  -10.4125    0.0000 O   0  0
   -3.6488   -7.5313    0.0000 O   0  0
   -3.5208   -8.5250    0.0000 O   0  0
   -2.3500   -8.5250    0.0000 O   0  0
 23 24  1  0
  4 12  1  6
 24 25  1  0
  5  6  1  0
 24 26  2  0
  7 13  1  0
 25 27  1  0
 27 28  1  0
 13 14  2  0
 28 29  1  0
  5  7  1  6
 30 29  1  1
 30 31  1  0
 13 15  1  0
  1  2  1  0
 31 32  1  0
 32 34  1  0
 33 30  1  0
 33 34  1  0
 13 16  1  0
  6  8  1  1
 16 17  1  0
  1  6  1  0
 17 18  1  0
 34 35  1  0
 35 36  1  0
 36 37  1  0
 37 33  1  0
  1  9  1  6
 36 38  2  0
 18 19  1  0
 34 39  1  6
  2  3  1  0
 33 40  1  6
 19 20  1  0
 10 41  1  0
  2 10  1  1
  9 42  1  0
 20 21  1  0
 41 43  1  0
  3  4  1  0
 41 44  2  0
 21 22  1  0
 41 45  1  0
  3 11  1  6
 42 46  1  0
 22 23  1  0
 42 47  2  0
  4  5  1  0
 42 48  1  0
M  END