
          11280715522D 1   1.00000     0.00000     0

 39 42  0     0  0            999 V2000
   -4.8598    2.6459    0.0000 C   0  0  0  0  0  0           0  0  0
   -4.8609    1.8185    0.0000 C   0  0  0  0  0  0           0  0  0
   -4.1461    1.4056    0.0000 C   0  0  0  0  0  0           0  0  0
   -4.1479    3.0586    0.0000 C   0  0  0  0  0  0           0  0  0
   -3.4325    2.6495    0.0000 C   0  0  0  0  0  0           0  0  0
   -3.4318    1.8227    0.0000 C   0  0  0  0  0  0           0  0  0
   -2.7165    1.4117    0.0000 N   0  0  0  0  0  0           0  0  0
   -2.0014    1.8265    0.0000 C   0  0  0  0  0  0           0  0  0
   -2.0062    2.6564    0.0000 C   0  0  0  0  0  0           0  0  0
   -2.7221    3.0637    0.0000 C   0  0  0  0  0  0           0  0  0
   -4.1442    0.5806    0.0000 O   0  0  0  0  0  0           0  0  0
   -3.4288    0.1698    0.0000 C   0  0  0  0  0  0           0  0  0
   -3.4269   -0.6552    0.0000 C   0  0  0  0  0  0           0  0  0
   -4.1430   -1.0650    0.0000 C   0  0  0  0  0  0           0  0  0
   -4.1414   -1.8892    0.0000 C   0  0  0  0  0  0           0  0  0
   -3.4254   -2.3009    0.0000 C   0  0  0  0  0  0           0  0  0
   -2.7096   -1.8823    0.0000 C   0  0  0  0  0  0           0  0  0
   -2.7146   -1.0594    0.0000 C   0  0  0  0  0  0           0  0  0
   -4.8570   -0.6518    0.0000 Cl  0  0  0  0  0  0           0  0  0
   -2.0030   -0.6421    0.0000 Cl  0  0  0  0  0  0           0  0  0
   -1.2854    1.4167    0.0000 C   0  0  0  0  0  0           0  0  0
   -1.9927   -2.2906    0.0000 S   0  0  3  0  0  0           0  0  0
   -1.2833   -2.7000    0.0000 N   0  0  0  0  0  0           0  0  0
   -1.5823   -1.7624    0.0000 O   0  0  0  0  0  0           0  0  0
   -2.3666   -2.9155    0.0000 O   0  0  0  0  0  0           0  0  0
   -0.5377   -2.2561    0.0000 C   0  0  3  0  0  0           0  0  0
    0.1417   -1.8667    0.0000 C   0  0  0  0  0  0           0  0  0
   -0.2150   -2.9995    0.0000 C   0  0  0  0  0  0           0  0  0
   -0.7986   -1.5443    0.0000 C   0  0  0  0  0  0           0  0  0
    0.1326   -1.0417    0.0000 O   0  0  0  0  0  0           0  0  0
    0.8606   -2.2713    0.0000 N   0  0  3  0  0  0           0  0  0
    0.8652   -3.0967    0.0000 C   0  0  0  0  0  0           0  0  0
    1.5800   -3.5013    0.0000 C   0  0  0  0  0  0           0  0  0
    2.2924   -3.0845    0.0000 N   0  0  3  0  0  0           0  0  0
    2.2853   -2.2586    0.0000 C   0  0  0  0  0  0           0  0  0
    1.5659   -1.8495    0.0000 C   0  0  0  0  0  0           0  0  0
    3.0098   -3.4919    0.0000 C   0  0  0  0  0  0           0  0  0
    3.0157   -4.3169    0.0000 N   0  0  0  0  0  0           0  0  0
    3.7213   -3.0743    0.0000 N   0  0  0  0  0  0           0  0  0
  8  9  1  0     0  0
 14 19  1  0     0  0
  4  1  1  0     0  0
 18 20  1  0     0  0
  9 10  2  0     0  0
  8 21  1  0     0  0
 10  5  1  0     0  0
 17 22  1  0     0  0
 22 23  1  0     0  0
  3 11  1  0     0  0
 22 24  2  0     0  0
  2  3  1  0     0  0
 22 25  2  0     0  0
 11 12  1  0     0  0
 23 26  1  0     0  0
  5  6  1  0     0  0
 26 27  1  0     0  0
 12 13  1  0     0  0
 26 28  1  0     0  0
  3  6  2  0     0  0
 26 29  1  0     0  0
 13 14  2  0     0  0
 27 30  2  0     0  0
  6  7  1  0     0  0
 27 31  1  0     0  0
 31 32  1  0     0  0
 14 15  1  0     0  0
  1  2  2  0     0  0
 15 16  2  0     0  0
  7  8  2  0     0  0
 16 17  1  0     0  0
 31 36  1  0     0  0
 32 33  1  0     0  0
 33 34  1  0     0  0
 34 35  1  0     0  0
 35 36  1  0     0  0
  5  4  2  0     0  0
 34 37  1  0     0  0
 17 18  2  0     0  0
 37 38  2  0     0  0
 18 13  1  0     0  0
 37 39  1  0     0  0
M  END