
  SciTegic02271514372D

 35 38  0  0  0  0            999 V2000
    6.9283  -19.3762    0.0000 C   0  0
    7.6505  -20.5983    0.0000 C   0  0
    6.8795  -16.8882    0.0000 C   0  0
    5.5114  -20.2109    0.0000 C   0  0
    6.2128  -18.9714    0.0000 C   0  0
    6.2285  -20.6130    0.0000 C   0  0
    7.5814  -16.4656    0.0000 C   0  0
    4.3959  -19.7043    0.0000 O   0  0
    8.2992  -16.8622    0.0000 C   0  0
    3.9690  -18.9982    0.0000 O   0  0
    4.7892  -18.9845    0.0000 S   0  0
    8.3164  -17.6800    0.0000 C   0  0
    7.6145  -18.1069    0.0000 C   0  0
    6.1561  -16.4932    0.0000 C   0  0
    5.4542  -16.9200    0.0000 C   0  0
    6.1893  -18.1345    0.0000 O   0  0
    4.7694  -18.1605    0.0000 N   0  0
    5.5064  -19.3908    0.0000 C   0  0
    5.4714  -17.7378    0.0000 C   0  0
    6.9391  -20.1977    0.0000 C   0  0
    6.8953  -17.7118    0.0000 C   0  0
    4.7378  -16.5270    0.0000 C   0  0
    4.7199  -15.7100    0.0000 O   0  0
    4.0034  -15.3170    0.0000 C   0  0  1  0  0  0
    3.2181  -13.2989    0.0000 O   0  0
    3.3325  -16.5781    0.0000 O   0  0
    3.2477  -14.1148    0.0000 C   0  0  2  0  0  0
    2.5765  -15.3744    0.0000 C   0  0  1  0  0  0
    4.6674  -14.0684    0.0000 O   0  0
    3.3029  -15.7581    0.0000 C   0  0  1  0  0  0
    3.9705  -14.5006    0.0000 C   0  0  2  0  0  0
    1.8833  -15.8086    0.0000 C   0  0
    2.5525  -14.5527    0.0000 O   0  0
    1.9108  -16.6282    0.0000 O   0  0
    2.4961  -12.9162    0.0000 C   0  0
  5  1  2  0
 14  3  1  0
 15 14  2  0
 18  4  2  0
  1 20  1  0
  3  7  1  0
  6  4  1  0
 18  5  1  0
  3 21  2  0
 19 16  1  0
 11 10  2  0
 11 18  1  0
 19 15  1  0
 19 17  2  0
  9 12  1  0
 20  6  2  0
 17 11  1  0
 21 16  1  0
 13 21  1  0
 20  2  1  0
  7  9  2  0
 12 13  2  0
 11  8  2  0
 15 22  1  0
 22 23  1  0
 24 23  1  1
 27 31  1  0
 27 33  1  0
 28 32  1  1
 30 28  1  0
 30 26  1  1
 32 34  1  0
 28 33  1  0
 27 25  1  6
 24 30  1  0
 31 24  1  0
 31 29  1  6
 25 35  1  0
M  END