
  SciTegic02271515072D

 25 28  0  0  0  0            999 V2000
    8.1499  -12.4436    0.0000 C   0  0
    8.1487  -13.2631    0.0000 C   0  0
    8.8568  -13.6721    0.0000 N   0  0
    8.8550  -12.0347    0.0000 C   0  0
    9.5636  -12.4400    0.0000 C   0  0
    9.5638  -13.2631    0.0000 C   0  0
   10.3468  -13.5173    0.0000 S   0  0
   10.8305  -12.8512    0.0000 N   0  0
   10.3464  -12.1854    0.0000 C   0  0
   10.5987  -11.4081    0.0000 N   0  0
   10.0517  -10.8010    0.0000 C   0  0
   10.3040  -10.0237    0.0000 C   0  0
    9.2524  -10.9712    0.0000 O   0  0
   11.1056   -9.8531    0.0000 C   0  0
   11.3586   -9.0799    0.0000 C   0  0
   10.8145   -8.4697    0.0000 C   0  0
   10.0139   -8.6381    0.0000 C   0  0
    9.7574   -9.4168    0.0000 C   0  0
    7.4461  -12.0309    0.0000 C   0  0
    7.4548  -11.2141    0.0000 C   0  0
    6.7519  -10.8015    0.0000 C   0  0
    6.0416  -11.2047    0.0000 C   0  0
    6.0388  -12.0248    0.0000 C   0  0
    6.7423  -12.4337    0.0000 C   0  0
    5.3361  -10.7923    0.0000 O   0  0
  1  2  2  0
  2  3  1  0
  3  6  2  0
  5  4  2  0
  4  1  1  0
  5  6  1  0
  6  7  1  0
  7  8  1  0
  8  9  2  0
  9  5  1  0
  9 10  1  0
 10 11  1  0
 11 12  1  0
 11 13  2  0
 12 14  1  0
 12 18  1  0
 14 15  1  0
 15 16  1  0
 16 17  1  0
 17 18  1  0
  1 19  1  0
 19 20  2  0
 20 21  1  0
 21 22  2  0
 22 23  1  0
 23 24  2  0
 24 19  1  0
 22 25  1  0
M  END