
  SciTegic12011114592D

 17 19  0  0  0  0            999 V2000
    1.4186   -1.4569    0.0000 N   0  0
    2.1382   -1.0532    0.0000 C   0  0
    2.1483   -0.2283    0.0000 C   0  0
    1.4390    0.1930    0.0000 C   0  0
    0.7195   -0.2106    0.0000 C   0  0
    0.0102    0.2106    0.0000 C   0  0
   -0.7093   -0.1930    0.0000 C   0  0
   -0.7195   -1.0179    0.0000 C   0  0
   -0.0102   -1.4392    0.0000 C   0  0
    0.7093   -1.0356    0.0000 C   0  0
    2.8475   -1.4745    0.0000 N   0  0
   -1.4186    0.2283    0.0000 C   0  0
   -1.4085    1.0532    0.0000 C   0  0
   -2.1178    1.4745    0.0000 C   0  0
   -2.8373    1.0709    0.0000 C   0  0
   -2.8475    0.2459    0.0000 C   0  0
   -2.1382   -0.1753    0.0000 C   0  0
  1  2  2  0
  2  3  1  0
  3  4  2  0
  4  5  1  0
  5  6  2  0
  6  7  1  0
  7  8  2  0
  8  9  1  0
  9 10  2  0
  1 10  1  0
  5 10  1  0
  2 11  1  0
 12 13  1  0
 13 14  2  0
 14 15  1  0
 15 16  2  0
 16 17  1  0
 12 17  2  0
  7 12  1  0
M  END