
  SciTegic01161211252D

 35 40  0  0  0  0            999 V2000
   15.5676  -13.9821    0.0000 C   0  0  2  0  0  0
   14.2673  -14.5530    0.0000 C   0  0
   14.7543  -13.8889    0.0000 C   0  0
   16.3926  -13.9915    0.0000 O   0  0
   12.5452  -15.8370    0.0000 C   0  0  2  0  0  0
   13.2605  -15.4316    0.0000 C   0  0  2  0  0  0
   15.3229  -13.1967    0.0000 C   0  0  1  0  0  0
   14.5935  -15.2964    0.0000 C   0  0  2  0  0  0
   12.5429  -16.6665    0.0000 C   0  0
   13.9714  -15.8533    0.0000 C   0  0  2  0  0  0
   15.9917  -12.7145    0.0000 C   0  0  1  0  0  0
   16.6582  -13.2084    0.0000 C   0  0  1  0  0  0
   13.4493  -14.6276    0.0000 C   0  0
   15.9055  -14.7324    0.0000 C   0  0
   13.2489  -17.0815    0.0000 C   0  0
   13.9690  -16.6782    0.0000 C   0  0
   15.4092  -15.4013    0.0000 C   0  0
   11.8345  -15.4222    0.0000 C   0  0
   11.8228  -17.0790    0.0000 C   0  0
   17.4179  -12.8798    0.0000 C   0  0
   16.8446  -11.5702    0.0000 C   0  0
   11.1167  -15.8254    0.0000 C   0  0
   14.4235  -13.1268    0.0000 C   0  0
   11.1051  -16.6504    0.0000 C   0  0  2  0  0  0
   12.5615  -15.0121    0.0000 C   0  0
   17.5110  -12.0549    0.0000 C   0  0  1  0  0  0
   14.6914  -12.6515    0.0000 C   0  0
   18.2661  -11.7286    0.0000 C   0  0
   14.8056  -16.1004    0.0000 H   0  0
   17.2454  -13.7910    0.0000 H   0  0
   15.2810  -12.3020    0.0000 H   0  0
   13.9690  -15.0284    0.0000 H   0  0
   13.2582  -16.2565    0.0000 H   0  0
   16.0862  -11.8949    0.0000 N   0  0
   10.3943  -17.0628    0.0000 O   0  0
  3  1  1  0
  1  4  1  1
  5  6  1  0
  6 13  1  0
  7  1  1  0
  8 17  1  0
  9  5  1  0
 10  8  1  0
 11  7  1  0
 12  4  1  0
 13  2  1  0
 14  1  1  0
 15 16  1  0
 16 10  1  0
 17 14  1  0
 18  5  1  0
 19  9  1  0
 20 12  1  0
 22 18  1  0
 23  3  1  0
 24 22  1  0
  5 25  1  1
 26 20  1  0
  7 27  1  6
 26 28  1  1
  8 29  1  6
 12 30  1  6
 11 31  1  1
 10 32  1  1
  6 33  1  6
 12 11  1  0
  2  8  1  0
 10  6  1  0
 26 21  1  0
 15  9  2  0
 19 24  1  0
  2  3  2  0
 34 11  1  0
 21 34  1  0
 24 35  1  1
M  END