
  SciTegic05061409512D

 18 20  0  0  0  0            999 V2000
   13.0574  -10.7476    0.0000 C   0  0
   13.0562  -11.5746    0.0000 C   0  0
   13.7706  -11.9871    0.0000 C   0  0
   14.4866  -11.5741    0.0000 C   0  0
   14.4838  -10.7440    0.0000 N   0  0
   13.7688  -10.3352    0.0000 C   0  0
   12.3419  -11.9862    0.0000 N   0  0
   11.6281  -11.5735    0.0000 C   0  0
   10.9138  -11.9851    0.0000 C   0  0  1  0  0  0
   11.6288  -10.7489    0.0000 O   0  0
   10.0933  -11.9851    0.0000 C   0  0  1  0  0  0
   10.5050  -12.6995    0.0000 C   0  0
    9.3735  -12.3925    0.0000 C   0  0
    8.6613  -11.9700    0.0000 C   0  0
    7.9420  -12.3767    0.0000 C   0  0
    7.9345  -13.2046    0.0000 C   0  0
    8.6522  -13.6241    0.0000 C   0  0
    9.3686  -13.2150    0.0000 C   0  0
  1  2  2  0
  2  3  1  0
  3  4  2  0
  4  5  1  0
  5  6  2  0
  6  1  1  0
  2  7  1  0
  7  8  1  0
  9  8  1  6
  8 10  2  0
 11  9  1  0
 12 11  1  0
  9 12  1  0
 11 13  1  1
 13 14  2  0
 14 15  1  0
 15 16  2  0
 16 17  1  0
 17 18  2  0
 18 13  1  0
M  END