
  CDK    9/16/09,10:6

 45 47  0  0  0  0  0  0  0  0999 V2000
    4.4984   -8.3164    0.0000 C   0  0  0  0  0  0  0  0  0  0  0  0
    4.4984   -9.1457    0.0000 C   0  0  0  0  0  0  0  0  0  0  0  0
    5.2123   -9.5542    0.0000 C   0  0  0  0  0  0  0  0  0  0  0  0
    5.9339   -9.1457    0.0000 C   0  0  0  0  0  0  0  0  0  0  0  0
    5.9339   -8.3164    0.0000 C   0  0  0  0  0  0  0  0  0  0  0  0
    5.2123   -7.8956    0.0000 C   0  0  0  0  0  0  0  0  0  0  0  0
    5.2104   -7.0740    0.0000 O   0  0  0  0  0  0  0  0  0  0  0  0
    5.2104  -10.3804    0.0000 O   0  0  0  0  0  0  0  0  0  0  0  0
    3.7828   -7.9063    0.0000 C   0  0  0  0  0  0  0  0  0  0  0  0
    3.7795   -7.0800    0.0000 C   0  0  0  0  0  0  0  0  0  0  0  0
    3.0685   -6.6699    0.0000 C   0  0  0  0  0  0  0  0  0  0  0  0
    4.4918   -6.6641    0.0000 C   0  0  0  0  0  0  0  0  0  0  0  0
    4.4930   -5.8425    0.0000 C   0  0  0  0  0  0  0  0  0  0  0  0
    5.2053   -5.4264    0.0000 C   0  0  0  0  0  0  0  0  0  0  0  0
    3.7775   -5.4322    0.0000 O   0  0  0  0  0  0  0  0  0  0  0  0
    5.2019   -4.6003    0.0000 C   0  0  0  0  0  0  0  0  0  0  0  0
    4.5793   -5.1269    0.0000 O   0  0  0  0  0  0  0  0  0  0  0  0
    5.9188   -4.1889    0.0000 C   0  0  0  0  0  0  0  0  0  0  0  0
    4.4910   -4.1947    0.0000 C   0  0  0  0  0  0  0  0  0  0  0  0
    6.6344   -4.5992    0.0000 C   0  0  0  0  0  0  0  0  0  0  0  0
    7.3420   -4.1831    0.0000 C   0  0  0  0  0  0  0  0  0  0  0  0
    6.6330   -5.4253    0.0000 C   0  0  0  0  0  0  0  0  0  0  0  0
    8.1699   -4.1839    0.0000 C   0  0  0  0  0  0  0  0  0  0  0  0
    8.8769   -4.5970    0.0000 C   0  0  0  0  0  0  0  0  0  0  0  0
    8.3815   -3.3865    0.0000 O   0  0  0  0  0  0  0  0  0  0  0  0
    7.3177   -3.3644    0.0000 O   0  0  0  0  0  0  0  0  0  0  0  0
    6.5893   -2.9745    0.0000 C   0  0  0  0  0  0  0  0  0  0  0  0
    6.5617   -2.1500    0.0000 O   0  0  0  0  0  0  0  0  0  0  0  0
    9.1788   -3.1744    0.0000 C   0  0  0  0  0  0  0  0  0  0  0  0
    8.8735   -5.4185    0.0000 C   0  0  0  0  0  0  0  0  0  0  0  0
    8.1625   -5.8287    0.0000 C   0  0  0  0  0  0  0  0  0  0  0  0
    8.1591   -6.6548    0.0000 C   0  0  0  0  0  0  0  0  0  0  0  0
    8.8712   -7.0709    0.0000 C   0  0  0  0  0  0  0  0  0  0  0  0
    6.6453   -7.0784    0.0000 C   0  0  0  0  0  0  0  0  0  0  0  0
    5.9321   -6.6641    0.0000 O   0  0  0  0  0  0  0  0  0  0  0  0
    3.7845   -9.5542    0.0000 N   0  0  0  0  0  0  0  0  0  0  0  0
    2.9854   -9.3442    0.0000 C   0  0  0  0  0  0  0  0  0  0  0  0
    2.7736  -10.1416    0.0000 C   0  0  0  0  0  0  0  0  0  0  0  0
    3.5709  -10.3580    0.0000 C   0  0  0  0  0  0  0  0  0  0  0  0
    4.1293   -4.4405    0.0000 C   0  0  0  0  0  0  0  0  0  0  0  0
    4.2392   -3.6259    0.0000 C   0  0  0  0  0  0  0  0  0  0  0  0
    3.5833   -3.1234    0.0000 C   0  0  0  0  0  0  0  0  0  0  0  0
    5.8925   -3.4079    0.0000 N   0  0  0  0  0  0  0  0  0  0  0  0
    6.6480   -7.9034    0.0000 N   0  0  0  0  0  0  0  0  0  0  0  0
    3.0644   -5.8467    0.0000 C   0  0  0  0  0  0  0  0  0  0  0  0
  1  6  1  0  0  0  0 
  2  3  1  0  0  0  0 
  3  4  1  0  0  0  0 
  4  5  2  0  0  0  0 
  5  6  1  0  0  0  0 
  6  7  2  0  0  0  0 
  3  8  2  0  0  0  0 
  1  9  1  0  0  0  0 
  9 10  1  0  0  0  0 
 10 11  1  1  0  0  0 
 10 12  1  0  0  0  0 
 12 13  1  0  0  0  0 
 13 14  1  0  0  0  0 
 13 15  1  6  0  0  0 
 14 16  1  0  0  0  0 
 14 17  1  1  0  0  0 
 16 18  1  0  0  0  0 
 16 19  1  1  0  0  0 
 18 20  2  0  0  0  0 
 20 21  1  0  0  0  0 
 20 22  1  0  0  0  0 
 21 23  1  0  0  0  0 
 23 24  1  0  0  0  0 
 23 25  1  1  0  0  0 
 21 26  1  6  0  0  0 
 26 27  1  0  0  0  0 
 27 28  2  0  0  0  0 
 25 29  1  0  0  0  0 
 24 30  2  0  0  0  0 
 30 31  1  0  0  0  0 
 31 32  2  0  0  0  0 
 32 33  1  0  0  0  0 
 34 35  2  0  0  0  0 
 34 32  1  0  0  0  0 
  2 36  1  0  0  0  0 
 36 37  1  0  0  0  0 
 37 38  1  0  0  0  0 
 38 39  1  0  0  0  0 
 39 36  1  0  0  0  0 
 17 40  1  0  0  0  0 
 40 41  1  0  0  0  0 
 41 42  2  0  0  0  0 
  1  2  2  0  0  0  0 
 27 43  1  0  0  0  0 
  5 44  1  0  0  0  0 
 44 34  1  0  0  0  0 
 15 45  1  0  0  0  0 
M  END