
  SciTegic12231509382D

 15 15  0  0  0  0            999 V2000
    4.0500   -3.0667    0.0000 C   0  0
    4.7625   -2.6500    0.0000 N   0  0
    2.6167   -3.0667    0.0000 N   0  0
    3.3292   -2.6542    0.0000 N   0  0
   -0.2375   -3.9042    0.0000 C   0  0
   -0.9583   -4.3167    0.0000 N   0  0
    0.4750   -4.3167    0.0000 C   0  0
   -0.2375   -3.0792    0.0000 C   0  0
    4.0500   -3.8917    0.0000 N   0  0
    1.9042   -2.6625    0.0000 C   0  0
    1.1917   -3.0792    0.0000 C   0  0
    0.4750   -2.6667    0.0000 C   0  0
    1.1917   -3.9042    0.0000 C   0  0
   -1.6708   -3.9042    0.0000 C   0  0
   -0.9583   -5.1417    0.0000 C   0  0
  2  1  2  0
  3  4  1  0
  4  1  1  0
  5  8  2  0
  6  5  1  0
  7 13  2  0
  8 12  1  0
  9  1  1  0
 10  3  2  0
 11 10  1  0
 12 11  2  0
 13 11  1  0
 14  6  1  0
 15  6  1  0
  7  5  1  0
M  END