
          11280715142D 1   1.00000     0.00000     0

 12 12  0     0  0            999 V2000
    2.9250   -3.7417    0.0000 C   0  0  3  0  0  0           0  0  0
    2.2500   -3.2500    0.0000 C   0  0  0  0  0  0           0  0  0
    3.5167   -4.3042    0.0000 C   0  0  3  0  0  0           0  0  0
    1.5875   -3.7375    0.0000 O   0  0  0  0  0  0           0  0  0
    2.2500   -2.4250    0.0000 O   0  0  0  0  0  0           0  0  0
    1.8375   -4.5250    0.0000 C   0  0  0  0  0  0           0  0  0
    2.6625   -4.5250    0.0000 C   0  0  0  0  0  0           0  0  0
    3.2792   -2.9917    0.0000 C   0  0  0  0  0  0           0  0  0
    4.2500   -3.9167    0.0000 C   0  0  0  0  0  0           0  0  0
    3.4125   -5.1250    0.0000 C   0  0  0  0  0  0           0  0  0
    4.2000   -4.7792    0.0000 C   0  0  0  0  0  0           0  0  0
    4.1000   -3.1042    0.0000 C   0  0  0  0  0  0           0  0  0
  2  1  1  0     0  0
  3  1  1  0     0  0
  4  2  1  0     0  0
  5  2  2  0     0  0
  6  7  1  0     0  0
  7  1  1  0     0  0
  8  1  1  0     0  0
  9  3  1  0     0  0
 10  3  1  0     0  0
 11  3  1  0     0  0
 12  8  1  0     0  0
  6  4  1  0     0  0
M  END