
          02060813472D 1   1.00000     0.00000     0

 26 28  0     1  0            999 V2000
   -3.8250  -24.5902    0.0000 C   0  0  0  0  0  0           0  0  0
   -4.6482  -24.5849    0.0000 C   0  0  0  0  0  0           0  0  0
   -5.0625  -25.2940    0.0000 C   0  0  0  0  0  0           0  0  0
   -4.6549  -26.0090    0.0000 C   0  0  0  0  0  0           0  0  0
   -3.8285  -26.0103    0.0000 C   0  0  0  0  0  0           0  0  0
   -3.4178  -25.3005    0.0000 C   0  0  0  0  0  0           0  0  0
   -2.5928  -25.3023    0.0000 C   0  0  0  0  0  0           0  0  0
   -2.1792  -24.5874    0.0000 C   0  0  0  0  0  0           0  0  0
   -1.3539  -24.5903    0.0000 C   0  0  0  0  0  0           0  0  0
   -1.0957  -23.8055    0.0000 N   0  0  3  0  0  0           0  0  0
   -1.7621  -23.3187    0.0000 C   0  0  0  0  0  0           0  0  0
   -2.4314  -23.8015    0.0000 S   0  0  0  0  0  0           0  0  0
   -0.8713  -25.2595    0.0000 O   0  0  0  0  0  0           0  0  0
   -1.7592  -22.4937    0.0000 S   0  0  0  0  0  0           0  0  0
   -0.3666  -23.4194    0.0000 C   0  0  1  0  0  0           0  0  0
    0.3323  -23.8577    0.0000 C   0  0  0  0  0  0           0  0  0
   -0.3365  -22.5949    0.0000 C   0  0  0  0  0  0           0  0  0
    0.3925  -22.2088    0.0000 O   0  0  0  0  0  0           0  0  0
   -1.0354  -22.1566    0.0000 O   0  0  0  0  0  0           0  0  0
   -5.8875  -25.2897    0.0000 Br  0  0  0  0  0  0           0  0  0
    1.0613  -23.4716    0.0000 C   0  0  0  0  0  0           0  0  0
    1.7597  -23.9114    0.0000 C   0  0  0  0  0  0           0  0  0
    2.4882  -23.5260    0.0000 C   0  0  0  0  0  0           0  0  0
    2.5189  -22.7007    0.0000 C   0  0  0  0  0  0           0  0  0
    1.8149  -22.2623    0.0000 C   0  0  0  0  0  0           0  0  0
    1.0892  -22.6503    0.0000 C   0  0  0  0  0  0           0  0  0
  6  1  2  0     0  0
  9 13  2  0     0  0
  1  2  1  0     0  0
 11 14  2  0     0  0
  6  7  1  0     0  0
 15 10  1  6     0  0
  7  8  2  0     0  0
 15 16  1  0     0  0
  8  9  1  0     0  0
 15 17  1  0     0  0
  3  4  1  0     0  0
 17 18  2  0     0  0
 17 19  1  0     0  0
  4  5  2  0     0  0
  3 20  1  0     0  0
  2  3  2  0     0  0
 16 21  1  0     0  0
  5  6  1  0     0  0
 21 22  2  0     0  0
  9 10  1  0     0  0
 22 23  1  0     0  0
 10 11  1  0     0  0
 23 24  2  0     0  0
 11 12  1  0     0  0
 24 25  1  0     0  0
 12  8  1  0     0  0
 25 26  2  0     0  0
 26 21  1  0     0  0
M  END