
  SciTegic02181312462D

 36 39  0  0  0  0            999 V2000
   14.3060   -6.3978    0.0000 C   0  0
   14.3060   -5.5728    0.0000 C   0  0
   15.0204   -5.1603    0.0000 C   0  0
   15.7349   -5.5728    0.0000 C   0  0
   15.7349   -6.3978    0.0000 C   0  0
   15.0204   -6.8103    0.0000 N   0  0
   13.5915   -6.8103    0.0000 C   0  0
   13.5915   -7.6353    0.0000 O   0  0
   12.8770   -6.3978    0.0000 N   0  0
   16.4494   -5.1603    0.0000 C   0  0
   17.1639   -5.5728    0.0000 N   0  0
   17.8783   -5.1603    0.0000 C   0  0
   18.5928   -5.5728    0.0000 C   0  0
   18.5928   -6.3978    0.0000 N   0  0
   17.8783   -6.8103    0.0000 C   0  0
   17.1639   -6.3978    0.0000 C   0  0
   19.3073   -6.8103    0.0000 C   0  0
   12.1626   -6.8103    0.0000 C   0  0
   12.1626   -7.6353    0.0000 C   0  0
   11.4481   -8.0478    0.0000 C   0  0
   10.7336   -7.6353    0.0000 C   0  0
   10.7336   -6.8103    0.0000 C   0  0
   11.4481   -6.3978    0.0000 C   0  0
   10.0191   -8.0478    0.0000 N   0  0
    9.3047   -7.6353    0.0000 C   0  0
    9.3047   -6.8103    0.0000 O   0  0
    8.5902   -8.0478    0.0000 N   0  0
    6.9825   -6.6433    0.0000 O   0  0
    7.7895   -6.8148    0.0000 N   0  0
    7.8757   -7.6353    0.0000 C   0  0
    7.1221   -7.9709    0.0000 C   0  0
    6.5700   -7.3578    0.0000 C   0  0
    5.7495   -7.4440    0.0000 C   0  0
    5.5360   -8.2409    0.0000 C   0  0
    4.9291   -7.5302    0.0000 C   0  0
    5.1662   -6.8606    0.0000 C   0  0
  1  2  1  0
  2  3  2  0
  3  4  1  0
  4  5  2  0
  5  6  1  0
  1  6  2  0
  1  7  1  0
  7  8  2  0
  7  9  1  0
 11 12  1  0
 12 13  1  0
 13 14  1  0
 14 15  1  0
 15 16  1  0
 11 16  1  0
 14 17  1  0
 10 11  1  0
  4 10  1  0
 18 19  1  0
 19 20  2  0
 20 21  1  0
 21 22  2  0
 22 23  1  0
 18 23  2  0
 24 25  1  0
 25 26  2  0
 25 27  1  0
 28 29  1  0
 29 30  2  0
 30 31  1  0
 31 32  2  0
 28 32  1  0
 33 34  1  0
 33 36  1  0
 33 35  1  0
 32 33  1  0
 27 30  1  0
 21 24  1  0
  9 18  1  0
M  END