
  SciTegic10311217562D

 51 46  0  0  0  0            999 V2000
    8.2007  -11.2834    0.0000 C   0  0
    8.9140  -11.6980    0.0000 O   0  5
    7.4851  -11.6938    0.0000 O   0  0
    2.4947   -7.9667    0.0000 C   0  0
    3.2103   -7.5563    0.0000 C   0  0
    3.9236   -7.9709    0.0000 N   0  0
    4.6393   -7.5605    0.0000 C   0  0
    5.3525   -7.9751    0.0000 C   0  0
    4.6417   -6.7355    0.0000 O   0  0
    6.0682   -7.5647    0.0000 N   0  0
    6.7815   -7.9792    0.0000 C   0  0
    7.4972   -7.5688    0.0000 O   0  0
    6.7791   -8.8042    0.0000 C   0  0
    3.9287   -3.8542    0.0000 S   0  0
    4.6431   -4.2667    0.0000 O   0  5
    3.5085   -3.1375    0.0000 O   0  0
    4.3335   -3.1375    0.0000 O   0  0
    1.0709   -5.5000    0.0000 C   0  0  2  0  0  0
    1.0709   -6.3250    0.0000 C   0  0  1  0  0  0
    1.7829   -6.7333    0.0000 C   0  0  2  0  0  0
    2.4949   -6.3250    0.0000 O   0  0
    2.4949   -5.5000    0.0000 C   0  0  1  0  0  0
    1.7829   -5.0833    0.0000 C   0  0  1  0  0  0
    0.3552   -5.0896    0.0000 O   0  0
    0.3570   -6.7385    0.0000 O   0  0
    1.7829   -4.2583    0.0000 O   0  0
    1.7829   -7.5583    0.0000 O   0  0
    1.0684   -3.8458    0.0000 S   0  0
    0.3539   -4.2583    0.0000 O   0  5
    0.6500   -3.1292    0.0000 O   0  0
    1.4750   -3.1292    0.0000 O   0  0
   -0.3581   -5.5042    0.0000 S   0  0
   -1.0737   -5.0938    0.0000 O   0  5
   -0.7750   -6.2167    0.0000 O   0  0
    0.0500   -6.2167    0.0000 O   0  0
    0.3582   -7.5635    0.0000 S   0  0
   -0.3557   -7.9771    0.0000 O   0  5
    1.1792   -7.5625    0.0000 O   0  0
    0.7625   -8.2750    0.0000 O   0  0
    3.2106   -5.0896    0.0000 C   0  0
    3.2130   -4.2646    0.0000 O   0  0
    6.0706   -6.7397    0.0000 C   0  0
    6.7863   -6.3293    0.0000 C   0  0
    7.4923   -9.2188    0.0000 C   0  0
    7.4899  -10.0438    0.0000 C   0  0
    8.2032  -10.4584    0.0000 C   0  0
    5.9292   -4.0292    0.0000 Na  0  3
   -2.5333   -4.8750    0.0000 Na  0  3
    7.2083  -13.0542    0.0000 Na  0  3
   -1.3792   -8.7125    0.0000 Na  0  3
   -0.3792   -3.6875    0.0000 Na  0  3
 19 25  1  1
  6  7  1  0
 23 26  1  6
 20 27  1  6
 14 15  1  0
 26 28  1  0
  7  8  1  0
 28 29  1  0
 14 16  2  0
  1  3  2  0
 28 30  2  0
 14 17  2  0
 28 31  2  0
  7  9  2  0
 24 32  1  0
 32 33  1  0
 18 19  1  0
 32 34  2  0
  4  5  1  0
 32 35  2  0
  8 10  1  0
  1  2  1  0
 25 36  1  0
 10 11  1  0
 36 37  1  0
  5  6  1  0
 36 38  2  0
 11 12  2  0
 36 39  2  0
 18 23  1  0
 19 20  1  0
 22 40  1  1
 20 21  1  0
 40 41  1  0
 41 14  1  0
 27  4  1  0
 21 22  1  0
 10 42  1  0
 22 23  1  0
 42 43  1  0
 13 44  1  0
 18 24  1  1
 44 45  1  0
 11 13  1  0
 45 46  1  0
 46  1  1  0
M  CHG  8   2  -1  15  -1  29  -1  33  -1  37  -1  47   1  48   1  49   1
M  CHG  2  50   1  51   1
M  END