
  CDK    9/16/09,10:2

 79 84  0  0  0  0  0  0  0  0999 V2000
    5.1249   -4.0622    0.0000 C   0  0  0  0  0  0  0  0  0  0  0  0
    4.3116   -3.9296    0.0000 C   0  0  0  0  0  0  0  0  0  0  0  0
    3.7902   -4.5684    0.0000 C   0  0  0  0  0  0  0  0  0  0  0  0
    4.0753   -5.3404    0.0000 C   0  0  0  0  0  0  0  0  0  0  0  0
    3.5540   -5.9789    0.0000 C   0  0  0  0  0  0  0  0  0  0  0  0
    2.9715   -4.4215    0.0000 O   0  0  0  0  0  0  0  0  0  0  0  0
    2.4456   -5.0654    0.0000 C   0  0  0  0  0  0  0  0  0  0  0  0
    2.7335   -5.8374    0.0000 C   0  0  0  0  0  0  0  0  0  0  0  0
    2.2121   -6.4733    0.0000 C   0  0  0  0  0  0  0  0  0  0  0  0
    1.3965   -6.3363    0.0000 C   0  0  0  0  0  0  0  0  0  0  0  0
    1.1108   -5.5624    0.0000 C   0  0  0  0  0  0  0  0  0  0  0  0
    1.6380   -4.9284    0.0000 C   0  0  0  0  0  0  0  0  0  0  0  0
    5.6486   -3.4278    0.0000 O   0  0  0  0  0  0  0  0  0  0  0  0
    3.7505   -7.0355    0.0000 C   0  0  0  0  0  0  0  0  0  0  0  0
    4.4731   -7.4452    0.0000 C   0  0  0  0  0  0  0  0  0  0  0  0
    3.7610   -8.6830    0.0000 C   0  0  0  0  0  0  0  0  0  0  0  0
    3.0438   -8.2734    0.0000 C   0  0  0  0  0  0  0  0  0  0  0  0
    3.0373   -7.4503    0.0000 C   0  0  0  0  0  0  0  0  0  0  0  0
    3.7663   -9.5093    0.0000 N   0  0  0  0  0  0  0  0  0  0  0  0
    3.7751  -10.3333    0.0000 C   0  0  0  0  0  0  0  0  0  0  0  0
    3.7804  -11.1595    0.0000 S   0  0  0  0  0  0  0  0  0  0  0  0
    5.1859   -7.0259    0.0000 C   0  0  0  0  0  0  0  0  0  0  0  0
    4.8941   -5.4755    0.0000 C   0  0  0  0  0  0  0  0  0  0  0  0
    5.1770   -6.2001    0.0000 O   0  0  0  0  0  0  0  0  0  0  0  0
    5.4154   -4.8434    0.0000 C   0  0  0  0  0  0  0  0  0  0  0  0
    4.4761   -8.2626    0.0000 C   0  0  0  0  0  0  0  0  0  0  0  0
    0.2950   -5.4219    0.0000 O   0  0  0  0  0  0  0  0  0  0  0  0
    5.9045   -7.4318    0.0000 N   0  0  0  0  0  0  0  0  0  0  0  0
    5.9084   -8.2550    0.0000 C   0  0  0  0  0  0  0  0  0  0  0  0
    6.6229   -8.6608    0.0000 C   0  0  0  0  0  0  0  0  0  0  0  0
    7.3361   -8.2450    0.0000 N   0  0  0  0  0  0  0  0  0  0  0  0
    7.3303   -7.4187    0.0000 C   0  0  0  0  0  0  0  0  0  0  0  0
    6.6113   -7.0084    0.0000 C   0  0  0  0  0  0  0  0  0  0  0  0
   10.1824   -4.9334    0.0000 C   0  0  0  0  0  0  0  0  0  0  0  0
   11.6125   -4.9281    0.0000 O   0  0  0  0  0  0  0  0  0  0  0  0
   10.8974   -4.5187    0.0000 C   0  0  0  0  0  0  0  0  0  0  0  0
    9.4658   -4.5233    0.0000 C   0  0  0  0  0  0  0  0  0  0  0  0
    9.4614   -3.6958    0.0000 C   0  0  0  0  0  0  0  0  0  0  0  0
    8.7472   -3.2870    0.0000 C   0  0  0  0  0  0  0  0  0  0  0  0
    8.7427   -2.4642    0.0000 O   0  0  0  0  0  0  0  0  0  0  0  0
   11.6040   -3.2797    0.0000 C   0  0  0  0  0  0  0  0  0  0  0  0
   10.8851   -2.0525    0.0000 O   0  0  0  0  0  0  0  0  0  0  0  0
   11.5995   -2.4605    0.0000 C   0  0  0  0  0  0  0  0  0  0  0  0
   12.3076   -1.2179    0.0000 C   0  0  0  0  0  0  0  0  0  0  0  0
   13.7405   -1.2145    0.0000 O   0  0  0  0  0  0  0  0  0  0  0  0
   13.0236   -0.7995    0.0000 C   0  0  0  0  0  0  0  0  0  0  0  0
   11.5934   -0.8098    0.0000 C   0  0  0  0  0  0  0  0  0  0  0  0
   11.5889    0.0213    0.0000 C   0  0  0  0  0  0  0  0  0  0  0  0
   10.8748    0.4293    0.0000 C   0  0  0  0  0  0  0  0  0  0  0  0
   12.3049    0.4312    0.0000 C   0  0  0  0  0  0  0  0  0  0  0  0
   13.7330    0.4368    0.0000 C   0  0  0  0  0  0  0  0  0  0  0  0
   13.0106    1.6606    0.0000 O   0  0  0  0  0  0  0  0  0  0  0  0
   13.7285    1.2536    0.0000 C   0  0  0  0  0  0  0  0  0  0  0  0
   14.4499    0.0303    0.0000 C   0  0  0  0  0  0  0  0  0  0  0  0
    9.4742   -6.9971    0.0000 C   0  0  0  0  0  0  0  0  0  0  0  0
    9.4697   -6.1723    0.0000 C   0  0  0  0  0  0  0  0  0  0  0  0
    8.7529   -5.7620    0.0000 O   0  0  0  0  0  0  0  0  0  0  0  0
   10.1921   -7.4080    0.0000 C   0  0  0  0  0  0  0  0  0  0  0  0
   10.9017   -6.9921    0.0000 C   0  0  0  0  0  0  0  0  0  0  0  0
   11.6163   -7.4098    0.0000 C   0  0  0  0  0  0  0  0  0  0  0  0
   12.3337   -6.9874    0.0000 C   0  0  0  0  0  0  0  0  0  0  0  0
   12.3288   -6.1627    0.0000 C   0  0  0  0  0  0  0  0  0  0  0  0
   11.6057   -5.7544    0.0000 C   0  0  0  0  0  0  0  0  0  0  0  0
   10.8957   -6.1732    0.0000 C   0  0  0  0  0  0  0  0  0  0  0  0
   13.0400   -5.7460    0.0000 O   0  0  0  0  0  0  0  0  0  0  0  0
   13.7572   -6.1565    0.0000 P   0  0  0  0  0  0  0  0  0  0  0  0
   13.3487   -6.8700    0.0000 O   0  0  0  0  0  0  0  0  0  0  0  0
   10.1838   -5.7587    0.0000 N   0  0  0  0  0  0  0  0  0  0  0  0
    8.0337   -3.7002    0.0000 N   0  0  0  0  0  0  0  0  0  0  0  0
   10.8900   -3.6934    0.0000 N   0  0  0  0  0  0  0  0  0  0  0  0
   12.3120   -2.0431    0.0000 N   0  0  0  0  0  0  0  0  0  0  0  0
   13.0190    0.0257    0.0000 N   0  0  0  0  0  0  0  0  0  0  0  0
   15.1688    0.4473    0.0000 O   0  0  0  0  0  0  0  0  0  0  0  0
   14.4453    1.6750    0.0000 N   0  0  0  0  0  0  0  0  0  0  0  0
    8.7601   -7.4108    0.0000 N   0  0  0  0  0  0  0  0  0  0  0  0
   14.4727   -6.5656    0.0000 O   0  0  0  0  0  0  0  0  0  0  0  0
   14.1700   -5.4349    0.0000 O   0  0  0  0  0  0  0  0  0  0  0  0
    8.0451   -7.0036    0.0000 C   0  0  0  0  0  0  0  0  0  0  0  0
    8.0440   -6.1783    0.0000 O   0  0  0  0  0  0  0  0  0  0  0  0
  9 10  2  0  0  0  0 
 10 11  1  0  0  0  0 
 11 12  2  0  0  0  0 
 12  7  1  0  0  0  0 
  1 13  2  0  0  0  0 
 14 15  2  0  0  0  0 
 15 26  1  0  0  0  0 
 26 16  2  0  0  0  0 
 16 17  1  0  0  0  0 
 17 18  2  0  0  0  0 
 18 14  1  0  0  0  0 
  5 14  1  0  0  0  0 
 16 19  1  0  0  0  0 
 19 20  2  0  0  0  0 
 20 21  2  0  0  0  0 
 15 22  1  0  0  0  0 
 22 24  2  0  0  0  0 
 11 27  1  0  0  0  0 
 22 28  1  0  0  0  0 
 28 29  1  0  0  0  0 
  1 25  1  0  0  0  0 
 25 23  2  0  0  0  0 
 23  4  1  0  0  0  0 
  3  2  2  0  0  0  0 
 28 33  1  0  0  0  0 
 29 30  1  0  0  0  0 
 30 31  1  0  0  0  0 
 31 32  1  0  0  0  0 
 32 33  1  0  0  0  0 
  2  1  1  0  0  0  0 
  3  4  1  0  0  0  0 
  3  6  1  0  0  0  0 
  4  5  2  0  0  0  0 
  5  8  1  0  0  0  0 
  7  6  1  0  0  0  0 
  7  8  2  0  0  0  0 
  8  9  1  0  0  0  0 
 54 73  1  0  0  0  0 
 70 41  1  0  0  0  0 
 36 70  1  0  0  0  0 
 53 74  1  0  0  0  0 
 75 55  1  0  0  0  0 
 71 44  1  0  0  0  0 
 43 71  1  0  0  0  0 
 66 76  1  0  0  0  0 
 39 69  1  0  0  0  0 
 66 77  1  0  0  0  0 
 72 51  1  0  0  0  0 
 46 72  1  0  0  0  0 
 39 40  2  0  0  0  0 
 41 43  1  0  0  0  0 
 43 42  2  0  0  0  0 
 44 46  1  0  0  0  0 
 46 45  2  0  0  0  0 
 44 47  1  1  0  0  0 
 47 48  1  0  0  0  0 
 48 49  1  0  0  0  0 
 48 50  1  0  0  0  0 
 51 53  1  0  0  0  0 
 53 52  2  0  0  0  0 
 51 54  1  6  0  0  0 
 55 56  1  0  0  0  0 
 56 57  2  0  0  0  0 
 55 58  1  6  0  0  0 
 58 59  1  0  0  0  0 
 59 60  2  0  0  0  0 
 60 61  1  0  0  0  0 
 61 62  2  0  0  0  0 
 62 63  1  0  0  0  0 
 63 64  2  0  0  0  0 
 64 59  1  0  0  0  0 
 62 65  1  0  0  0  0 
 65 66  1  0  0  0  0 
 66 67  2  0  0  0  0 
 34 36  1  0  0  0  0 
 36 35  2  0  0  0  0 
 34 37  1  1  0  0  0 
 37 38  1  0  0  0  0 
 38 39  1  0  0  0  0 
 56 68  1  0  0  0  0 
 78 75  1  0  0  0  0 
 68 34  1  0  0  0  0 
 78 79  2  0  0  0  0 
 32 78  1  0  0  0  0 
M  END