
  SciTegic12231509382D

 22 23  0  0  0  0            999 V2000
   -1.4250    1.8836    0.0000 Br  0  0
    0.2250   -0.9743    0.0000 O   0  0
    3.5250    1.8836    0.0000 O   0  0
    1.4625    1.1691    0.0000 N   0  0
    0.2250    0.4547    0.0000 C   0  0
   -0.1875   -0.2598    0.0000 C   0  0
   -0.1875    1.1691    0.0000 C   0  0
   -1.0125    1.1691    0.0000 C   0  0
    1.0500    0.4547    0.0000 C   0  0
   -1.0125   -0.2598    0.0000 C   0  0
    2.2875    1.1691    0.0000 C   0  0
   -1.4250    0.4547    0.0000 C   0  0
   -0.1875   -1.6887    0.0000 C   0  0
   -1.0125   -1.6887    0.0000 C   0  0
    3.1125    1.1691    0.0000 C   0  0
    2.2875    1.9941    0.0000 C   0  0
    2.2875    0.3441    0.0000 C   0  0
   -1.4250   -2.4032    0.0000 C   0  0
   -1.4250   -0.9743    0.0000 C   0  0
   -2.2500   -2.4032    0.0000 C   0  0
   -2.2500   -0.9743    0.0000 C   0  0
   -2.6625   -1.6887    0.0000 C   0  0
  1  8  1  0
  2  6  1  0
  2 13  1  0
  3 15  1  0
  4  9  1  0
  4 11  1  0
  5  6  1  0
  5  7  2  0
  5  9  1  0
  6 10  2  0
  7  8  1  0
  8 12  2  0
 10 12  1  0
 11 15  1  0
 11 16  1  0
 11 17  1  0
 13 14  1  0
 14 18  2  0
 14 19  1  0
 18 20  1  0
 19 21  2  0
 20 22  2  0
 21 22  1  0
M  END