
  SciTegic09291413392D

 31 30  0  0  0  0            999 V2000
   10.2037   -9.4528    0.0000 Br  0  5
   15.2294  -12.5054    0.0000 Br  0  5
   15.9029   -6.4312    0.0000 N   0  0
    8.0695   -9.2855    0.0000 C   0  0
   12.3440  -10.1187    0.0000 C   0  0
   15.1953   -9.2864    0.0000 C   0  0
   10.2213  -10.5247    0.0000 C   0  0
   13.7803   -9.2864    0.0000 C   0  0
    8.0695  -10.1019    0.0000 C   0  0
   14.4877   -8.0640    0.0000 N   0  0
   15.1953  -10.1028    0.0000 C   0  0
   13.7803  -10.1028    0.0000 N   0  3
    9.4890   -9.2855    0.0000 C   0  0
    9.4890  -10.1019    0.0000 N   0  3
    5.9511  -10.5122    0.0000 C   0  0
    6.6586  -10.1019    0.0000 C   0  0
    8.7812  -10.5122    0.0000 C   0  0
   14.4877  -10.5132    0.0000 C   0  0
    7.3662  -10.5122    0.0000 N   0  0
   15.1953   -6.8372    0.0000 C   0  0
   14.4877   -8.8804    0.0000 C   0  0
    5.2437  -10.1019    0.0000 N   0  0
   15.1953   -7.6536    0.0000 C   0  0
   13.0473  -10.5247    0.0000 C   0  0
   10.9246  -10.1187    0.0000 C   0  0
   11.6363  -10.5247    0.0000 C   0  0
    8.7812   -8.8794    0.0000 C   0  0
   15.9029   -8.0640    0.0000 O   0  0
    6.6586   -9.2855    0.0000 O   0  0
    5.2449   -9.2847    0.0000 O   0  0
   16.6094   -6.8419    0.0000 O   0  0
  7 25  1  0
 18 12  1  0
  9 19  1  0
 27 13  2  0
  8 12  2  0
 25 26  1  0
  8 21  1  0
 16 15  1  0
 12 24  1  0
 23 10  1  0
  6 11  1  0
 13 14  1  0
 17  9  1  0
 23 20  1  0
 16 19  1  0
  5 24  1  0
 26  5  1  0
  4 27  1  0
 21  6  2  0
 15 22  2  0
 16 29  2  0
 17 14  2  0
  9  4  2  0
 20  3  2  0
 14  7  1  0
 21 10  1  0
 11 18  2  0
 23 28  2  0
 22 30  1  0
  3 31  1  0
M  CHG  4   1  -1   2  -1  12   1  14   1
M  END