
  SciTegic12231509382D

 32 35  0  0  0  0            999 V2000
    0.1786    3.4612    0.0000 C   0  0
    0.1786    2.6362    0.0000 C   0  0
   -0.5359    2.2237    0.0000 C   0  0
   -0.5359    1.3987    0.0000 C   0  0
   -1.2503    0.9862    0.0000 C   0  0
   -1.9648    1.3987    0.0000 N   0  0
   -2.6793    0.9862    0.0000 C   0  0
   -2.6793    0.1612    0.0000 C   0  0
   -3.3937   -0.2513    0.0000 C   0  0
   -3.3937   -1.0763    0.0000 O   0  0
   -4.1082    0.1612    0.0000 O   0  0
   -1.9648   -0.2513    0.0000 C   0  0
   -1.9648   -1.0763    0.0000 N   0  0
   -1.2503   -1.4888    0.0000 C   0  0
   -0.5359   -1.0763    0.0000 C   0  0
   -0.5359   -0.2513    0.0000 C   0  0
    0.1786    0.1612    0.0000 C   0  0
    0.8931   -0.2513    0.0000 C   0  0
    0.8931   -1.0763    0.0000 C   0  0
    0.1786   -1.4888    0.0000 C   0  0
    1.6076    0.1612    0.0000 C   0  0
    1.6076    0.9862    0.0000 C   0  0
    2.3220    1.3987    0.0000 C   0  0
    3.0365    0.9862    0.0000 C   0  0
    3.0365    0.1612    0.0000 C   0  0
    2.3220   -0.2513    0.0000 C   0  0
    2.3220   -1.0763    0.0000 C   0  0
    2.9895   -1.5612    0.0000 N   0  0
    2.7345   -2.3458    0.0000 N   0  0
    1.9095   -2.3458    0.0000 N   0  0
    1.6546   -1.5612    0.0000 N   0  0
   -1.2503    0.1612    0.0000 N   0  0
  1  2  1  0
  2  3  1  0
  3  4  1  0
  4  5  1  0
  5  6  2  0
  6  7  1  0
  7  8  2  0
  8  9  1  0
  9 10  2  0
  9 11  1  0
  8 12  1  0
 12 13  1  0
 13 14  1  0
 14 15  1  0
 15 16  2  0
 16 17  1  0
 17 18  2  0
 18 19  1  0
 19 20  2  0
 15 20  1  0
 18 21  1  0
 21 22  2  0
 22 23  1  0
 23 24  2  0
 24 25  1  0
 25 26  2  0
 21 26  1  0
 26 27  1  0
 27 28  1  0
 28 29  2  0
 29 30  1  0
 30 31  1  0
 27 31  2  0
 12 32  2  0
  5 32  1  0
M  END