
          08180812492D 1   1.00000     0.00000     0

 18 19  0     0  0            999 V2000
    1.4069  -12.9041    0.0000 N   0  0  0  0  0  0           0  0  0
    1.4057  -13.7315    0.0000 C   0  0  0  0  0  0           0  0  0
    2.1206  -14.1444    0.0000 N   0  0  0  0  0  0           0  0  0
    2.8370  -13.7310    0.0000 C   0  0  0  0  0  0           0  0  0
    2.8341  -12.9005    0.0000 C   0  0  0  0  0  0           0  0  0
    2.1188  -12.4914    0.0000 C   0  0  0  0  0  0           0  0  0
    3.5471  -12.4853    0.0000 C   0  0  0  0  0  0           0  0  0
    4.2631  -12.8951    0.0000 C   0  0  0  0  0  0           0  0  0
    4.3561  -13.7142    0.0000 C   0  0  0  0  0  0           0  0  0
    5.1637  -13.8827    0.0000 C   0  0  0  0  0  0           0  0  0
    5.5735  -13.1666    0.0000 S   0  0  0  0  0  0           0  0  0
    5.0191  -12.5557    0.0000 C   0  0  0  0  0  0           0  0  0
    3.7464  -14.2699    0.0000 C   0  0  0  0  0  0           0  0  0
    5.5021  -14.6351    0.0000 C   0  0  0  0  0  0           0  0  0
    6.3229  -14.7182    0.0000 C   0  0  0  0  0  0           0  0  0
    6.6613  -15.4706    0.0000 O   0  0  0  0  0  0           0  0  0
    2.1163  -11.6664    0.0000 N   0  0  0  0  0  0           0  0  0
    0.6909  -14.1434    0.0000 N   0  0  0  0  0  0           0  0  0
  4  5  1  0     0  0
  2  3  1  0     0  0
  5  6  2  0     0  0
  9 10  2  0     0  0
 10 11  1  0     0  0
 11 12  1  0     0  0
 12  8  2  0     0  0
  6  1  1  0     0  0
  9 13  1  0     0  0
  1  2  2  0     0  0
 10 14  1  0     0  0
  5  7  1  0     0  0
 14 15  1  0     0  0
  3  4  2  0     0  0
 15 16  1  0     0  0
  7  8  1  0     0  0
  6 17  1  0     0  0
  8  9  1  0     0  0
  2 18  1  0     0  0
M  END