
          11280715362D 1   1.00000     0.00000     0

 26 28  0     0  0            999 V2000
    4.3250   -6.6375    0.0000 C   0  0  0  0  0  0           0  0  0
    3.8042   -6.3375    0.0000 C   0  0  3  0  0  0           0  0  0
    4.3250   -7.2375    0.0000 C   0  0  0  0  0  0           0  0  0
    3.8042   -7.5375    0.0000 O   0  0  0  0  0  0           0  0  0
    3.2792   -7.2417    0.0000 C   0  0  3  0  0  0           0  0  0
    3.2792   -6.6375    0.0000 C   0  0  3  0  0  0           0  0  0
    4.8375   -6.3375    0.0000 C   0  0  0  0  0  0           0  0  0
    2.7542   -6.3375    0.0000 C   0  0  0  0  0  0           0  0  0
    6.9292   -7.5125    0.0000 C   0  0  0  0  0  0           0  0  0
    7.4625   -7.8000    0.0000 C   0  0  0  0  0  0           0  0  0
    3.8042   -5.7292    0.0000 C   0  0  0  0  0  0           0  0  0
    2.7542   -5.7292    0.0000 C   0  0  0  0  0  0           0  0  0
    3.2875   -5.4292    0.0000 C   0  0  0  0  0  0           0  0  0
    4.8375   -7.5375    0.0000 C   0  0  0  0  0  0           0  0  0
    5.3625   -6.6375    0.0000 C   0  0  0  0  0  0           0  0  0
    5.3625   -7.2375    0.0000 C   0  0  0  0  0  0           0  0  0
    4.8292   -5.7375    0.0000 O   0  0  0  0  0  0           0  0  0
    3.0792   -7.8125    0.0000 C   0  0  0  0  0  0           0  0  0
    2.7125   -7.0417    0.0000 C   0  0  0  0  0  0           0  0  0
    6.4042   -7.2167    0.0000 C   0  0  0  0  0  0           0  0  0
    7.9875   -8.0917    0.0000 C   0  0  0  0  0  0           0  0  0
    3.3042   -4.8292    0.0000 C   0  0  0  0  0  0           0  0  0
    5.8917   -7.5250    0.0000 C   0  0  0  0  0  0           0  0  0
    8.5000   -7.7875    0.0000 C   0  0  0  0  0  0           0  0  0
    9.0250   -8.0750    0.0000 C   0  0  0  0  0  0           0  0  0
    9.5375   -7.7667    0.0000 C   0  0  0  0  0  0           0  0  0
  2  1  1  0     0  0
  3  1  1  0     0  0
  4  3  1  0     0  0
  5  4  1  0     0  0
  6  2  1  0     0  0
  7  1  2  0     0  0
  8  6  1  0     0  0
  9 20  1  0     0  0
 10  9  3  0     0  0
 11  2  1  0     0  0
 12 13  2  0     0  0
 13 11  1  0     0  0
 14  3  2  0     0  0
 15  7  1  0     0  0
 16 15  2  0     0  0
 17  7  1  0     0  0
 18  5  1  0     0  0
 19  5  1  0     0  0
 20 23  1  0     0  0
 21 10  1  0     0  0
 22 13  1  0     0  0
 23 16  1  0     0  0
 24 21  1  0     0  0
 25 24  1  0     0  0
 26 25  1  0     0  0
  5  6  1  0     0  0
 16 14  1  0     0  0
 12  8  1  0     0  0
M  END