
  SciTegic05061409512D

 26 29  0  0  0  0            999 V2000
   13.1452  -14.1523    0.0000 C   0  0
   12.3280  -14.1523    0.0000 C   0  0
   11.9217  -14.8561    0.0000 C   0  0
   12.3280  -15.5644    0.0000 C   0  0
   13.1452  -15.5644    0.0000 C   0  0
   13.5561  -14.8561    0.0000 N   0  0
   11.1061  -14.8513    0.0000 N   0  0
   10.6267  -14.1895    0.0000 C   0  0
    9.8491  -14.4410    0.0000 C   0  0
    9.8480  -15.2582    0.0000 C   0  0
   10.6248  -15.5117    0.0000 C   0  0
   14.3696  -14.8558    0.0000 C   0  0
   14.7785  -15.5646    0.0000 C   0  0
   15.5950  -15.5638    0.0000 C   0  0
   16.0034  -14.8550    0.0000 C   0  0
   15.5894  -14.1455    0.0000 C   0  0
   14.7743  -14.1498    0.0000 C   0  0
   16.8206  -14.8528    0.0000 C   0  0
   17.2272  -14.1440    0.0000 C   0  0
   18.0444  -14.1417    0.0000 C   0  0
   18.4511  -13.4329    0.0000 N   0  0
   19.2606  -13.3424    0.0000 C   0  0
   19.4283  -12.5426    0.0000 C   0  0
   18.7194  -12.1359    0.0000 C   0  0
   18.1137  -12.6844    0.0000 C   0  0
   18.4550  -14.8483    0.0000 O   0  0
  1  2  1  0
  1  6  1  0
  2  3  1  0
  3  4  1  0
  4  5  1  0
  5  6  1  0
  7  8  1  0
  8  9  1  0
  9 10  1  0
 10 11  1  0
 11  7  1  0
  3  7  1  0
 12 13  2  0
 13 14  1  0
 14 15  2  0
 15 16  1  0
 16 17  2  0
 17 12  1  0
  6 12  1  0
 15 18  1  0
 18 19  1  0
 19 20  1  0
 20 21  1  0
 21 22  1  0
 22 23  1  0
 23 24  1  0
 24 25  1  0
 25 21  1  0
 20 26  2  0
M  END