
          11290715122D 1   1.00000     0.00000     0

 14 14  0     0  0            999 V2000
    7.5187    1.4374    0.0000 C   0  0  0  0  0  0           0  0  0
    7.5175    0.6101    0.0000 C   0  0  0  0  0  0           0  0  0
    8.2323    0.1973    0.0000 C   0  0  0  0  0  0           0  0  0
    8.9486    0.6105    0.0000 C   0  0  0  0  0  0           0  0  0
    8.9457    1.4411    0.0000 C   0  0  0  0  0  0           0  0  0
    8.2305    1.8501    0.0000 C   0  0  0  0  0  0           0  0  0
    6.8041    1.8497    0.0000 C   0  0  3  0  0  0           0  0  0
    6.0869    2.2623    0.0000 F   0  0  0  0  0  0           0  0  0
    7.2160    2.5644    0.0000 F   0  0  0  0  0  0           0  0  0
    6.3946    1.1337    0.0000 F   0  0  0  0  0  0           0  0  0
    9.6586    1.8562    0.0000 C   0  0  3  0  0  0           0  0  0
   10.3746    1.4465    0.0000 C   0  0  0  0  0  0           0  0  0
   11.0874    1.8615    0.0000 N   0  0  0  0  0  0           0  0  0
    9.6554    2.6811    0.0000 O   0  0  0  0  0  0           0  0  0
  1  7  1  0     0  0
  3  4  2  0     0  0
  7  8  1  0     0  0
  7  9  1  0     0  0
  4  5  1  0     0  0
  7 10  1  0     0  0
  2  3  1  0     0  0
  5 11  1  0     0  0
  5  6  2  0     0  0
 11 12  1  0     0  0
  6  1  1  0     0  0
 12 13  1  0     0  0
  1  2  2  0     0  0
 11 14  1  0     0  0
M  END