
  SciTegic12171313022D

 41 45  0  0  0  0            999 V2000
   13.9734   -4.3336    0.0000 C   0  0
   13.9722   -5.1531    0.0000 C   0  0
   14.6803   -5.5621    0.0000 C   0  0
   15.3899   -5.1526    0.0000 C   0  0
   15.3871   -4.3300    0.0000 C   0  0
   14.6785   -3.9247    0.0000 C   0  0
   16.0933   -3.9187    0.0000 C   0  0
   16.8025   -4.3246    0.0000 F   0  0
   16.0902   -3.1015    0.0000 F   0  0
   16.7978   -3.5040    0.0000 F   0  0
   13.2656   -3.9251    0.0000 C   0  0
   13.2654   -3.1079    0.0000 O   0  0
   12.5580   -4.3339    0.0000 N   0  0
   11.8502   -3.9255    0.0000 C   0  0
   11.1425   -4.3342    0.0000 C   0  0
   11.1427   -5.1514    0.0000 O   0  0
   10.4347   -3.9258    0.0000 N   0  0
    9.7272   -4.3342    0.0000 C   0  0  1  0  0  0
    8.9563   -4.0747    0.0000 C   0  0
    8.4718   -4.7328    0.0000 N   0  0
    8.9480   -5.3970    0.0000 C   0  0
    9.7267   -5.1492    0.0000 C   0  0  2  0  0  0
   10.4322   -5.5616    0.0000 O   0  0
   10.4275   -6.3788    0.0000 C   0  0
   11.1328   -6.7915    0.0000 C   0  0
    7.6546   -4.7276    0.0000 C   0  0
    7.2531   -4.0120    0.0000 C   0  0
    6.4396   -4.0049    0.0000 C   0  0
    6.0227   -4.7082    0.0000 C   0  0
    6.4256   -5.4203    0.0000 C   0  0
    7.2453   -5.4291    0.0000 C   0  0
    5.2055   -4.7000    0.0000 C   0  0
    4.8085   -3.9881    0.0000 C   0  0
    3.9921   -3.9795    0.0000 C   0  0
    4.7964   -5.4028    0.0000 C   0  0
    3.9814   -5.3978    0.0000 C   0  0
    3.5749   -4.6805    0.0000 C   0  0
    2.7671   -4.8454    0.0000 O   0  0
    2.6743   -5.6646    0.0000 C   0  0
    3.4247   -6.0059    0.0000 O   0  0
    5.6089   -3.9952    0.0000 O   0  0
  1  2  2  0
  2  3  1  0
  3  4  2  0
  4  5  1  0
  5  6  2  0
  6  1  1  0
  5  7  1  0
  7  8  1  0
  7  9  1  0
  7 10  1  0
  1 11  1  0
 11 12  2  0
 11 13  1  0
 13 14  1  0
 14 15  1  0
 15 16  2  0
 15 17  1  0
 18 17  1  6
 18 19  1  0
 19 20  1  0
 20 21  1  0
 21 22  1  0
 22 18  1  0
 22 23  1  1
 23 24  1  0
 24 25  1  0
 20 26  1  0
 26 27  1  0
 26 31  1  0
 27 28  1  0
 28 29  1  0
 29 30  1  0
 30 31  1  0
 29 32  1  0
 32 33  1  0
 33 34  2  0
 34 37  1  0
 36 35  1  0
 35 32  2  0
 36 37  2  0
 37 38  1  0
 38 39  1  0
 39 40  1  0
 40 36  1  0
 29 41  1  0
M  END