
  SciTegic02011310422D

 32 36  0  0  0  0            999 V2000
    2.8428   -3.0187    0.0000 N   0  0
    3.0561   -3.8134    0.0000 C   0  0
    2.0825   -2.6895    0.0000 C   0  0
    1.2035   -3.8935    0.0000 C   0  0
    1.3520   -3.0813    0.0000 C   0  0
    0.7237   -2.5486    0.0000 C   0  0
   -0.0534   -2.8269    0.0000 C   0  0
   -0.1985   -3.6428    0.0000 C   0  0
    0.4311   -4.1720    0.0000 C   0  0
    2.0475   -1.8697    0.0000 C   0  0
    2.7457   -1.4282    0.0000 C   0  0
    2.7115   -0.6047    0.0000 C   0  0
    1.9798   -0.2217    0.0000 C   0  0
    1.2811   -0.6683    0.0000 C   0  0
    1.3187   -1.4903    0.0000 C   0  0
    2.5668   -4.4847    0.0000 C   0  0
    1.7422   -4.5190    0.0000 N   0  0
    1.5198   -5.3138    0.0000 C   0  0
    2.2071   -5.7709    0.0000 N   0  0
    2.8541   -5.2584    0.0000 N   0  0
    3.8672   -3.9641    0.0000 N   0  0
    4.4033   -3.3371    0.0000 C   0  0
    5.2144   -3.4879    0.0000 O   0  0
    4.1283   -2.5593    0.0000 O   0  0
    5.7505   -2.8608    0.0000 C   0  0
    6.5617   -3.0116    0.0000 C   0  0
    6.8341   -3.7880    0.0000 C   0  0
    7.6444   -3.9390    0.0000 C   0  0
    8.1814   -3.3116    0.0000 C   0  0
    7.9025   -2.5306    0.0000 C   0  0
    7.0929   -2.3833    0.0000 C   0  0
    0.7465   -5.6010    0.0000 C   0  0
 15 10  1  0
  3 10  1  0
 16 17  1  0
  6  7  2  0
  3  5  1  0
  7  8  1  0
 17  4  1  0
  8  9  2  0
 17 18  1  0
 18 19  2  0
 19 20  1  0
 20 16  2  0
  9  4  1  0
  2 21  1  0
  1  2  1  0
 21 22  1  0
  2 16  1  0
 22 23  1  0
 10 11  2  0
 22 24  2  0
  4  5  2  0
 23 25  1  0
 11 12  1  0
 25 26  1  0
 26 27  2  0
 12 13  2  0
 27 28  1  0
  5  6  1  0
 28 29  2  0
 13 14  1  0
 29 30  1  0
  1  3  2  0
 30 31  2  0
 31 26  1  0
 14 15  2  0
 18 32  1  0
M  END