
  SciTegic09261414532D

 34 38  0  0  0  0            999 V2000
    6.0690   -5.9454    0.0000 C   0  0
    6.0678   -6.7728    0.0000 C   0  0
    6.7827   -7.1855    0.0000 C   0  0
    6.7808   -5.5327    0.0000 C   0  0
    7.4962   -5.9418    0.0000 C   0  0
    7.4969   -6.7685    0.0000 C   0  0
    8.2122   -7.1795    0.0000 N   0  0
    8.9271   -6.7648    0.0000 C   0  0
    8.9224   -5.9348    0.0000 C   0  0
    8.2065   -5.5277    0.0000 C   0  0
    9.6431   -7.1744    0.0000 C   0  0
    9.6343   -5.5181    0.0000 C   0  0  1  0  0  0
   10.3512   -5.9261    0.0000 C   0  0
   11.0631   -5.5093    0.0000 O   0  0
   10.3562   -6.7511    0.0000 O   0  0
    9.6292   -4.6931    0.0000 O   0  0
   10.3412   -4.2763    0.0000 C   0  0
   10.3362   -3.4513    0.0000 C   0  0
   11.0580   -4.6844    0.0000 C   0  0
   11.0534   -3.8581    0.0000 C   0  0
    8.2022   -4.7027    0.0000 C   0  0
    8.9155   -4.2921    0.0000 C   0  0
    8.9115   -3.4680    0.0000 C   0  0
    7.4873   -4.3019    0.0000 C   0  0
    7.4797   -3.4792    0.0000 C   0  0
    8.1998   -3.0595    0.0000 C   0  0
    8.1962   -2.2307    0.0000 O   0  0
    7.4744   -1.8153    0.0000 C   0  0
    6.7544   -2.2351    0.0000 C   0  0
    6.7562   -3.0702    0.0000 C   0  0
    5.3465   -7.1890    0.0000 C   0  0
    5.3464   -8.0218    0.0000 C   0  0
    6.0675   -8.4384    0.0000 C   0  0
    6.7888   -8.0221    0.0000 C   0  0
  1  2  2  0
  3  6  2  0
  5  4  2  0
  4  1  1  0
  5  6  1  0
  6  7  1  0
  7  8  2  0
  8  9  1  0
  9 10  2  0
 10  5  1  0
  8 11  1  0
  9 12  1  0
 12 13  1  0
 13 14  1  0
 13 15  2  0
 12 16  1  6
 16 17  1  0
 17 18  1  0
 17 19  1  0
 17 20  1  0
 10 21  1  0
 21 22  2  0
 22 23  1  0
 23 26  2  0
 25 24  2  0
 24 21  1  0
 25 26  1  0
 25 30  1  0
 26 27  1  0
 27 28  1  0
 28 29  1  0
 29 30  1  0
  2 31  1  0
  2  3  1  0
  3 34  1  0
 31 32  2  0
 32 33  1  0
 33 34  2  0
M  END