
          11280715252D 1   1.00000     0.00000     0

 19 20  0     0  0            999 V2000
   -2.4708   -4.4000    0.0000 N   0  0  3  0  0  0           0  0  0
   -3.1833   -3.9875    0.0000 C   0  0  0  0  0  0           0  0  0
   -3.1833   -3.1625    0.0000 C   0  0  0  0  0  0           0  0  0
   -1.7583    0.9708    0.0000 N   0  0  3  0  0  0           0  0  0
   -3.1833   -1.5042    0.0000 C   0  0  0  0  0  0           0  0  0
   -2.4708   -2.7500    0.0000 C   0  0  0  0  0  0           0  0  0
   -3.8958   -2.7500    0.0000 C   0  0  0  0  0  0           0  0  0
   -2.4708   -1.9167    0.0000 C   0  0  0  0  0  0           0  0  0
   -3.8958   -1.9250    0.0000 C   0  0  0  0  0  0           0  0  0
   -3.1833   -0.6792    0.0000 O   0  0  0  0  0  0           0  0  0
   -2.4708   -0.2667    0.0000 C   0  0  0  0  0  0           0  0  0
   -2.4708   -5.2292    0.0000 C   0  0  0  0  0  0           0  0  0
   -1.7583   -3.9875    0.0000 C   0  0  0  0  0  0           0  0  0
   -2.4708    0.5583    0.0000 C   0  0  0  0  0  0           0  0  0
   -1.7583    1.8000    0.0000 C   0  0  0  0  0  0           0  0  0
   -1.0458    0.5583    0.0000 C   0  0  0  0  0  0           0  0  0
   -1.0375   -4.4000    0.0000 C   0  0  0  0  0  0           0  0  0
   -1.7583   -5.6417    0.0000 C   0  0  0  0  0  0           0  0  0
   -1.0375   -5.2292    0.0000 C   0  0  0  0  0  0           0  0  0
  2  1  1  0     0  0
  3  2  1  0     0  0
  4 14  1  0     0  0
  5  9  1  0     0  0
  6  3  2  0     0  0
  7  3  1  0     0  0
  8  6  1  0     0  0
  9  7  2  0     0  0
 10  5  1  0     0  0
 11 10  1  0     0  0
 12  1  1  0     0  0
 13  1  1  0     0  0
 14 11  1  0     0  0
 15  4  1  0     0  0
 16  4  1  0     0  0
 17 13  1  0     0  0
 18 12  1  0     0  0
 19 17  1  0     0  0
 18 19  1  0     0  0
  8  5  2  0     0  0
M  END