
  SciTegic09081514162D

 15 16  0  0  0  0            999 V2000
   -2.3155    0.7475    0.0000 N   0  0
   -2.3155   -0.7475    0.0000 C   0  0
   -1.0028   -1.5132    0.0000 N   0  0
   -1.0028    1.5132    0.0000 C   0  0
    0.2917    0.7475    0.0000 C   0  0
    0.2917   -0.7475    0.0000 C   0  0
    1.7138   -1.2033    0.0000 S   0  0
    2.5889    0.0182    0.0000 C   0  0
    1.7138    1.2033    0.0000 C   0  0
    2.0825    2.3453    0.0000 C   0  0
    3.7889    0.0269    0.0000 C   0  0
   -0.9991    2.7132    0.0000 O   0  0
   -3.3560    1.3452    0.0000 N   0  0
   -3.6187   -1.4919    0.0000 C   0  0
   -3.6251   -2.6919    0.0000 C   0  0
  1  2  1  0
  2  3  2  0
  3  6  1  0
  5  4  1  0
  4  1  1  0
  5  6  2  0
  6  7  1  0
  7  8  1  0
  8  9  2  0
  9  5  1  0
  9 10  1  0
  8 11  1  0
  4 12  2  0
  1 13  1  0
  2 14  1  0
 14 15  1  0
M  END