
          11280715462D 1   1.00000     0.00000     0

 36 40  0     1  0            999 V2000
   -0.2833    0.3375    0.0000 N   0  0  3  0  0  0           0  0  0
   -0.8875   -0.1167    0.0000 C   0  0  0  0  0  0           0  0  0
   -0.5125    1.0708    0.0000 C   0  0  0  0  0  0           0  0  0
    0.0917    1.5375    0.0000 N   0  0  3  0  0  0           0  0  0
   -0.8875   -0.9000    0.0000 S   0  0  3  0  0  0           0  0  0
    0.7000    1.0833    0.0000 C   0  0  0  0  0  0           0  0  0
    0.4667    0.3375    0.0000 C   0  0  1  0  0  0           0  0  0
   -1.2583    1.0833    0.0000 N   0  0  0  0  0  0           0  0  0
   -1.4875    0.3458    0.0000 C   0  0  0  0  0  0           0  0  0
    0.0917    2.3208    0.0000 C   0  0  0  0  0  0           0  0  0
   -0.8875   -1.6792    0.0000 N   0  0  3  0  0  0           0  0  0
   -1.6375   -0.8917    0.0000 O   0  0  0  0  0  0           0  0  0
   -0.1500   -0.9000    0.0000 O   0  0  0  0  0  0           0  0  0
   -0.5500    2.7083    0.0000 C   0  0  0  0  0  0           0  0  0
    0.7417    2.7083    0.0000 C   0  0  0  0  0  0           0  0  0
    1.1792    0.1375    0.0000 C   0  0  0  0  0  0           0  0  0
    1.4125    1.3208    0.0000 O   0  0  0  0  0  0           0  0  0
   -0.5500    3.4708    0.0000 C   0  0  0  0  0  0           0  0  0
    0.7417    3.4708    0.0000 C   0  0  0  0  0  0           0  0  0
   -1.5708   -2.0542    0.0000 C   0  0  0  0  0  0           0  0  0
   -0.2208   -2.0625    0.0000 C   0  0  0  0  0  0           0  0  0
    0.0917    3.8708    0.0000 C   0  0  0  0  0  0           0  0  0
   -0.2250   -2.8500    0.0000 C   0  0  0  0  0  0           0  0  0
   -1.5750   -2.8375    0.0000 C   0  0  0  0  0  0           0  0  0
    0.4625   -0.4375    0.0000 C   0  0  0  0  0  0           0  0  0
    1.1792   -0.6375    0.0000 C   0  0  0  0  0  0           0  0  0
   -0.9000   -3.2292    0.0000 C   0  0  3  0  0  0           0  0  0
    1.1667   -2.1917    0.0000 C   0  0  0  0  0  0           0  0  0
   -1.2000    3.8625    0.0000 Cl  0  0  0  0  0  0           0  0  0
    1.3875    3.8708    0.0000 Cl  0  0  0  0  0  0           0  0  0
    1.1625   -2.9750    0.0000 Br  0  0  0  0  0  0           0  0  0
    1.8167   -1.0292    0.0000 C   0  0  0  0  0  0           0  0  0
    0.5250   -1.0167    0.0000 C   0  0  0  0  0  0           0  0  0
    1.8167   -1.8000    0.0000 C   0  0  0  0  0  0           0  0  0
    0.5250   -1.8000    0.0000 C   0  0  0  0  0  0           0  0  0
   -0.9083   -4.0042    0.0000 O   0  0  0  0  0  0           0  0  0
  2  1  1  0     0  0
  3  1  1  0     0  0
  4  3  1  0     0  0
  5  2  1  0     0  0
  6  7  1  0     0  0
  7  1  1  0     0  0
  8  3  2  0     0  0
  9  2  2  0     0  0
 10  4  1  0     0  0
 11  5  1  0     0  0
 12  5  2  0     0  0
 13  5  2  0     0  0
 14 10  1  0     0  0
 15 10  2  0     0  0
  7 16  1  1     0  0
 17  6  2  0     0  0
 18 14  2  0     0  0
 19 15  1  0     0  0
 20 11  1  0     0  0
 21 11  1  0     0  0
 22 19  2  0     0  0
 23 21  1  0     0  0
 24 20  1  0     0  0
  7 25  1  6     0  0
 26 16  1  0     0  0
 27 23  1  0     0  0
 28 35  2  0     0  0
 29 18  1  0     0  0
 30 19  1  0     0  0
 31 28  1  0     0  0
 32 26  1  0     0  0
 33 26  2  0     0  0
 34 32  2  0     0  0
 35 33  1  0     0  0
 36 27  1  0     0  0
  4  6  1  0     0  0
  8  9  1  0     0  0
 34 28  1  0     0  0
 18 22  1  0     0  0
 24 27  1  0     0  0
M  END