
          11280715042D 1   1.00000     0.00000     0

 32 36  0     0  0            999 V2000
    3.3125   -1.8917    0.0000 N   0  0  3  0  0  0           0  0  0
    3.3292   -2.7167    0.0000 C   0  0  0  0  0  0           0  0  0
    2.6000   -1.4792    0.0000 C   0  0  0  0  0  0           0  0  0
    2.5542   -3.2042    0.0000 C   0  0  0  0  0  0           0  0  0
    1.8875   -1.9042    0.0000 N   0  0  0  0  0  0           0  0  0
    4.1250   -2.9542    0.0000 N   0  0  0  0  0  0           0  0  0
    1.8875   -2.7292    0.0000 C   0  0  0  0  0  0           0  0  0
    4.0917   -1.6292    0.0000 N   0  0  0  0  0  0           0  0  0
    4.5875   -2.2792    0.0000 C   0  0  0  0  0  0           0  0  0
    1.2250   -3.2167    0.0000 N   0  0  0  0  0  0           0  0  0
    2.5917   -0.6542    0.0000 N   0  0  0  0  0  0           0  0  0
    1.4792   -3.9917    0.0000 N   0  0  3  0  0  0           0  0  0
    3.1750   -0.0667    0.0000 C   0  0  0  0  0  0           0  0  0
    2.3042   -3.9917    0.0000 C   0  0  0  0  0  0           0  0  0
    5.4125   -2.2667    0.0000 C   0  0  0  0  0  0           0  0  0
    3.9750   -0.2792    0.0000 N   0  0  0  0  0  0           0  0  0
    5.8917   -2.9292    0.0000 O   0  0  0  0  0  0           0  0  0
    2.9542    0.7208    0.0000 O   0  0  0  0  0  0           0  0  0
    5.9000   -1.5917    0.0000 C   0  0  0  0  0  0           0  0  0
    6.6792   -2.6792    0.0000 C   0  0  0  0  0  0           0  0  0
    6.6792   -1.8542    0.0000 C   0  0  0  0  0  0           0  0  0
    0.1792   -4.5792    0.0000 C   0  0  0  0  0  0           0  0  0
   -0.3000   -5.2542    0.0000 C   0  0  0  0  0  0           0  0  0
    4.5500    0.3083    0.0000 C   0  0  0  0  0  0           0  0  0
    1.0000   -4.6667    0.0000 C   0  0  0  0  0  0           0  0  0
    5.7125    1.4833    0.0000 C   0  0  0  0  0  0           0  0  0
    4.3375    1.0958    0.0000 C   0  0  0  0  0  0           0  0  0
    5.3500    0.0958    0.0000 C   0  0  0  0  0  0           0  0  0
    5.9292    0.6833    0.0000 C   0  0  0  0  0  0           0  0  0
    4.9125    1.6958    0.0000 C   0  0  0  0  0  0           0  0  0
    6.2875    2.0708    0.0000 O   0  0  0  0  0  0           0  0  0
    7.0875    1.8583    0.0000 C   0  0  0  0  0  0           0  0  0
  2  1  1  0     0  0
  3  1  1  0     0  0
  4  2  1  0     0  0
  5  3  2  0     0  0
  6  2  2  0     0  0
  7  5  1  0     0  0
  8  1  1  0     0  0
  9  8  2  0     0  0
 10  7  2  0     0  0
 11  3  1  0     0  0
 12 14  1  0     0  0
 13 11  1  0     0  0
 14  4  2  0     0  0
 15  9  1  0     0  0
 16 13  1  0     0  0
 17 15  1  0     0  0
 18 13  2  0     0  0
 19 15  2  0     0  0
 20 17  1  0     0  0
 21 19  1  0     0  0
 22 25  1  0     0  0
 23 22  2  0     0  0
 24 16  1  0     0  0
 25 12  1  0     0  0
 26 29  2  0     0  0
 27 24  1  0     0  0
 28 24  2  0     0  0
 29 28  1  0     0  0
 30 27  2  0     0  0
 31 26  1  0     0  0
 32 31  1  0     0  0
  9  6  1  0     0  0
  7  4  1  0     0  0
 12 10  1  0     0  0
 20 21  2  0     0  0
 26 30  1  0     0  0
M  END