
  SciTegic11261311332D

 24 25  0  0  1  0            999 V2000
    0.6209   -0.4038    0.0000 S   0  3
   -0.0465    0.0811    0.0000 C   0  0
   -0.7140   -0.4038    0.0000 O   0  0
    0.3660   -1.1884    0.0000 C   0  0
   -0.4590   -1.1884    0.0000 C   0  0  1  0  0  0
    1.4055   -0.1488    0.0000 O   0  5
   -0.6084   -2.6095    0.0000 N   0  3
    0.5608    0.6396    0.0000 C   0  0
   -0.4515    0.7999    0.0000 C   0  0
   -0.9440   -1.8558    0.0000 C   0  0
    4.0767    0.0000    0.0000 I   0  5
   -0.2728   -3.3632    0.0000 C   0  0
    0.1453   -2.2740    0.0000 C   0  0
   -1.3621   -2.9451    0.0000 C   0  0
    1.3480    0.3928    0.0000 C   0  0
    0.3808    1.4447    0.0000 C   0  0
   -0.0316    1.5100    0.0000 C   0  0
   -1.2765    0.8085    0.0000 C   0  0
    0.9881    2.0031    0.0000 C   0  0
   -0.4366    2.2288    0.0000 C   0  0
   -1.6815    1.5273    0.0000 C   0  0
    1.9553    0.9513    0.0000 C   0  0
   -1.2615    2.2374    0.0000 C   0  0
    1.7753    1.7564    0.0000 C   0  0
  2  1  1  0
  3  2  1  0
  4  1  1  0
  5  4  1  0
  1  6  1  1
  7 10  1  0
  8  2  1  0
  9  2  1  0
  5 10  1  1
 12  7  1  0
 13  7  1  0
 14  7  1  0
 15  8  1  0
 16  8  1  0
 17  9  1  0
 18  9  1  0
 19 16  1  0
 20 17  1  0
 21 18  1  0
 22 15  1  0
 23 21  1  0
 24 19  1  0
  5  3  1  0
 20 23  1  0
 24 22  1  0
M  CHG  4   1   1   6  -1   7   1  11  -1
M  END