
          11280714452D 1   1.00000     0.00000     0

 33 36  0     0  0            999 V2000
    8.9917   -1.6417    0.0000 C   0  0  0  0  0  0           0  0  0
    8.2750   -2.0542    0.0000 C   0  0  0  0  0  0           0  0  0
    7.5625   -1.6417    0.0000 C   0  0  0  0  0  0           0  0  0
    9.7042   -2.0542    0.0000 C   0  0  0  0  0  0           0  0  0
    0.4250   -1.6500    0.0000 N   0  0  0  0  0  0           0  0  0
    6.8417   -2.0542    0.0000 C   0  0  0  0  0  0           0  0  0
    6.1292   -1.6417    0.0000 C   0  0  0  0  0  0           0  0  0
    8.9917   -0.8167    0.0000 C   0  0  0  0  0  0           0  0  0
    7.5625   -0.8167    0.0000 C   0  0  0  0  0  0           0  0  0
   -0.2833   -2.0625    0.0000 C   0  0  0  0  0  0           0  0  0
    5.4167   -2.0542    0.0000 C   0  0  0  0  0  0           0  0  0
    8.2750   -0.4042    0.0000 C   0  0  0  0  0  0           0  0  0
   10.4167   -1.6417    0.0000 O   0  0  0  0  0  0           0  0  0
    6.8417   -2.8792    0.0000 O   0  0  0  0  0  0           0  0  0
    1.1417   -2.0625    0.0000 C   0  0  0  0  0  0           0  0  0
   -0.2875   -2.8875    0.0000 C   0  0  0  0  0  0           0  0  0
    8.2750   -2.8792    0.0000 O   0  0  0  0  0  0           0  0  0
    0.4292   -3.3000    0.0000 C   0  0  0  0  0  0           0  0  0
    2.5667   -2.0542    0.0000 O   0  0  0  0  0  0           0  0  0
    4.7042   -1.6417    0.0000 C   0  0  0  0  0  0           0  0  0
    9.7042   -2.8792    0.0000 O   0  0  0  0  0  0           0  0  0
    3.2792   -1.6417    0.0000 C   0  0  0  0  0  0           0  0  0
    3.9917   -2.0542    0.0000 C   0  0  0  0  0  0           0  0  0
    8.2667    0.4208    0.0000 Cl  0  0  0  0  0  0           0  0  0
    1.8542   -1.6500    0.0000 C   0  0  0  0  0  0           0  0  0
    1.1417   -2.8792    0.0000 C   0  0  0  0  0  0           0  0  0
    3.9917   -0.4042    0.0000 C   0  0  0  0  0  0           0  0  0
   -0.9958   -1.6542    0.0000 C   0  0  0  0  0  0           0  0  0
    4.7042   -0.8167    0.0000 C   0  0  0  0  0  0           0  0  0
    3.2792   -0.8167    0.0000 C   0  0  0  0  0  0           0  0  0
   -0.9958   -3.3000    0.0000 C   0  0  0  0  0  0           0  0  0
   -1.7083   -2.0667    0.0000 C   0  0  0  0  0  0           0  0  0
   -1.7083   -2.8917    0.0000 C   0  0  0  0  0  0           0  0  0
  2  1  2  0     0  0
  3  2  1  0     0  0
  4  1  1  0     0  0
  5 15  2  0     0  0
  6  3  1  0     0  0
  7  6  1  0     0  0
  8  1  1  0     0  0
  9 12  1  0     0  0
 10  5  1  0     0  0
 11  7  2  0     0  0
 12  8  2  0     0  0
 13  4  2  0     0  0
 14  6  2  0     0  0
 15 25  1  0     0  0
 16 18  1  0     0  0
 17  2  1  0     0  0
 18 26  2  0     0  0
 19 22  1  0     0  0
 20 11  1  0     0  0
 21  4  1  0     0  0
 22 23  2  0     0  0
 23 20  1  0     0  0
 24 12  1  0     0  0
 25 19  1  0     0  0
 26 15  1  0     0  0
 27 29  1  0     0  0
 28 10  2  0     0  0
 29 20  2  0     0  0
 30 27  2  0     0  0
 31 16  2  0     0  0
 32 28  1  0     0  0
 33 31  1  0     0  0
  3  9  2  0     0  0
 30 22  1  0     0  0
 10 16  1  0     0  0
 33 32  2  0     0  0
M  END