
          11280715452D 1   1.00000     0.00000     0

 35 38  0     1  0            999 V2000
   -0.5458   -0.5500    0.0000 N   0  0  3  0  0  0           0  0  0
   -1.2625   -0.1292    0.0000 C   0  0  0  0  0  0           0  0  0
    1.9875    0.8500    0.0000 C   0  0  3  0  0  0           0  0  0
    1.1542    0.8500    0.0000 N   0  0  0  0  0  0           0  0  0
    0.3792    0.5958    0.0000 C   0  0  0  0  0  0           0  0  0
   -1.9833   -0.5375    0.0000 C   0  0  1  0  0  0           0  0  0
   -2.6875   -0.1292    0.0000 N   0  0  0  0  0  0           0  0  0
    2.4625    1.5208    0.0000 C   0  0  0  0  0  0           0  0  0
    2.4750    0.1958    0.0000 C   0  0  0  0  0  0           0  0  0
    3.2542    0.4458    0.0000 C   0  0  0  0  0  0           0  0  0
    3.2375    1.2708    0.0000 C   0  0  0  0  0  0           0  0  0
    0.2000   -0.2125    0.0000 C   0  0  2  0  0  0           0  0  0
   -3.4083   -0.5375    0.0000 C   0  0  0  0  0  0           0  0  0
   -1.9833   -1.3667    0.0000 C   0  0  3  0  0  0           0  0  0
   -1.2625    0.6958    0.0000 O   0  0  0  0  0  0           0  0  0
   -0.2375    1.1458    0.0000 O   0  0  0  0  0  0           0  0  0
   -3.4083   -1.3667    0.0000 O   0  0  0  0  0  0           0  0  0
   -4.1208   -0.1250    0.0000 C   0  0  1  0  0  0           0  0  0
   -0.4708   -1.3667    0.0000 C   0  0  0  0  0  0           0  0  0
   -4.8458   -0.5375    0.0000 N   0  0  0  0  0  0           0  0  0
    2.2917    2.3208    0.0000 C   0  0  0  0  0  0           0  0  0
    2.3000   -0.6125    0.0000 C   0  0  0  0  0  0           0  0  0
    3.8542   -0.0917    0.0000 C   0  0  0  0  0  0           0  0  0
    3.8542    1.8208    0.0000 C   0  0  0  0  0  0           0  0  0
    0.7542   -0.8250    0.0000 C   0  0  0  0  0  0           0  0  0
    0.3375   -1.5375    0.0000 C   0  0  0  0  0  0           0  0  0
   -2.7000   -1.7792    0.0000 C   0  0  0  0  0  0           0  0  0
   -1.2625   -1.7792    0.0000 C   0  0  0  0  0  0           0  0  0
   -1.9833   -2.1917    0.0000 C   0  0  0  0  0  0           0  0  0
   -5.5458   -0.1250    0.0000 C   0  0  0  0  0  0           0  0  0
   -4.1125    0.7000    0.0000 C   0  0  0  0  0  0           0  0  0
    3.6792    2.6208    0.0000 C   0  0  0  0  0  0           0  0  0
    3.6917   -0.8917    0.0000 C   0  0  0  0  0  0           0  0  0
    2.8917    2.8708    0.0000 C   0  0  0  0  0  0           0  0  0
    2.9167   -1.1542    0.0000 C   0  0  0  0  0  0           0  0  0
  2  1  1  0     0  0
  3  4  1  0     0  0
  4  5  1  0     0  0
 12  5  1  6     0  0
  6  2  1  0     0  0
  7  6  1  0     0  0
  8  3  1  0     0  0
  9  3  1  0     0  0
 10  9  2  0     0  0
 11  8  2  0     0  0
 12  1  1  0     0  0
 13  7  1  0     0  0
  6 14  1  6     0  0
 15  2  2  0     0  0
 16  5  2  0     0  0
 17 13  2  0     0  0
 18 13  1  0     0  0
 19  1  1  0     0  0
 20 18  1  0     0  0
 21  8  1  0     0  0
 22  9  1  0     0  0
 23 10  1  0     0  0
 24 11  1  0     0  0
 25 12  1  0     0  0
 26 19  1  0     0  0
 27 14  1  0     0  0
 28 14  1  0     0  0
 29 14  1  0     0  0
 30 20  1  0     0  0
 18 31  1  1     0  0
 32 34  1  0     0  0
 33 35  1  0     0  0
 34 21  2  0     0  0
 35 22  2  0     0  0
 25 26  1  0     0  0
 11 10  1  0     0  0
 23 33  2  0     0  0
 24 32  2  0     0  0
M  END