
  SciTegic10041313202D

 30 31  0  0  1  0            999 V2000
    4.4167   -2.9167    0.0000 C   0  0
    6.5625   -3.3417    0.0000 C   0  0
    5.1292   -3.3375    0.0000 N   0  0
    3.7042   -3.3292    0.0000 N   0  0
    5.8500   -2.9250    0.0000 C   0  0  1  0  0  0
    7.2792   -2.9375    0.0000 N   0  0
    9.5258   -2.4570    0.0000 N   0  0
    8.7042   -2.9375    0.0000 C   0  0
    7.3500   -5.7417    0.0000 C   0  0
    4.4167   -2.0917    0.0000 O   0  0
    7.9375   -6.3250    0.0000 C   0  0
    6.5542   -4.1667    0.0000 O   0  0
    7.5625   -4.9417    0.0000 C   0  0
    7.9917   -3.3542    0.0000 C   0  0  2  0  0  0
    5.8500   -2.1042    0.0000 C   0  0
    8.3625   -4.7292    0.0000 C   0  0
    2.2792   -4.1542    0.0000 O   0  0
    8.7375   -6.1042    0.0000 C   0  0
    8.5750   -3.9375    0.0000 C   0  0
    6.5500   -5.9542    0.0000 Cl  0  0
    8.9417   -5.3042    0.0000 C   0  0
    7.7167   -7.1167    0.0000 Cl  0  0
    3.7042   -4.1542    0.0000 C   0  0
    2.9917   -2.9167    0.0000 C   0  0
    6.2542   -1.3875    0.0000 C   0  0
    2.2792   -3.3292    0.0000 C   0  0
    2.9917   -4.5667    0.0000 C   0  0
    5.8375   -0.6750    0.0000 C   0  0
    7.0792   -1.3750    0.0000 C   0  0
    7.5750   -4.0667    0.0000 H   0  0
  2  5  1  0
  3  1  1  0
  4  1  1  0
  5  3  1  0
  6  2  1  0
  7  8  3  0
  8 14  1  0
  9 13  1  0
 10  1  2  0
 11 18  1  0
 12  2  2  0
 13 16  2  0
 14  6  1  0
  5 15  1  1
 16 19  1  0
 17 26  1  0
 18 21  2  0
 14 19  1  6
 20  9  1  0
 21 16  1  0
 22 11  1  0
 23  4  1  0
 24  4  1  0
 25 15  1  0
 26 24  1  0
 27 23  1  0
 28 25  1  0
 29 25  1  0
 14 30  1  1
 17 27  1  0
  9 11  2  0
M  END