
  SciTegic11201309402D

103112  0  0  0  0            999 V2000
   -1.7994   -1.4543    0.0000 C   0  0
   -1.7529   -3.1084    0.0000 O   0  0
    2.0133    0.6628    0.0000 N   0  0
    1.1903    0.6498    0.0000 C   0  0
    0.7899   -0.0715    0.0000 N   0  0
    0.7658    1.3572    0.0000 S   0  0
   -0.0350   -0.0854    0.0000 C   0  0
   -0.4537    0.6226    0.0000 C   0  0
   -1.2779    0.6090    0.0000 C   0  0
   -0.4274   -0.8055    0.0000 C   0  0
   -1.2501   -0.8226    0.0000 C   0  0
   -1.6808   -0.1085    0.0000 C   0  0
   -2.4930   -0.2974    0.0000 C   0  0
   -2.5644   -1.1283    0.0000 O   0  0
   -3.1165    0.2429    0.0000 O   0  0
   -1.0700   -1.8431    0.0000 C   0  0
   -1.0507   -2.6725    0.0000 C   0  0
   -0.3240   -3.0687    0.0000 C   0  0
    0.3839   -2.6366    0.0000 C   0  0
    0.3606   -1.8042    0.0000 C   0  0
   -0.3666   -1.4118    0.0000 C   0  0
   -2.4808   -2.7133    0.0000 C   0  0
   -2.5022   -1.8912    0.0000 C   0  0
   -3.2237   -1.5004    0.0000 C   0  0
   -3.9243   -1.9306    0.0000 C   0  0
   -3.8989   -2.7558    0.0000 C   0  0
   -3.1769   -3.1429    0.0000 C   0  0
    1.1090   -3.0303    0.0000 O   0  0
   -4.6002   -3.1903    0.0000 O   0  0
   11.2776   -0.5005    0.0000 C   0  0
   12.1024   -0.4836    0.0000 N   0  0
   10.8798   -1.2232    0.0000 O   0  0
   12.5295   -1.1895    0.0000 C   0  0  2  0  0  0
   13.3543   -1.1726    0.0000 C   0  0
   12.1317   -1.9123    0.0000 C   0  0  1  0  0  0
   11.3068   -1.9291    0.0000 C   0  0
   12.5587   -2.6181    0.0000 O   0  0
   13.7813   -1.8785    0.0000 N   0  0
   13.7521   -0.4499    0.0000 O   0  0
   10.0308    0.1895    0.0000 N   0  0
   10.8510    0.2052    0.0000 C   0  0  1  0  0  0
   11.0894    0.9902    0.0000 C   0  0
   10.4164    1.4596    0.0000 C   0  0
    9.7622    0.9645    0.0000 C   0  0
   14.6062   -1.8616    0.0000 C   0  0  2  0  0  0
   15.0332   -2.5675    0.0000 C   0  0
   15.0040   -1.1389    0.0000 C   0  0
   14.6354   -3.2903    0.0000 O   0  0
   15.8555   -2.5506    0.0000 N   0  0
   15.8684   -3.3743    0.0000 C   0  0
   16.6556   -3.6213    0.0000 C   0  0
   17.1338   -2.9490    0.0000 C   0  0
   16.6424   -2.2849    0.0000 C   0  0  1  0  0  0
   17.0136   -1.5482    0.0000 C   0  0
   17.8365   -1.5014    0.0000 N   0  0
   16.5611   -0.8583    0.0000 O   0  0
   18.1349   -2.2698    0.0000 C   0  0
   18.9587   -2.2256    0.0000 C   0  0
   19.1712   -1.4284    0.0000 C   0  0
   18.4790   -0.9788    0.0000 C   0  0  1  0  0  0
   18.1701   -0.2138    0.0000 C   0  0
   18.6765    0.4447    0.0000 N   0  0
   17.3532   -0.0989    0.0000 O   0  0
   11.5297   -1.2100    0.0000 H   0  0
    9.6388   -0.5364    0.0000 C   0  0
    8.8141   -0.5598    0.0000 C   0  0
   10.0714   -1.2388    0.0000 O   0  0
    8.3815    0.1426    0.0000 N   0  0
   18.2562    1.1545    0.0000 C   0  0  2  0  0  0
   17.4313    1.1458    0.0000 C   0  0
   18.6603    1.8731    0.0000 C   0  0
   19.4846    1.9073    0.0000 C   0  0
   19.9264    1.2106    0.0000 C   0  0
   19.5455    0.4786    0.0000 O   0  0
   20.7522    1.2439    0.0000 O   0  0
   17.0109    1.8558    0.0000 N   0  0
   17.0263    0.4271    0.0000 O   0  0
   17.3121    2.6249    0.0000 C   0  0
   18.1283    2.7453    0.0000 C   0  0
   18.4321    3.5123    0.0000 N   0  0
   18.6406    2.0987    0.0000 O   0  0
    7.5568    0.1192    0.0000 C   0  0
    7.1244    0.8219    0.0000 C   0  0  2  0  0  0
    7.1648   -0.6067    0.0000 O   0  0
   16.1861    1.8403    0.0000 C   0  0
    7.3908    1.5982    0.0000 C   0  0
    6.7327    2.0956    0.0000 C   0  0
    6.0562    1.6234    0.0000 C   0  0
    6.2951    0.8342    0.0000 N   0  0
    5.5973    0.3941    0.0000 C   0  0
    4.8673    0.7783    0.0000 C   0  0
    5.6296   -0.4303    0.0000 O   0  0
    4.1695    0.3381    0.0000 C   0  0
    3.4394    0.7223    0.0000 C   0  0
    2.7416    0.2822    0.0000 C   0  0
    8.3750    0.9708    0.0000 C   0  0
   10.4529    2.7431    0.0000 C   0  0
    9.1070    2.1514    0.0000 C   0  0
   15.8852    2.7635    0.0000 C   0  0
   13.6007    2.7753    0.0000 C   0  0
   19.2507   -0.3428    0.0000 H   0  0
   17.6388   -2.1999    0.0000 H   0  0
   11.8433    0.3293    0.0000 H   0  0
 46 48  2  0
 11 10  2  0
 46 49  1  0
 49 50  1  0
 22 23  2  0
 10  7  1  0
 23 24  1  0
 11 12  1  0
 50 51  1  0
 51 52  1  0
 52 53  1  0
 53 49  1  0
 24 25  2  0
 53 54  1  0
  1 16  1  0
 54 55  1  0
 25 26  1  0
 54 56  2  0
 55 57  1  0
  4  5  1  0
 26 27  2  0
 27 22  1  0
 22  2  1  0
 57 58  1  0
 58 59  1  0
 59 60  1  0
 60 55  1  0
 19 28  1  0
 60 61  1  0
  4  6  2  0
 61 62  1  0
 26 29  1  0
 61 63  2  0
 12 13  1  0
 33 64  1  1
 41 30  1  0
 40 65  1  0
 13 14  1  0
 65 66  1  0
 30 31  1  0
 65 67  2  0
 14  1  1  0
 66 68  1  0
 30 32  2  0
 62 69  1  0
  1 11  1  0
 69 70  1  0
 31 33  1  0
 69 71  1  6
  2 17  1  0
 71 72  1  0
 33 34  1  0
 72 73  1  0
 13 15  2  0
 33 35  1  0
 73 74  1  0
 73 75  2  0
  5  7  1  0
 70 76  1  0
 35 36  1  6
 70 77  2  0
 76 78  1  0
 35 37  1  0
 78 79  1  0
 16 17  2  0
 79 80  1  0
 34 38  1  0
 79 81  2  0
  7  8  2  0
 68 82  1  0
 34 39  2  0
 83 82  1  1
 40 41  1  0
 82 84  2  0
 17 18  1  0
 76 85  1  0
 83 86  1  0
  1 23  1  0
 18 19  2  0
  8  9  1  0
 19 20  1  0
 86 87  1  0
 87 88  1  0
 88 89  1  0
 89 83  1  0
 41 42  1  0
 89 90  1  0
 42 43  1  0
 90 91  1  0
 43 44  1  0
 90 92  2  0
 44 40  1  0
 91 93  1  0
  9 12  2  0
 93 94  1  0
 38 45  1  0
 94 95  1  0
 95  3  1  0
 20 21  2  0
 68 96  1  0
 45 46  1  0
 21 16  1  0
 96 98  1  0
 98 97  1  0
 45 47  1  1
 85 99  1  0
  3  4  1  0
 97100  1  0
100 99  2  0
 60101  1  1
 53102  1  1
 41103  1  6
M  END