
  SciTegic12171313052D

 43 47  0  0  0  0            999 V2000
   16.1180   -7.7710    0.0000 C   0  0
   16.4102   -8.5361    0.0000 C   0  0
   16.9095   -7.5559    0.0000 C   0  0
    8.8978   -7.1843    0.0000 C   0  0
    8.5545   -6.4450    0.0000 C   0  0
    9.0235   -5.7739    0.0000 C   0  0
    9.8396   -5.8466    0.0000 C   0  0
   10.1866   -6.5904    0.0000 C   0  0
    9.7139   -7.2570    0.0000 C   0  0
   11.0026   -6.6631    0.0000 O   0  0
   11.4716   -5.9921    0.0000 C   0  0
   12.2876   -6.0648    0.0000 C   0  0
   12.7607   -5.3941    0.0000 N   0  0
   12.6346   -6.8086    0.0000 O   0  0
   13.5803   -5.3938    0.0000 C   0  0  2  0  0  0
   13.9879   -6.1038    0.0000 C   0  0  1  0  0  0
   14.8071   -6.1038    0.0000 C   0  0
   13.5803   -6.8139    0.0000 O   0  0
   15.1813   -6.8342    0.0000 N   0  0
   13.9879   -4.6837    0.0000 C   0  0
   13.5803   -3.9737    0.0000 C   0  0
   12.7610   -3.9737    0.0000 C   0  0
   12.3494   -3.2636    0.0000 C   0  0
   12.7610   -2.5536    0.0000 C   0  0
   13.5803   -2.5536    0.0000 C   0  0
   13.9879   -3.2636    0.0000 C   0  0
   15.2188   -5.3938    0.0000 O   0  0
   14.8071   -7.5605    0.0000 C   0  0
   15.3876   -8.1410    0.0000 S   0  0
   15.9905   -6.9618    0.0000 C   0  0
   16.5669   -6.3812    0.0000 C   0  0
   17.3463   -6.6331    0.0000 N   0  0
   16.3974   -5.5798    0.0000 O   0  0
   17.9562   -6.0877    0.0000 C   0  0  2  0  0  0
   18.6197   -4.9372    0.0000 C   0  0
   17.8710   -5.2729    0.0000 C   0  0  1  0  0  0
   19.1693   -5.5471    0.0000 C   0  0
   18.7576   -6.2572    0.0000 C   0  0
   19.1693   -6.9672    0.0000 C   0  0
   19.9885   -6.9672    0.0000 C   0  0
   20.3961   -6.2572    0.0000 C   0  0
   19.9885   -5.5471    0.0000 C   0  0
   17.1609   -4.8612    0.0000 O   0  0
  2  1  1  0
  1  3  1  0
  4  5  2  0
  5  6  1  0
  6  7  2  0
  7  8  1  0
  8  9  2  0
  9  4  1  0
  8 10  1  0
 10 11  1  0
 11 12  1  0
 12 13  1  0
 12 14  2  0
 13 15  1  0
 15 16  1  0
 16 17  1  0
 16 18  1  1
 17 19  1  0
 15 20  1  1
 20 21  1  0
 21 22  2  0
 22 23  1  0
 23 24  2  0
 24 25  1  0
 25 26  2  0
 26 21  1  0
 17 27  2  0
 19 28  1  0
 28 29  1  0
 29  1  1  0
  1 30  1  0
 30 19  1  0
 30 31  1  0
 31 32  1  0
 31 33  2  0
 34 32  1  6
 34 38  1  0
 37 35  1  0
 35 36  1  0
 36 34  1  0
 37 38  2  0
 38 39  1  0
 39 40  2  0
 40 41  1  0
 41 42  2  0
 42 37  1  0
 36 43  1  6
M  END