
  SciTegic04201616412D

 28 27  0  0  0  0            999 V2000
    9.0999    0.7500    0.0000 C   0  0
    7.7999    0.0000    0.0000 O   0  0
    6.5000    0.7500    0.0000 C   0  0
    9.0999    1.9500    0.0000 O   0  0
   10.3999    0.0000    0.0000 C   0  0
    5.2000    0.0000    0.0000 C   0  0  2  0  0  0
    3.9000    0.7500    0.0000 C   0  0
    2.6000    0.0000    0.0000 C   0  0
    1.3000    0.7500    0.0000 P   0  0
    0.2606    0.1503    0.0000 O   0  0
    0.2609    1.3502    0.0000 O   0  0
    1.3000    1.9500    0.0000 O   0  0
    5.2000   -1.2000    0.0000 O   0  0
    2.6000   -1.2000    0.0000 Br  0  0
   11.6999    0.7500    0.0000 C   0  0
   12.9999    0.0000    0.0000 C   0  0
   14.2999    0.7500    0.0000 C   0  0
   15.5999    0.0000    0.0000 C   0  0
   16.8999    0.7500    0.0000 C   0  0
   18.1999    0.0000    0.0000 C   0  0
   19.4998    0.7500    0.0000 C   0  0
   20.7998    0.0000    0.0000 C   0  0
   22.0998    0.7500    0.0000 C   0  0
   23.3998    0.0000    0.0000 C   0  0
   24.6998    0.7500    0.0000 C   0  0
   25.9998    0.0000    0.0000 C   0  0
   27.2998    0.7500    0.0000 C   0  0
   28.3392    0.1503    0.0000 C   0  0
  1  2  1  0
  2  3  1  0
  1  4  2  0
  1  5  1  0
  3  6  1  0
  6  7  1  0
  7  8  1  0
  8  9  1  0
  9 10  2  0
  9 11  1  0
  9 12  1  0
  6 13  1  1
  8 14  1  0
  5 15  1  0
 15 16  1  0
 16 17  1  0
 17 18  1  0
 18 19  1  0
 19 20  1  0
 20 21  1  0
 21 22  1  0
 22 23  1  0
 23 24  1  0
 24 25  1  0
 25 26  1  0
 26 27  1  0
 27 28  1  0
M  END