
          11280715252D 1   1.00000     0.00000     0

 15 16  0     0  0            999 V2000
    0.6542   -2.5542    0.0000 N   0  3  0  0  0  0           0  0  0
   -0.1708   -2.5500    0.0000 N   0  5  0  0  0  0           0  0  0
    5.6125   -4.5375    0.0000 N   0  0  0  0  0  0           0  0  0
    5.1750   -3.2750    0.0000 N   0  0  3  0  0  0           0  0  0
    4.9292   -4.0625    0.0000 C   0  0  0  0  0  0           0  0  0
    1.4792   -2.5500    0.0000 N   0  0  0  0  0  0           0  0  0
    6.2667   -4.0417    0.0000 C   0  0  0  0  0  0           0  0  0
    6.0042   -3.2625    0.0000 C   0  0  0  0  0  0           0  0  0
    4.7625   -2.5625    0.0000 C   0  0  0  0  0  0           0  0  0
    2.3042   -2.5542    0.0000 C   0  0  0  0  0  0           0  0  0
    3.9375   -2.5625    0.0000 C   0  0  0  0  0  0           0  0  0
    2.7042   -3.2667    0.0000 C   0  0  0  0  0  0           0  0  0
    2.7125   -1.8500    0.0000 C   0  0  0  0  0  0           0  0  0
    3.5250   -1.8500    0.0000 C   0  0  0  0  0  0           0  0  0
    3.5250   -3.2667    0.0000 C   0  0  0  0  0  0           0  0  0
  2  1  2  0     0  0
  3  5  2  0     0  0
  4  9  1  0     0  0
  5  4  1  0     0  0
  6  1  2  0     0  0
  7  8  2  0     0  0
  8  4  1  0     0  0
  9 11  1  0     0  0
 10  6  1  0     0  0
 11 14  1  0     0  0
 12 10  2  0     0  0
 13 10  1  0     0  0
 14 13  2  0     0  0
 15 12  1  0     0  0
 15 11  2  0     0  0
  3  7  1  0     0  0
M  CHG  2   1   1   2  -1
M  END