
  SciTegic01161211222D

 30 34  0  0  0  0            999 V2000
   19.1167  -12.6625    0.0000 C   0  0
   19.8292  -13.0750    0.0000 C   0  0
   20.5417  -12.6625    0.0000 N   0  0
   19.8292  -11.4250    0.0000 N   0  0
   20.5417  -11.8375    0.0000 C   0  0
   14.7375  -15.1167    0.0000 N   0  0
   19.1167  -11.8375    0.0000 C   0  0
   14.8292  -14.3042    0.0000 C   0  0
   14.0792  -13.9667    0.0000 C   0  0
   13.9292  -15.2917    0.0000 O   0  0
   13.5167  -14.5750    0.0000 C   0  0
   18.4042  -13.0667    0.0000 C   0  0
   16.9750  -13.0667    0.0000 N   0  0
   13.8292  -13.1792    0.0000 C   0  0
   12.7167  -14.4000    0.0000 C   0  0
   19.8292  -13.9000    0.0000 O   0  0
   15.5417  -13.8875    0.0000 C   0  0
   17.6875  -12.6542    0.0000 C   0  0
   12.4667  -13.6167    0.0000 C   0  0
   15.5500  -13.0625    0.0000 C   0  0
   16.2542  -14.3042    0.0000 C   0  0
   16.2625  -12.6542    0.0000 C   0  0
   16.9792  -13.8917    0.0000 C   0  0
   21.2542  -13.0667    0.0000 C   0  0
   13.0250  -13.0042    0.0000 C   0  0
   21.2542  -11.4167    0.0000 C   0  0
   18.4042  -11.4167    0.0000 C   0  0
   11.6625  -13.4417    0.0000 F   0  0
   21.9667  -12.6625    0.0000 C   0  0
   21.9667  -11.8375    0.0000 C   0  0
  2  1  1  0
  3  2  1  0
  4  7  1  0
  5  4  2  0
  6  8  2  0
  7  1  2  0
  8 17  1  0
  9  8  1  0
 10  6  1  0
 11  9  2  0
 12  1  1  0
 13 18  1  0
 14  9  1  0
 15 11  1  0
 16  2  2  0
 17 21  1  0
 18 12  1  0
 19 25  1  0
 20 22  1  0
 21 23  1  0
 22 13  1  0
 23 13  1  0
 24  3  1  0
 25 14  2  0
 26  5  1  0
 27  7  1  0
 28 19  1  0
 29 24  1  0
 30 26  1  0
  3  5  1  0
 20 17  1  0
 29 30  1  0
 11 10  1  0
 19 15  2  0
M  END