
          11280715332D 1   1.00000     0.00000     0

 44 48  0     1  0            999 V2000
    6.2542   -3.4292    0.0000 C   0  0  0  0  0  0           0  0  0
    5.5042   -3.8250    0.0000 N   0  0  3  0  0  0           0  0  0
    7.0125   -3.7750    0.0000 N   0  0  3  0  0  0           0  0  0
    5.3667   -4.6167    0.0000 C   0  0  3  0  0  0           0  0  0
    7.1917   -4.5750    0.0000 C   0  0  3  0  0  0           0  0  0
    6.6667   -5.2417    0.0000 C   0  0  1  0  0  0           0  0  0
    5.8750   -5.2417    0.0000 C   0  0  1  0  0  0           0  0  0
    8.0000   -4.7542    0.0000 C   0  0  0  0  0  0           0  0  0
    4.5667   -4.8167    0.0000 C   0  0  0  0  0  0           0  0  0
    4.8375   -3.3375    0.0000 C   0  0  0  0  0  0           0  0  0
    7.6542   -3.2542    0.0000 C   0  0  0  0  0  0           0  0  0
    6.2375   -2.6042    0.0000 O   0  0  0  0  0  0           0  0  0
    8.2500   -5.5417    0.0000 O   0  0  0  0  0  0           0  0  0
    4.3417   -5.6167    0.0000 O   0  0  0  0  0  0           0  0  0
    5.5167   -5.9917    0.0000 O   0  0  0  0  0  0           0  0  0
    7.0250   -5.9917    0.0000 O   0  0  0  0  0  0           0  0  0
    7.5167   -2.4417    0.0000 C   0  0  0  0  0  0           0  0  0
    4.9250   -2.5167    0.0000 C   0  0  0  0  0  0           0  0  0
    7.2625   -0.8167    0.0000 C   0  0  0  0  0  0           0  0  0
    5.1000   -0.8792    0.0000 C   0  0  0  0  0  0           0  0  0
    4.3417   -6.4417    0.0000 C   0  0  0  0  0  0           0  0  0
    8.2500   -6.3667    0.0000 C   0  0  0  0  0  0           0  0  0
    6.7542   -2.1500    0.0000 C   0  0  0  0  0  0           0  0  0
    5.6792   -2.1875    0.0000 C   0  0  0  0  0  0           0  0  0
    8.1625   -1.9250    0.0000 C   0  0  0  0  0  0           0  0  0
    4.2542   -2.0375    0.0000 C   0  0  0  0  0  0           0  0  0
    5.7667   -1.3667    0.0000 C   0  0  0  0  0  0           0  0  0
    8.0292   -1.1125    0.0000 C   0  0  0  0  0  0           0  0  0
    4.3417   -1.2167    0.0000 C   0  0  0  0  0  0           0  0  0
    6.6167   -1.3417    0.0000 C   0  0  0  0  0  0           0  0  0
    4.5167    0.4250    0.0000 O   0  0  0  0  0  0           0  0  0
    7.7667    0.5208    0.0000 O   0  0  0  0  0  0           0  0  0
    7.1292    0.0000    0.0000 C   0  0  0  0  0  0           0  0  0
    5.1875   -0.0625    0.0000 C   0  0  0  0  0  0           0  0  0
    7.5375   -6.7792    0.0000 C   0  0  0  0  0  0           0  0  0
    8.9667   -6.7750    0.0000 C   0  0  0  0  0  0           0  0  0
    3.6375   -6.8542    0.0000 C   0  0  0  0  0  0           0  0  0
    5.0625   -6.8500    0.0000 C   0  0  0  0  0  0           0  0  0
    8.9667   -7.6042    0.0000 C   0  0  0  0  0  0           0  0  0
    3.6292   -7.6792    0.0000 C   0  0  0  0  0  0           0  0  0
    5.0667   -7.6792    0.0000 C   0  0  0  0  0  0           0  0  0
    7.5375   -7.6042    0.0000 C   0  0  0  0  0  0           0  0  0
    8.2542   -8.0167    0.0000 C   0  0  0  0  0  0           0  0  0
    4.3500   -8.0917    0.0000 C   0  0  0  0  0  0           0  0  0
  2  1  1  0     0  0
  3  1  1  0     0  0
  4  2  1  0     0  0
  5  3  1  0     0  0
  6  5  1  0     0  0
  7  4  1  0     0  0
  8  5  1  0     0  0
  9  4  1  0     0  0
 10  2  1  0     0  0
 11  3  1  0     0  0
 12  1  2  0     0  0
 13  8  1  0     0  0
 14  9  1  0     0  0
  7 15  1  1     0  0
  6 16  1  6     0  0
 17 11  1  0     0  0
 18 10  1  0     0  0
 19 28  2  0     0  0
 20 29  1  0     0  0
 21 14  1  0     0  0
 22 13  1  0     0  0
 23 17  1  0     0  0
 24 18  2  0     0  0
 25 17  2  0     0  0
 26 18  1  0     0  0
 27 24  1  0     0  0
 28 25  1  0     0  0
 29 26  2  0     0  0
 30 23  2  0     0  0
 31 34  1  0     0  0
 32 33  1  0     0  0
 33 19  1  0     0  0
 34 20  1  0     0  0
 35 22  1  0     0  0
 36 22  2  0     0  0
 37 21  1  0     0  0
 38 21  2  0     0  0
 39 36  1  0     0  0
 40 37  2  0     0  0
 41 38  1  0     0  0
 42 35  2  0     0  0
 43 39  2  0     0  0
 44 41  2  0     0  0
  7  6  1  0     0  0
 19 30  1  0     0  0
 20 27  2  0     0  0
 43 42  1  0     0  0
 44 40  1  0     0  0
M  END