
  SciTegic12171312552D

 41 46  0  0  0  0            999 V2000
   35.0588  -19.5457    0.0000 C   0  0
   36.0772  -20.1722    0.0000 O   0  0
   35.0555  -18.7203    0.0000 C   0  0
   35.6437  -18.1376    0.0000 N   0  0
   35.2713  -17.3980    0.0000 N   0  0
   34.4522  -17.5241    0.0000 N   0  0
   34.3195  -18.3409    0.0000 C   0  0
   34.0385  -16.8103    0.0000 C   0  0
   33.2134  -16.8117    0.0000 C   0  0
   32.7997  -16.0978    0.0000 C   0  0
   31.9746  -16.0992    0.0000 N   0  0
   31.4877  -15.4369    0.0000 C   0  0
   31.4900  -16.7718    0.0000 C   0  0
   31.7398  -14.6514    0.0000 O   0  0
   31.7472  -17.5557    0.0000 O   0  0
   30.7049  -16.5183    0.0000 C   0  0
   30.7044  -15.6960    0.0000 C   0  0
   29.9931  -15.2872    0.0000 C   0  0
   29.2820  -15.6994    0.0000 C   0  0
   29.2865  -16.5249    0.0000 C   0  0
   29.9983  -16.9300    0.0000 C   0  0
   37.0520  -19.5457    0.0000 C   0  0
   36.4713  -18.1375    0.0000 N   0  0
   37.0520  -18.7171    0.0000 C   0  0
   37.7827  -18.3439    0.0000 C   0  0
   37.6546  -17.5328    0.0000 N   0  0
   36.8431  -17.4061    0.0000 N   0  0
   38.0544  -16.8111    0.0000 C   0  0
   38.8793  -16.7966    0.0000 C   0  0
   39.2791  -16.0749    0.0000 C   0  0
   40.1041  -16.0604    0.0000 N   0  0
   40.6002  -16.7158    0.0000 C   0  0
   40.5767  -15.3812    0.0000 C   0  0
   40.3599  -17.5051    0.0000 O   0  0
   40.3068  -14.6015    0.0000 O   0  0
   41.3658  -15.6221    0.0000 C   0  0
   41.3780  -16.4446    0.0000 C   0  0
   42.0953  -16.8434    0.0000 C   0  0
   42.8008  -16.4209    0.0000 C   0  0
   42.7844  -15.5954    0.0000 C   0  0
   42.0666  -15.2002    0.0000 C   0  0
  1  3  1  0
  1  2  1  0
  3  4  1  0
  4  5  2  0
  5  6  1  0
  6  7  1  0
  7  3  2  0
  6  8  1  0
  8  9  1  0
  9 10  1  0
 10 11  1  0
 11 12  1  0
 12 17  1  0
 16 13  1  0
 13 11  1  0
 12 14  2  0
 13 15  2  0
 16 17  2  0
 17 18  1  0
 18 19  2  0
 19 20  1  0
 20 21  2  0
 21 16  1  0
  2 22  1  0
 22 24  1  0
 23 24  1  0
 24 25  2  0
 25 26  1  0
 26 27  1  0
 27 23  2  0
 26 28  1  0
 28 29  1  0
 29 30  1  0
 30 31  1  0
 31 32  1  0
 32 37  1  0
 36 33  1  0
 33 31  1  0
 32 34  2  0
 33 35  2  0
 36 37  2  0
 37 38  1  0
 38 39  2  0
 39 40  1  0
 40 41  2  0
 41 36  1  0
M  END