
  SciTegic06051313552D

 27 29  0  0  0  0            999 V2000
   21.7223   -2.0655    0.0000 C   0  0  1  0  0  0
   22.8041   -2.8771    0.0000 C   0  0  2  0  0  0
   22.2828   -2.4426    0.0000 C   0  0
   21.2984   -2.4426    0.0000 C   0  0  2  0  0  0
   21.1565   -1.6218    0.0000 N   0  0
   22.6664   -2.0462    0.0000 C   0  0
   20.7699   -3.1644    0.0000 C   0  0
   21.3988   -2.7864    0.0000 C   0  0  2  0  0  0
   20.6778   -2.3712    0.0000 O   0  0
   19.9651   -2.7856    0.0000 C   0  0
   19.9669   -3.6073    0.0000 O   0  0
   19.2508   -2.3742    0.0000 C   0  0
   20.7312   -0.9139    0.0000 C   0  0
   22.5849   -3.6706    0.0000 O   0  0
   23.1666   -4.2586    0.0000 C   0  0
   22.9462   -5.0526    0.0000 O   0  0
   23.9644   -4.0484    0.0000 C   0  0
   24.5421   -4.6359    0.0000 C   0  0
   25.3390   -4.4265    0.0000 C   0  0
   25.5604   -3.6314    0.0000 C   0  0
   24.9715   -3.0417    0.0000 C   0  0
   24.1779   -3.2515    0.0000 C   0  0
   21.9304   -1.2644    0.0000 H   0  0
   20.7118   -1.8549    0.0000 H   0  0
   24.3233   -5.4332    0.0000 N   0  3
   24.9017   -6.0194    0.0000 O   0  0
   23.5265   -5.6411    0.0000 O   0  5
  2  3  1  0
  3  4  1  0
  4  5  1  0
  5  1  1  0
  1  6  1  0
  6  2  1  0
  4  7  1  0
  1  8  1  0
  7  8  1  0
  8  9  1  1
  9 10  1  0
 10 11  2  0
 10 12  1  0
  5 13  1  0
  2 14  1  6
 14 15  1  0
 15 16  2  0
 15 17  1  0
 17 18  2  0
 18 19  1  0
 19 20  2  0
 20 21  1  0
 21 22  2  0
 22 17  1  0
  1 23  1  6
  4 24  1  6
 25 26  2  0
 25 27  1  0
 18 25  1  0
M  CHG  2  25   1  27  -1
M  END