
  SciTegic11201309402D

 23 26  0  0  1  0            999 V2000
    0.0050  -15.3445    0.0000 C   0  0
    0.0111  -14.0084    0.0000 C   0  0  2  0  0  0
   -0.4742  -14.6745    0.0000 C   0  0
    0.7968  -14.2684    0.0000 C   0  0  1  0  0  0
    0.7908  -15.0935    0.0000 N   0  0
    1.5737  -15.3542    0.0000 C   0  0
    2.0636  -14.6902    0.0000 C   0  0
    1.5834  -14.0192    0.0000 C   0  0
   -0.2411  -13.2229    0.0000 C   0  0
   -1.0475  -13.0487    0.0000 O   0  0
   -1.2998  -12.2632    0.0000 C   0  0
   -2.1061  -12.0889    0.0000 C   0  0
   -0.7456  -11.6520    0.0000 O   0  0
   -2.3536  -11.3022    0.0000 C   0  0
   -3.1591  -11.1277    0.0000 C   0  0
   -3.7142  -11.7393    0.0000 C   0  0
   -2.6531  -12.6988    0.0000 C   0  0
   -3.4620  -12.5259    0.0000 N   0  0
   -3.8764  -13.2418    0.0000 C   0  0
   -3.3236  -13.8572    0.0000 C   0  0
   -2.5676  -13.5215    0.0000 N   0  0
   -3.4110  -10.3421    0.0000 Cl  0  0
    0.8032  -13.2684    0.0000 H   0  0
  9 10  1  0
  4  2  1  0
 10 11  1  0
  2  3  1  0
 11 12  1  0
  3  1  1  0
 11 13  2  0
  5  6  1  0
 12 14  2  0
  6  7  1  0
 14 15  1  0
  7  8  1  0
 15 16  2  0
 16 18  1  0
 17 12  1  0
 17 18  1  0
  4  8  1  0
  4  5  1  0
  1  5  1  0
  2  9  1  1
 18 19  1  0
 19 20  2  0
 20 21  1  0
 21 17  2  0
 15 22  1  0
  4 23  1  1
M  END