
  SciTegic06231514502D

 16 13  0  0  0  0            999 V2000
    0.0000    0.0000    0.0000 Br  0  5
    3.0643   -2.2687    0.0000 N   0  3
    5.2077    2.2687    0.0000 N   0  3
    3.0643   -1.4437    0.0000 C   0  0
    5.2077    1.4437    0.0000 C   0  0
    3.7788   -1.0312    0.0000 C   0  0
    4.4932    1.0312    0.0000 C   0  0
    3.7788   -0.2062    0.0000 C   0  0
    4.4932    0.2062    0.0000 C   0  0
    3.0643   -3.0937    0.0000 C   0  0
    3.8893   -2.2687    0.0000 C   0  0
    2.2393   -2.2687    0.0000 C   0  0
    5.2077    3.0937    0.0000 C   0  0
    6.0327    2.2687    0.0000 C   0  0
    4.3827    2.2687    0.0000 C   0  0
    0.0000   -4.7437    0.0000 Br  0  5
  2  4  1  0
  2 10  1  0
  2 11  1  0
  2 12  1  0
  3  5  1  0
  3 13  1  0
  3 14  1  0
  3 15  1  0
  4  6  1  0
  5  7  1  0
  6  8  1  0
  7  9  1  0
  8  9  1  0
M  CHG  4   1  -1   2   1   3   1  16  -1
M  END