
          11280715362D 1   1.00000     0.00000     0

 37 40  0     1  0            999 V2000
    3.1917   -3.2167    0.0000 C   0  0  1  0  0  0           0  0  0
    3.2375   -2.3917    0.0000 C   0  0  2  0  0  0           0  0  0
    3.5042   -4.0042    0.0000 N   0  0  3  0  0  0           0  0  0
    2.4000   -3.4292    0.0000 C   0  0  0  0  0  0           0  0  0
    6.1500   -0.7042    0.0000 C   0  0  0  0  0  0           0  0  0
    2.4750   -2.1000    0.0000 C   0  0  2  0  0  0           0  0  0
    5.3292   -0.7167    0.0000 C   0  0  0  0  0  0           0  0  0
    6.5667   -1.4167    0.0000 C   0  0  0  0  0  0           0  0  0
    7.6042   -3.7125    0.0000 C   0  0  0  0  0  0           0  0  0
    7.3917   -1.4167    0.0000 N   0  0  0  0  0  0           0  0  0
    2.2542   -1.3042    0.0000 O   0  0  0  0  0  0           0  0  0
    1.9500   -2.7417    0.0000 C   0  0  0  0  0  0           0  0  0
    8.2625   -3.5875    0.0000 O   0  0  0  0  0  0           0  0  0
    4.9042    0.0000    0.0000 C   0  0  0  0  0  0           0  0  0
    4.9167   -1.4292    0.0000 C   0  0  0  0  0  0           0  0  0
    5.2042   -2.7417    0.0000 C   0  0  0  0  0  0           0  0  0
    6.0167   -2.9042    0.0000 C   0  0  0  0  0  0           0  0  0
    4.1125   -2.4042    0.0000 O   0  0  0  0  0  0           0  0  0
    2.8500   -0.7167    0.0000 C   0  0  0  0  0  0           0  0  0
    3.6750   -0.7250    0.0000 C   0  0  0  0  0  0           0  0  0
    7.4542   -4.4625    0.0000 O   0  0  0  0  0  0           0  0  0
    4.0917   -1.4417    0.0000 C   0  0  0  0  0  0           0  0  0
    4.0792   -0.0042    0.0000 C   0  0  0  0  0  0           0  0  0
    4.3167   -4.1042    0.0000 C   0  0  0  0  0  0           0  0  0
    2.9167   -4.5917    0.0000 C   0  0  0  0  0  0           0  0  0
    6.9917   -2.6167    0.0000 O   0  0  0  0  0  0           0  0  0
    6.3542   -2.0542    0.0000 C   0  0  0  0  0  0           0  0  0
    4.6750   -3.0542    0.0000 C   0  0  0  0  0  0           0  0  0
    6.5500    0.0083    0.0000 C   0  0  0  0  0  0           0  0  0
    7.1042   -3.2417    0.0000 C   0  0  0  0  0  0           0  0  0
    7.8000   -0.6917    0.0000 C   0  0  0  0  0  0           0  0  0
    6.3542   -3.4625    0.0000 C   0  0  0  0  0  0           0  0  0
    7.3750    0.0208    0.0000 C   0  0  0  0  0  0           0  0  0
    3.0042   -5.4167    0.0000 C   0  0  0  0  0  0           0  0  0
    4.7542   -4.8042    0.0000 C   0  0  0  0  0  0           0  0  0
    3.7042   -5.8542    0.0000 C   0  0  0  0  0  0           0  0  0
    4.4875   -5.5792    0.0000 C   0  0  0  0  0  0           0  0  0
  2  1  1  0     0  0
  1  3  1  1     0  0
  4  1  1  0     0  0
  5  7  1  0     0  0
  6  2  1  0     0  0
  7 14  1  0     0  0
  8  5  2  0     0  0
  9 30  1  0     0  0
 10  8  1  0     0  0
  6 11  1  1     0  0
 12  4  1  0     0  0
 13  9  2  0     0  0
 14 23  2  0     0  0
 15 22  1  0     0  0
 16 28  1  0     0  0
 17 16  2  0     0  0
  2 18  1  6     0  0
 19 11  1  0     0  0
 20 19  1  0     0  0
 21  9  1  0     0  0
 22 20  2  0     0  0
 23 20  1  0     0  0
 24  3  1  0     0  0
 25  3  1  0     0  0
 26 27  1  0     0  0
 27  8  1  0     0  0
 28 18  1  0     0  0
 29  5  1  0     0  0
 30 32  1  0     0  0
 31 33  1  0     0  0
 32 17  1  0     0  0
 33 29  2  0     0  0
 34 25  1  0     0  0
 35 24  1  0     0  0
 36 34  1  0     0  0
 37 35  1  0     0  0
 12  6  1  0     0  0
 36 37  1  0     0  0
 15  7  2  0     0  0
 31 10  2  0     0  0
M  END