
  SciTegic09261414462D

 20 22  0  0  0  0            999 V2000
   33.7589  -28.3672    0.0000 N   0  0
   33.6749  -29.1817    0.0000 C   0  0
   32.8765  -29.3525    0.0000 C   0  0  1  0  0  0
   32.4679  -28.6434    0.0000 C   0  0  2  0  0  0
   33.0116  -28.0328    0.0000 C   0  0
   32.5421  -30.0956    0.0000 O   0  0
   31.6534  -28.5594    0.0000 N   0  0
   31.1732  -29.2185    0.0000 C   0  0
   35.8821  -27.9586    0.0000 C   0  0
   35.1771  -28.3672    0.0000 N   0  0
   34.4680  -27.9586    0.0000 C   0  0
   34.4680  -27.1414    0.0000 C   0  0
   35.1771  -26.7328    0.0000 C   0  0
   35.8821  -27.1414    0.0000 N   0  0
   35.1771  -25.9156    0.0000 C   0  0
   34.5138  -25.4355    0.0000 C   0  0
   34.7685  -24.6582    0.0000 C   0  0
   35.5857  -24.6582    0.0000 C   0  0
   35.8362  -25.4355    0.0000 C   0  0
   36.5911  -28.3672    0.0000 N   0  0
  1  2  1  0
  2  3  1  0
  3  4  1  0
  4  5  1  0
  1  5  1  0
  3  6  1  6
  7  8  1  0
  4  7  1  1
  9 10  1  0
 10 11  2  0
 11 12  1  0
 12 13  2  0
 13 14  1  0
  9 14  2  0
 15 16  1  0
 16 17  1  0
 17 18  1  0
 18 19  1  0
 15 19  1  0
 13 15  1  0
  9 20  1  0
  1 11  1  0
M  END