
          11280715502D 1   1.00000     0.00000     0

 30 33  0     0  0            999 V2000
    1.7553  -17.5841    0.0000 C   0  0  0  0  0  0           0  0  0
   -0.3882  -18.8216    0.0000 C   0  0  3  0  0  0           0  0  0
    0.3277  -19.2341    0.0000 C   0  0  0  0  0  0           0  0  0
    1.0394  -18.8216    0.0000 C   0  0  0  0  0  0           0  0  0
    1.0394  -17.9966    0.0000 N   0  0  3  0  0  0           0  0  0
    0.3277  -17.5841    0.0000 C   0  0  0  0  0  0           0  0  0
   -0.3882  -17.9966    0.0000 C   0  0  0  0  0  0           0  0  0
   -1.1040  -19.2341    0.0000 C   0  0  0  0  0  0           0  0  0
   -1.8157  -18.8216    0.0000 C   0  0  0  0  0  0           0  0  0
   -1.9047  -18.0034    0.0000 C   0  0  0  0  0  0           0  0  0
   -2.7107  -17.8311    0.0000 N   0  0  0  0  0  0           0  0  0
   -3.1232  -18.5428    0.0000 C   0  0  0  0  0  0           0  0  0
   -2.5702  -19.1592    0.0000 N   0  0  0  0  0  0           0  0  0
    2.4694  -17.9972    0.0000 C   0  0  0  0  0  0           0  0  0
    3.1792  -17.5792    0.0000 C   0  0  0  0  0  0           0  0  0
    3.8972  -17.9855    0.0000 O   0  0  0  0  0  0           0  0  0
    3.9043  -18.8104    0.0000 C   0  0  0  0  0  0           0  0  0
    3.1928  -19.2261    0.0000 C   0  0  0  0  0  0           0  0  0
    3.1996  -20.0503    0.0000 C   0  0  0  0  0  0           0  0  0
    3.9182  -20.4574    0.0000 C   0  0  0  0  0  0           0  0  0
    4.6314  -20.0343    0.0000 C   0  0  0  0  0  0           0  0  0
    4.6211  -19.2115    0.0000 C   0  0  0  0  0  0           0  0  0
    3.9264  -21.2824    0.0000 C   0  0  0  0  0  0           0  0  0
    4.6449  -21.6877    0.0000 C   0  0  0  0  0  0           0  0  0
    5.3552  -21.2681    0.0000 N   0  0  3  0  0  0           0  0  0
    6.0717  -21.6759    0.0000 C   0  0  0  0  0  0           0  0  0
    6.7799  -21.2598    0.0000 C   0  0  0  0  0  0           0  0  0
    6.7760  -20.4345    0.0000 C   0  0  0  0  0  0           0  0  0
    6.0575  -20.0269    0.0000 C   0  0  0  0  0  0           0  0  0
    5.3431  -20.4447    0.0000 C   0  0  0  0  0  0           0  0  0
  4  5  1  0     0  0
 14 15  1  0     0  0
  5  6  1  0     0  0
 15 16  1  0     0  0
  6  7  1  0     0  0
 16 17  1  0     0  0
  2  8  1  0     0  0
 17 18  2  0     0  0
  8  9  1  0     0  0
 18 19  1  0     0  0
  9 10  2  0     0  0
 19 20  2  0     0  0
  2  3  1  0     0  0
 20 21  1  0     0  0
 10 11  1  0     0  0
 21 22  2  0     0  0
 22 17  1  0     0  0
 11 12  1  0     0  0
 20 23  1  0     0  0
 12 13  2  0     0  0
 23 24  1  0     0  0
 13  9  1  0     0  0
 24 25  1  0     0  0
 25 26  1  0     0  0
  5  1  1  0     0  0
  2  7  1  0     0  0
  3  4  1  0     0  0
  1 14  1  0     0  0
 25 30  1  0     0  0
 26 27  1  0     0  0
 27 28  1  0     0  0
 28 29  1  0     0  0
 29 30  1  0     0  0
M  END