
          11280714442D 1   1.00000     0.00000     0

 18 18  0     0  0            999 V2000
    2.4917   -3.5667    0.0000 C   0  0  0  0  0  0           0  0  0
    3.1875   -3.1167    0.0000 C   0  0  0  0  0  0           0  0  0
    3.9167   -3.5000    0.0000 O   0  0  0  0  0  0           0  0  0
    1.7542   -3.1792    0.0000 C   0  0  0  0  0  0           0  0  0
    3.1500   -2.3000    0.0000 O   0  0  0  0  0  0           0  0  0
    6.7750   -3.3667    0.0000 N   0  0  0  0  0  0           0  0  0
    5.3417   -3.4375    0.0000 C   0  0  3  0  0  0           0  0  0
    4.6125   -3.0542    0.0000 C   0  0  0  0  0  0           0  0  0
    6.0417   -2.9917    0.0000 C   0  0  0  0  0  0           0  0  0
    1.7167   -2.3542    0.0000 Cl  0  0  0  0  0  0           0  0  0
    2.5292   -4.3792    0.0000 C   0  0  0  0  0  0           0  0  0
    5.3792   -4.2542    0.0000 O   0  0  0  0  0  0           0  0  0
    7.4667   -2.9292    0.0000 C   0  0  3  0  0  0           0  0  0
    1.0667   -3.6292    0.0000 C   0  0  0  0  0  0           0  0  0
    7.4292   -2.1042    0.0000 C   0  0  0  0  0  0           0  0  0
    8.2000   -3.3042    0.0000 C   0  0  0  0  0  0           0  0  0
    1.8417   -4.8292    0.0000 C   0  0  0  0  0  0           0  0  0
    1.1042   -4.4542    0.0000 C   0  0  0  0  0  0           0  0  0
  2  1  1  0     0  0
  3  2  1  0     0  0
  4  1  2  0     0  0
  5  2  2  0     0  0
  6  9  1  0     0  0
  7  8  1  0     0  0
  8  3  1  0     0  0
  9  7  1  0     0  0
 10  4  1  0     0  0
 11  1  1  0     0  0
 12  7  1  0     0  0
 13  6  1  0     0  0
 14  4  1  0     0  0
 15 13  1  0     0  0
 16 13  1  0     0  0
 17 11  2  0     0  0
 18 17  1  0     0  0
 18 14  2  0     0  0
M  END