
  SciTegic06051313552D

 33 36  0  0  0  0            999 V2000
    3.1064   -4.6926    0.0000 C   0  0
    3.1052   -5.5122    0.0000 C   0  0
    3.8133   -5.9211    0.0000 C   0  0
    3.8115   -4.2838    0.0000 C   0  0
    5.3039   -4.4329    0.0000 C   0  0
    4.5201   -4.6890    0.0000 C   0  0
    4.5227   -5.5143    0.0000 C   0  0
    5.3090   -5.7656    0.0000 N   0  0
    5.7897   -5.0947    0.0000 N   0  0
    5.5659   -6.5413    0.0000 C   0  0
    5.1476   -7.2424    0.0000 C   0  0
    4.3328   -7.2278    0.0000 C   0  0
    3.9139   -7.9286    0.0000 C   0  0
    4.3120   -8.6432    0.0000 C   0  0
    5.1334   -8.6528    0.0000 C   0  0
    5.5486   -7.9514    0.0000 C   0  0
    5.5340   -9.3650    0.0000 C   0  0
    5.1174  -10.0681    0.0000 N   0  0
    5.5180  -10.7803    0.0000 C   0  0
    5.1015  -11.4834    0.0000 O   0  0
    6.3352  -10.7895    0.0000 C   0  0
    5.7255   -3.7329    0.0000 N   0  0
    6.5426   -3.7481    0.0000 S   0  0
    7.0292   -4.4045    0.0000 C   0  0
    6.5152   -2.9244    0.0000 O   0  0
    7.3240   -3.5050    0.0000 O   0  0
    6.7842   -5.1861    0.0000 C   0  0
    7.4505   -5.6609    0.0000 C   0  0
    8.1072   -5.1726    0.0000 C   0  0
    7.8445   -4.3978    0.0000 S   0  0
    8.8873   -5.4159    0.0000 Cl  0  0
    3.8049   -3.4707    0.0000 C   0  0
    4.5092   -3.0564    0.0000 O   0  0
  1  2  2  0
  2  3  1  0
  3  7  2  0
  6  4  2  0
  4  1  1  0
  6  7  1  0
  5  6  1  0
  7  8  1  0
  8  9  1  0
  9  5  2  0
  8 10  1  0
 10 11  1  0
 11 12  2  0
 12 13  1  0
 13 14  2  0
 14 15  1  0
 15 16  2  0
 16 11  1  0
 15 17  1  0
 17 18  1  0
 18 19  1  0
 19 20  2  0
 19 21  1  0
  5 22  1  0
 22 23  1  0
 23 24  1  0
 23 25  2  0
 23 26  2  0
 27 28  1  0
 24 27  2  0
 28 29  2  0
 29 30  1  0
 30 24  1  0
 29 31  1  0
  4 32  1  0
 32 33  1  0
M  END