
  Mrv0541 04051115152D          

 25 27  0  0  0  0            999 V2000
    1.4518   -2.0522    0.0000 O   0  0  0  0  0  0  0  0  0  0  0  0
    0.7373   -1.6397    0.0000 C   0  0  0  0  0  0  0  0  0  0  0  0
    0.0229   -2.0522    0.0000 O   0  0  0  0  0  0  0  0  0  0  0  0
    0.7373   -0.8147    0.0000 C   0  0  0  0  0  0  0  0  0  0  0  0
    1.4518   -0.4022    0.0000 O   0  0  0  0  0  0  0  0  0  0  0  0
    0.0229   -0.4022    0.0000 N   0  0  0  0  0  0  0  0  0  0  0  0
   -0.6916   -0.8147    0.0000 C   0  0  0  0  0  0  0  0  0  0  0  0
   -0.6916   -1.6397    0.0000 C   0  0  0  0  0  0  0  0  0  0  0  0
   -1.4061   -2.0522    0.0000 C   0  0  0  0  0  0  0  0  0  0  0  0
   -2.1206   -1.6397    0.0000 C   0  0  0  0  0  0  0  0  0  0  0  0
   -2.1206   -0.8147    0.0000 C   0  0  0  0  0  0  0  0  0  0  0  0
   -1.4061   -0.4022    0.0000 C   0  0  0  0  0  0  0  0  0  0  0  0
   -1.4061    0.4228    0.0000 C   0  0  0  0  0  0  0  0  0  0  0  0
   -2.1206    0.8353    0.0000 O   0  0  0  0  0  0  0  0  0  0  0  0
   -1.0705    1.1764    0.0000 O   0  0  0  0  0  0  0  0  0  0  0  0
    0.0229    0.4228    0.0000 C   0  0  0  0  0  0  0  0  0  0  0  0
   -0.6916    0.8353    0.0000 C   0  0  0  0  0  0  0  0  0  0  0  0
   -0.6916    1.6603    0.0000 C   0  0  0  0  0  0  0  0  0  0  0  0
    0.0229    2.0728    0.0000 C   0  0  0  0  0  0  0  0  0  0  0  0
    0.7373    1.6603    0.0000 C   0  0  0  0  0  0  0  0  0  0  0  0
    0.7373    0.8353    0.0000 C   0  0  0  0  0  0  0  0  0  0  0  0
    1.4518    0.4228    0.0000 C   0  0  0  0  0  0  0  0  0  0  0  0
    2.1663    0.8353    0.0000 C   0  0  0  0  0  0  0  0  0  0  0  0
    2.1663    1.6603    0.0000 C   0  0  0  0  0  0  0  0  0  0  0  0
    1.4518    2.0728    0.0000 C   0  0  0  0  0  0  0  0  0  0  0  0
  2  1  1  0  0  0  0
  2  3  2  0  0  0  0
  4  2  1  0  0  0  0
  4  5  2  0  0  0  0
  4  6  1  0  0  0  0
  7  6  1  0  0  0  0
 16  6  1  0  0  0  0
  7  8  2  0  0  0  0
  7 12  1  0  0  0  0
  8  9  1  0  0  0  0
  9 10  2  0  0  0  0
 10 11  1  0  0  0  0
 11 12  2  0  0  0  0
 12 13  1  0  0  0  0
 13 14  2  0  0  0  0
 13 15  1  0  0  0  0
 16 17  2  0  0  0  0
 21 16  1  0  0  0  0
 17 18  1  0  0  0  0
 18 19  2  0  0  0  0
 19 20  1  0  0  0  0
 21 20  2  0  0  0  0
 20 25  1  0  0  0  0
 21 22  1  0  0  0  0
 23 22  2  0  0  0  0
 24 23  1  0  0  0  0
 25 24  2  0  0  0  0
M  END