
  SciTegic10311316262D

 19 21  0  0  0  0            999 V2000
   16.8129   -6.4013    0.0000 C   0  0
   16.8118   -7.2208    0.0000 C   0  0
   17.5198   -7.6298    0.0000 C   0  0
   17.5180   -5.9924    0.0000 C   0  0
   18.2266   -6.3977    0.0000 C   0  0
   18.2300   -7.2229    0.0000 C   0  0
   18.9424   -7.6303    0.0000 C   0  0
   19.6560   -7.2170    0.0000 C   0  0
   19.6526   -6.3918    0.0000 C   0  0
   18.9356   -5.9799    0.0000 N   0  0
   20.3590   -5.9811    0.0000 O   0  0
   16.1072   -5.9889    0.0000 C   0  0
   16.1083   -5.1706    0.0000 C   0  0
   15.4013   -4.7623    0.0000 C   0  0
   14.6928   -5.1711    0.0000 C   0  0
   14.6956   -5.9925    0.0000 C   0  0
   15.4031   -6.3972    0.0000 C   0  0
   18.9446   -8.4475    0.0000 C   0  0
   16.8164   -4.7626    0.0000 F   0  0
  1  2  2  0
  2  3  1  0
  3  6  2  0
  5  4  2  0
  4  1  1  0
  5  6  1  0
  5 10  1  0
  6  7  1  0
  7  8  2  0
  8  9  1  0
  9 10  1  0
  9 11  2  0
 12 13  2  0
 13 14  1  0
 14 15  2  0
 15 16  1  0
 16 17  2  0
 17 12  1  0
  1 12  1  0
  7 18  1  0
 13 19  1  0
M  END