
          11280715492D 1   1.00000     0.00000     0

 64 69  0     1  0            999 V2000
   12.0633  -20.6668    0.0000 N   0  0  0  0  0  0           0  0  0
   12.0353  -18.1910    0.0000 C   0  0  0  0  0  0           0  0  0
   11.3059  -16.9639    0.0000 N   0  0  0  0  0  0           0  0  0
   12.0249  -17.3685    0.0000 C   0  0  1  0  0  0           0  0  0
   12.7355  -16.9470    0.0000 C   0  0  0  0  0  0           0  0  0
   12.7271  -16.1208    0.0000 C   0  0  0  0  0  0           0  0  0
   12.0081  -15.7162    0.0000 C   0  0  0  0  0  0           0  0  0
   11.9977  -14.8936    0.0000 C   0  0  0  0  0  0           0  0  0
   12.7083  -14.4721    0.0000 C   0  0  0  0  0  0           0  0  0
   12.6999  -13.6459    0.0000 O   0  0  0  0  0  0           0  0  0
   13.4272  -14.8767    0.0000 C   0  0  0  0  0  0           0  0  0
   13.4356  -15.7029    0.0000 C   0  0  0  0  0  0           0  0  0
   12.7543  -18.5957    0.0000 O   0  0  0  0  0  0           0  0  0
   11.3247  -18.6126    0.0000 N   0  0  3  0  0  0           0  0  0
   14.1546  -16.1075    0.0000 C   0  0  0  0  0  0           0  0  0
   11.2969  -16.1389    0.0000 C   0  0  0  0  0  0           0  0  0
   10.6068  -18.2040    0.0000 C   0  0  0  0  0  0           0  0  0
   10.6241  -19.8554    0.0000 C   0  0  0  0  0  0           0  0  0
   11.3388  -19.4357    0.0000 C   0  0  3  0  0  0           0  0  0
    9.9038  -19.4486    0.0000 C   0  0  0  0  0  0           0  0  0
    9.8987  -18.6258    0.0000 C   0  0  0  0  0  0           0  0  0
    9.1847  -18.2207    0.0000 C   0  0  0  0  0  0           0  0  0
    8.4754  -18.6372    0.0000 C   0  0  0  0  0  0           0  0  0
    8.4846  -19.4631    0.0000 C   0  0  0  0  0  0           0  0  0
    9.1991  -19.8645    0.0000 C   0  0  0  0  0  0           0  0  0
   12.0582  -19.8394    0.0000 C   0  0  0  0  0  0           0  0  0
   12.7676  -19.4182    0.0000 O   0  0  0  0  0  0           0  0  0
   10.6344  -20.6590    0.0000 C   0  0  0  0  0  0           0  0  0
   11.3466  -21.0754    0.0000 C   0  0  0  0  0  0           0  0  0
    9.9252  -21.0775    0.0000 C   0  0  0  0  0  0           0  0  0
    5.6421  -21.0947    0.0000 C   0  0  0  0  0  0           0  0  0
    5.6448  -21.9197    0.0000 C   0  0  0  0  0  0           0  0  0
    4.9317  -22.3345    0.0000 N   0  0  0  0  0  0           0  0  0
    2.8012  -21.0719    0.0000 C   0  0  0  0  0  0           0  0  0
    1.3738  -21.0559    0.0000 N   0  0  0  0  0  0           0  0  0
    2.0935  -20.6526    0.0000 C   0  0  1  0  0  0           0  0  0
    2.1034  -19.8265    0.0000 C   0  0  0  0  0  0           0  0  0
    1.3936  -19.4036    0.0000 C   0  0  0  0  0  0           0  0  0
    0.6739  -19.8069    0.0000 C   0  0  0  0  0  0           0  0  0
   -0.0339  -19.3877    0.0000 C   0  0  0  0  0  0           0  0  0
   -0.0269  -18.5563    0.0000 C   0  0  0  0  0  0           0  0  0
   -0.7367  -18.1335    0.0000 O   0  0  0  0  0  0           0  0  0
    0.6929  -18.1531    0.0000 C   0  0  0  0  0  0           0  0  0
    1.4056  -18.5811    0.0000 C   0  0  0  0  0  0           0  0  0
    3.5209  -20.6686    0.0000 O   0  0  0  0  0  0           0  0  0
    2.7913  -21.8980    0.0000 N   0  0  3  0  0  0           0  0  0
    2.1253  -18.1778    0.0000 C   0  0  0  0  0  0           0  0  0
    0.6647  -20.6343    0.0000 C   0  0  0  0  0  0           0  0  0
    2.0688  -22.2984    0.0000 C   0  0  0  0  0  0           0  0  0
    3.4878  -23.1432    0.0000 C   0  0  0  0  0  0           0  0  0
    3.5014  -22.3144    0.0000 C   0  0  3  0  0  0           0  0  0
    2.7656  -23.5464    0.0000 C   0  0  0  0  0  0           0  0  0
    2.0604  -23.1226    0.0000 C   0  0  0  0  0  0           0  0  0
    1.3428  -23.5213    0.0000 C   0  0  0  0  0  0           0  0  0
    1.3293  -24.3438    0.0000 C   0  0  0  0  0  0           0  0  0
    2.0392  -24.7658    0.0000 C   0  0  0  0  0  0           0  0  0
    2.7539  -24.3646    0.0000 C   0  0  0  0  0  0           0  0  0
    4.2206  -21.9103    0.0000 C   0  0  0  0  0  0           0  0  0
    4.2302  -21.0853    0.0000 O   0  0  0  0  0  0           0  0  0
    6.3552  -20.6799    0.0000 C   0  0  0  0  0  0           0  0  0
    7.0710  -21.0900    0.0000 C   0  0  0  0  0  0           0  0  0
    7.7841  -20.6752    0.0000 C   0  0  0  0  0  0           0  0  0
    8.4999  -21.0853    0.0000 C   0  0  0  0  0  0           0  0  0
    9.2131  -20.6705    0.0000 C   0  0  0  0  0  0           0  0  0
 31 32  1  0     0  0
 14 17  1  0     0  0
 32 33  1  0     0  0
  4  3  1  1     0  0
  2  4  1  0     0  0
  4  5  1  0     0  0
 14 19  1  0     0  0
 17 21  1  0     0  0
 20 18  1  0     0  0
 18 19  1  0     0  0
  5  6  1  0     0  0
  6  7  2  0     0  0
 20 21  2  0     0  0
  7  8  1  0     0  0
 21 22  1  0     0  0
  8  9  2  0     0  0
 22 23  2  0     0  0
 36 35  1  1     0  0
 34 36  1  0     0  0
 36 37  1  0     0  0
 37 38  1  0     0  0
 38 39  2  0     0  0
 39 40  1  0     0  0
 40 41  2  0     0  0
 41 42  1  0     0  0
 41 43  1  0     0  0
 43 44  2  0     0  0
 38 44  1  0     0  0
 34 45  2  0     0  0
 34 46  1  0     0  0
 44 47  1  0     0  0
 39 48  1  0     0  0
  9 10  1  0     0  0
 46 49  1  0     0  0
 23 24  1  0     0  0
  9 11  1  0     0  0
 24 25  2  0     0  0
 46 51  1  0     0  0
 49 53  1  0     0  0
 52 50  1  0     0  0
 50 51  1  0     0  0
 25 20  1  0     0  0
 11 12  2  0     0  0
 52 53  2  0     0  0
 19 26  1  0     0  0
 53 54  1  0     0  0
  6 12  1  0     0  0
 54 55  2  0     0  0
 26 27  2  0     0  0
 55 56  1  0     0  0
  1 26  1  0     0  0
 56 57  2  0     0  0
 57 52  1  0     0  0
  2 13  2  0     0  0
 51 58  1  0     0  0
  2 14  1  0     0  0
 58 59  2  0     0  0
 33 58  1  0     0  0
 28 29  1  0     0  0
 31 60  1  0     0  0
 29  1  1  0     0  0
 60 61  1  0     0  0
 12 15  1  0     0  0
 61 62  1  0     0  0
 30 28  1  0     0  0
 62 63  1  0     0  0
  7 16  1  0     0  0
 63 64  1  0     0  0
 64 30  1  0     0  0
M  END