
  CDK    9/16/09,10:4

 30 33  0  0  0  0  0  0  0  0999 V2000
   -3.4016    1.8618    0.0000 C   0  0  0  0  0  0  0  0  0  0  0  0
   -3.8068    1.1412    0.0000 C   0  0  0  0  0  0  0  0  0  0  0  0
   -3.3855    0.4321    0.0000 C   0  0  0  0  0  0  0  0  0  0  0  0
   -2.5795    1.8737    0.0000 C   0  0  0  0  0  0  0  0  0  0  0  0
   -2.5563    0.4435    0.0000 C   0  0  0  0  0  0  0  0  0  0  0  0
   -2.1559    1.1676    0.0000 C   0  0  0  0  0  0  0  0  0  0  0  0
   -1.3350    1.3099    0.0000 N   0  0  0  0  0  0  0  0  0  0  0  0
   -2.2357   -0.3254    0.0000 C   0  0  0  0  0  0  0  0  0  0  0  0
   -0.7123    0.7611    0.0000 C   0  0  0  0  0  0  0  0  0  0  0  0
   -1.4349   -0.5532    0.0000 N   0  0  0  0  0  0  0  0  0  0  0  0
   -0.7590   -0.0675    0.0000 C   0  0  0  0  0  0  0  0  0  0  0  0
   -1.1108    2.1031    0.0000 C   0  0  0  0  0  0  0  0  0  0  0  0
   -2.6400   -1.0376    0.0000 C   0  0  0  0  0  0  0  0  0  0  0  0
   -3.4654   -1.0415    0.0000 C   0  0  0  0  0  0  0  0  0  0  0  0
   -3.8730   -1.7571    0.0000 C   0  0  0  0  0  0  0  0  0  0  0  0
   -3.4561   -2.4693    0.0000 C   0  0  0  0  0  0  0  0  0  0  0  0
   -2.6276   -2.4614    0.0000 C   0  0  0  0  0  0  0  0  0  0  0  0
   -2.2239   -1.7452    0.0000 C   0  0  0  0  0  0  0  0  0  0  0  0
    0.0482    1.0792    0.0000 O   0  0  0  0  0  0  0  0  0  0  0  0
   -0.0365   -0.4642    0.0000 N   0  0  0  0  0  0  0  0  0  0  0  0
    0.6683   -0.0368    0.0000 C   0  0  0  0  0  0  0  0  0  0  0  0
    1.3909   -0.4333    0.0000 N   0  0  0  0  0  0  0  0  0  0  0  0
    0.6505    0.7874    0.0000 O   0  0  0  0  0  0  0  0  0  0  0  0
    2.0957   -0.0059    0.0000 C   0  0  0  0  0  0  0  0  0  0  0  0
    2.8195   -0.4058    0.0000 C   0  0  0  0  0  0  0  0  0  0  0  0
    3.5238    0.0210    0.0000 C   0  0  0  0  0  0  0  0  0  0  0  0
    3.5064    0.8460    0.0000 C   0  0  0  0  0  0  0  0  0  0  0  0
    2.7788    1.2423    0.0000 C   0  0  0  0  0  0  0  0  0  0  0  0
    2.0775    0.8133    0.0000 C   0  0  0  0  0  0  0  0  0  0  0  0
    2.7581    2.0664    0.0000 I   0  0  0  0  0  0  0  0  0  0  0  0
 14 15  1  0  0  0  0 
  1  2  2  0  0  0  0 
 15 16  2  0  0  0  0 
  5  8  1  0  0  0  0 
 16 17  1  0  0  0  0 
  6  4  2  0  0  0  0 
 17 18  2  0  0  0  0 
 18 13  1  0  0  0  0 
  8 13  1  0  0  0  0 
  7  9  1  0  0  0  0 
  9 19  2  0  0  0  0 
  4  1  1  0  0  0  0 
 11 20  1  6  0  0  0 
  8 10  2  0  0  0  0 
 20 21  1  0  0  0  0 
 21 22  1  0  0  0  0 
  9 11  1  0  0  0  0 
 21 23  2  0  0  0  0 
 10 11  1  0  0  0  0 
 22 24  1  0  0  0  0 
  2  3  1  0  0  0  0 
 24 25  2  0  0  0  0 
  7 12  1  0  0  0  0 
 25 26  1  0  0  0  0 
  5  6  1  0  0  0  0 
 26 27  2  0  0  0  0 
  3  5  2  0  0  0  0 
 27 28  1  0  0  0  0 
 13 14  2  0  0  0  0 
 28 29  2  0  0  0  0 
 29 24  1  0  0  0  0 
  6  7  1  0  0  0  0 
 28 30  1  0  0  0  0 
M  ISO  1  30 125
M  END