
  SciTegic05061409512D

 25 28  0  0  0  0            999 V2000
   15.7330   -6.3312    0.0000 C   0  0
   14.9158   -6.3312    0.0000 C   0  0
   14.5095   -7.0350    0.0000 C   0  0
   14.9158   -7.7433    0.0000 C   0  0
   15.7330   -7.7433    0.0000 C   0  0
   16.1438   -7.0350    0.0000 N   0  0
   13.6939   -7.0302    0.0000 N   0  0
   16.9573   -7.0347    0.0000 C   0  0
   17.3663   -7.7435    0.0000 C   0  0
   18.1827   -7.7427    0.0000 C   0  0
   18.5912   -7.0339    0.0000 C   0  0
   18.1772   -6.3244    0.0000 C   0  0
   17.3621   -6.3287    0.0000 C   0  0
   19.4084   -7.0317    0.0000 C   0  0
   19.8150   -6.3229    0.0000 C   0  0
   20.6322   -6.3206    0.0000 N   0  0
   21.1122   -6.9817    0.0000 C   0  0
   21.8887   -6.7271    0.0000 C   0  0
   21.8865   -5.9098    0.0000 C   0  0
   21.1086   -5.6596    0.0000 C   0  0
   13.2959   -6.3190    0.0000 C   0  0
   12.4839   -6.3123    0.0000 C   0  0
   12.0682   -7.0144    0.0000 C   0  0
   12.4706   -7.7250    0.0000 C   0  0
   13.2888   -7.7334    0.0000 C   0  0
  1  2  1  0
  1  6  1  0
  2  3  1  0
  3  4  1  0
  4  5  1  0
  5  6  1  0
  3  7  1  0
  8  9  2  0
  9 10  1  0
 10 11  2  0
 11 12  1  0
 12 13  2  0
 13  8  1  0
  6  8  1  0
 11 14  1  0
 14 15  1  0
 15 16  1  0
 16 17  1  0
 17 18  1  0
 18 19  1  0
 19 20  1  0
 20 16  1  0
  7 21  1  0
  7 25  1  0
 21 22  1  0
 22 23  1  0
 23 24  1  0
 24 25  1  0
M  END