
          02060813472D 1   1.00000     0.00000     0

 23 26  0     0  0            999 V2000
    7.4192  -10.2190    0.0000 C   0  0  0  0  0  0           0  0  0
    7.4180  -11.0458    0.0000 C   0  0  0  0  0  0           0  0  0
    8.1324  -11.4585    0.0000 C   0  0  0  0  0  0           0  0  0
    8.1306   -9.8064    0.0000 C   0  0  0  0  0  0           0  0  0
    8.8456  -10.2153    0.0000 C   0  0  0  0  0  0           0  0  0
    8.8459  -11.0459    0.0000 C   0  0  0  0  0  0           0  0  0
    9.6354   -9.9584    0.0000 N   0  0  0  0  0  0           0  0  0
   10.1239  -10.6303    0.0000 C   0  0  0  0  0  0           0  0  0
    9.6326  -11.3001    0.0000 N   0  0  3  0  0  0           0  0  0
   10.1179  -11.9744    0.0000 N   0  0  0  0  0  0           0  0  0
   10.9092  -11.7212    0.0000 S   0  0  0  0  0  0           0  0  0
   10.9128  -10.8905    0.0000 C   0  0  0  0  0  0           0  0  0
    6.7037  -11.4576    0.0000 S   0  0  3  0  0  0           0  0  0
    5.9840  -11.8638    0.0000 N   0  0  0  0  0  0           0  0  0
    7.1122  -12.1737    0.0000 O   0  0  0  0  0  0           0  0  0
    6.2969  -10.7404    0.0000 O   0  0  0  0  0  0           0  0  0
   11.5820  -10.4089    0.0000 N   0  0  3  0  0  0           0  0  0
   12.3308  -10.7500    0.0000 C   0  0  0  0  0  0           0  0  0
   12.9982  -10.2720    0.0000 C   0  0  0  0  0  0           0  0  0
   12.9198   -9.4508    0.0000 N   0  0  3  0  0  0           0  0  0
   12.1680   -9.1099    0.0000 C   0  0  0  0  0  0           0  0  0
   11.4945   -9.5902    0.0000 C   0  0  0  0  0  0           0  0  0
   13.5908   -8.9717    0.0000 C   0  0  0  0  0  0           0  0  0
  9 10  1  0     0  0
 10 11  2  0     0  0
 11 12  2  0     0  0
 12  8  1  0     0  0
  2  3  1  0     0  0
  2 13  1  0     0  0
  3  6  2  0     0  0
 13 14  1  0     0  0
  6  9  1  0     0  0
 13 15  2  0     0  0
  8  7  2  0     0  0
 13 16  2  0     0  0
  7  5  1  0     0  0
 12 17  1  0     0  0
 17 18  1  0     0  0
  8  9  1  0     0  0
  1  2  2  0     0  0
  5  4  2  0     0  0
  4  1  1  0     0  0
  5  6  1  0     0  0
 17 22  1  0     0  0
 18 19  1  0     0  0
 19 20  1  0     0  0
 20 21  1  0     0  0
 21 22  1  0     0  0
 20 23  1  0     0  0
M  END