
  SciTegic12231509382D

 19 21  0  0  0  0            999 V2000
    6.7150    0.8836    0.0000 C   0  0
    8.0530    0.9086    0.0000 C   0  0
    7.3945    0.4127    0.0000 C   0  0
    5.9230    0.6460    0.0000 C   0  0  2  0  0  0
    4.5892    0.6377    0.0000 C   0  0  1  0  0  0
    5.2520    1.1296    0.0000 N   0  0
    7.7821    1.6881    0.0000 N   0  0
    4.8435   -0.1459    0.0000 C   0  0  2  0  0  0
    5.6688   -0.1418    0.0000 C   0  0  1  0  0  0
    6.9568    1.6714    0.0000 C   0  0
    8.8075    0.5960    0.0000 C   0  0
    7.4986   -0.4002    0.0000 N   0  0
    8.9117   -0.2168    0.0000 N   0  0
    8.2573   -0.7211    0.0000 C   0  0
    3.8848    1.0671    0.0000 C   0  0
    9.4619    1.0962    0.0000 O   0  0
    4.3642   -0.8128    0.0000 O   0  0
    6.1565   -0.8045    0.0000 O   0  0
    3.9015    1.8924    0.0000 O   0  0
  2  3  2  0
  3  1  1  0
  4  1  1  1
  5  6  1  0
  6  4  1  0
  7 10  1  0
  8  9  1  0
  9  4  1  0
 10  1  2  0
 11  2  1  0
 12  3  1  0
 13 14  1  0
 14 12  2  0
  5 15  1  1
 16 11  2  0
  8 17  1  6
  9 18  1  6
 19 15  1  0
  7  2  1  0
  8  5  1  0
 11 13  1  0
M  END