
  CDK    9/16/09,9:48

 11 11  0  0  0  0  0  0  0  0999 V2000
   12.4003  -21.9484    0.0000 C   0  0  0  0  0  0  0  0  0  0  0  0
   12.3990  -22.7760    0.0000 C   0  0  0  0  0  0  0  0  0  0  0  0
   13.1120  -23.1889    0.0000 C   0  0  0  0  0  0  0  0  0  0  0  0
   13.8312  -22.7754    0.0000 C   0  0  0  0  0  0  0  0  0  0  0  0
   13.8281  -21.9444    0.0000 C   0  0  0  0  0  0  0  0  0  0  0  0
   13.1100  -21.5357    0.0000 C   0  0  0  0  0  0  0  0  0  0  0  0
   14.5405  -21.5284    0.0000 C   0  0  0  0  0  0  0  0  0  0  0  0
   15.2570  -21.9374    0.0000 C   0  0  0  0  0  0  0  0  0  0  0  0
   15.9693  -21.5213    0.0000 N   0  0  0  0  0  0  0  0  0  0  0  0
   13.1106  -24.0139    0.0000 O   0  0  0  0  0  0  0  0  0  0  0  0
   13.8243  -24.4274    0.0000 C   0  0  0  0  0  0  0  0  0  0  0  0
  5  6  2  0  0  0  0 
  6  1  1  0  0  0  0 
  1  2  2  0  0  0  0 
  5  7  1  0  0  0  0 
  3  4  2  0  0  0  0 
  7  8  1  0  0  0  0 
  8  9  1  0  0  0  0 
  4  5  1  0  0  0  0 
  3 10  1  0  0  0  0 
  2  3  1  0  0  0  0 
 10 11  1  0  0  0  0 
M  END