
          11280715072D 1   1.00000     0.00000     0

 25 27  0     0  0            999 V2000
    2.1667   -3.5917    0.0000 C   0  0  0  0  0  0           0  0  0
    2.1667   -4.1917    0.0000 C   0  0  0  0  0  0           0  0  0
    1.1292   -4.1917    0.0000 C   0  0  0  0  0  0           0  0  0
    1.6500   -4.4917    0.0000 C   0  0  0  0  0  0           0  0  0
    1.6500   -3.2875    0.0000 O   0  0  0  0  0  0           0  0  0
    1.1292   -3.5917    0.0000 C   0  0  0  0  0  0           0  0  0
    2.6917   -3.2917    0.0000 C   0  0  0  0  0  0           0  0  0
    0.6042   -4.4917    0.0000 C   0  0  0  0  0  0           0  0  0
    0.6042   -3.2917    0.0000 C   0  0  0  0  0  0           0  0  0
    0.0917   -3.5917    0.0000 C   0  0  0  0  0  0           0  0  0
    0.0917   -4.1917    0.0000 C   0  0  0  0  0  0           0  0  0
    2.6875   -2.6917    0.0000 C   0  0  0  0  0  0           0  0  0
    3.2042   -2.3917    0.0000 C   0  0  0  0  0  0           0  0  0
    1.6417   -5.0917    0.0000 O   0  0  0  0  0  0           0  0  0
    3.7292   -2.6917    0.0000 C   0  0  0  0  0  0           0  0  0
    3.2042   -3.5917    0.0000 C   0  0  0  0  0  0           0  0  0
    2.6917   -4.4917    0.0000 O   0  0  0  0  0  0           0  0  0
    3.7292   -3.2917    0.0000 C   0  0  0  0  0  0           0  0  0
   -0.4333   -3.2917    0.0000 O   0  0  0  0  0  0           0  0  0
    3.2042   -1.7917    0.0000 O   0  0  0  0  0  0           0  0  0
   -0.4333   -4.4917    0.0000 O   0  0  0  0  0  0           0  0  0
    4.2500   -2.3917    0.0000 O   0  0  0  0  0  0           0  0  0
    2.6917   -5.0917    0.0000 C   0  0  0  0  0  0           0  0  0
   -0.9500   -4.1917    0.0000 C   0  0  0  0  0  0           0  0  0
    4.7667   -2.6917    0.0000 C   0  0  0  0  0  0           0  0  0
  2  1  2  0     0  0
  3  6  1  0     0  0
  4  2  1  0     0  0
  5  1  1  0     0  0
  6  5  1  0     0  0
  7  1  1  0     0  0
  8  3  2  0     0  0
  9  6  2  0     0  0
 10  9  1  0     0  0
 11 10  2  0     0  0
 12  7  1  0     0  0
 13 12  2  0     0  0
 14  4  2  0     0  0
 15 18  2  0     0  0
 16  7  2  0     0  0
 17  2  1  0     0  0
 18 16  1  0     0  0
 19 10  1  0     0  0
 20 13  1  0     0  0
 21 11  1  0     0  0
 22 15  1  0     0  0
 23 17  1  0     0  0
 24 21  1  0     0  0
 25 22  1  0     0  0
  4  3  1  0     0  0
 15 13  1  0     0  0
 11  8  1  0     0  0
M  END