
          11280715162D 1   1.00000     0.00000     0

 14 15  0     0  0            999 V2000
   -0.1708   -1.0500    0.0000 S   0  0  3  0  0  0           0  0  0
    0.3542   -0.7417    0.0000 N   0  0  0  0  0  0           0  0  0
   -0.6958   -0.7500    0.0000 C   0  0  0  0  0  0           0  0  0
   -0.6958   -0.1417    0.0000 C   0  0  0  0  0  0           0  0  0
   -0.1708    0.1625    0.0000 N   0  0  3  0  0  0           0  0  0
    0.3542   -0.1375    0.0000 C   0  0  0  0  0  0           0  0  0
   -0.7833   -1.4917    0.0000 O   0  0  0  0  0  0           0  0  0
    0.3667   -1.6417    0.0000 O   0  0  0  0  0  0           0  0  0
   -1.7333   -0.7500    0.0000 N   0  0  0  0  0  0           0  0  0
   -1.2125   -1.0500    0.0000 C   0  0  0  0  0  0           0  0  0
   -1.2125    0.1583    0.0000 C   0  0  0  0  0  0           0  0  0
   -0.1750    0.7625    0.0000 C   0  0  0  0  0  0           0  0  0
   -1.7333   -0.1500    0.0000 C   0  0  0  0  0  0           0  0  0
    0.3417    1.0708    0.0000 C   0  0  0  0  0  0           0  0  0
  2  1  1  0     0  0
  3  1  1  0     0  0
  4  3  1  0     0  0
  5  4  1  0     0  0
  6  2  1  0     0  0
  7  1  2  0     0  0
  8  1  2  0     0  0
  9 10  1  0     0  0
 10  3  2  0     0  0
 11  4  2  0     0  0
 12  5  1  0     0  0
 13  9  2  0     0  0
 14 12  1  0     0  0
  5  6  1  0     0  0
 13 11  1  0     0  0
M  END