
  SciTegic01061111512D

 40 43  0  0  0  0            999 V2000
   -0.8196   -6.0314    0.0000 S   0  0
   -1.5313   -7.2689    0.0000 C   0  0  2  0  0  0
   -0.8196   -7.6814    0.0000 O   0  0
   -2.2472   -7.6814    0.0000 C   0  0  2  0  0  0
   -2.9589   -7.2689    0.0000 C   0  0  1  0  0  0
   -3.6748   -7.6814    0.0000 O   0  0
   -2.9589   -6.4439    0.0000 C   0  0  2  0  0  0
   -2.2472   -6.0314    0.0000 O   0  0
   -3.6748   -6.0314    0.0000 C   0  0
   -3.6748   -5.2064    0.0000 O   0  0
   -2.2472   -8.5064    0.0000 N   0  0
   -1.5776   -8.9911    0.0000 N   0  0
   -1.8347   -9.7758    0.0000 N   0  0
   -2.6597   -9.7758    0.0000 C   0  0
   -2.9126   -8.9911    0.0000 C   0  0
   -3.1444  -10.4454    0.0000 C   0  0
   -3.9626  -10.3564    0.0000 O   0  0
   -2.8068  -11.1998    0.0000 N   0  0
   -1.9887  -11.2847    0.0000 C   0  0
   -0.8196   -5.2064    0.0000 C   0  0  1  0  0  0
   -1.5313   -4.7939    0.0000 C   0  0  2  0  0  0
   -2.2472   -5.2064    0.0000 O   0  0
   -1.5313   -3.9689    0.0000 C   0  0  2  0  0  0
   -0.8196   -3.5564    0.0000 C   0  0  1  0  0  0
   -0.8196   -2.7314    0.0000 O   0  0
   -0.1038   -3.9689    0.0000 C   0  0  2  0  0  0
   -0.1038   -4.7939    0.0000 O   0  0
    0.6121   -3.5564    0.0000 C   0  0
    0.6121   -2.7314    0.0000 O   0  0
   -2.2472   -3.5564    0.0000 N   0  0
   -3.0016   -3.8940    0.0000 N   0  0
   -3.5505   -3.2776    0.0000 N   0  0
   -3.1380   -2.5659    0.0000 C   0  0
   -2.3320   -2.7341    0.0000 C   0  0
   -3.4756   -1.8114    0.0000 C   0  0
   -2.9909   -1.1418    0.0000 O   0  0
   -4.2938   -1.7224    0.0000 N   0  0
   -4.7827   -2.3920    0.0000 C   0  0
   -1.5313   -6.4439    0.0000 C   0  0  1  0  0  0
   -0.8168   -6.8564    0.0000 H   0  0
 39  2  1  0
  2  3  1  6
  2  4  1  0
  4  5  1  0
  5  6  1  1
  5  7  1  0
  7  8  1  0
  7  9  1  1
  9 10  1  0
 39  8  1  0
 11 12  1  0
 12 13  2  0
 13 14  1  0
 14 15  2  0
 11 15  1  0
 16 17  2  0
 18 19  1  0
 16 18  1  0
 14 16  1  0
  4 11  1  1
 39  1  1  0
 20 21  1  0
 21 22  1  6
 21 23  1  0
 23 24  1  0
 24 25  1  1
 24 26  1  0
 26 27  1  0
 26 28  1  1
 28 29  1  0
 20 27  1  0
 30 31  1  0
 31 32  2  0
 32 33  1  0
 33 34  2  0
 30 34  1  0
 35 36  2  0
 37 38  1  0
 35 37  1  0
 33 35  1  0
 23 30  1  1
 20  1  1  1
 39 40  1  6
M  END