
          11280715032D 1   1.00000     0.00000     0

 24 27  0     0  0            999 V2000
    2.6667   -6.2625    0.0000 S   0  0  3  0  0  0           0  0  0
    3.1917   -5.9667    0.0000 N   0  0  3  0  0  0           0  0  0
    3.2000   -4.1667    0.0000 N   0  0  3  0  0  0           0  0  0
    3.1917   -5.3667    0.0000 C   0  0  3  0  0  0           0  0  0
    2.6792   -4.4667    0.0000 C   0  0  3  0  0  0           0  0  0
    2.6750   -5.0667    0.0000 C   0  0  0  0  0  0           0  0  0
    2.1542   -4.1667    0.0000 C   0  0  0  0  0  0           0  0  0
    3.7167   -5.0667    0.0000 C   0  0  3  0  0  0           0  0  0
    2.1542   -3.5625    0.0000 C   0  0  0  0  0  0           0  0  0
    3.7167   -4.4667    0.0000 C   0  0  0  0  0  0           0  0  0
    2.1500   -5.9625    0.0000 O   0  0  0  0  0  0           0  0  0
    3.0917   -6.6792    0.0000 O   0  0  0  0  0  0           0  0  0
    1.6375   -4.4667    0.0000 C   0  0  0  0  0  0           0  0  0
    3.2000   -3.5625    0.0000 C   0  0  0  0  0  0           0  0  0
    1.6375   -3.2625    0.0000 C   0  0  0  0  0  0           0  0  0
    2.6792   -3.2542    0.0000 C   0  0  0  0  0  0           0  0  0
    2.2417   -6.6792    0.0000 C   0  0  0  0  0  0           0  0  0
    3.7125   -6.2667    0.0000 C   0  0  0  0  0  0           0  0  0
    1.1167   -3.5625    0.0000 C   0  0  0  0  0  0           0  0  0
    1.1167   -4.1667    0.0000 C   0  0  0  0  0  0           0  0  0
    4.2375   -5.3667    0.0000 C   0  0  0  0  0  0           0  0  0
    0.6042   -3.2625    0.0000 O   0  0  0  0  0  0           0  0  0
    4.2292   -5.9750    0.0000 C   0  0  0  0  0  0           0  0  0
    0.0792   -3.5625    0.0000 C   0  0  0  0  0  0           0  0  0
  2  1  1  0     0  0
  3 10  1  0     0  0
  4  2  1  0     0  0
  5  6  1  0     0  0
  6  4  1  0     0  0
  7  5  1  0     0  0
  8  4  1  0     0  0
  9  7  1  0     0  0
 10  8  1  0     0  0
 11  1  2  0     0  0
 12  1  2  0     0  0
 13  7  2  0     0  0
 14  3  1  0     0  0
 15  9  2  0     0  0
 16 14  1  0     0  0
 17  1  1  0     0  0
 18  2  1  0     0  0
 19 20  2  0     0  0
 20 13  1  0     0  0
 21 23  1  0     0  0
 22 19  1  0     0  0
 23 18  1  0     0  0
 24 22  1  0     0  0
  8 21  1  0     0  0
  5  3  1  0     0  0
  9 16  1  0     0  0
 15 19  1  0     0  0
M  END