
  SciTegic06051315212D

 15 16  0  0  0  0            999 V2000
   36.2645  -23.5376    0.0000 C   0  0
   35.5510  -23.9462    0.0000 C   0  0
   36.9781  -23.9503    0.0000 C   0  0
   36.9781  -24.7716    0.0000 C   0  0
   36.2645  -25.1802    0.0000 N   0  0
   35.5510  -24.7716    0.0000 C   0  0
   34.8416  -25.1802    0.0000 C   0  0
   34.1281  -24.7716    0.0000 C   0  0
   34.1281  -23.9462    0.0000 C   0  0
   34.8416  -23.5376    0.0000 C   0  0
   36.2639  -22.7190    0.0000 C   0  0
   36.9725  -22.3119    0.0000 O   0  0
   35.5571  -22.3089    0.0000 O   0  0
   37.6859  -23.5420    0.0000 C   0  0
   37.6850  -25.1815    0.0000 C   0  0
 10  2  1  0
  2  6  2  0
  2  1  1  0
  1  3  2  0
  3  4  1  0
  4  5  2  0
  5  6  1  0
  6  7  1  0
  7  8  2  0
  8  9  1  0
  9 10  2  0
 11 12  1  0
 11 13  2  0
  1 11  1  0
  3 14  1  0
  4 15  1  0
M  END