
  SciTegic01181116592D

 71 76  0  0  0  0            999 V2000
   20.5559    0.0963    0.0000 C   0  0
   20.9771   -0.6158    0.0000 C   0  0
   20.5710   -1.3345    0.0000 C   0  0
   19.7439   -1.3423    0.0000 C   0  0
   19.3245   -0.6254    0.0000 C   0  0
   19.7330    0.0904    0.0000 C   0  0
   19.3158    0.8020    0.0000 N   0  0
   18.4948    0.8833    0.0000 N   0  0
   18.3183    1.6892    0.0000 C   0  0
   19.0303    2.1061    0.0000 C   0  0
   19.6467    1.5577    0.0000 C   0  0
   20.4671    1.5561    0.0000 C   0  0
   20.8796    2.2719    0.0000 C   0  0
   21.7038    2.2716    0.0000 C   0  0
   22.1166    1.5563    0.0000 C   0  0
   21.6991    0.8397    0.0000 C   0  0
   20.8762    0.8436    0.0000 C   0  0
   19.1116    2.9270    0.0000 C   0  0
   17.5987    2.0931    0.0000 C   0  0
   16.8891    1.6722    0.0000 N   0  0
   17.5890    2.9180    0.0000 O   0  0
   18.4996   -0.6298    0.0000 Cl  0  0
   20.9901   -2.0451    0.0000 Cl  0  0
   22.9416    1.5545    0.0000 Cl  0  0
   10.4642    2.1604    0.0000 C   0  0
   11.1738    1.7395    0.0000 C   0  0
   11.8930    2.1436    0.0000 C   0  0
   12.6026    1.7227    0.0000 C   0  0
   13.3219    2.1268    0.0000 C   0  0
   14.0314    1.7059    0.0000 C   0  0
   14.7507    2.1099    0.0000 C   0  0
   15.4603    1.6890    0.0000 C   0  0
   16.1796    2.0931    0.0000 C   0  0
   -3.9237    0.2984    0.0000 C   0  0
   -4.3449   -0.4138    0.0000 C   0  0
   -3.9388   -1.1325    0.0000 C   0  0
   -3.1117   -1.1402    0.0000 C   0  0
   -2.6924   -0.4233    0.0000 C   0  0
   -3.1009    0.2924    0.0000 C   0  0
   -2.6836    1.0040    0.0000 N   0  0
   -1.8626    1.0853    0.0000 N   0  0
   -1.6862    1.8912    0.0000 C   0  0
   -2.3982    2.3081    0.0000 C   0  0
   -3.0145    1.7597    0.0000 C   0  0
   -3.8350    1.7581    0.0000 C   0  0
   -4.2474    2.4739    0.0000 C   0  0
   -5.0717    2.4736    0.0000 C   0  0
   -5.4844    1.7583    0.0000 C   0  0
   -5.0669    1.0418    0.0000 C   0  0
   -4.2441    1.0456    0.0000 C   0  0
   -2.4795    3.1291    0.0000 C   0  0
   -0.9665    2.2951    0.0000 C   0  0
   -0.2570    1.8742    0.0000 N   0  0
   -0.9568    3.1201    0.0000 O   0  0
   -1.8674   -0.4277    0.0000 Cl  0  0
   -4.3579   -1.8431    0.0000 Cl  0  0
   -6.3156    1.7566    0.0000 Cl  0  0
    0.4623    2.2783    0.0000 C   0  0
    1.1719    1.8574    0.0000 C   0  0
    1.8911    2.2615    0.0000 C   0  0
    2.6007    1.8406    0.0000 C   0  0
    3.3200    2.2446    0.0000 C   0  0
    4.0296    1.8237    0.0000 C   0  0
    4.7488    2.2278    0.0000 C   0  0
    5.4584    1.8069    0.0000 C   0  0
    6.1777    2.2109    0.0000 C   0  0
    6.8872    1.7901    0.0000 C   0  0
    7.6065    2.1941    0.0000 C   0  0
    8.3161    1.7732    0.0000 N   0  0
    9.0354    2.1773    0.0000 C   0  0
    9.7449    1.7564    0.0000 C   0  0
 34 35  2  0
 17 12  1  0
 35 36  1  0
 11 12  1  0
 36 37  2  0
  4  5  1  0
 37 38  1  0
 10 18  1  0
 38 39  2  0
 39 34  1  0
 40 41  1  0
  2  3  1  0
  9 19  1  0
  8  9  2  0
 19 20  1  0
  9 10  1  0
 41 42  2  0
 42 43  1  0
 43 44  2  0
 44 40  1  0
 39 40  1  0
 19 21  2  0
 10 11  2  0
 45 46  2  0
  5 22  1  0
 46 47  1  0
 11  7  1  0
 47 48  2  0
  3 23  1  0
 48 49  1  0
  6  7  1  0
 49 50  2  0
 50 45  1  0
 44 45  1  0
 15 24  1  0
 43 51  1  0
  5  6  2  0
 42 52  1  0
  6  1  1  0
 52 53  1  0
 25 26  1  0
 52 54  2  0
 12 13  2  0
 38 55  1  0
 26 27  1  0
 36 56  1  0
  7  8  1  0
 48 57  1  0
 27 28  1  0
 53 58  1  0
 13 14  1  0
 58 59  1  0
 28 29  1  0
 59 60  1  0
  1  2  2  0
 60 61  1  0
 29 30  1  0
 61 62  1  0
 14 15  2  0
 62 63  1  0
 30 31  1  0
 63 64  1  0
  3  4  2  0
 64 65  1  0
 31 32  1  0
 65 66  1  0
 15 16  1  0
 66 67  1  0
 32 33  1  0
 67 68  1  0
 33 20  1  0
 68 69  1  0
 69 70  1  0
 16 17  2  0
 70 71  1  0
 71 25  1  0
M  END