
  Mrv0541 04051115152D          

 33 37  0  0  0  0            999 V2000
   -2.8952    0.1401    0.0000 C   0  0  0  0  0  0  0  0  0  0  0  0
   -3.3077    0.8546    0.0000 C   0  0  0  0  0  0  0  0  0  0  0  0
   -4.1327    0.8546    0.0000 N   0  0  0  0  0  0  0  0  0  0  0  0
   -4.5452    1.5691    0.0000 C   0  0  0  0  0  0  0  0  0  0  0  0
   -5.3702    1.5691    0.0000 C   0  0  0  0  0  0  0  0  0  0  0  0
   -4.5452    0.1401    0.0000 C   0  0  0  0  0  0  0  0  0  0  0  0
   -4.1327   -0.5743    0.0000 C   0  0  0  0  0  0  0  0  0  0  0  0
   -3.3077   -0.5743    0.0000 N   0  0  0  0  0  0  0  0  0  0  0  0
   -2.8952   -1.2888    0.0000 C   0  0  0  0  0  0  0  0  0  0  0  0
   -2.0702   -1.2888    0.0000 C   0  0  0  0  0  0  0  0  0  0  0  0
   -1.6577   -2.0033    0.0000 C   0  0  0  0  0  0  0  0  0  0  0  0
   -0.8327   -2.0033    0.0000 C   0  0  0  0  0  0  0  0  0  0  0  0
   -1.6577   -0.5743    0.0000 C   0  0  0  0  0  0  0  0  0  0  0  0
   -0.8327   -0.5743    0.0000 C   0  0  0  0  0  0  0  0  0  0  0  0
   -0.4202   -1.2888    0.0000 C   0  0  0  0  0  0  0  0  0  0  0  0
    0.4048   -1.2888    0.0000 C   0  0  0  0  0  0  0  0  0  0  0  0
    0.8897   -1.9562    0.0000 N   0  0  0  0  0  0  0  0  0  0  0  0
    0.8897   -0.6214    0.0000 C   0  0  0  0  0  0  0  0  0  0  0  0
    1.6744   -0.8763    0.0000 C   0  0  0  0  0  0  0  0  0  0  0  0
    1.6744   -1.7013    0.0000 C   0  0  0  0  0  0  0  0  0  0  0  0
    2.3888   -2.1138    0.0000 N   0  0  0  0  0  0  0  0  0  0  0  0
    3.1033   -1.7013    0.0000 C   0  0  0  0  0  0  0  0  0  0  0  0
    3.1033   -0.8763    0.0000 N   0  0  0  0  0  0  0  0  0  0  0  0
    2.3888   -0.4638    0.0000 C   0  0  0  0  0  0  0  0  0  0  0  0
    2.3888    0.3612    0.0000 N   0  0  0  0  0  0  0  0  0  0  0  0
    3.1033    0.7737    0.0000 C   0  0  2  0  0  0  0  0  0  0  0  0
    3.8178    0.3612    0.0000 C   0  0  0  0  0  0  0  0  0  0  0  0
    3.1033    1.5987    0.0000 C   0  0  0  0  0  0  0  0  0  0  0  0
    3.8178    2.0112    0.0000 C   0  0  0  0  0  0  0  0  0  0  0  0
    3.8178    2.8362    0.0000 C   0  0  0  0  0  0  0  0  0  0  0  0
    3.1033    3.2487    0.0000 C   0  0  0  0  0  0  0  0  0  0  0  0
    2.3888    2.8362    0.0000 C   0  0  0  0  0  0  0  0  0  0  0  0
    2.3888    2.0112    0.0000 C   0  0  0  0  0  0  0  0  0  0  0  0
  2  1  1  0  0  0  0
  1  8  1  0  0  0  0
  2  3  1  0  0  0  0
  4  3  1  0  0  0  0
  6  3  1  0  0  0  0
  5  4  1  0  0  0  0
  6  7  1  0  0  0  0
  7  8  1  0  0  0  0
  9  8  1  0  0  0  0
  9 10  1  0  0  0  0
 11 10  2  0  0  0  0
 13 10  1  0  0  0  0
 11 12  1  0  0  0  0
 12 15  2  0  0  0  0
 13 14  2  0  0  0  0
 14 15  1  0  0  0  0
 15 16  1  0  0  0  0
 16 17  1  0  0  0  0
 18 16  2  0  0  0  0
 20 17  1  0  0  0  0
 19 18  1  0  0  0  0
 20 19  2  0  0  0  0
 19 24  1  0  0  0  0
 20 21  1  0  0  0  0
 22 21  2  0  0  0  0
 22 23  1  0  0  0  0
 24 23  2  0  0  0  0
 24 25  1  0  0  0  0
 26 25  1  0  0  0  0
 26 27  1  1  0  0  0
 28 26  1  0  0  0  0
 29 28  2  0  0  0  0
 33 28  1  0  0  0  0
 30 29  1  0  0  0  0
 31 30  2  0  0  0  0
 31 32  1  0  0  0  0
 32 33  2  0  0  0  0
M  END