
  SciTegic11201309402D

 80 84  0  0  1  0            999 V2000
   -1.7965  -13.0785    0.0000 O   0  0
    6.7728  -13.9513    0.0000 C   0  0  2  0  0  0
    7.4908  -14.3900    0.0000 C   0  0
    8.2254  -13.9876    0.0000 C   0  0
    3.5705  -15.1610    0.0000 C   0  0
    4.3936  -15.1143    0.0000 C   0  0
    4.6106  -14.3184    0.0000 C   0  0  2  0  0  0
    3.9143  -13.8734    0.0000 N   0  0
    3.2774  -14.3939    0.0000 C   0  0
    5.3325  -13.9199    0.0000 C   0  0
    6.0383  -14.3538    0.0000 N   0  0
    5.3488  -13.0963    0.0000 O   0  0
   -1.7931  -10.5760    0.0000 C   0  0
   -1.7931  -11.4004    0.0000 C   0  0  1  0  0  0
   -1.0840  -11.8084    0.0000 N   0  0
   -1.0840  -10.1597    0.0000 N   0  0
   -2.5145  -10.1661    0.0000 O   0  0
   -1.0840   -9.3354    0.0000 C   0  0  2  0  0  0
   -0.3724   -8.9232    0.0000 C   0  0
   -1.7956   -8.9232    0.0000 C   0  0
   -1.7956   -8.0989    0.0000 C   0  0
   -1.0808   -7.6901    0.0000 C   0  0
   -1.0805   -6.8666    0.0000 C   0  0
   -1.7926   -6.4535    0.0000 C   0  0
   -2.5151   -6.8702    0.0000 C   0  0
   -2.5118   -7.6924    0.0000 C   0  0
   -2.5127  -11.8137    0.0000 C   0  0
   -3.2249  -11.4025    0.0000 C   0  0
   -3.2230  -10.5792    0.0000 C   0  0
   -3.9386  -10.1681    0.0000 C   0  0
   -4.6507  -10.5815    0.0000 C   0  0
   -4.6467  -11.4101    0.0000 C   0  0
   -3.9348  -11.8173    0.0000 C   0  0
    0.3435   -9.3354    0.0000 N   0  0
   -0.3724   -8.0989    0.0000 O   0  0
   -1.0840  -12.6327    0.0000 C   0  0
   -0.3724  -13.0449    0.0000 C   0  0
    1.0551   -8.9232    0.0000 C   0  0  2  0  0  0
    1.7710   -9.3354    0.0000 C   0  0
    1.0551   -8.0989    0.0000 C   0  0
    1.7710   -7.6867    0.0000 C   0  0
    1.7710   -6.8624    0.0000 C   0  0
    2.4826   -6.4502    0.0000 N   0  0
    1.0551   -6.4502    0.0000 O   0  0
    2.4826   -8.9232    0.0000 N   0  0
    3.2027   -9.3354    0.0000 C   0  0  1  0  0  0
    3.9143   -8.9232    0.0000 C   0  0
    4.6302   -9.3354    0.0000 C   0  0
    5.3418   -8.9232    0.0000 N   0  0
    4.6302  -10.1597    0.0000 O   0  0
    0.3435  -12.6327    0.0000 C   0  0
    1.0551  -13.0449    0.0000 S   0  0
    1.7710  -10.1597    0.0000 O   0  0
    1.7710  -12.6327    0.0000 S   0  0
    2.4826  -13.0449    0.0000 C   0  0
    3.2027  -12.6327    0.0000 C   0  0  2  0  0  0
    3.9143  -13.0449    0.0000 C   0  0
    2.7395  -11.0859    0.0000 N   0  0
    4.6302  -12.6327    0.0000 O   0  0
    3.2027  -10.1597    0.0000 C   0  0
    4.1077  -10.5548    0.0000 O   0  0
    6.7937  -13.1145    0.0000 C   0  0
    7.5284  -12.7163    0.0000 N   0  0
    6.0801  -12.6801    0.0000 O   0  0
    7.5493  -11.8794    0.0000 C   0  0
    8.2880  -11.4770    0.0000 C   0  0
    8.3089  -10.6402    0.0000 O   0  0
    9.0018  -11.9156    0.0000 N   0  0
    8.9391  -14.4262    0.0000 C   0  0
    9.6736  -14.0237    0.0000 N   0  0
   10.3874  -14.4624    0.0000 C   0  0
   11.1219  -14.0599    0.0000 N   0  0
   10.3665  -15.2991    0.0000 N   0  0
   -2.9404  -12.5391    0.0000 C   0  0
   -3.7837  -12.5286    0.0000 C   0  0
   -4.2113  -13.2533    0.0000 C   0  0
   -3.7969  -13.9876    0.0000 C   0  0
   -2.9503  -13.9925    0.0000 C   0  0
   -2.5264  -13.2673    0.0000 C   0  0
   -1.7916   -5.6139    0.0000 O   0  0
 38 40  1  1
 39 53  2  0
  5  6  1  0
 40 41  1  0
 21 22  2  0
 41 42  1  0
 10 12  2  0
 42 43  1  0
 22 23  1  0
 42 44  2  0
 13 14  1  0
 39 45  1  0
 23 24  2  0
 45 46  1  0
  2  3  1  6
 46 47  1  1
 24 25  1  0
 47 48  1  0
  6  7  1  0
 48 49  1  0
 25 26  2  0
 48 50  2  0
 26 21  1  0
 37 51  1  0
  7  8  1  0
 51 52  1  0
 14 27  1  1
  8  9  1  0
 52 54  1  0
 27 28  1  0
 54 55  1  0
 13 16  1  0
 56 55  1  0
 28 29  2  0
 56 57  1  1
 14 15  1  0
 56 58  1  0
 57  8  1  0
 29 30  1  0
 57 59  2  0
  9  5  1  0
 46 60  1  0
 60 58  1  0
 30 31  2  0
 60 61  2  0
 11  2  1  0
 13 17  2  0
  2 62  1  0
 31 32  1  0
 62 63  1  0
 62 64  2  0
 32 33  2  0
 63 65  1  0
 33 28  1  0
 65 66  1  0
 16 18  1  0
 66 67  2  0
 19 34  1  0
 66 68  1  0
  7 10  1  6
  4 69  1  0
 19 35  2  0
 69 70  1  0
 18 19  1  0
 70 71  2  0
 15 36  1  0
 71 72  1  0
 36  1  2  0
 71 73  1  0
  3  4  1  0
 27 74  1  0
 36 37  1  0
 74 75  2  0
 18 20  1  1
 75 76  1  0
 34 38  1  0
 76 77  2  0
 10 11  1  0
 77 78  1  0
 38 39  1  0
 78 79  2  0
 79 74  1  0
 20 21  1  0
 24 80  1  0
M  END