
  SciTegic05161214222D

 63 65  0  0  0  0            999 V2000
    1.8419  -20.5671    0.0000 C   0  0
    2.5566  -20.1551    0.0000 C   0  0
   -2.4375  -19.7500    0.0000 C   0  0
   -2.4375  -20.5750    0.0000 C   0  0
   -1.7255  -20.9833    0.0000 O   0  0
   -1.0135  -20.5750    0.0000 C   0  0
   -1.0135  -19.7500    0.0000 C   0  0
   -1.7255  -19.3333    0.0000 C   0  0
   -3.1552  -19.3448    0.0000 S   0  0
   -3.5635  -20.0616    0.0000 O   0  0
   -2.7385  -20.0568    0.0000 O   0  0
   -6.0277  -14.4083    0.0000 C   0  0
   -6.0266  -15.2357    0.0000 C   0  0
   -5.3086  -15.6485    0.0000 C   0  0
   -5.3104  -13.9955    0.0000 C   0  0
   -4.5950  -14.4047    0.0000 C   0  0
   -4.5943  -15.2315    0.0000 C   0  0
   -3.8790  -15.6425    0.0000 N   0  0
   -3.1639  -15.2277    0.0000 C   0  0
   -3.1687  -14.3977    0.0000 C   0  0
   -3.8846  -13.9905    0.0000 C   0  0
   -2.4479  -15.6374    0.0000 C   0  0
   -3.8890  -13.1655    0.0000 C   0  0
   -5.3067  -16.4735    0.0000 O   0  0
   -4.5913  -16.8844    0.0000 C   0  0
   -4.5894  -17.7094    0.0000 C   0  0
   -5.3055  -18.1192    0.0000 C   0  0
   -5.3039  -18.9434    0.0000 C   0  0
   -4.5879  -19.3551    0.0000 C   0  0
   -3.8721  -18.9365    0.0000 C   0  0
   -3.8771  -18.1136    0.0000 C   0  0
   -6.0221  -17.7060    0.0000 Cl  0  0
   -3.1655  -17.6963    0.0000 Cl  0  0
   -2.4431  -18.9281    0.0000 N   0  0
   -1.0142  -18.9198    0.0000 C   0  0
   -0.2985  -19.3301    0.0000 N   0  0
   -1.0168  -18.0948    0.0000 O   0  0
   -0.2996  -20.1550    0.0000 C   0  0
    0.4121  -20.5653    0.0000 C   0  0
    1.1277  -20.1541    0.0000 N   0  3
    1.1271  -19.3281    0.0000 C   0  0
    0.4109  -18.9133    0.0000 C   0  0
    1.7083  -19.5625    0.0000 C   0  0
    3.2708  -20.5681    0.0000 C   0  0
    3.9856  -20.1561    0.0000 C   0  0
    4.6998  -20.5691    0.0000 N   0  3
    5.4145  -20.1571    0.0000 C   0  0
    4.6992  -21.3941    0.0000 C   0  0
    4.6917  -19.7417    0.0000 C   0  0
    0.8472  -17.1176    0.0000 F   0  0
    1.5616  -16.7051    0.0000 C   0  0
    2.2761  -17.1176    0.0000 F   0  0
    1.5555  -17.5259    0.0000 F   0  0
    1.5647  -15.8801    0.0000 C   0  0
    2.2807  -15.4703    0.0000 O   0  5
    0.8518  -15.4649    0.0000 O   0  0
    3.0347  -17.6176    0.0000 F   0  0
    3.7491  -17.2051    0.0000 C   0  0
    4.4636  -17.6176    0.0000 F   0  0
    3.7430  -18.0259    0.0000 F   0  0
    3.7522  -16.3801    0.0000 C   0  0
    4.4682  -15.9703    0.0000 O   0  5
    3.0393  -15.9649    0.0000 O   0  0
 24 25  1  0
 13 14  1  0
 25 26  1  0
 14 17  2  0
 26 27  2  0
  6  7  1  0
 27 28  1  0
 16 15  2  0
 28 29  2  0
 15 12  1  0
 29 30  1  0
  7  8  1  0
 30 31  2  0
 31 26  1  0
 10  9  2  0
 27 32  1  0
 16 17  1  0
 31 33  1  0
 30  9  1  0
  9 11  2  0
  9 34  1  0
 34  8  1  0
 17 18  1  0
  8 35  1  0
 35 36  1  0
 18 19  2  0
 35 37  2  0
 36 38  1  0
  1  2  1  0
 19 20  1  0
  3  4  1  0
 20 21  2  0
 21 16  1  0
 36 42  1  0
 38 39  1  0
 39 40  1  0
 40 41  1  0
 41 42  1  0
 40  1  1  0
  3  8  1  0
 40 43  1  0
 19 22  1  0
  2 44  1  0
  4  5  1  0
 44 45  1  0
 21 23  1  0
 45 46  1  0
 12 13  2  0
 46 47  1  0
 14 24  1  0
 46 48  1  0
  5  6  1  0
 46 49  1  0
 50 51  1  0
 51 53  1  0
 51 54  1  0
 51 52  1  0
 54 55  1  0
 54 56  2  0
 57 58  1  0
 58 60  1  0
 58 61  1  0
 58 59  1  0
 61 62  1  0
 61 63  2  0
M  CHG  4  40   1  46   1  55  -1  62  -1
M  END