
  SciTegic11201309402D

 85 90  0  0  1  0            999 V2000
    1.1596  -24.5679    0.0000 C   0  0
    0.4439  -24.9803    0.0000 C   0  0
    0.4439  -25.8051    0.0000 C   0  0
    1.1596  -26.2175    0.0000 C   0  0
    1.8753  -25.8051    0.0000 C   0  0
    1.8753  -24.9803    0.0000 C   0  0
   -2.5951  -20.0911    0.0000 C   0  0
   -3.2573  -19.6023    0.0000 C   0  0
   -4.0111  -19.9399    0.0000 C   0  0
   -4.1012  -20.7620    0.0000 C   0  0
   -3.4293  -21.2466    0.0000 C   0  0
   -2.6799  -20.9090    0.0000 C   0  0
    7.3162  -23.8611    0.0000 C   0  0  1  0  0  0
    8.0320  -24.2735    0.0000 C   0  0
    8.7477  -23.8611    0.0000 C   0  0
    4.4834  -25.1359    0.0000 C   0  0
    5.2892  -24.9635    0.0000 C   0  0
    5.3782  -24.1456    0.0000 C   0  0  2  0  0  0
    4.6239  -23.8123    0.0000 N   0  0
    4.0710  -24.4243    0.0000 C   0  0
    6.0897  -23.7332    0.0000 C   0  0
    6.0897  -22.9084    0.0000 O   0  0
   -1.4767  -21.9316    0.0000 C   0  0
   -1.3480  -22.7493    0.0000 C   0  0  2  0  0  0
   -2.3016  -21.9316    0.0000 O   0  0
   -0.9722  -20.3836    0.0000 C   0  0  2  0  0  0
   -0.3884  -19.7998    0.0000 C   0  0
   -1.8409  -19.7536    0.0000 C   0  0
   -2.1324  -23.0023    0.0000 C   0  0
   -2.2613  -23.8159    0.0000 C   0  0
   -3.0314  -24.1137    0.0000 C   0  0
   -3.1609  -24.9273    0.0000 C   0  0
   -2.5189  -25.4472    0.0000 C   0  0
   -1.7522  -25.1535    0.0000 C   0  0
   -1.6233  -24.3357    0.0000 C   0  0
   -0.8772  -19.1346    0.0000 O   0  0
   -0.3884  -24.0675    0.0000 C   0  0
   -0.8772  -24.7329    0.0000 O   0  0
    0.3459  -24.4391    0.0000 C   0  0
    1.1596  -19.2952    0.0000 C   0  0  2  0  0  0
    1.9732  -19.4241    0.0000 C   0  0
    1.1596  -18.4705    0.0000 C   0  0
    1.8753  -18.0580    0.0000 C   0  0
    1.8753  -17.2332    0.0000 C   0  0
    2.5868  -16.8209    0.0000 O   0  0
    3.2914  -20.3836    0.0000 C   0  0  1  0  0  0
    3.9608  -19.8990    0.0000 C   0  0
    3.8718  -19.0769    0.0000 C   0  0
    4.5413  -18.5922    0.0000 O   0  0
    1.9732  -24.4391    0.0000 S   0  0
    2.2260  -18.6397    0.0000 O   0  0
    2.7076  -24.0675    0.0000 S   0  0
    3.2914  -23.4838    0.0000 C   0  0
    3.6671  -22.7493    0.0000 C   0  0  2  0  0  0
    4.4515  -23.0023    0.0000 C   0  0
    5.0353  -22.4185    0.0000 O   0  0
    3.6671  -21.1180    0.0000 C   0  0
    4.4515  -20.8652    0.0000 O   0  0
    7.3162  -23.0363    0.0000 C   0  0
    6.6047  -22.6239    0.0000 O   0  0
    8.7934  -23.0803    0.0000 C   0  0
    9.5049  -22.6679    0.0000 C   0  0
    9.5049  -21.8431    0.0000 O   0  0
    9.4593  -24.2735    0.0000 C   0  0
   11.0379  -24.1812    0.0000 C   0  0
   -4.8549  -21.0970    0.0000 O   0  0
   -2.8527  -22.5883    0.0000 C   0  0
   -2.8515  -21.7563    0.0000 C   0  0
   -3.5710  -21.3424    0.0000 C   0  0
   -4.2906  -21.7593    0.0000 C   0  0
   -4.2863  -22.5945    0.0000 C   0  0
   -3.5663  -23.0046    0.0000 C   0  0
    6.6461  -24.3423    0.0000 N   0  0
   -0.7660  -23.3340    0.0000 N   0  0
   -1.0972  -21.1991    0.0000 N   0  0
    0.4270  -19.6747    0.0000 N   0  0
    1.0081  -17.0274    0.0000 N   0  0
    2.5577  -20.0063    0.0000 N   0  0
    2.9998  -19.0534    0.0000 N   0  0
    3.5432  -21.9337    0.0000 N   0  0
    8.0657  -22.6916    0.0000 N   0  0
   10.0677  -23.2885    0.0000 N   0  0
   10.2349  -23.9922    0.0000 N   0  0
   11.5997  -23.9753    0.0000 N   0  0
   11.0379  -25.0060    0.0000 N   0  0
 18 21  1  6
 21 22  2  0
 23 24  1  0
 23 25  2  0
 26 27  1  0
 26 28  1  1
 24 29  1  1
 29 30  1  0
 30 31  2  0
 31 32  1  0
 32 33  2  0
 33 34  1  0
 34 35  2  0
 35 30  1  0
 27 36  2  0
 37 38  2  0
 37 39  1  0
 40 41  1  0
 40 42  1  1
 41 51  2  0
 42 43  1  0
 43 44  1  0
 44 45  2  0
 46 47  1  1
 47 48  1  0
 48 49  2  0
 39  1  1  0
  1 50  1  0
 50 52  1  0
 52 53  1  0
 54 53  1  0
 54 55  1  1
 55 19  1  0
 55 56  2  0
 46 57  1  0
 57 58  2  0
 13 59  1  0
 59 60  2  0
 61 62  1  0
 62 63  2  0
 15 64  1  0
 28  7  1  0
 10 66  1  0
  1  2  1  0
 29 67  1  0
  1  6  1  0
 67 68  2  0
  2  3  1  0
 68 69  1  0
  3  4  1  0
 69 70  2  0
  4  5  1  0
 70 71  1  0
  5  6  1  0
 71 72  2  0
 72 67  1  0
  7  8  2  0
  8  9  1  0
  9 10  2  0
 10 11  1  0
 11 12  2  0
 12  7  1  0
 13 14  1  6
 14 15  1  0
 16 17  1  0
 17 18  1  0
 18 19  1  0
 19 20  1  0
 20 16  1  0
 23 75  1  0
 75 26  1  0
 48 79  1  0
 54 80  1  0
 57 80  1  0
 27 76  1  0
 76 40  1  0
 59 81  1  0
 81 61  1  0
 24 74  1  0
 74 37  1  0
 62 82  1  0
 44 77  1  0
 64 83  1  0
 83 65  2  0
 21 73  1  0
 73 13  1  0
 65 84  1  0
 41 78  1  0
 78 46  1  0
 65 85  1  0
M  STY  8   1 SUP   2 SUP   3 SUP   4 SUP   5 SUP   6 SUP   7 SUP   8 SUP
M  STY  5   9 SUP  10 SUP  11 SUP  12 SUP  13 SUP
M  SLB  8   1   1   2   2   3   3   4   4   5   5   6   6   7   7   8   8
M  SLB  5   9   9  10  10  11  11  12  12  13  13
M  SAL   1  1  75
M  SBL   1  2  70  71
M  SMT   1 N
M  SAL   2  1  79
M  SBL   2  1  72
M  SMT   2 N
M  SAL   3  1  80
M  SBL   3  2  73  74
M  SMT   3 N
M  SAL   4  1  76
M  SBL   4  2  75  76
M  SMT   4 N
M  SAL   5  1  81
M  SBL   5  2  77  78
M  SMT   5 N
M  SAL   6  1  74
M  SBL   6  2  79  80
M  SMT   6 N
M  SAL   7  1  82
M  SBL   7  1  81
M  SMT   7 N
M  SAL   8  1  77
M  SBL   8  1  82
M  SMT   8 N
M  SAL   9  1  83
M  SBL   9  2  83  84
M  SMT   9 N
M  SAL  10  1  73
M  SBL  10  2  85  86
M  SMT  10 N
M  SAL  11  1  84
M  SBL  11  1  87
M  SMT  11 N
M  SAL  12  1  78
M  SBL  12  2  88  89
M  SMT  12 N
M  SAL  13  1  85
M  SBL  13  1  90
M  SMT  13 N
M  END