
  SciTegic07101214422D

 30 33  0  0  0  0            999 V2000
   10.3922  -21.9137    0.0000 C   0  0
   11.4782  -22.7246    0.0000 C   0  0  2  0  0  0
   10.9531  -22.2917    0.0000 C   0  0
    9.9665  -22.2917    0.0000 C   0  0
    9.8265  -21.4665    0.0000 N   0  3  2  0  0  0
   11.3355  -21.8954    0.0000 C   0  0
    9.4379  -23.0124    0.0000 C   0  0
   10.0706  -22.6311    0.0000 C   0  0
   11.8927  -23.4387    0.0000 C   0  0
   12.7185  -23.4368    0.0000 C   0  0
   13.1331  -24.1510    0.0000 C   0  0
   12.9288  -22.6337    0.0000 C   0  0
   13.1390  -21.8305    0.0000 N   0  0
   13.5126  -23.2175    0.0000 C   0  0
   12.7206  -24.8638    0.0000 C   0  0
   13.1345  -25.5774    0.0000 C   0  0
   13.9612  -25.5759    0.0000 C   0  0
   14.3722  -24.8548    0.0000 C   0  0
   13.9560  -24.1441    0.0000 C   0  0
   14.0984  -23.7984    0.0000 C   0  0
   14.8918  -23.5797    0.0000 C   0  0
   15.0997  -22.7816    0.0000 C   0  0
   14.5079  -22.2024    0.0000 C   0  0
   13.7166  -22.4241    0.0000 C   0  0
    9.0251  -21.2491    0.0000 C   0  0
   10.2346  -20.7486    0.0000 C   0  0
    9.8169  -20.0363    0.0000 C   0  0
    9.8105  -19.2144    0.0000 C   0  0
    9.0981  -19.6321    0.0000 C   0  0
   11.6562  -21.1250    0.0000 Br  0  5
 10 14  1  0
  6  2  1  0
 11 15  2  0
  4  7  1  0
 15 16  1  0
  1  8  1  0
 16 17  2  0
  7  8  1  0
 17 18  1  0
 18 19  2  0
 19 11  1  0
  2  9  1  6
 14 20  2  0
  2  3  1  0
 20 21  1  0
  9 10  1  0
 21 22  2  0
  3  4  1  0
 22 23  1  0
 10 11  1  0
 23 24  2  0
 24 14  1  0
  4  5  1  0
  5 25  1  0
 10 12  1  0
  5 26  1  1
  5  1  1  0
 26 27  1  0
 28 27  1  0
 29 28  1  0
 27 29  1  0
 12 13  3  0
  1  6  1  0
M  CHG  2   5   1  30  -1
M  END