
  SciTegic12231509382D

 23 25  0  0  0  0            999 V2000
   -2.0675   -2.5251    0.0000 N   0  0
   -2.5524   -1.8577    0.0000 C   0  0
   -2.0675   -1.1903    0.0000 C   0  0
   -1.2829   -1.4452    0.0000 C   0  0
   -0.5684   -2.6827    0.0000 N   0  0
   -1.2829   -2.2702    0.0000 C   0  0
   -0.5684   -1.0327    0.0000 C   0  0
    0.1461   -1.4452    0.0000 N   0  0
    0.1461   -2.2702    0.0000 C   0  0
   -0.5684   -0.2077    0.0000 N   0  0
   -1.2829    0.2048    0.0000 C   0  0
    0.1461    0.2048    0.0000 C   0  0  2  0  0  0
    1.5750    0.2048    0.0000 C   0  0
    0.8605   -0.2077    0.0000 C   0  0  1  0  0  0
    0.1461    1.0298    0.0000 C   0  0
    0.8605    1.4423    0.0000 N   0  0
    1.5750    1.0298    0.0000 C   0  0
    0.8605   -1.0327    0.0000 C   0  0
    0.8605    2.2673    0.0000 C   0  0
    0.1461    2.6798    0.0000 O   0  0
    1.5750    2.6798    0.0000 C   0  0
    1.5750    3.5048    0.0000 C   0  0
    1.5750    4.3298    0.0000 N   0  0
  6  1  1  0
  1  2  1  0
  2  3  2  0
  3  4  1  0
  4  7  1  0
  5  6  1  0
  5  9  2  0
  7  8  2  0
  8  9  1  0
  6  4  2  0
  7 10  1  0
 10 11  1  0
 12 10  1  1
 14 12  1  0
 12 15  1  0
 13 14  1  0
 13 17  1  0
 15 16  1  0
 16 17  1  0
 14 18  1  1
 16 19  1  0
 19 20  2  0
 19 21  1  0
 21 22  1  0
 22 23  3  0
M  END