
  SciTegic12171313032D

 23 25  0  0  0  0            999 V2000
   24.4276  -22.1921    0.0000 C   0  0
   24.4265  -23.0116    0.0000 C   0  0
   25.1345  -23.4206    0.0000 N   0  0
   25.8442  -23.0111    0.0000 C   0  0
   25.8414  -22.1885    0.0000 C   0  0
   25.1328  -21.7832    0.0000 N   0  0
   26.5526  -23.4186    0.0000 N   0  0
   26.5475  -21.7772    0.0000 N   0  0
   26.5445  -20.9600    0.0000 C   0  0
   27.2506  -20.5488    0.0000 C   0  0
   23.7219  -21.7838    0.0000 C   0  0
   23.7231  -20.9655    0.0000 C   0  0
   23.0161  -20.5572    0.0000 C   0  0
   22.3075  -20.9660    0.0000 C   0  0
   22.3103  -21.7874    0.0000 C   0  0
   23.0179  -22.1921    0.0000 C   0  0
   21.6022  -22.1965    0.0000 C   0  0
   20.8930  -21.7906    0.0000 O   0  0
   21.6053  -23.0137    0.0000 O   0  0
   27.9972  -20.8737    0.0000 C   0  0
   28.5417  -20.2643    0.0000 C   0  0
   28.1304  -19.5581    0.0000 C   0  0
   27.3318  -19.7312    0.0000 C   0  0
  1  2  2  0
  2  3  1  0
  3  4  2  0
  4  5  1  0
  5  6  2  0
  6  1  1  0
  4  7  1  0
  5  8  1  0
  8  9  1  0
  9 10  1  0
 11 12  2  0
 12 13  1  0
 13 14  2  0
 14 15  1  0
 15 16  2  0
 16 11  1  0
  1 11  1  0
 17 18  1  0
 17 19  2  0
 15 17  1  0
 10 20  1  0
 20 21  1  0
 21 22  1  0
 22 23  1  0
 23 10  1  0
M  END