
          11280715062D 1   1.00000     0.00000     0

 36 38  0     0  0            999 V2000
    6.1667   -3.3417    0.0000 N   0  0  0  0  0  0           0  0  0
    6.6917   -3.0417    0.0000 C   0  0  0  0  0  0           0  0  0
    6.1667   -3.9417    0.0000 C   0  0  0  0  0  0           0  0  0
    7.2042   -2.7417    0.0000 N   0  0  0  0  0  0           0  0  0
    8.7667   -4.2500    0.0000 C   0  0  0  0  0  0           0  0  0
    9.2875   -3.9500    0.0000 C   0  0  0  0  0  0           0  0  0
   10.3292   -3.9500    0.0000 C   0  0  0  0  0  0           0  0  0
    9.8042   -4.2500    0.0000 C   0  0  0  0  0  0           0  0  0
    0.9792   -3.9417    0.0000 N   0  0  3  0  0  0           0  0  0
   10.3292   -3.3500    0.0000 C   0  0  0  0  0  0           0  0  0
    8.7667   -4.8500    0.0000 O   0  0  0  0  0  0           0  0  0
    9.2875   -3.3500    0.0000 C   0  0  0  0  0  0           0  0  0
    1.5000   -4.2417    0.0000 C   0  0  0  0  0  0           0  0  0
    9.8042   -3.0500    0.0000 C   0  0  0  0  0  0           0  0  0
    5.6500   -4.2417    0.0000 N   0  0  0  0  0  0           0  0  0
    6.6917   -4.2417    0.0000 N   0  0  0  0  0  0           0  0  0
    2.0167   -3.9417    0.0000 C   0  0  0  0  0  0           0  0  0
    8.2500   -3.9500    0.0000 N   0  0  0  0  0  0           0  0  0
   10.8417   -4.2500    0.0000 I   0  0  0  0  0  0           0  0  0
    2.5375   -4.2417    0.0000 C   0  0  0  0  0  0           0  0  0
   10.8417   -3.0542    0.0000 N   0  0  0  0  0  0           0  0  0
    3.0542   -3.9417    0.0000 C   0  0  0  0  0  0           0  0  0
    4.6125   -4.2417    0.0000 C   0  0  0  0  0  0           0  0  0
    3.5750   -4.2417    0.0000 O   0  0  0  0  0  0           0  0  0
    0.4542   -4.2417    0.0000 C   0  0  0  0  0  0           0  0  0
    0.9792   -3.3417    0.0000 C   0  0  0  0  0  0           0  0  0
    2.5292   -3.0417    0.0000 C   0  0  0  0  0  0           0  0  0
    5.1292   -3.9417    0.0000 C   0  0  0  0  0  0           0  0  0
    2.0167   -3.3417    0.0000 C   0  0  0  0  0  0           0  0  0
    4.0917   -3.9417    0.0000 C   0  0  0  0  0  0           0  0  0
    7.2125   -3.9417    0.0000 C   0  0  0  0  0  0           0  0  0
    7.7292   -4.2417    0.0000 C   0  0  0  0  0  0           0  0  0
    3.0542   -3.3417    0.0000 C   0  0  0  0  0  0           0  0  0
   -0.0625   -3.9417    0.0000 C   0  0  0  0  0  0           0  0  0
    0.4625   -3.0417    0.0000 C   0  0  0  0  0  0           0  0  0
   -0.0625   -3.3417    0.0000 C   0  0  0  0  0  0           0  0  0
  2  1  1  0     0  0
  3  1  1  0     0  0
  4  2  3  0     0  0
  5 18  1  0     0  0
  6  5  1  0     0  0
  7  8  1  0     0  0
  8  6  2  0     0  0
  9 13  1  0     0  0
 10 14  1  0     0  0
 11  5  2  0     0  0
 12  6  1  0     0  0
 13 17  1  0     0  0
 14 12  2  0     0  0
 15  3  1  0     0  0
 16  3  2  0     0  0
 17 20  2  0     0  0
 18 32  1  0     0  0
 19  7  1  0     0  0
 20 22  1  0     0  0
 21 10  1  0     0  0
 22 24  1  0     0  0
 23 28  1  0     0  0
 24 30  1  0     0  0
 25  9  1  0     0  0
 26  9  1  0     0  0
 27 33  1  0     0  0
 28 15  1  0     0  0
 29 27  2  0     0  0
 30 23  1  0     0  0
 31 16  1  0     0  0
 32 31  1  0     0  0
 33 22  2  0     0  0
 34 25  1  0     0  0
 35 26  1  0     0  0
 36 35  1  0     0  0
  7 10  2  0     0  0
 29 17  1  0     0  0
 34 36  1  0     0  0
M  END