
  SciTegic09261414532D

 50 57  0  0  0  0            999 V2000
   -0.7456  -22.3613    0.0000 C   0  0
   -0.7445  -23.1808    0.0000 C   0  0
   -0.0410  -23.5898    0.0000 C   0  0
   -0.0392  -21.9524    0.0000 C   0  0
    0.6735  -22.3577    0.0000 C   0  0
    0.6783  -23.1763    0.0000 C   0  0
    1.4584  -23.4247    0.0000 N   0  0
    1.9357  -22.7596    0.0000 C   0  0
    1.4506  -22.1002    0.0000 N   0  0
    1.7154  -24.2005    0.0000 C   0  0
    1.1721  -24.8109    0.0000 C   0  0
    0.3734  -24.6432    0.0000 C   0  0
   -0.1771  -25.2528    0.0000 C   0  0
    0.0873  -26.0295    0.0000 C   0  0
    0.8923  -26.1931    0.0000 C   0  0
    1.4318  -25.5821    0.0000 C   0  0
    2.7509  -22.7543    0.0000 C   0  0
    3.1631  -23.4612    0.0000 C   0  0
    3.9795  -23.4568    0.0000 C   0  0
    4.3847  -22.7461    0.0000 C   0  0
    3.9676  -22.0385    0.0000 C   0  0
    3.1525  -22.0465    0.0000 C   0  0
    5.2019  -22.7402    0.0000 O   0  0
    5.6054  -22.0296    0.0000 C   0  0
    6.4226  -22.0237    0.0000 C   0  0  2  0  0  0
    6.8260  -21.3130    0.0000 C   0  0
    6.8362  -22.7284    0.0000 N   0  0
    6.5139  -23.4774    0.0000 C   0  0
    7.1251  -24.0198    0.0000 N   0  0
    7.6541  -22.8081    0.0000 C   0  0
    7.8268  -23.6066    0.0000 C   0  0
    8.6032  -23.8548    0.0000 C   0  0
    9.2076  -23.3054    0.0000 C   0  0
    9.0304  -22.5047    0.0000 C   0  0
    8.2542  -22.2603    0.0000 C   0  0
    5.7188  -23.6557    0.0000 C   0  0
    5.1662  -23.0521    0.0000 C   0  0
    4.3693  -23.2294    0.0000 C   0  0
    4.1237  -24.0097    0.0000 C   0  0
    4.6813  -24.6130    0.0000 C   0  0
    5.4762  -24.4326    0.0000 C   0  0
    7.6442  -21.3132    0.0000 C   0  0
    8.0476  -20.6066    0.0000 C   0  0
    7.6373  -19.8994    0.0000 N   0  0
    6.8192  -19.9034    0.0000 C   0  0
    6.4113  -20.6145    0.0000 C   0  0
    8.0435  -19.1903    0.0000 C   0  0
    8.8607  -19.1875    0.0000 C   0  0
    7.6325  -18.4840    0.0000 O   0  0
    9.2668  -18.4784    0.0000 C   0  0
  1  2  2  0
  2  3  1  0
  3  6  2  0
  5  4  2  0
  4  1  1  0
  5  6  1  0
  6  7  1  0
  7  8  1  0
  8  9  2  0
  9  5  1  0
  7 10  1  0
 10 11  1  0
 11 12  2  0
 12 13  1  0
 13 14  2  0
 14 15  1  0
 15 16  2  0
 16 11  1  0
 17 18  2  0
 18 19  1  0
 19 20  2  0
 20 21  1  0
 21 22  2  0
 22 17  1  0
  8 17  1  0
 20 23  1  0
 23 24  1  0
 24 25  1  0
 25 26  1  6
 25 27  1  0
 27 28  1  0
 28 29  2  0
 29 31  1  0
 30 27  1  0
 30 31  2  0
 31 32  1  0
 32 33  2  0
 33 34  1  0
 34 35  2  0
 35 30  1  0
 36 37  2  0
 37 38  1  0
 38 39  2  0
 39 40  1  0
 40 41  2  0
 41 36  1  0
 28 36  1  0
 26 42  1  0
 26 46  1  0
 42 43  1  0
 43 44  1  0
 44 45  1  0
 45 46  1  0
 44 47  1  0
 47 48  1  0
 47 49  2  0
 48 50  2  0
M  END