
  CDK    9/16/09,10:0

 21 22  0  0  0  0  0  0  0  0999 V2000
    8.5780  -14.7850    0.0000 C   0  0  0  0  0  0  0  0  0  0  0  0
    8.5767  -15.6126    0.0000 C   0  0  0  0  0  0  0  0  0  0  0  0
    9.2897  -16.0255    0.0000 C   0  0  0  0  0  0  0  0  0  0  0  0
   10.0089  -15.6121    0.0000 C   0  0  0  0  0  0  0  0  0  0  0  0
   10.0058  -14.7810    0.0000 C   0  0  0  0  0  0  0  0  0  0  0  0
    9.2877  -14.3723    0.0000 C   0  0  0  0  0  0  0  0  0  0  0  0
   10.7182  -14.3650    0.0000 C   0  0  0  0  0  0  0  0  0  0  0  0
   11.4347  -14.7740    0.0000 C   0  0  0  0  0  0  0  0  0  0  0  0
   11.5275  -15.5938    0.0000 C   0  0  0  0  0  0  0  0  0  0  0  0
   12.3353  -15.7613    0.0000 N   0  0  0  0  0  0  0  0  0  0  0  0
   12.7443  -15.0448    0.0000 C   0  0  0  0  0  0  0  0  0  0  0  0
   12.1893  -14.4346    0.0000 N   0  0  0  0  0  0  0  0  0  0  0  0
    7.8617  -16.0241    0.0000 Cl  0  0  0  0  0  0  0  0  0  0  0  0
   12.3571  -13.6269    0.0000 C   0  0  0  0  0  0  0  0  0  0  0  0
   13.5688  -15.0586    0.0000 S   0  0  0  0  0  0  0  0  0  0  0  0
   13.9696  -15.7797    0.0000 C   0  0  0  0  0  0  0  0  0  0  0  0
   14.7945  -15.7930    0.0000 C   0  0  0  0  0  0  0  0  0  0  0  0
   15.1953  -16.5141    0.0000 C   0  0  0  0  0  0  0  0  0  0  0  0
   16.0201  -16.5274    0.0000 N   0  0  0  0  0  0  0  0  0  0  0  0
   16.4210  -17.2486    0.0000 C   0  0  0  0  0  0  0  0  0  0  0  0
   16.4442  -15.8198    0.0000 C   0  0  0  0  0  0  0  0  0  0  0  0
  5  6  2  0  0  0  0 
  9 10  1  0  0  0  0 
 10 11  2  0  0  0  0 
 11 12  1  0  0  0  0 
 12  8  1  0  0  0  0 
  6  1  1  0  0  0  0 
  2 13  1  0  0  0  0 
  1  2  2  0  0  0  0 
 12 14  1  0  0  0  0 
  5  7  1  0  0  0  0 
 11 15  1  0  0  0  0 
  3  4  2  0  0  0  0 
 15 16  1  0  0  0  0 
  7  8  1  0  0  0  0 
 16 17  1  0  0  0  0 
  8  9  2  0  0  0  0 
 17 18  1  0  0  0  0 
 18 19  1  0  0  0  0 
  4  5  1  0  0  0  0 
 19 20  1  0  0  0  0 
  2  3  1  0  0  0  0 
 19 21  1  0  0  0  0 
M  END