
  SciTegic04201616412D

 27 28  0  0  0  0            999 V2000
    1.2990   -0.7500    0.0000 C   0  0
    2.6003   -1.4977    0.0000 C   0  0
    3.8990   -0.7455    0.0000 C   0  0
    5.2003   -1.4932    0.0000 C   0  0
    3.8969    0.4545    0.0000 C   0  0
    5.2044   -2.9940    0.0000 C   0  0
    6.5057   -3.7418    0.0000 C   0  0
    6.5097   -5.2426    0.0000 C   0  0
    7.8110   -5.9903    0.0000 C   0  0
    5.4719   -5.8450    0.0000 C   0  0
    7.8150   -7.4911    0.0000 C   0  0
    6.7772   -8.0936    0.0000 O   0  0
    8.8555   -8.0890    0.0000 O   0  0
    1.2990    0.7500    0.0000 C   0  0
    0.0000    1.5000    0.0000 C   0  0
   -1.2990    0.7500    0.0000 C   0  0
    0.0000   -1.5000    0.0000 C   0  0
   -1.2990   -0.7500    0.0000 C   0  0
   -0.0031   -3.0008    0.0000 C   0  0
   -1.0432   -3.5994    0.0000 C   0  0
    1.0351   -3.6026    0.0000 C   0  0
   -2.5987   -1.5004    0.0000 C   0  0
   -3.8991   -0.7525    0.0000 C   0  0
   -5.1969   -1.5046    0.0000 C   0  0
   -5.1945   -3.0046    0.0000 C   0  0
   -3.8943   -3.7525    0.0000 C   0  0
   -2.5964   -3.0004    0.0000 C   0  0
  1  2  2  0
  2  3  1  0
  3  4  2  0
  3  5  1  0
  4  6  1  0
  6  7  2  0
  7  8  1  0
  8  9  2  0
  8 10  1  0
  9 11  1  0
 11 12  1  0
 11 13  2  0
  1 14  1  0
  1 17  1  0
 14 15  1  0
 15 16  1  0
 16 18  1  0
 17 18  2  0
 17 19  1  0
 19 20  1  0
 19 21  1  0
 18 22  1  0
 22 23  2  0
 23 24  1  0
 24 25  2  0
 25 26  1  0
 26 27  2  0
 27 22  1  0
M  END