
  SciTegic01181116592D

 25 27  0  0  0  0            999 V2000
    5.4361  -24.1500    0.0000 C   0  0
    5.4349  -24.9773    0.0000 C   0  0
    6.1497  -25.3902    0.0000 C   0  0
    6.8662  -24.9769    0.0000 C   0  0
    6.8633  -24.1463    0.0000 C   0  0
    6.1479  -23.7372    0.0000 C   0  0
    4.7201  -25.3893    0.0000 Cl  0  0
    7.5762  -23.7311    0.0000 C   0  0
    8.2922  -24.1409    0.0000 C   0  0
    7.5731  -22.9061    0.0000 O   0  0
    6.1495  -26.2152    0.0000 S   0  0
    6.8639  -26.6279    0.0000 N   0  0
    5.3458  -25.9958    0.0000 O   0  0
    5.5583  -26.7958    0.0000 O   0  0
    9.0052  -23.7256    0.0000 S   0  0
    9.7213  -24.1354    0.0000 C   0  0
    9.8129  -24.9547    0.0000 N   0  0
   10.4758  -23.7961    0.0000 N   0  0
   11.0303  -24.4070    0.0000 C   0  0
   10.6206  -25.1185    0.0000 C   0  0
   12.2603  -25.1088    0.0000 C   0  0
   11.8468  -24.4034    0.0000 C   0  0
   11.8526  -25.8250    0.0000 C   0  0
   11.0355  -25.8258    0.0000 C   0  0
   13.0853  -25.1036    0.0000 Br  0  0
  6  1  1  0
 11 13  2  0
  1  2  2  0
 11 14  2  0
  2  7  1  0
  9 15  1  0
  3  4  2  0
 15 16  1  0
 16 17  1  0
  5  8  1  0
 17 20  1  0
 19 18  1  0
 18 16  2  0
  8  9  1  0
  4  5  1  0
 19 20  2  0
 20 24  1  0
  8 10  2  0
 23 21  1  0
  2  3  1  0
 21 22  2  0
 22 19  1  0
  3 11  1  0
  5  6  2  0
 23 24  2  0
 11 12  1  0
 21 25  1  0
M  END