
  SciTegic02271514582D

 15 17  0  0  0  0            999 V2000
   29.3276   -2.6992    0.0000 C   0  0
   30.0329   -2.2947    0.0000 N   0  0
   30.0329   -1.4775    0.0000 C   0  0
   29.3276   -1.0648    0.0000 N   0  0
   28.6223   -2.2947    0.0000 C   0  0
   28.6224   -1.4730    0.0000 N   0  0
   27.8409   -1.2190    0.0000 C   0  0
   27.3578   -1.8838    0.0000 C   0  0
   27.8408   -2.5486    0.0000 C   0  0
   29.3276   -3.5164    0.0000 N   0  0
   28.6161   -3.9203    0.0000 C   0  0
   28.6142   -4.7339    0.0000 C   0  0
   29.3200   -5.1463    0.0000 O   0  0
   30.0296   -4.7390    0.0000 C   0  0
   30.0332   -3.9192    0.0000 C   0  0
  6  4  1  0
  5  1  1  0
  1  2  2  0
  2  3  1  0
  3  4  2  0
  5  6  1  0
  6  7  1  0
  7  8  2  0
  8  9  1  0
  9  5  2  0
  1 10  1  0
 10 11  1  0
 10 15  1  0
 11 12  1  0
 12 13  1  0
 13 14  1  0
 14 15  1  0
M  END