
          05080814042D 1   1.00000     0.00000     0

 36 40  0     1  0            999 V2000
   -1.1246  -12.5296    0.0000 C   0  0  0  0  0  0           0  0  0
   -1.1258  -13.3555    0.0000 C   0  0  0  0  0  0           0  0  0
   -0.4121  -13.7678    0.0000 C   0  0  0  0  0  0           0  0  0
   -0.4139  -12.1174    0.0000 C   0  0  0  0  0  0           0  0  0
    0.3003  -12.5259    0.0000 C   0  0  0  0  0  0           0  0  0
    0.3037  -13.3576    0.0000 C   0  0  0  0  0  0           0  0  0
    1.0217  -13.7683    0.0000 C   0  0  0  0  0  0           0  0  0
    1.0149  -12.1048    0.0000 C   0  0  0  0  0  0           0  0  0
    1.7376  -12.5200    0.0000 C   0  0  2  0  0  0           0  0  0
    1.7386  -13.3534    0.0000 C   0  0  2  0  0  0           0  0  0
    2.4569  -13.7669    0.0000 N   0  0  3  0  0  0           0  0  0
    3.1787  -13.3515    0.0000 C   0  0  0  0  0  0           0  0  0
    3.1776  -12.5182    0.0000 C   0  0  1  0  0  0           0  0  0
    2.4548  -12.1001    0.0000 C   0  0  0  0  0  0           0  0  0
    2.4568  -14.5905    0.0000 C   0  0  0  0  0  0           0  0  0
    3.8909  -12.1062    0.0000 C   0  0  0  0  0  0           0  0  0
    4.6043  -12.5178    0.0000 N   0  0  3  0  0  0           0  0  0
    3.8907  -11.2825    0.0000 O   0  0  0  0  0  0           0  0  0
    4.5987  -13.3461    0.0000 C   0  0  0  0  0  0           0  0  0
    5.3080  -13.7578    0.0000 C   0  0  0  0  0  0           0  0  0
    6.0237  -13.3492    0.0000 N   0  0  3  0  0  0           0  0  0
    6.0255  -12.5246    0.0000 C   0  0  0  0  0  0           0  0  0
    5.3115  -12.1085    0.0000 C   0  0  0  0  0  0           0  0  0
    1.7305  -14.1769    0.0000 H   0  0  0  0  0  0           0  0  0
    1.7305  -11.6934    0.0000 H   0  0  0  0  0  0           0  0  0
    6.7355  -13.7636    0.0000 C   0  0  0  0  0  0           0  0  0
    6.7292  -14.5856    0.0000 C   0  0  0  0  0  0           0  0  0
    7.4402  -14.9999    0.0000 C   0  0  0  0  0  0           0  0  0
    8.1559  -14.5905    0.0000 C   0  0  0  0  0  0           0  0  0
    8.1562  -13.7626    0.0000 C   0  0  0  0  0  0           0  0  0
    7.4446  -13.3520    0.0000 C   0  0  0  0  0  0           0  0  0
    8.8736  -15.0050    0.0000 N   0  3  0  0  0  0           0  0  0
    9.5879  -14.5948    0.0000 O   0  0  0  0  0  0           0  0  0
    8.8718  -15.8287    0.0000 O   0  5  0  0  0  0           0  0  0
   -0.4206  -11.2934    0.0000 C   0  0  0  0  0  0           0  0  0
   -0.4231  -10.4697    0.0000 N   0  0  0  0  0  0           0  0  0
  7 10  1  0     0  0
 16 18  2  0     0  0
 17 19  1  0     0  0
  9  8  1  0     0  0
  9 10  1  0     0  0
  5  4  2  0     0  0
  4  1  1  0     0  0
  5  6  1  0     0  0
 17 23  1  0     0  0
 19 20  1  0     0  0
 20 21  1  0     0  0
 21 22  1  0     0  0
 22 23  1  0     0  0
 10 24  1  1     0  0
  2  3  1  0     0  0
  9 25  1  6     0  0
  3  6  2  0     0  0
  9 14  1  0     0  0
 21 26  1  0     0  0
 10 11  1  0     0  0
 26 27  2  0     0  0
 11 12  1  0     0  0
 27 28  1  0     0  0
 12 13  1  0     0  0
 28 29  2  0     0  0
 13 14  1  0     0  0
 29 30  1  0     0  0
  1  2  2  0     0  0
 30 31  2  0     0  0
 31 26  1  0     0  0
 11 15  1  0     0  0
  5  8  1  0     0  0
 13 16  1  1     0  0
 32 33  2  0     0  0
 32 34  1  0     0  0
 29 32  1  0     0  0
  6  7  1  0     0  0
 16 17  1  0     0  0
 35 36  3  0     0  0
  4 35  1  0     0  0
M  CHG  2  32   1  34  -1
M  END