
          11280714442D 1   1.00000     0.00000     0

 28 29  0     0  0            999 V2000
    4.6750   -3.5917    0.0000 C   0  0  0  0  0  0           0  0  0
    5.5000   -3.5917    0.0000 C   0  0  3  0  0  0           0  0  0
    9.6125   -6.4625    0.0000 C   0  0  0  0  0  0           0  0  0
    4.2667   -2.8792    0.0000 O   0  0  0  0  0  0           0  0  0
    3.0292   -2.1542    0.0000 C   0  0  0  0  0  0           0  0  0
    9.2000   -7.1792    0.0000 C   0  0  0  0  0  0           0  0  0
    3.4417   -2.8750    0.0000 C   0  0  0  0  0  0           0  0  0
    4.2625   -4.3042    0.0000 O   0  0  0  0  0  0           0  0  0
    9.2000   -5.7500    0.0000 C   0  0  0  0  0  0           0  0  0
    3.4417   -1.4500    0.0000 C   0  0  0  0  0  0           0  0  0
    8.3750   -7.1750    0.0000 C   0  0  0  0  0  0           0  0  0
    8.3792   -5.7500    0.0000 C   0  0  0  0  0  0           0  0  0
    5.9167   -2.8792    0.0000 O   0  0  0  0  0  0           0  0  0
    7.9625   -6.4625    0.0000 C   0  0  0  0  0  0           0  0  0
    6.7375   -4.3167    0.0000 N   0  0  0  0  0  0           0  0  0
   10.4375   -6.4542    0.0000 O   0  0  0  0  0  0           0  0  0
    9.6125   -7.8917    0.0000 O   0  0  0  0  0  0           0  0  0
    4.2667   -1.4542    0.0000 O   0  0  0  0  0  0           0  0  0
    5.9125   -4.3125    0.0000 C   0  0  0  0  0  0           0  0  0
    2.2042   -2.1625    0.0000 C   0  0  0  0  0  0           0  0  0
    3.0375   -0.7375    0.0000 C   0  0  0  0  0  0           0  0  0
    7.1417   -5.0292    0.0000 C   0  0  0  0  0  0           0  0  0
    7.9667   -5.0292    0.0000 C   0  0  0  0  0  0           0  0  0
   10.8500   -7.1750    0.0000 C   0  0  0  0  0  0           0  0  0
    9.1917   -8.6042    0.0000 C   0  0  0  0  0  0           0  0  0
    4.6792   -2.1750    0.0000 C   0  0  0  0  0  0           0  0  0
    1.7917   -1.4500    0.0000 C   0  0  0  0  0  0           0  0  0
    2.2125   -0.7292    0.0000 C   0  0  0  0  0  0           0  0  0
  2  1  1  0     0  0
  3  9  2  0     0  0
  4  1  1  0     0  0
  5  7  1  0     0  0
  6 11  2  0     0  0
  7  4  1  0     0  0
  8  1  2  0     0  0
  9 12  1  0     0  0
 10  5  2  0     0  0
 11 14  1  0     0  0
 12 23  1  0     0  0
 13  2  1  0     0  0
 14 12  2  0     0  0
 15 19  1  0     0  0
 16  3  1  0     0  0
 17  6  1  0     0  0
 18 10  1  0     0  0
 19  2  1  0     0  0
 20  5  1  0     0  0
 21 10  1  0     0  0
 22 15  1  0     0  0
 23 22  1  0     0  0
 24 16  1  0     0  0
 25 17  1  0     0  0
 26 18  1  0     0  0
 27 20  2  0     0  0
 28 27  1  0     0  0
 28 21  2  0     0  0
  3  6  1  0     0  0
M  END