
  SciTegic12161614552D

 28 31  0  0  0  0            999 V2000
   -0.9674    2.4458    0.0000 N   0  0
    0.8944    2.4276    0.0000 C   0  0
    1.2777    0.9674    0.0000 C   0  0
    0.0000    0.2373    0.0000 C   0  0
    0.0000   -1.2229    0.0000 C   0  0
   -1.2594   -1.9530    0.0000 C   0  0
   -2.5371   -1.2229    0.0000 C   0  0
   -2.5371    0.2373    0.0000 C   0  0
   -1.2594    0.9674    0.0000 C   0  0
    1.2777   -1.9530    0.0000 C   0  0
    2.5553   -1.2229    0.0000 C   0  0
    2.5553    0.2373    0.0000 C   0  0
    1.6320    3.3741    0.0000 O   0  0
   -1.9486    3.5729    0.0000 C   0  0
   -1.5609    4.7086    0.0000 C   0  0
   -1.2534   -3.4542    0.0000 N   0  0
   -2.5497   -4.2107    0.0000 S   0  0
   -2.5436   -5.7115    0.0000 C   0  0
   -3.5915   -3.6153    0.0000 O   0  0
   -2.5551   -3.0107    0.0000 O   0  0
   -3.8396   -6.4668    0.0000 C   0  0
   -3.8335   -7.9668    0.0000 C   0  0
   -2.5314   -8.7115    0.0000 C   0  0
   -1.2355   -7.9563    0.0000 C   0  0
   -1.2415   -6.4563    0.0000 C   0  0
    0.0567   -5.7033    0.0000 O   0  0
    1.0975   -6.3005    0.0000 C   0  0
   -4.8703   -8.5710    0.0000 Br  0  0
  1  2  1  0
  2  3  1  0
  3  4  1  0
  4  5  1  0
  5  6  2  0
  6  7  1  0
  7  8  2  0
  8  9  1  0
  1  9  1  0
  4  9  2  0
 10 11  2  0
 11 12  1  0
  3 12  2  0
  5 10  1  0
  2 13  2  0
  1 14  1  0
 14 15  1  0
  6 16  1  0
 16 17  1  0
 17 18  1  0
 17 19  2  0
 17 20  2  0
 18 21  2  0
 21 22  1  0
 22 23  2  0
 23 24  1  0
 24 25  2  0
 25 18  1  0
 25 26  1  0
 26 27  1  0
 22 28  1  0
M  END