
  SciTegic12091611082D

 45 50  0  0  0  0            999 V2000
    2.0440    1.7885    0.0000 C   0  0  2  0  0  0
   -0.4380    0.3285    0.0000 C   0  0  2  0  0  0
   -1.6790   -0.3832    0.0000 C   0  0  2  0  0  0
    2.0440    0.3467    0.0000 C   0  0  2  0  0  0
    0.8030   -0.3650    0.0000 C   0  0  2  0  0  0
    0.8030    2.5185    0.0000 C   0  0
   -1.6790   -1.8250    0.0000 C   0  0
   -0.4562    1.7885    0.0000 C   0  0
    0.8212   -1.8067    0.0000 C   0  0
    3.3032    2.5367    0.0000 C   0  0  2  0  0  0
   -0.4197   -2.5550    0.0000 C   0  0
    4.5625    0.3285    0.0000 C   0  0
   -2.9565    0.3102    0.0000 C   0  0
    4.5625    1.8067    0.0000 C   0  0
    8.5033    2.5246    0.0000 C   0  0
   -2.9382   -2.5732    0.0000 C   0  0
    8.5099    1.3246    0.0000 O   0  0
    4.5993    3.2532    0.0000 C   0  0  1  0  0  0
    5.9034    2.5103    0.0000 C   0  0
    7.1993    3.2675    0.0000 C   0  0
    2.0413    2.9885    0.0000 C   0  0
   -4.1792   -0.4015    0.0000 C   0  0
   -4.1792   -1.8432    0.0000 C   0  0  2  0  0  0
   -1.6930    0.8167    0.0000 C   0  0
    9.7992    3.2818    0.0000 N   0  0
   -5.2209   -2.4390    0.0000 O   0  0
    4.5927    4.4532    0.0000 C   0  0
   -0.4332   -0.6715    0.0000 H   0  0
    1.6715   -0.8608    0.0000 H   0  0
    2.2979   -0.6205    0.0000 H   0  0
    3.3325    1.5372    0.0000 H   0  0
   11.1033    2.5389    0.0000 C   0  0  2  0  0  0
   11.1146    1.0381    0.0000 C   0  0
   12.3991    3.2960    0.0000 C   0  0
   10.0798    0.4306    0.0000 O   0  0
   12.1580    0.4453    0.0000 O   0  0
   13.7032    2.5532    0.0000 C   0  0
   13.8503    1.0710    0.0000 C   0  0
   15.2934    0.7748    0.0000 N   0  0
   15.0467    3.1763    0.0000 C   0  0
   16.0462    2.0645    0.0000 C   0  0
   17.5208    2.3605    0.0000 C   0  0
   17.9851    3.8075    0.0000 C   0  0
   16.9856    4.9193    0.0000 C   0  0
   15.4974    4.6112    0.0000 C   0  0
  2  8  1  0
  3  2  1  0
  4  1  1  0
  5  4  1  0
  6  1  1  0
  7  3  1  0
  8  6  1  0
  9  5  1  0
 10  1  1  0
 11  9  1  0
 12  4  1  0
 13  3  1  0
 14 10  1  0
 15 20  1  0
 16  7  1  0
 17 15  2  0
 18 10  1  0
 19 18  1  0
 20 19  1  0
  1 21  1  1
 22 13  1  0
 23 22  1  0
  3 24  1  1
 25 15  1  0
 23 26  1  1
 18 27  1  6
  2 28  1  6
  5 29  1  1
  4 30  1  6
 10 31  1  6
 14 12  1  0
  2  5  1  0
 11  7  2  0
 23 16  1  0
 25 32  1  0
 32 33  1  0
 32 34  1  1
 33 35  1  0
 33 36  2  0
 34 37  1  0
 37 38  2  0
 38 39  1  0
 39 41  1  0
 40 37  1  0
 40 41  2  0
 41 42  1  0
 42 43  2  0
 43 44  1  0
 44 45  2  0
 45 40  1  0
M  END