
  Mrv0541 05211314572D          

 18 19  0  0  0  0            999 V2000
    0.4729   -0.6613    0.0000 C   0  0  0  0  0  0  0  0  0  0  0  0
   -0.2415   -0.2488    0.0000 C   0  0  0  0  0  0  0  0  0  0  0  0
   -1.6705   -0.2488    0.0000 C   0  0  0  0  0  0  0  0  0  0  0  0
   -2.4241   -0.5843    0.0000 N   0  0  0  0  0  0  0  0  0  0  0  0
    1.1874   -0.2488    0.0000 C   0  0  0  0  0  0  0  0  0  0  0  0
   -1.7567    0.5717    0.0000 N   0  0  0  0  0  0  0  0  0  0  0  0
   -0.9560   -0.6613    0.0000 C   0  0  0  0  0  0  0  0  0  0  0  0
   -0.2415    0.5762    0.0000 C   0  0  0  0  0  0  0  0  0  0  0  0
    1.1874    0.5762    0.0000 C   0  0  0  0  0  0  0  0  0  0  0  0
    0.4729    0.9887    0.0000 C   0  0  0  0  0  0  0  0  0  0  0  0
    4.8556    0.0000    0.0000 Cl  0  0  0  0  0  0  0  0  0  0  0  0
   -2.9762    0.0287    0.0000 C   0  0  0  0  0  0  0  0  0  0  0  0
    0.4729   -1.4863    0.0000 C   0  0  0  0  0  0  0  0  0  0  0  0
    1.9019   -0.6613    0.0000 C   0  0  0  0  0  0  0  0  0  0  0  0
   -2.5637    0.7432    0.0000 C   0  0  0  0  0  0  0  0  0  0  0  0
    1.9019    0.9887    0.0000 C   0  0  0  0  0  0  0  0  0  0  0  0
    2.6164   -0.2488    0.0000 C   0  0  0  0  0  0  0  0  0  0  0  0
    2.6164    0.5762    0.0000 C   0  0  0  0  0  0  0  0  0  0  0  0
  1  2  2  0  0  0  0
  3  4  2  0  0  0  0
  1  5  1  0  0  0  0
  3  6  1  0  0  0  0
  2  7  1  0  0  0  0
  3  7  1  0  0  0  0
  2  8  1  0  0  0  0
  5  9  2  0  0  0  0
  8 10  2  0  0  0  0
  9 10  1  0  0  0  0
  4 12  1  0  0  0  0
  1 13  1  0  0  0  0
  5 14  1  0  0  0  0
  6 15  1  0  0  0  0
 12 15  1  0  0  0  0
  9 16  1  0  0  0  0
 14 17  2  0  0  0  0
 16 18  2  0  0  0  0
 17 18  1  0  0  0  0
M  END