
  CDK    9/16/09,10:1

 29 31  0  0  0  0  0  0  0  0999 V2000
   12.6795  -13.6569    0.0000 N   0  0  0  0  0  0  0  0  0  0  0  0
   11.0335  -12.8424    0.0000 C   0  0  0  0  0  0  0  0  0  0  0  0
   12.8855  -12.8604    0.0000 C   0  0  0  0  0  0  0  0  0  0  0  0
   11.8926  -14.0053    0.0000 C   0  0  0  0  0  0  0  0  0  0  0  0
   11.1920  -13.6382    0.0000 C   0  0  0  0  0  0  0  0  0  0  0  0
   11.8654  -14.8299    0.0000 O   0  0  0  0  0  0  0  0  0  0  0  0
   10.4769  -14.0494    0.0000 N   0  0  0  0  0  0  0  0  0  0  0  0
    9.7630  -13.6359    0.0000 C   0  0  0  0  0  0  0  0  0  0  0  0
    9.0479  -14.0475    0.0000 C   0  0  0  0  0  0  0  0  0  0  0  0
    9.7641  -12.8109    0.0000 O   0  0  0  0  0  0  0  0  0  0  0  0
    8.3327  -13.6340    0.0000 C   0  0  0  0  0  0  0  0  0  0  0  0
    9.0468  -14.8725    0.0000 N   0  0  0  0  0  0  0  0  0  0  0  0
    7.9214  -12.9216    0.0000 C   0  0  0  0  0  0  0  0  0  0  0  0
    8.3369  -12.2096    0.0000 C   0  0  0  0  0  0  0  0  0  0  0  0
    7.9259  -11.4951    0.0000 C   0  0  0  0  0  0  0  0  0  0  0  0
    7.1001  -11.4937    0.0000 C   0  0  0  0  0  0  0  0  0  0  0  0
    6.6868  -12.2126    0.0000 C   0  0  0  0  0  0  0  0  0  0  0  0
    7.1001  -12.9242    0.0000 C   0  0  0  0  0  0  0  0  0  0  0  0
    6.6897  -13.6399    0.0000 C   0  0  0  0  0  0  0  0  0  0  0  0
    9.1619  -12.2122    0.0000 C   0  0  0  0  0  0  0  0  0  0  0  0
    6.6875  -10.7792    0.0000 O   0  0  0  0  0  0  0  0  0  0  0  0
   11.5261  -12.2035    0.0000 C   0  0  0  0  0  0  0  0  0  0  0  0
   12.3763  -12.2052    0.0000 C   0  0  0  0  0  0  0  0  0  0  0  0
   12.8010  -11.4710    0.0000 C   0  0  0  0  0  0  0  0  0  0  0  0
   12.3766  -10.7345    0.0000 C   0  0  0  0  0  0  0  0  0  0  0  0
   11.5232  -10.7369    0.0000 C   0  0  0  0  0  0  0  0  0  0  0  0
   11.1024  -11.4718    0.0000 C   0  0  0  0  0  0  0  0  0  0  0  0
    8.3318  -15.2840    0.0000 C   0  0  0  0  0  0  0  0  0  0  0  0
    9.7607  -15.2859    0.0000 C   0  0  0  0  0  0  0  0  0  0  0  0
 13 14  2  0  0  0  0 
 22  2  1  0  0  0  0 
 14 15  1  0  0  0  0 
  5  7  1  1  0  0  0 
 15 16  2  0  0  0  0 
 23  3  1  0  0  0  0 
 16 17  1  0  0  0  0 
  7  8  1  0  0  0  0 
 17 18  2  0  0  0  0 
 18 13  1  0  0  0  0 
  1  4  1  0  0  0  0 
 18 19  1  0  0  0  0 
  8  9  1  0  0  0  0 
 14 20  1  0  0  0  0 
  4  5  1  0  0  0  0 
 16 21  1  0  0  0  0 
  8 10  2  0  0  0  0 
  5  2  1  0  0  0  0 
 22 23  2  0  0  0  0 
  9 11  1  0  0  0  0 
 23 24  1  0  0  0  0 
  3  1  1  0  0  0  0 
 24 25  2  0  0  0  0 
  9 12  1  1  0  0  0 
 25 26  1  0  0  0  0 
 26 27  2  0  0  0  0 
 27 22  1  0  0  0  0 
 11 13  1  0  0  0  0 
 12 28  1  0  0  0  0 
  4  6  2  0  0  0  0 
 12 29  1  0  0  0  0 
M  END