
  SciTegic02181312462D

 23 25  0  0  0  0            999 V2000
    1.6825  -14.0490    0.0000 C   0  0
    1.6813  -14.8686    0.0000 C   0  0
    2.3894  -15.2775    0.0000 C   0  0
    2.3876  -13.6402    0.0000 C   0  0
    3.8800  -13.7894    0.0000 C   0  0
    3.0962  -14.0454    0.0000 C   0  0
    3.0988  -14.8707    0.0000 C   0  0
    3.8851  -15.1220    0.0000 S   0  0
    4.3658  -14.4512    0.0000 C   0  0
    2.3881  -16.0947    0.0000 N   0  0
    3.0952  -16.5044    0.0000 O   0  0
    4.2956  -13.0857    0.0000 C   0  0
    5.1127  -13.0938    0.0000 N   0  0
    3.8940  -12.3740    0.0000 O   0  0
    5.5143  -13.8055    0.0000 C   0  0
    5.5283  -12.3902    0.0000 C   0  0
    6.3455  -12.3983    0.0000 C   0  0
    6.7610  -11.6947    0.0000 C   0  0
    7.5769  -11.7069    0.0000 C   0  0
    7.9924  -11.0041    0.0000 C   0  0
    7.5908  -10.2914    0.0000 C   0  0
    6.7694  -10.2859    0.0000 C   0  0
    6.3576  -10.9893    0.0000 C   0  0
  1  2  1  0
  2  3  1  0
  3  7  1  0
  6  4  1  0
  4  1  1  0
  6  7  2  0
  5  6  1  0
  7  8  1  0
  8  9  1  0
  9  5  2  0
  3 10  2  0
 10 11  1  0
  5 12  1  0
 12 13  1  0
 12 14  2  0
 13 15  1  0
 13 16  1  0
 16 17  1  0
 17 18  1  0
 18 19  2  0
 19 20  1  0
 20 21  2  0
 21 22  1  0
 22 23  2  0
 23 18  1  0
M  END