
  SciTegic12171312552D

 61 69  0  0  0  0            999 V2000
    6.8503  -17.8813    0.0000 C   0  0
    7.8695  -18.5103    0.0000 N   0  0
    6.8469  -17.0543    0.0000 C   0  0
    7.4327  -16.4741    0.0000 N   0  0
    7.0622  -15.7302    0.0000 N   0  0
    6.2415  -15.8584    0.0000 N   0  0
    6.1066  -16.6768    0.0000 C   0  0
    5.8247  -15.1406    0.0000 C   0  0
    4.9981  -15.1420    0.0000 C   0  0
    4.5856  -14.4285    0.0000 C   0  0
    3.7589  -14.4299    0.0000 N   0  0
    3.2677  -13.7645    0.0000 C   0  0
    3.2701  -15.1014    0.0000 C   0  0
    3.5200  -12.9780    0.0000 O   0  0
    3.5275  -15.8906    0.0000 O   0  0
    2.4840  -14.8478    0.0000 C   0  0
    2.4835  -14.0239    0.0000 C   0  0
    1.7725  -13.6164    0.0000 C   0  0
    1.0574  -14.0274    0.0000 C   0  0
    1.0620  -14.8545    0.0000 C   0  0
    1.7778  -15.2625    0.0000 C   0  0
    8.8443  -17.8813    0.0000 C   0  0
    8.2619  -16.4740    0.0000 N   0  0
    8.8443  -17.0510    0.0000 C   0  0
    9.5793  -16.6798    0.0000 C   0  0
    9.4489  -15.8673    0.0000 N   0  0
    8.6360  -15.7384    0.0000 N   0  0
    9.8515  -15.1415    0.0000 C   0  0
   10.6781  -15.1267    0.0000 C   0  0
   11.0764  -14.4052    0.0000 C   0  0
   11.9030  -14.3904    0.0000 N   0  0
   12.4036  -15.0487    0.0000 C   0  0
   12.3796  -13.7078    0.0000 C   0  0
   12.1633  -15.8390    0.0000 O   0  0
   12.1093  -12.9272    0.0000 O   0  0
   13.1697  -13.9529    0.0000 C   0  0
   13.1822  -14.7770    0.0000 C   0  0
   13.8993  -15.1743    0.0000 C   0  0
   14.6086  -14.7530    0.0000 C   0  0
   14.5920  -13.9257    0.0000 C   0  0
   13.8701  -13.5279    0.0000 C   0  0
    7.9060  -19.3579    0.0000 C   0  0
    9.4172  -19.5475    0.0000 N   0  0
    8.6277  -19.7685    0.0000 C   0  0
    8.5869  -20.5909    0.0000 C   0  0
    9.3576  -20.8793    0.0000 N   0  0
    9.8716  -20.2365    0.0000 N   0  0
    9.7894  -21.5881    0.0000 C   0  0
    9.3936  -22.3139    0.0000 C   0  0
    9.8237  -23.0169    0.0000 C   0  0
    9.4279  -23.7426    0.0000 N   0  0
    8.6082  -23.8522    0.0000 C   0  0
    9.7855  -24.4945    0.0000 C   0  0
    8.0400  -23.2526    0.0000 O   0  0
   10.5976  -24.6454    0.0000 O   0  0
    9.1817  -25.0600    0.0000 C   0  0
    8.4592  -24.6633    0.0000 C   0  0
    7.7594  -25.0901    0.0000 C   0  0
    7.7749  -25.9151    0.0000 C   0  0
    8.5022  -26.3097    0.0000 C   0  0
    9.2049  -25.8789    0.0000 C   0  0
  1  3  1  0
  1  2  1  0
  3  4  1  0
  4  5  2  0
  5  6  1  0
  6  7  1  0
  7  3  2  0
  6  8  1  0
  8  9  1  0
  9 10  1  0
 10 11  1  0
 11 12  1  0
 12 17  1  0
 16 13  1  0
 13 11  1  0
 12 14  2  0
 13 15  2  0
 16 17  2  0
 17 18  1  0
 18 19  2  0
 19 20  1  0
 20 21  2  0
 21 16  1  0
  2 22  1  0
 22 24  1  0
 23 24  1  0
 24 25  2  0
 25 26  1  0
 26 27  1  0
 27 23  2  0
 26 28  1  0
 28 29  1  0
 29 30  1  0
 30 31  1  0
 31 32  1  0
 32 37  1  0
 36 33  1  0
 33 31  1  0
 32 34  2  0
 33 35  2  0
 36 37  2  0
 37 38  1  0
 38 39  2  0
 39 40  1  0
 40 41  2  0
 41 36  1  0
  2 42  1  0
 42 44  1  0
 43 44  1  0
 44 45  2  0
 45 46  1  0
 46 47  1  0
 47 43  2  0
 46 48  1  0
 48 49  1  0
 49 50  1  0
 50 51  1  0
 51 52  1  0
 52 57  1  0
 56 53  1  0
 53 51  1  0
 52 54  2  0
 53 55  2  0
 56 57  2  0
 57 58  1  0
 58 59  2  0
 59 60  1  0
 60 61  2  0
 61 56  1  0
M  END