
  SciTegic10121214022D

 15 14  0  0  0  0            999 V2000
   -3.5333  -10.7167    0.0000 C   0  0  2  0  0  0
   -3.5333  -11.5417    0.0000 C   0  0  2  0  0  0
   -2.8213  -11.9500    0.0000 C   0  0  1  0  0  0
   -2.1093  -11.5417    0.0000 C   0  0  2  0  0  0
   -2.1093  -10.7167    0.0000 C   0  0
   -2.8213  -10.3000    0.0000 N   0  0
   -1.3954  -11.9552    0.0000 N   0  0
   -2.8213  -12.7750    0.0000 O   0  0
   -4.2472  -11.9552    0.0000 O   0  0
   -4.2490  -10.3063    0.0000 C   0  0
   -4.2514   -9.4813    0.0000 O   0  0
   -0.6804  -11.5437    0.0000 C   0  0
    0.0335  -11.9573    0.0000 C   0  0
   -0.6792  -10.7187    0.0000 O   0  0
    1.0688   -9.2188    0.0000 Cl  0  0
  4  7  1  6
  1  2  1  0
  3  8  1  1
  1  6  1  0
  2  9  1  6
  2  3  1  0
  1 10  1  1
  3  4  1  0
 10 11  1  0
  4  5  1  0
  7 12  1  0
  5  6  1  0
 12 13  1  0
 12 14  2  0
M  END