
  SciTegic01161211222D

 39 40  0  0  0  0            999 V2000
   -2.5041    1.2364    0.0000 C   0  0
   -2.4993    0.4114    0.0000 C   0  0  2  0  0  0
   -1.0638    1.2411    0.0000 C   0  0
   -1.7742   -0.0017    0.0000 C   0  0
   -1.7761   -0.8353    0.0000 C   0  0  1  0  0  0
   -1.0655   -1.2457    0.0000 C   0  0  1  0  0  0
   -1.0657   -2.0790    0.0000 C   0  0  2  0  0  0
   -0.3559   -2.4945    0.0000 C   0  0
    0.3768   -2.0727    0.0000 C   0  0
   -1.0658    0.4161    0.0000 O   0  0
   -0.3484    1.6520    0.0000 C   0  0
   -0.3465    2.4770    0.0000 C   0  0
   -1.0600    2.8911    0.0000 C   0  0
   -1.0581    3.7161    0.0000 O   0  0
   -1.7754    2.4803    0.0000 C   0  0
   -1.7773    1.6553    0.0000 C   0  0
    0.3651    1.2378    0.0000 N   0  0
    1.0805    1.6487    0.0000 C   0  0
    1.7916    1.2364    0.0000 C   0  0
    1.0823    2.4737    0.0000 O   0  0
    1.7901    0.4114    0.0000 C   0  0
    2.5068    1.6475    0.0000 C   0  0
    2.5038   -0.0024    0.0000 C   0  0
    2.5022   -0.8274    0.0000 C   0  0
    1.7870   -1.2385    0.0000 C   0  0  1  0  0  0
    1.7855   -2.0635    0.0000 C   0  0  1  0  0  0
    0.3779   -1.2477    0.0000 C   0  0
   -0.3563   -0.8260    0.0000 O   0  0
   -1.7813   -2.4893    0.0000 C   0  0
   -2.4909   -1.2470    0.0000 O   0  0
   -3.2050   -0.8337    0.0000 C   0  0
   -3.2114   -0.0053    0.0000 C   0  0
    1.0733   -0.8247    0.0000 O   0  0
    1.0661    0.0036    0.0000 C   0  0
    2.4992   -2.4774    0.0000 O   0  0
    2.4977   -3.3024    0.0000 C   0  0
    1.7825   -3.7135    0.0000 O   0  0
    3.2114   -3.7161    0.0000 N   0  0
   -2.4890    2.8944    0.0000 N   0  0
 19 21  2  0
  4  5  1  0
 19 22  1  0
  3 11  1  0
 21 23  1  0
  5  6  1  0
 23 24  2  0
 11 12  2  0
 24 25  1  0
  1 16  1  0
 25 26  1  0
 12 13  1  0
  9 27  1  0
  2  4  1  0
  6 28  1  6
 13 14  2  0
  7 29  1  6
  3 16  1  0
  5 30  1  1
 13 15  1  0
 30 31  1  0
  1  2  1  0
  2 32  1  6
 15 16  2  0
 25 33  1  1
  6  7  1  0
 33 34  1  0
 11 17  1  0
 26 35  1  1
  7  8  1  0
 35 36  1  0
 17 18  1  0
 36 37  2  0
  8  9  2  0
 36 38  1  0
  9 26  1  0
 18 19  1  0
 15 39  1  0
 18 20  2  0
  3 10  2  0
M  END