
  SciTegic12231509382D

 29 31  0  0  0  0            999 V2000
   -0.0835    0.1712    0.0000 C   0  0
    3.4989    0.6096    0.0000 C   0  0
   -0.0752   -0.6556    0.0000 O   0  0
    0.6305    0.5845    0.0000 C   0  0
   -0.7974    0.5845    0.0000 C   0  0
    2.0585   -1.8956    0.0000 C   0  0
    3.4864    1.4363    0.0000 O   0  0
    2.7724   -2.3048    0.0000 C   0  0
   -0.7974    1.4112    0.0000 C   0  0
   -1.5156    0.1712    0.0000 C   0  0
    2.0585   -1.0689    0.0000 C   0  0
    1.3445   -2.3090    0.0000 C   0  0
    2.7850    0.1879    0.0000 C   0  0
    2.0585    0.5970    0.0000 N   0  0
    0.6388   -1.0689    0.0000 C   0  0
    1.3528    0.1837    0.0000 C   0  0
   -2.2296    1.4112    0.0000 C   0  0
    4.2129    0.2004    0.0000 O   0  0
    1.3445   -0.6556    0.0000 C   0  0
    0.6305   -1.8956    0.0000 C   0  0
   -2.2296    0.5845    0.0000 C   0  0
   -1.5156    1.8246    0.0000 C   0  0
   -2.9519    1.8246    0.0000 F   0  0
    3.4864   -1.8956    0.0000 C   0  0
    2.7724   -3.1357    0.0000 C   0  0
    2.0585    1.4237    0.0000 C   0  0
    3.4864   -3.5490    0.0000 C   0  0
    4.2004   -2.3048    0.0000 C   0  0
    4.2004   -3.1357    0.0000 C   0  0
  2 13  1  0
  3  1  1  0
  4  1  1  0
  5  1  1  0
  6 12  2  0
  7  2  2  0
  8  6  1  0
  9  5  1  0
 10  5  2  0
 11 19  2  0
 12 20  1  0
 13 14  1  0
 14 16  1  0
 15  3  1  0
 16  4  1  0
 17 21  2  0
 18  2  1  0
 19 15  1  0
 20 15  2  0
 21 10  1  0
 22  9  2  0
 23 17  1  0
 24  8  1  0
 25  8  2  0
 26 14  1  0
 27 25  1  0
 28 24  2  0
 29 27  2  0
 22 17  1  0
 11  6  1  0
 28 29  1  0
M  END