
          05080814042D 1   1.00000     0.00000     0

 40 44  0     1  0            999 V2000
   -5.0315   -8.7780    0.0000 C   0  0  0  0  0  0           0  0  0
   -5.7423   -9.1929    0.0000 C   0  0  0  0  0  0           0  0  0
   -5.7353  -10.0192    0.0000 C   0  0  0  0  0  0           0  0  0
   -5.0214  -10.4227    0.0000 C   0  0  0  0  0  0           0  0  0
   -4.3182   -9.1852    0.0000 C   0  0  0  0  0  0           0  0  0
   -4.3122  -10.0129    0.0000 C   0  0  0  0  0  0           0  0  0
   -3.5964  -10.4192    0.0000 C   0  0  0  0  0  0           0  0  0
   -3.6085   -8.7639    0.0000 C   0  0  0  0  0  0           0  0  0
   -2.8880   -9.1747    0.0000 C   0  0  2  0  0  0           0  0  0
   -2.8835  -10.0043    0.0000 C   0  0  2  0  0  0           0  0  0
   -2.1667  -10.4130    0.0000 N   0  0  3  0  0  0           0  0  0
   -1.4499   -9.9965    0.0000 C   0  0  0  0  0  0           0  0  0
   -1.4544   -9.1669    0.0000 C   0  0  1  0  0  0           0  0  0
   -2.1758   -8.7537    0.0000 C   0  0  0  0  0  0           0  0  0
   -2.8958   -8.3458    0.0000 H   0  0  0  0  0  0           0  0  0
   -2.8917  -10.8292    0.0000 H   0  0  0  0  0  0           0  0  0
   -0.7418   -8.7512    0.0000 C   0  0  0  0  0  0           0  0  0
   -0.0255   -9.1605    0.0000 N   0  0  3  0  0  0           0  0  0
   -0.7455   -7.9262    0.0000 O   0  0  0  0  0  0           0  0  0
   -0.0278   -9.9887    0.0000 C   0  0  0  0  0  0           0  0  0
    0.6844  -10.3979    0.0000 C   0  0  0  0  0  0           0  0  0
    1.3995   -9.9857    0.0000 N   0  0  3  0  0  0           0  0  0
    1.3978   -9.1597    0.0000 C   0  0  0  0  0  0           0  0  0
    0.6810   -8.7460    0.0000 C   0  0  0  0  0  0           0  0  0
   -5.0355   -7.9530    0.0000 O   0  0  0  0  0  0           0  0  0
   -5.7520   -7.5439    0.0000 C   0  0  0  0  0  0           0  0  0
   -2.1633  -11.2379    0.0000 C   0  0  0  0  0  0           0  0  0
    2.1142  -10.3977    0.0000 C   0  0  0  0  0  0           0  0  0
    2.1103  -11.2219    0.0000 C   0  0  0  0  0  0           0  0  0
    2.8242  -11.6338    0.0000 C   0  0  0  0  0  0           0  0  0
    3.5394  -11.2208    0.0000 C   0  0  0  0  0  0           0  0  0
    3.5362  -10.3915    0.0000 C   0  0  0  0  0  0           0  0  0
    2.8217   -9.9833    0.0000 C   0  0  0  0  0  0           0  0  0
    2.8172   -9.1584    0.0000 S   0  0  3  0  0  0           0  0  0
    2.8125   -8.3333    0.0000 C   0  0  0  0  0  0           0  0  0
    3.6422   -9.1538    0.0000 O   0  0  0  0  0  0           0  0  0
    1.9922   -9.1630    0.0000 O   0  0  0  0  0  0           0  0  0
    4.2567  -11.6341    0.0000 N   0  3  0  0  0  0           0  0  0
    4.9703  -11.2202    0.0000 O   0  0  0  0  0  0           0  0  0
    4.2583  -12.4591    0.0000 O   0  5  0  0  0  0           0  0  0
 17 19  2  0     0  0
 18 20  1  0     0  0
  9 10  1  0     0  0
  3  4  2  0     0  0
  4  6  1  0     0  0
  5  6  2  0     0  0
  1  2  2  0     0  0
 18 24  1  0     0  0
 20 21  1  0     0  0
 21 22  1  0     0  0
 22 23  1  0     0  0
 23 24  1  0     0  0
  5  1  1  0     0  0
  1 25  1  0     0  0
  2  3  1  0     0  0
 25 26  1  0     0  0
  9 14  1  0     0  0
 11 27  1  0     0  0
 10 11  1  0     0  0
 22 28  1  0     0  0
 11 12  1  0     0  0
 28 29  2  0     0  0
 12 13  1  0     0  0
 29 30  1  0     0  0
 13 14  1  0     0  0
 30 31  2  0     0  0
 31 32  1  0     0  0
  9 15  1  6     0  0
 32 33  2  0     0  0
 33 28  1  0     0  0
  5  8  1  0     0  0
 33 34  1  0     0  0
 10 16  1  1     0  0
 34 35  1  0     0  0
  6  7  1  0     0  0
 34 36  2  0     0  0
 13 17  1  1     0  0
 34 37  2  0     0  0
  7 10  1  0     0  0
 17 18  1  0     0  0
  9  8  1  0     0  0
 38 39  2  0     0  0
 38 40  1  0     0  0
 31 38  1  0     0  0
M  CHG  2  38   1  40  -1
M  END