
  SciTegic07101214422D

 39 42  0  0  0  0            999 V2000
   -5.4098   -0.8458    0.0000 C   0  0
   -5.4109   -1.6732    0.0000 C   0  0
   -4.6961   -2.0860    0.0000 C   0  0
   -3.9797   -1.6727    0.0000 C   0  0
   -4.6979   -0.4330    0.0000 C   0  0
   -3.9862   -0.8439    0.0000 C   0  0
   -3.9939    0.7975    0.0000 C   0  0
   -4.7006    0.3843    0.0000 N   0  0
   -3.2775    0.3885    0.0000 C   0  0
   -3.2723   -0.4348    0.0000 N   0  0
   -2.4877   -0.6843    0.0000 C   0  0
   -2.0079   -0.0152    0.0000 N   0  0
   -2.4961    0.6477    0.0000 N   0  0
   -2.2279   -1.4674    0.0000 O   0  0
   -3.9982    1.6225    0.0000 N   0  0
   -3.2859    2.0386    0.0000 C   0  0
   -3.2901    2.8636    0.0000 O   0  0
   -2.5693    1.6298    0.0000 C   0  0
   -1.1853   -0.0094    0.0000 C   0  0
   -0.7689   -0.7229    0.0000 C   0  0
    0.0553   -0.7180    0.0000 C   0  0
    0.4641   -0.0004    0.0000 C   0  0
    0.0426    0.7138    0.0000 C   0  0
   -0.7802    0.7054    0.0000 C   0  0
    1.2891    0.0059    0.0000 O   0  0
    1.7070   -0.7054    0.0000 C   0  0
   -1.8569    2.0460    0.0000 C   0  0
   -1.1403    1.6372    0.0000 C   0  0
   -0.4280    2.0534    0.0000 N   0  0
   -1.1361    0.8122    0.0000 O   0  0
    0.2886    1.6446    0.0000 C   0  0
    1.0009    2.0608    0.0000 C   0  0
    1.7175    1.6520    0.0000 O   0  0
    2.4298    2.0681    0.0000 C   0  0
    3.1464    1.6593    0.0000 C   0  0
    3.8588    2.0755    0.0000 O   0  0
    4.5753    1.6667    0.0000 C   0  0
    5.2877    2.0829    0.0000 C   0  0
    6.0043    1.6741    0.0000 N   0  0
  8  5  1  0
  9 10  1  0
 19 20  2  0
  4  6  1  0
 20 21  1  0
  5  1  1  0
 21 22  2  0
 22 23  1  0
  2  3  1  0
 23 24  2  0
 24 19  1  0
 12 19  1  0
  5  6  2  0
 22 25  1  0
 10 11  1  0
 25 26  1  0
 11 12  1  0
 18 27  1  0
 12 13  1  0
 27 28  1  0
 13  9  2  0
 28 29  1  0
  6 10  1  0
 28 30  2  0
 11 14  2  0
 29 31  1  0
  1  2  2  0
 31 32  1  0
  7 15  1  0
 32 33  1  0
  9  7  1  0
 33 34  1  0
 15 16  1  0
 34 35  1  0
  3  4  2  0
 35 36  1  0
 16 17  2  0
 36 37  1  0
  7  8  2  0
 37 38  1  0
 16 18  1  0
 38 39  1  0
M  END