
  SciTegic12201612172D

116122  0  0  0  0            999 V2000
    1.4208  -15.5838    0.0000 O   0  0
    1.9250  -14.4948    0.0000 C   0  0
    1.0613  -13.2684    0.0000 C   0  0
    1.6916  -11.9073    0.0000 C   0  0
    1.0006  -10.9262    0.0000 C   0  0
    3.4190  -14.3601    0.0000 C   0  0
    4.0492  -12.9989    0.0000 C   0  0
    5.2444  -12.8911    0.0000 C   0  0
    3.1856  -11.7724    0.0000 C   0  0
    3.8134  -10.4092    0.0000 C   0  0
    2.9475   -9.1834    0.0000 C   0  0  2  0  0  0
    1.7526   -9.2932    0.0000 N   0  0
    3.5754   -7.8202    0.0000 C   0  0
    2.7095   -6.5943    0.0000 N   0  0
    3.3373   -5.2311    0.0000 C   0  0  2  0  0  0
    4.8321   -5.0968    0.0000 C   0  0
    5.6966   -6.3236    0.0000 C   0  0
    7.1914   -6.1893    0.0000 C   0  0
    8.0560   -7.4161    0.0000 N   0  0
    9.5508   -7.2817    0.0000 C   0  0
   10.0550   -6.1928    0.0000 N   0  0
   10.2420   -8.2627    0.0000 N   0  0
    2.4714   -4.0052    0.0000 C   0  0
    3.0993   -2.6421    0.0000 N   0  0
    2.2325   -1.4158    0.0000 C   0  0  2  0  0  0
    2.9404    0.0000    0.0000 C   0  0
    2.2507    1.3976    0.0000 N   0  0
    3.1470    2.6032    0.0000 C   0  0
    2.5523    3.9811    0.0000 C   0  0
    3.4475    5.1857    0.0000 C   0  0
    2.8527    6.5637    0.0000 N   0  0
    3.7479    7.7683    0.0000 C   0  0  1  0  0  0
    5.2383    7.5918    0.0000 C   0  0
    5.8316    6.2132    0.0000 C   0  0
    7.3220    6.0367    0.0000 C   0  0
    7.9152    4.6581    0.0000 N   0  0
    9.4056    4.4816    0.0000 C   0  0
   10.1234    5.4433    0.0000 N   0  0
    9.8799    3.3793    0.0000 N   0  0
    3.1532    9.1462    0.0000 C   0  0
    4.0483   10.3508    0.0000 N   0  0
    3.4536   11.7288    0.0000 C   0  0  2  0  0  0
    4.3488   12.9334    0.0000 C   0  0
    3.7540   14.3114    0.0000 N   0  0
    4.6492   15.5160    0.0000 C   0  0  2  0  0  0
    4.0545   16.8939    0.0000 C   0  0
    2.5639   17.0688    0.0000 N   0  0
    1.9691   18.4467    0.0000 C   0  0  2  0  0  0
    0.4785   18.6216    0.0000 C   0  0
   -0.1163   19.9995    0.0000 N   0  0
   -1.6069   20.1743    0.0000 C   0  0  1  0  0  0
   -2.2016   21.5523    0.0000 C   0  0
   -3.6922   21.7271    0.0000 C   0  0
   -4.6618   20.6314    0.0000 C   0  0
   -6.0324   21.2473    0.0000 N   0  0
   -5.8672   22.7315    0.0000 C   0  0
   -4.4018   23.0275    0.0000 C   0  0
   -3.9075   24.4480    0.0000 C   0  0
   -4.9180   25.5831    0.0000 C   0  0
   -6.3834   25.2870    0.0000 C   0  0
   -6.8741   23.8487    0.0000 C   0  0
   -2.5057   18.9724    0.0000 C   0  0
   -3.9961   19.1489    0.0000 N   0  0
   -4.8949   17.9470    0.0000 C   0  0  2  0  0  0
   -4.3058   16.5666    0.0000 C   0  0
   -3.1144   16.4230    0.0000 N   0  0
   -5.0255   15.6064    0.0000 O   0  0
   -6.3853   18.1235    0.0000 C   0  0
   -7.2841   16.9216    0.0000 C   0  0
   -8.7745   17.0981    0.0000 C   0  0
   -9.6734   15.8962    0.0000 N   0  0
  -11.1638   16.0726    0.0000 C   0  0
  -11.6371   17.1754    0.0000 N   0  0
  -11.8824   15.1116    0.0000 N   0  0
   -2.0324   17.8697    0.0000 O   0  0
   -0.2382   17.6591    0.0000 O   0  0
    2.8630   19.6523    0.0000 C   0  0
    2.2667   21.0296    0.0000 C   0  0
    3.1606   22.2352    0.0000 C   0  0
    2.5643   23.6125    0.0000 N   0  0
    3.4581   24.8181    0.0000 C   0  0
    4.6502   24.6808    0.0000 N   0  0
    2.9814   25.9193    0.0000 N   0  0
    4.7711   17.8564    0.0000 O   0  0
    6.1404   15.3456    0.0000 C   0  0
    7.0342   16.5512    0.0000 C   0  0
    8.5248   16.3831    0.0000 C   0  0
    9.0045   15.2832    0.0000 C   0  0
    9.4157   17.5899    0.0000 C   0  0
    8.8161   18.9648    0.0000 C   0  0
    9.5288   19.9302    0.0000 O   0  0
    7.3256   19.1330    0.0000 C   0  0
    6.4346   17.9262    0.0000 C   0  0
    5.2422   18.0608    0.0000 C   0  0
    5.5407   12.7947    0.0000 O   0  0
    1.9632   11.9053    0.0000 C   0  0
    1.3699   13.2839    0.0000 C   0  0
   -0.1194   13.4625    0.0000 C   0  0
   -0.7095   14.8415    0.0000 C   0  0
    0.1897   16.0421    0.0000 C   0  0
   -0.2824   17.1453    0.0000 O   0  0
    1.6791   15.8636    0.0000 C   0  0
    2.2692   14.4846    0.0000 C   0  0
    1.9612    9.2849    0.0000 O   0  0
    4.6394    5.0471    0.0000 O   0  0
    0.7805    1.6880    0.0000 C   0  0
    0.0000    0.7623    0.0000 C   0  0
   -1.4884    1.5247    0.0000 C   0  0
   -2.8315    0.7623    0.0000 C   0  0
   -2.8315   -0.7623    0.0000 C   0  0
   -1.4884   -1.5247    0.0000 C   0  0
    0.0000   -0.7623    0.0000 C   0  0
    0.7442   -1.6517    0.0000 C   0  0
    4.1404   -0.0031    0.0000 O   0  0
    1.2765   -4.1151    0.0000 O   0  0
    4.7703   -7.7103    0.0000 O   0  0
  1  2  1  0
  2  3  1  0
  3  4  2  0
  4  5  1  0
  2  6  2  0
  6  7  1  0
  7  8  1  0
  7  9  2  0
  4  9  1  0
  9 10  1  0
 10 11  1  0
 11 12  1  6
 11 13  1  0
 13 14  1  0
 15 14  1  1
 15 16  1  0
 16 17  1  0
 17 18  1  0
 18 19  1  0
 19 20  1  0
 20 21  1  0
 20 22  2  0
 15 23  1  0
 23 24  1  0
 25 24  1  1
 25 26  1  0
 26 27  1  0
 27 28  1  0
 28 29  1  0
 29 30  1  0
 30 31  1  0
 32 31  1  6
 32 33  1  0
 33 34  1  0
 34 35  1  0
 35 36  1  0
 36 37  1  0
 37 38  1  0
 37 39  2  0
 32 40  1  0
 40 41  1  0
 42 41  1  1
 42 43  1  0
 43 44  1  0
 45 44  1  6
 45 46  1  0
 46 47  1  0
 48 47  1  6
 48 49  1  0
 49 50  1  0
 51 50  1  6
 51 52  1  0
 52 53  1  0
 53 54  2  0
 54 55  1  0
 55 56  1  0
 56 57  2  0
 53 57  1  0
 57 58  1  0
 58 59  2  0
 59 60  1  0
 60 61  2  0
 56 61  1  0
 51 62  1  0
 62 63  1  0
 64 63  1  6
 64 65  1  0
 65 66  1  0
 65 67  2  0
 64 68  1  0
 68 69  1  0
 69 70  1  0
 70 71  1  0
 71 72  1  0
 72 73  1  0
 72 74  2  0
 62 75  2  0
 49 76  2  0
 48 77  1  0
 77 78  1  0
 78 79  1  0
 79 80  1  0
 80 81  1  0
 81 82  1  0
 81 83  2  0
 46 84  2  0
 45 85  1  0
 85 86  1  0
 86 87  2  0
 87 88  1  0
 87 89  1  0
 89 90  2  0
 90 91  1  0
 90 92  1  0
 92 93  2  0
 86 93  1  0
 93 94  1  0
 43 95  2  0
 42 96  1  0
 96 97  1  0
 97 98  2  0
 98 99  1  0
 99100  2  0
100101  1  0
100102  1  0
102103  2  0
 97103  1  0
 40104  2  0
 30105  2  0
 27106  1  0
106107  1  0
107108  1  0
108109  2  0
109110  1  0
110111  2  0
107112  2  0
111112  1  0
112113  1  0
 25113  1  0
 26114  2  0
 23115  2  0
 13116  2  0
M  END