
  SciTegic01161211252D

 49 52  0  0  0  0            999 V2000
   14.0081  -15.0722    0.0000 N   0  0
   15.4344  -15.0794    0.0000 C   0  0  2  0  0  0
   14.7232  -14.6620    0.0000 C   0  0
   12.6342  -13.3790    0.0000 C   0  0
   13.3348  -13.8150    0.0000 C   0  0  2  0  0  0
   13.3113  -14.6418    0.0000 C   0  0
   16.1694  -14.7235    0.0000 C   0  0
   16.8702  -15.1554    0.0000 N   0  0
   16.1889  -13.8967    0.0000 O   0  0
   16.8422  -15.9785    0.0000 C   0  0
   17.5389  -16.4142    0.0000 C   0  0
   18.2654  -16.0227    0.0000 N   0  0
   18.2951  -15.1950    0.0000 C   0  0
   17.5900  -14.7587    0.0000 C   0  0
   18.9614  -16.4604    0.0000 C   0  0
   18.9334  -17.2883    0.0000 C   0  0
   19.6357  -17.7267    0.0000 C   0  0
   20.3625  -17.3343    0.0000 C   0  0
   20.3866  -16.5032    0.0000 C   0  0
   19.6878  -16.0727    0.0000 C   0  0
   14.0591  -13.4199    0.0000 C   0  0
   11.9100  -13.7741    0.0000 C   0  0
   11.2086  -13.3359    0.0000 C   0  0
   11.1665  -14.9898    0.0000 C   0  0
   11.8915  -14.5971    0.0000 C   0  0
   10.4608  -14.5580    0.0000 C   0  0
   10.4841  -13.7322    0.0000 N   0  0
   14.0039  -15.8994    0.0000 C   0  0
   15.4297  -14.2491    0.0000 H   0  0
   15.4303  -15.9066    0.0000 C   0  0  1  0  0  0
   14.7120  -16.3178    0.0000 C   0  0  2  0  0  0
   14.7076  -17.1393    0.0000 C   0  0
   15.4196  -17.5558    0.0000 C   0  0
   16.1378  -17.1488    0.0000 C   0  0
   16.1440  -16.3211    0.0000 C   0  0
   13.9915  -16.7224    0.0000 H   0  0
   16.1446  -15.4879    0.0000 H   0  0
   21.1157  -16.1135    0.0000 F   0  0
   21.0668  -17.7712    0.0000 F   0  0
    9.7345  -14.9521    0.0000 O   0  0
    9.7113  -15.7789    0.0000 C   0  0
   22.3702  -14.0018    0.0000 C   0  0
   21.6560  -14.4133    0.0000 C   0  0
   20.9419  -14.0018    0.0000 C   0  0
   20.2319  -14.4133    0.0000 C   0  0
   22.3702  -13.1788    0.0000 O   0  0
   23.0802  -14.4133    0.0000 O   0  0
   20.2319  -15.2364    0.0000 O   0  0
   19.5177  -14.0018    0.0000 O   0  0
 22 23  2  0
 23 27  1  0
 26 24  1  0
  4  5  1  0
 24 25  2  0
 25 22  1  0
 26 27  2  0
  1 28  1  0
  5  6  1  0
 31 28  1  0
  8 14  1  0
 10 11  1  0
  2 29  1  1
 30 31  1  0
 11 12  1  0
 12 13  1  0
 13 14  1  0
  6  1  1  0
  1  3  1  0
 15 16  2  0
 30 35  1  0
 31 32  1  0
 32 33  1  0
 33 34  1  0
 34 35  1  0
  2  7  1  0
 31 36  1  1
 16 17  1  0
 30 37  1  1
 30  2  1  0
 19 38  1  0
 17 18  2  0
 18 39  1  0
  7  8  1  0
 18 19  1  0
 40 41  1  0
 26 40  1  0
  2  3  1  0
 19 20  2  0
 20 15  1  0
 12 15  1  0
  7  9  2  0
  5 21  1  1
  8 10  1  0
  4 22  1  0
 42 43  1  0
 43 44  2  0
 44 45  1  0
 42 46  2  0
 42 47  1  0
 45 48  2  0
 45 49  1  0
M  END