
  SciTegic01161211222D

 26 27  0  0  0  0            999 V2000
   -2.7181    2.4292    0.0000 C   0  0
   -2.7193    1.6018    0.0000 C   0  0
   -2.0044    1.1890    0.0000 C   0  0
   -1.2880    1.6023    0.0000 C   0  0
   -1.2909    2.4328    0.0000 C   0  0
   -2.0062    2.8420    0.0000 C   0  0
   -2.0046    0.3640    0.0000 O   0  0
   -0.5779    2.8480    0.0000 O   0  0
    0.1381    2.4382    0.0000 C   0  0
   -3.4327    2.8415    0.0000 O   0  0
   -3.4341    1.1899    0.0000 C   0  0
   -3.4347    0.3649    0.0000 C   0  0
   -4.1495   -0.0470    0.0000 C   0  0
   -4.8636    0.3660    0.0000 C   0  0
   -4.1502   -0.8720    0.0000 C   0  0
   -0.5729    1.1909    0.0000 C   0  0
   -0.5716    0.3659    0.0000 O   0  0
    0.1409    1.6046    0.0000 C   0  0
    0.8561    1.1932    0.0000 C   0  0
    1.5699    1.6068    0.0000 C   0  0
    2.2837    1.1941    0.0000 C   0  0
    2.9970    1.6070    0.0000 C   0  0
    2.9962    2.4329    0.0000 C   0  0
    2.2760    2.8441    0.0000 C   0  0
    1.5656    2.4288    0.0000 C   0  0
    3.7094    2.8474    0.0000 O   0  0
 12 13  2  0
  1  2  2  0
 13 14  1  0
  3  7  1  0
 13 15  1  0
  3  4  2  0
  4 16  1  0
  5  8  1  0
 16 17  2  0
 16 18  1  0
  8  9  1  0
 18 19  2  0
  4  5  1  0
 19 20  1  0
  1 10  1  0
 20 21  2  0
  2  3  1  0
 21 22  1  0
  2 11  1  0
 22 23  2  0
  5  6  2  0
 23 24  1  0
 11 12  1  0
 24 25  2  0
 25 20  1  0
  6  1  1  0
 23 26  1  0
M  END