
          11280715312D 1   1.00000     0.00000     0

 21 24  0     0  0            999 V2000
    5.8500   -6.3417    0.0000 N   0  0  3  0  0  0           0  0  0
    5.8500   -5.5167    0.0000 C   0  0  0  0  0  0           0  0  0
    6.5250   -6.8292    0.0000 C   0  0  0  0  0  0           0  0  0
    6.2667   -7.6125    0.0000 C   0  0  0  0  0  0           0  0  0
    7.3250   -6.6542    0.0000 C   0  0  0  0  0  0           0  0  0
    5.1292   -5.1125    0.0000 N   0  0  0  0  0  0           0  0  0
    7.6250   -8.0500    0.0000 C   0  0  0  0  0  0           0  0  0
    7.8750   -7.2625    0.0000 C   0  0  0  0  0  0           0  0  0
    5.1917   -6.8292    0.0000 C   0  0  0  0  0  0           0  0  0
    8.2917   -8.5292    0.0000 N   0  0  0  0  0  0           0  0  0
    6.8167   -8.2167    0.0000 C   0  0  0  0  0  0           0  0  0
    8.9542   -8.0417    0.0000 C   0  0  0  0  0  0           0  0  0
    6.5625   -5.1042    0.0000 O   0  0  0  0  0  0           0  0  0
    5.4500   -7.6167    0.0000 C   0  0  0  0  0  0           0  0  0
    8.7000   -7.2542    0.0000 C   0  0  0  0  0  0           0  0  0
    3.7042   -6.7667    0.0000 N   0  0  0  0  0  0           0  0  0
    4.4167   -5.5292    0.0000 C   0  0  0  0  0  0           0  0  0
    4.4167   -6.3542    0.0000 C   0  0  0  0  0  0           0  0  0
    2.9917   -6.3542    0.0000 C   0  0  0  0  0  0           0  0  0
    3.7042   -5.1167    0.0000 C   0  0  0  0  0  0           0  0  0
    2.9917   -5.5292    0.0000 C   0  0  0  0  0  0           0  0  0
  2  1  1  0     0  0
  3  1  1  0     0  0
  4  3  2  0     0  0
  5  3  1  0     0  0
  6  2  1  0     0  0
  7  8  1  0     0  0
  8  5  2  0     0  0
  9  1  1  0     0  0
 10  7  1  0     0  0
 11  4  1  0     0  0
 12 15  2  0     0  0
 13  2  2  0     0  0
 14  9  1  0     0  0
 15  8  1  0     0  0
 16 18  1  0     0  0
 17  6  1  0     0  0
 18 17  2  0     0  0
 19 21  1  0     0  0
 20 17  1  0     0  0
 21 20  2  0     0  0
 14  4  1  0     0  0
 11  7  2  0     0  0
 10 12  1  0     0  0
 16 19  2  0     0  0
M  END