
  CDK    9/16/09,9:55

 37 40  0  0  0  0  0  0  0  0999 V2000
   14.8258   -8.2423    0.0000 C   0  0  0  0  0  0  0  0  0  0  0  0
   14.8244   -9.0700    0.0000 C   0  0  0  0  0  0  0  0  0  0  0  0
   15.5399   -9.4784    0.0000 C   0  0  0  0  0  0  0  0  0  0  0  0
   15.5378   -7.8294    0.0000 C   0  0  0  0  0  0  0  0  0  0  0  0
   16.2545   -8.2378    0.0000 C   0  0  0  0  0  0  0  0  0  0  0  0
   16.2550   -9.0700    0.0000 C   0  0  0  0  0  0  0  0  0  0  0  0
   17.0472   -9.3247    0.0000 N   0  0  0  0  0  0  0  0  0  0  0  0
   17.5340   -8.6530    0.0000 C   0  0  0  0  0  0  0  0  0  0  0  0
   17.0463   -7.9775    0.0000 N   0  0  0  0  0  0  0  0  0  0  0  0
   17.2930  -10.1070    0.0000 C   0  0  0  0  0  0  0  0  0  0  0  0
   16.7103  -10.6888    0.0000 C   0  0  0  0  0  0  0  0  0  0  0  0
   15.9157  -10.4742    0.0000 C   0  0  0  0  0  0  0  0  0  0  0  0
   15.3289  -11.0549    0.0000 C   0  0  0  0  0  0  0  0  0  0  0  0
   15.5446  -11.8548    0.0000 C   0  0  0  0  0  0  0  0  0  0  0  0
   16.3439  -12.0659    0.0000 C   0  0  0  0  0  0  0  0  0  0  0  0
   16.9223  -11.4832    0.0000 C   0  0  0  0  0  0  0  0  0  0  0  0
   14.9587  -12.4368    0.0000 C   0  0  0  0  0  0  0  0  0  0  0  0
   14.1636  -12.2236    0.0000 C   0  0  0  0  0  0  0  0  0  0  0  0
   13.5777  -12.8053    0.0000 C   0  0  0  0  0  0  0  0  0  0  0  0
   13.7945  -13.6049    0.0000 C   0  0  0  0  0  0  0  0  0  0  0  0
   14.5940  -13.8147    0.0000 C   0  0  0  0  0  0  0  0  0  0  0  0
   15.1763  -13.2313    0.0000 C   0  0  0  0  0  0  0  0  0  0  0  0
   13.9474  -11.4249    0.0000 C   0  0  0  0  0  0  0  0  0  0  0  0
   14.5343  -10.8430    0.0000 O   0  0  0  0  0  0  0  0  0  0  0  0
   13.1534  -11.2126    0.0000 O   0  0  0  0  0  0  0  0  0  0  0  0
   13.3962   -7.4173    0.0000 N   0  0  0  0  0  0  0  0  0  0  0  0
   14.5244   -7.1126    0.0000 O   0  0  0  0  0  0  0  0  0  0  0  0
   13.7046   -8.5455    0.0000 O   0  0  0  0  0  0  0  0  0  0  0  0
   14.1094   -7.8298    0.0000 S   0  0  0  0  0  0  0  0  0  0  0  0
   18.3590   -8.6537    0.0000 C   0  0  0  0  0  0  0  0  0  0  0  0
   18.7709   -9.3686    0.0000 C   0  0  0  0  0  0  0  0  0  0  0  0
   19.5959   -9.3692    0.0000 C   0  0  0  0  0  0  0  0  0  0  0  0
   20.0078  -10.0840    0.0000 C   0  0  0  0  0  0  0  0  0  0  0  0
   12.6815   -7.8292    0.0000 C   0  0  0  0  0  0  0  0  0  0  0  0
   11.9673   -7.4161    0.0000 C   0  0  0  0  0  0  0  0  0  0  0  0
   11.9680   -6.5911    0.0000 C   0  0  0  0  0  0  0  0  0  0  0  0
   11.2538   -6.1780    0.0000 C   0  0  0  0  0  0  0  0  0  0  0  0
  4  1  1  0  0  0  0 
 19 20  2  0  0  0  0 
 20 21  1  0  0  0  0 
  5  6  1  0  0  0  0 
 21 22  2  0  0  0  0 
 22 17  1  0  0  0  0 
 14 17  1  0  0  0  0 
  7 10  1  0  0  0  0 
 18 23  1  0  0  0  0 
 23 24  2  0  0  0  0 
 10 11  1  0  0  0  0 
 23 25  1  0  0  0  0 
  2  3  1  0  0  0  0 
 11 12  2  0  0  0  0 
  3  6  2  0  0  0  0 
 12 13  1  0  0  0  0 
  1  2  2  0  0  0  0 
  1 29  1  0  0  0  0 
 13 14  2  0  0  0  0 
 29 26  1  0  0  0  0 
  5  4  2  0  0  0  0 
 29 27  2  0  0  0  0 
 14 15  1  0  0  0  0 
  6  7  1  0  0  0  0 
 28 29  2  0  0  0  0 
  8 30  1  0  0  0  0 
 15 16  2  0  0  0  0 
 30 31  1  0  0  0  0 
 16 11  1  0  0  0  0 
 31 32  1  0  0  0  0 
  7  8  1  0  0  0  0 
 32 33  1  0  0  0  0 
  8  9  2  0  0  0  0 
 26 34  1  0  0  0  0 
 17 18  2  0  0  0  0 
 34 35  1  0  0  0  0 
  9  5  1  0  0  0  0 
 35 36  1  0  0  0  0 
 18 19  1  0  0  0  0 
 36 37  1  0  0  0  0 
M  END