
  SciTegic09081514162D

 18 20  0  0  0  0            999 V2000
    2.1855   -2.6254    0.0000 N   0  0
    3.6552   -2.9294    0.0000 C   0  0
    4.1277   -4.3539    0.0000 C   0  0
    5.3028   -4.5970    0.0000 O   0  0
   -2.3155    0.7475    0.0000 C   0  0
   -2.3155   -0.7475    0.0000 C   0  0
   -1.0028   -1.5132    0.0000 N   0  0
   -1.0028    1.5132    0.0000 C   0  0
    0.2917    0.7475    0.0000 C   0  0
    0.2917   -0.7475    0.0000 C   0  0
    1.7138   -1.2033    0.0000 C   0  0
    2.5889    0.0182    0.0000 S   0  0
    1.7138    1.2033    0.0000 N   0  0
   -3.6168    1.4950    0.0000 C   0  0
   -3.7580    2.9756    0.0000 C   0  0
   -5.2259    3.2843    0.0000 S   0  0
   -5.9730    1.9836    0.0000 C   0  0
   -4.9669    0.8711    0.0000 C   0  0
  1  2  1  0
  2  3  1  0
  3  4  1  0
  5  6  1  0
  6  7  2  0
  7 10  1  0
  9  8  1  0
  8  5  2  0
  9 10  1  0
 10 11  2  0
 11 12  1  0
 12 13  1  0
 13  9  2  0
 11  1  1  0
  5 14  1  0
 14 15  2  0
 15 16  1  0
 16 17  1  0
 17 18  2  0
 18 14  1  0
M  END