
  SciTegic12131615192D

 21 22  0  0  0  0            999 V2000
    1.2990   -0.7500    0.0000 N   0  0
    1.2990    0.7500    0.0000 C   0  0
    0.0000   -1.5000    0.0000 C   0  0
    0.0000    1.5000    0.0000 N   0  0
    2.3383    1.3500    0.0000 O   0  0
   -1.2990   -0.7500    0.0000 C   0  0
   -1.2990    0.7500    0.0000 C   0  0
   -2.3383    1.3500    0.0000 O   0  0
    2.5973   -1.5031    0.0000 C   0  0
    2.5951   -3.0039    0.0000 C   0  0
    3.8933   -3.7570    0.0000 N   0  0
    3.8912   -5.2578    0.0000 C   0  0
    5.1894   -6.0109    0.0000 C   0  0
    2.8509   -5.8560    0.0000 O   0  0
    6.4886   -5.2610    0.0000 C   0  0
    7.7876   -6.0110    0.0000 C   0  0
    7.7875   -7.5110    0.0000 C   0  0
    6.4885   -8.2610    0.0000 C   0  0
    5.1895   -7.5109    0.0000 C   0  0
    3.8912   -8.2640    0.0000 N   0  0
    3.8930   -9.4640    0.0000 C   0  0
  1  2  1  0
  1  3  1  0
  2  4  1  0
  2  5  2  0
  3  6  2  0
  4  7  1  0
  7  8  2  0
  6  7  1  0
  1  9  1  0
  9 10  1  0
 10 11  1  0
 11 12  1  0
 12 13  1  0
 12 14  2  0
 13 15  2  0
 15 16  1  0
 16 17  2  0
 17 18  1  0
 18 19  2  0
 19 13  1  0
 19 20  1  0
 20 21  1  0
M  END