
  SciTegic01161211252D

 24 27  0  0  0  0            999 V2000
   -0.3903   -2.9531    0.0000 N   0  0
    0.4106   -2.7752    0.0000 C   0  0
    1.0565   -3.2913    0.0000 C   0  0
   -0.7510   -3.6983    0.0000 C   0  0
    1.0582   -4.1147    0.0000 N   0  0
   -0.3932   -4.4430    0.0000 C   0  0
    0.4122   -4.6255    0.0000 C   0  0
    1.7719   -4.5281    0.0000 C   0  0
    1.7699   -5.3529    0.0000 O   0  0
    2.4869   -4.1180    0.0000 C   0  0  2  0  0  0
    3.1573   -4.5931    0.0000 N   0  0
    3.8174   -4.0984    0.0000 C   0  0
    3.5510   -3.3178    0.0000 C   0  0  2  0  0  0
    2.7263   -3.3300    0.0000 C   0  0
    4.0264   -2.6431    0.0000 O   0  0
   -0.9571   -2.3542    0.0000 C   0  0
   -0.9350   -1.5302    0.0000 C   0  0
   -1.7599   -1.5081    0.0000 C   0  0
   -1.7819   -2.3328    0.0000 C   0  0
    3.5403   -1.9766    0.0000 C   0  0
    3.7946   -1.1903    0.0000 C   0  0
    3.1258   -0.7061    0.0000 S   0  0
    2.4591   -1.1938    0.0000 C   0  0
    2.7183   -1.9779    0.0000 C   0  0
  1  2  1  0
  5  7  1  0
 11 12  1  0
 12 13  1  0
 13 14  1  0
 14 10  1  0
  6  7  1  0
 13 15  1  6
  1  4  1  0
  1 16  1  0
 16 17  1  0
  5  8  1  0
  8  9  2  0
 17 18  1  0
 18 19  1  0
 19 16  1  0
  3  5  1  0
 15 20  1  0
 21 22  1  0
 10  8  1  1
 10 11  1  0
  2  3  1  0
  4  6  1  0
 20 21  2  0
 22 23  1  0
 23 24  2  0
 24 20  1  0
M  END