
          11280715082D 1   1.00000     0.00000     0

 23 25  0     0  0            999 V2000
   -2.8333   -2.7042    0.0000 C   0  0  0  0  0  0           0  0  0
   -0.6875   -2.2917    0.0000 C   0  0  0  0  0  0           0  0  0
    0.0000   -1.8250    0.0000 C   0  0  0  0  0  0           0  0  0
   -2.8333   -3.5292    0.0000 C   0  0  0  0  0  0           0  0  0
    2.7500    0.0375    0.0000 C   0  0  0  0  0  0           0  0  0
   -3.5458   -3.9417    0.0000 C   0  0  3  0  0  0           0  0  0
   -3.5458   -2.2917    0.0000 N   0  0  0  0  0  0           0  0  0
   -2.1208   -3.9417    0.0000 C   0  0  0  0  0  0           0  0  0
    2.0667   -0.4292    0.0000 C   0  0  0  0  0  0           0  0  0
   -2.1208   -2.2917    0.0000 C   0  0  0  0  0  0           0  0  0
   -1.4000   -2.7042    0.0000 C   0  0  0  0  0  0           0  0  0
    2.6875    0.8583    0.0000 O   0  0  0  0  0  0           0  0  0
    0.6917   -1.3542    0.0000 C   0  0  0  0  0  0           0  0  0
    1.3125   -0.0667    0.0000 C   0  0  0  0  0  0           0  0  0
    2.1250   -1.2542    0.0000 C   0  0  0  0  0  0           0  0  0
   -1.4000   -3.5292    0.0000 C   0  0  0  0  0  0           0  0  0
    3.4917   -0.3250    0.0000 O   0  0  0  0  0  0           0  0  0
   -4.2583   -2.7042    0.0000 C   0  0  0  0  0  0           0  0  0
    1.4375   -1.7250    0.0000 C   0  0  0  0  0  0           0  0  0
    0.6292   -0.5292    0.0000 C   0  0  0  0  0  0           0  0  0
   -4.2583   -3.5292    0.0000 C   0  0  0  0  0  0           0  0  0
   -4.3458   -4.1625    0.0000 C   0  0  0  0  0  0           0  0  0
   -2.9583   -4.5292    0.0000 C   0  0  0  0  0  0           0  0  0
  2 11  1  0     0  0
  3  2  3  0     0  0
  4  1  2  0     0  0
  5  9  1  0     0  0
  6  4  1  0     0  0
  7  1  1  0     0  0
  8  4  1  0     0  0
  9 14  1  0     0  0
 10  1  1  0     0  0
 11 10  2  0     0  0
 12  5  2  0     0  0
 13  3  1  0     0  0
 14 20  2  0     0  0
 15 19  1  0     0  0
 16 11  1  0     0  0
 17  5  1  0     0  0
 18  7  1  0     0  0
 19 13  2  0     0  0
 20 13  1  0     0  0
 21 18  1  0     0  0
 22  6  1  0     0  0
 23  6  1  0     0  0
  8 16  2  0     0  0
  6 21  1  0     0  0
 15  9  2  0     0  0
M  END