
  Mrv0541 04051115152D          

 16 17  0  0  0  0            999 V2000
   -1.2110   -0.2566    0.0000 N   0  0  0  0  0  0  0  0  0  0  0  0
   -1.6959    0.4108    0.0000 C   0  0  0  0  0  0  0  0  0  0  0  0
   -1.2110    1.0783    0.0000 N   0  0  0  0  0  0  0  0  0  0  0  0
   -0.4264    0.8233    0.0000 C   0  0  0  0  0  0  0  0  0  0  0  0
   -0.4264   -0.0017    0.0000 C   0  0  0  0  0  0  0  0  0  0  0  0
    0.2881   -0.4142    0.0000 N   0  0  0  0  0  0  0  0  0  0  0  0
    1.0026   -0.0017    0.0000 C   0  0  0  0  0  0  0  0  0  0  0  0
    1.0026    0.8233    0.0000 N   0  0  0  0  0  0  0  0  0  0  0  0
    0.2881    1.2358    0.0000 C   0  0  0  0  0  0  0  0  0  0  0  0
    0.2881    2.0608    0.0000 O   0  0  0  0  0  0  0  0  0  0  0  0
    1.7170   -0.4142    0.0000 O   0  0  0  0  0  0  0  0  0  0  0  0
    1.7170    1.2358    0.0000 C   0  0  0  0  0  0  0  0  0  0  0  0
    0.2881   -1.2392    0.0000 C   0  0  0  0  0  0  0  0  0  0  0  0
   -0.4264   -1.6517    0.0000 C   0  0  0  0  0  0  0  0  0  0  0  0
   -0.4264   -2.4767    0.0000 C   0  0  0  0  0  0  0  0  0  0  0  0
   -1.1409   -1.2392    0.0000 C   0  0  0  0  0  0  0  0  0  0  0  0
  2  1  1  0  0  0  0
  5  1  1  0  0  0  0
  2  3  2  0  0  0  0
  4  3  1  0  0  0  0
  5  4  2  0  0  0  0
  4  9  1  0  0  0  0
  5  6  1  0  0  0  0
  7  6  1  0  0  0  0
 13  6  1  0  0  0  0
  7  8  1  0  0  0  0
  7 11  2  0  0  0  0
  9  8  1  0  0  0  0
 12  8  1  0  0  0  0
  9 10  2  0  0  0  0
 13 14  1  0  0  0  0
 14 15  1  0  0  0  0
 14 16  1  0  0  0  0
M  END