
  SciTegic06051315212D

 22 24  0  0  0  0            999 V2000
    3.8286  -29.5097    0.0000 N   0  0
    3.1151  -29.1011    0.0000 C   0  0
    4.5422  -29.0970    0.0000 C   0  0
    4.5422  -28.2756    0.0000 C   0  0
    3.8286  -27.8670    0.0000 C   0  0
    3.1151  -28.2756    0.0000 C   0  0
    2.4057  -27.8670    0.0000 C   0  0
    1.6922  -28.2756    0.0000 C   0  0
    1.6922  -29.1011    0.0000 C   0  0
    2.4057  -29.5097    0.0000 C   0  0
    5.2525  -29.5020    0.0000 C   0  0
    5.9604  -29.0914    0.0000 C   0  0
    6.6677  -29.4990    0.0000 C   0  0
    6.6685  -30.3171    0.0000 C   0  0
    5.9560  -30.7258    0.0000 C   0  0
    5.2515  -30.3158    0.0000 C   0  0
    0.9852  -27.8658    0.0000 Cl  0  0
    5.2492  -27.8658    0.0000 C   0  0
    5.2477  -27.0486    0.0000 N   0  0
    5.9547  -26.6388    0.0000 C   0  0
    4.5393  -26.6413    0.0000 C   0  0
    3.8286  -27.0499    0.0000 O   0  0
 10  2  1  0
  2  6  2  0
  2  1  1  0
  1  3  1  0
  3  4  2  0
  4  5  1  0
  5  6  1  0
  6  7  1  0
  7  8  2  0
  8  9  1  0
  9 10  2  0
 11 12  2  0
 12 13  1  0
 13 14  2  0
 14 15  1  0
 15 16  2  0
 16 11  1  0
  3 11  1  0
  8 17  1  0
  4 18  1  0
 18 19  1  0
 19 20  1  0
 19 21  1  0
  5 22  2  0
M  END