
  SciTegic12201612092D

 29 32  0  0  0  0            999 V2000
   -2.3155    0.7475    0.0000 C   0  0
   -2.3155   -0.7475    0.0000 C   0  0
   -1.0028   -1.5132    0.0000 C   0  0
   -1.0028    1.5132    0.0000 C   0  0
    0.2917    0.7475    0.0000 C   0  0
    0.2917   -0.7475    0.0000 C   0  0
    1.7138   -1.2033    0.0000 N   0  0
    2.5889    0.0182    0.0000 C   0  0
    1.7138    1.2033    0.0000 C   0  0
    2.1855   -2.6254    0.0000 C   0  0
    1.3877   -3.5218    0.0000 C   0  0
    3.3606   -2.8684    0.0000 O   0  0
    2.1749    2.6315    0.0000 C   0  0
    1.3751    3.8801    0.0000 C   0  0
    2.3406    5.0280    0.0000 N   0  0
    3.7308    4.4644    0.0000 N   0  0
    3.6243    2.9682    0.0000 C   0  0
    4.5369    2.1890    0.0000 C   0  0
    0.1776    3.9578    0.0000 O   0  0
    5.0006    5.2595    0.0000 C   0  0
    6.0605    4.6968    0.0000 O   0  0
    4.9479    6.7594    0.0000 C   0  0
    6.2181    7.5573    0.0000 C   0  0
    6.1623    9.0563    0.0000 C   0  0
    4.8363    9.7575    0.0000 C   0  0
    3.5660    8.9597    0.0000 C   0  0
    3.6218    7.4607    0.0000 C   0  0
    4.7774   11.2571    0.0000 O   0  0
    3.7158   11.8166    0.0000 C   0  0
  1  2  2  0
  2  3  1  0
  3  6  2  0
  5  4  2  0
  4  1  1  0
  5  6  1  0
  6  7  1  0
  7  8  1  0
  8  9  2  0
  9  5  1  0
  7 10  1  0
 10 11  1  0
 10 12  2  0
  9 13  1  0
 13 14  1  0
 14 15  1  0
 15 16  1  0
 16 17  1  0
 17 13  2  0
 17 18  1  0
 14 19  2  0
 16 20  1  0
 20 21  2  0
 20 22  1  0
 22 23  2  0
 23 24  1  0
 24 25  2  0
 25 26  1  0
 26 27  2  0
 27 22  1  0
 25 28  1  0
 28 29  1  0
M  END