
          11280715302D 1   1.00000     0.00000     0

 30 33  0     0  0            999 V2000
   -0.2708   -2.7042    0.0000 C   0  0  0  0  0  0           0  0  0
   -0.3000   -3.3042    0.0000 C   0  0  0  0  0  0           0  0  0
    0.2542   -2.4375    0.0000 C   0  0  0  0  0  0           0  0  0
    1.7667   -3.4167    0.0000 N   0  0  3  0  0  0           0  0  0
   -0.8833   -3.4667    0.0000 O   0  0  0  0  0  0           0  0  0
    2.8375   -2.8750    0.0000 N   0  0  3  0  0  0           0  0  0
    0.1917   -3.6292    0.0000 C   0  0  0  0  0  0           0  0  0
    0.7292   -3.3542    0.0000 C   0  0  3  0  0  0           0  0  0
   -0.8333   -2.4917    0.0000 C   0  0  0  0  0  0           0  0  0
    0.7625   -2.7625    0.0000 C   0  0  0  0  0  0           0  0  0
   -1.2083   -2.9667    0.0000 C   0  0  0  0  0  0           0  0  0
    5.4500   -2.7250    0.0000 C   0  0  0  0  0  0           0  0  0
    5.9500   -3.0542    0.0000 C   0  0  0  0  0  0           0  0  0
    0.2875   -1.8375    0.0000 O   0  0  0  0  0  0           0  0  0
    1.2292   -3.6875    0.0000 C   0  0  0  0  0  0           0  0  0
    5.4792   -2.1250    0.0000 O   0  0  0  0  0  0           0  0  0
    5.9125   -3.6542    0.0000 C   0  0  0  0  0  0           0  0  0
    6.4792   -2.7792    0.0000 C   0  0  0  0  0  0           0  0  0
    1.7917   -2.8167    0.0000 C   0  0  0  0  0  0           0  0  0
    2.2667   -3.7417    0.0000 C   0  0  0  0  0  0           0  0  0
    2.8042   -3.4750    0.0000 C   0  0  0  0  0  0           0  0  0
    2.3292   -2.5500    0.0000 C   0  0  0  0  0  0           0  0  0
    6.9500   -3.7125    0.0000 C   0  0  0  0  0  0           0  0  0
    6.9792   -3.1042    0.0000 C   0  0  0  0  0  0           0  0  0
    6.4125   -3.9792    0.0000 C   0  0  0  0  0  0           0  0  0
    7.4542   -4.0375    0.0000 F   0  0  0  0  0  0           0  0  0
    3.3667   -2.6042    0.0000 C   0  0  0  0  0  0           0  0  0
    4.9125   -2.9917    0.0000 C   0  0  0  0  0  0           0  0  0
    3.8750   -2.9375    0.0000 C   0  0  0  0  0  0           0  0  0
    4.4042   -2.6667    0.0000 C   0  0  0  0  0  0           0  0  0
  2  1  2  0     0  0
  3  1  1  0     0  0
  4 15  1  0     0  0
  5  2  1  0     0  0
  6 21  1  0     0  0
  7  2  1  0     0  0
  8 10  1  0     0  0
  9  1  1  0     0  0
 10  3  1  0     0  0
 11  9  2  0     0  0
 12 28  1  0     0  0
 13 12  1  0     0  0
 14  3  2  0     0  0
 15  8  1  0     0  0
 16 12  2  0     0  0
 17 13  2  0     0  0
 18 13  1  0     0  0
 19  4  1  0     0  0
 20  4  1  0     0  0
 21 20  1  0     0  0
 22 19  1  0     0  0
 23 24  1  0     0  0
 24 18  2  0     0  0
 25 17  1  0     0  0
 26 23  1  0     0  0
 27  6  1  0     0  0
 28 30  1  0     0  0
 29 27  1  0     0  0
 30 29  1  0     0  0
  5 11  1  0     0  0
  8  7  1  0     0  0
 22  6  1  0     0  0
 23 25  2  0     0  0
M  END