
  SciTegic07121117002D

 17 20  0  0  0  0            999 V2000
   -0.4762   -1.8994    0.0000 O   0  0
   -0.7829    1.4327    0.0000 N   0  0
   -1.6079    1.4327    0.0000 N   0  0
   -1.1954    0.1631    0.0000 C   0  0
   -0.4776    0.5756    0.0000 C   0  0
   -1.1954   -0.6619    0.0000 C   0  0
    0.2349    0.1631    0.0000 C   0  0
    0.2349   -0.6619    0.0000 C   0  0
   -1.9079    0.5756    0.0000 C   0  0
   -0.4776   -1.0744    0.0000 C   0  0
   -1.9079   -1.0744    0.0000 C   0  0
   -2.6204    0.1631    0.0000 C   0  0
    0.9494    0.5756    0.0000 C   0  0
    0.9494   -1.0744    0.0000 C   0  0
   -2.6204   -0.6619    0.0000 C   0  0
    1.6639    0.1631    0.0000 C   0  0
    1.6639   -0.6619    0.0000 C   0  0
  1 10  1  0
  2  3  2  0
  2  5  1  0
  3  9  1  0
  4  5  2  0
  4  6  1  0
  4  9  1  0
  5  7  1  0
  6 10  2  0
  6 11  1  0
  7  8  1  0
  7 13  2  0
  8 10  1  0
  8 14  2  0
  9 12  2  0
 11 15  2  0
 12 15  1  0
 13 16  1  0
 14 17  1  0
 16 17  2  0
M  END