
  SciTegic11201309402D

 84 88  0  0  1  0            999 V2000
    2.9885   -4.2877    0.0000 N   0  0
    3.6828   -4.7340    0.0000 C   0  0
    9.1176   -4.3637    0.0000 N   0  0
    4.4167   -4.3637    0.0000 C   0  0  1  0  0  0
    7.9672   -5.5142    0.0000 C   0  0
    4.9026   -5.0282    0.0000 N   0  0
    7.1837   -5.7655    0.0000 N   0  0
    6.3572   -0.5587    0.0000 C   0  0
    7.1837   -0.5587    0.0000 N   0  0
    9.1176   -1.9670    0.0000 N   0  0
    9.3755   -3.5737    0.0000 C   0  0
    5.5737   -5.5142    0.0000 C   0  0
    8.6316   -1.2992    0.0000 C   0  0
    2.0067   -5.3787    0.0000 C   0  0
   12.4598    0.0859    0.0000 N   0  3
    8.6316   -5.0282    0.0000 C   0  0  2  0  0  0
    6.3572   -5.7655    0.0000 C   0  0  2  0  0  0
    2.2215   -4.5819    0.0000 C   0  0  2  0  0  0
    5.5737   -0.8132    0.0000 C   0  0
    9.3755   -2.7505    0.0000 C   0  0  2  0  0  0
    7.9672   -0.8132    0.0000 C   0  0  2  0  0  0
    1.5802   -6.9754    0.0000 C   0  0
    2.5918   -5.9638    0.0000 N   0  0
    1.3686   -7.7688    0.0000 N   0  0
    6.2283   -6.5853    0.0000 C   0  0
   13.2830    0.0760    0.0000 N   0  5
    0.5686   -7.9837    0.0000 C   0  0  1  0  0  0
    0.3570   -8.7804    0.0000 C   0  0
    5.4580   -6.8762    0.0000 C   0  0
   11.6367    0.0958    0.0000 N   0  0
    2.3802   -6.7572    0.0000 C   0  0  1  0  0  0
    4.1654   -2.7505    0.0000 S   0  0
    4.4167   -1.9670    0.0000 S   0  0
    3.6431   -5.5572    0.0000 O   0  0
    8.3407   -6.2514    0.0000 O   0  0
    1.2133   -5.5935    0.0000 O   0  0
    6.2283    0.2545    0.0000 O   0  0
   10.1887   -3.7026    0.0000 O   0  0
    9.2168   -0.7174    0.0000 O   0  0
    5.1968   -6.2514    0.0000 O   0  0
    4.1654   -3.5737    0.0000 C   0  0
    8.3407   -0.0728    0.0000 C   0  0
   10.1887   -2.6216    0.0000 C   0  0
    0.9951   -6.3903    0.0000 O   0  0
   -0.0165   -7.4019    0.0000 C   0  0
   -0.4430   -8.9953    0.0000 O   0  0
    5.3291   -7.6961    0.0000 O   0  0
    0.9422   -9.3655    0.0000 N   0  0
    4.9026   -1.2992    0.0000 C   0  0
    9.2168   -5.6134    0.0000 C   0  0
    2.9489   -3.4646    0.0000 C   0  0
   10.8135    0.0496    0.0000 C   0  0
    4.8134   -6.3605    0.0000 N   0  0
    9.1672   -0.0331    0.0000 C   0  0
   -0.8099   -7.6101    0.0000 C   0  0
   -2.4001   -8.0432    0.0000 C   0  0
   10.7110   -3.2629    0.0000 C   0  0
    5.1968   -0.0728    0.0000 C   0  0
    5.9440   -1.5505    0.0000 C   0  0
   10.4366   -0.6843    0.0000 C   0  0
   10.3639    0.7405    0.0000 C   0  0
    9.6135   -0.7273    0.0000 C   0  0
   -1.3885   -7.0316    0.0000 C   0  0
    9.5407    0.7008    0.0000 C   0  0
   -1.0182   -8.4101    0.0000 C   0  0
    3.7026  -10.1060    0.0000 N   0  0
   -1.8116   -8.6283    0.0000 C   0  0
   -2.1885   -7.2432    0.0000 C   0  0
    1.6992   -3.9406    0.0000 C   0  0
   -3.2001   -8.2548    0.0000 O   0  0
    2.1521   -3.2464    0.0000 C   0  0
    2.9588   -7.3424    0.0000 C   0  0
    3.1175   -9.5209    0.0000 C   0  0
    9.0052   -6.4101    0.0000 C   0  0
   10.0168   -5.3985    0.0000 C   0  0
   10.4135   -4.0299    0.0000 C   0  0
   11.5243   -3.1340    0.0000 C   0  0
    5.4977   -2.2414    0.0000 C   0  0
    4.3737   -0.0331    0.0000 C   0  0
    2.7472   -8.1424    0.0000 C   0  0
    3.3323   -8.7209    0.0000 C   0  0
   12.0433   -3.7720    0.0000 C   0  0
   10.9325   -4.6745    0.0000 C   0  0
   11.7458   -4.5456    0.0000 C   0  0
  2  1  1  0
  3 16  1  0
  4  2  1  6
  5  7  1  0
  6  4  1  0
  7 17  1  0
  8 19  1  0
  9  8  1  0
 10 13  1  0
 11  3  1  0
 12  6  1  0
 13 21  1  0
 18 14  1  6
 15 30  2  0
 16  5  1  0
 17 12  1  0
 18  1  1  0
 19 49  1  0
 20 11  1  0
 21  9  1  0
 31 22  1  0
 23 14  1  0
 24 22  1  0
 17 25  1  1
 26 15  2  0
 27 24  1  1
 28 27  1  0
 29 25  1  0
 30 52  1  0
 31 23  1  1
 32 41  1  0
 33 32  1  0
 34  2  2  0
 35  5  2  0
 36 14  2  0
 37  8  2  0
 38 11  2  0
 39 13  2  0
 40 12  2  0
  4 41  1  0
 21 42  1  1
 20 43  1  1
 44 22  2  0
 27 45  1  0
 46 28  2  0
 47 29  2  0
 48 28  1  0
 49 33  1  0
 16 50  1  1
 51  1  1  0
 52 61  1  0
 53 29  1  0
 54 42  1  0
 55 45  1  0
 56 67  1  0
 57 43  1  0
 58 19  1  0
 59 19  1  0
 60 62  1  0
 61 64  2  0
 62 54  2  0
 63 55  2  0
 64 54  1  0
 65 55  1  0
 66 73  1  0
 67 65  2  0
 68 63  1  0
 69 18  1  0
 70 56  1  0
 71 51  1  0
 72 31  1  0
 73 81  1  0
 74 50  1  0
 75 50  1  0
 76 57  2  0
 77 57  1  0
 78 59  1  0
 79 58  1  0
 80 72  1  0
 81 80  1  0
 82 77  2  0
 83 76  1  0
 84 82  1  0
 71 69  1  0
 68 56  2  0
 10 20  1  0
 52 60  2  0
 84 83  2  0
M  CHG  2  15   1  26  -1
M  END