
  Mrv0541 04051115152D          

 13 14  0  0  0  0            999 V2000
    1.4004    0.4137    0.0000 C   0  0  0  0  0  0  0  0  0  0  0  0
    1.4004   -0.4113    0.0000 C   0  0  0  0  0  0  0  0  0  0  0  0
    0.6859   -0.8238    0.0000 C   0  0  0  0  0  0  0  0  0  0  0  0
    0.6859    0.8262    0.0000 C   0  0  0  0  0  0  0  0  0  0  0  0
   -0.8132    0.6686    0.0000 N   0  0  0  0  0  0  0  0  0  0  0  0
   -0.0285    0.4137    0.0000 C   0  0  0  0  0  0  0  0  0  0  0  0
   -0.0285   -0.4113    0.0000 C   0  0  0  0  0  0  0  0  0  0  0  0
   -0.8132   -0.6662    0.0000 N   0  0  0  0  0  0  0  0  0  0  0  0
   -1.2981    0.0012    0.0000 N   0  0  0  0  0  0  0  0  0  0  0  0
    0.6859    1.6512    0.0000 Br  0  0  0  0  0  0  0  0  0  0  0  0
    2.1149    0.8262    0.0000 Br  0  0  0  0  0  0  0  0  0  0  0  0
    2.1149   -0.8238    0.0000 Br  0  0  0  0  0  0  0  0  0  0  0  0
    0.6859   -1.6488    0.0000 Br  0  0  0  0  0  0  0  0  0  0  0  0
  1  2  2  0  0  0  0
  1  4  1  0  0  0  0
 11  1  1  0  0  0  0
  2  3  1  0  0  0  0
 12  2  1  0  0  0  0
  3  7  2  0  0  0  0
 13  3  1  0  0  0  0
  4  6  2  0  0  0  0
 10  4  1  0  0  0  0
  6  5  1  0  0  0  0
  5  9  1  0  0  0  0
  6  7  1  0  0  0  0
  7  8  1  0  0  0  0
  8  9  2  0  0  0  0
M  END