
          11280715432D 1   1.00000     0.00000     0

 18 19  0     1  0            999 V2000
    0.8000    0.4375    0.0000 C   0  0  0  0  0  0           0  0  0
    0.7750   -0.3792    0.0000 N   0  0  0  0  0  0           0  0  0
    1.5167    0.8333    0.0000 N   0  0  0  0  0  0           0  0  0
    0.0375   -1.6000    0.0000 N   0  0  0  0  0  0           0  0  0
   -0.6833   -1.9917    0.0000 C   0  0  0  0  0  0           0  0  0
    0.0417   -0.7667    0.0000 C   0  0  0  0  0  0           0  0  0
    0.1000    0.8708    0.0000 C   0  0  0  0  0  0           0  0  0
    0.1167    1.6958    0.0000 C   0  0  0  0  0  0           0  0  0
   -0.6250    0.4833    0.0000 C   0  0  0  0  0  0           0  0  0
    1.5417    1.6583    0.0000 C   0  0  0  0  0  0           0  0  0
    0.8417    2.0833    0.0000 C   0  0  0  0  0  0           0  0  0
   -0.6958   -2.8167    0.0000 O   0  0  0  0  0  0           0  0  0
   -1.3958   -1.5792    0.0000 C   0  0  1  0  0  0           0  0  0
   -0.6583   -0.3417    0.0000 C   0  0  0  0  0  0           0  0  0
   -2.1083   -1.9792    0.0000 N   0  0  0  0  0  0           0  0  0
   -0.5833    2.1458    0.0000 C   0  0  0  0  0  0           0  0  0
    2.2792    2.0583    0.0000 C   0  0  0  0  0  0           0  0  0
   -1.3833   -0.7500    0.0000 C   0  0  0  0  0  0           0  0  0
  2  1  1  0     0  0
  3  1  2  0     0  0
  4  6  1  0     0  0
  5  4  1  0     0  0
  6  2  2  0     0  0
  7  1  1  0     0  0
  8  7  2  0     0  0
  9  7  1  0     0  0
 10  3  1  0     0  0
 11  8  1  0     0  0
 12  5  2  0     0  0
 13  5  1  0     0  0
 14  9  2  0     0  0
 15 13  1  0     0  0
 16  8  1  0     0  0
 17 10  1  0     0  0
 13 18  1  1     0  0
 14  6  1  0     0  0
 11 10  2  0     0  0
M  END