
  SciTegic04091414152D

 35 40  0  0  0  0            999 V2000
    3.7686  -13.3823    0.0000 C   0  0
    7.3309  -13.3065    0.0000 N   0  3
    6.5759  -12.4708    0.0000 C   0  0
    4.7487  -13.2380    0.0000 O   0  0
    2.4357  -13.2621    0.0000 C   0  0
    2.7609  -12.5017    0.0000 C   0  0
    6.5293  -13.0946    0.0000 C   0  0
    7.9179  -12.7664    0.0000 C   0  0
    7.7284  -11.9618    0.0000 C   0  0
    3.6188  -10.1603    0.0000 C   0  0
    7.3857  -12.6218    0.0000 C   0  0
    6.9395  -11.7339    0.0000 C   0  0
    3.5811  -12.5721    0.0000 C   0  0
    3.0586  -13.8065    0.0000 C   0  0
    4.8458  -11.5565    0.0000 C   0  0
    6.3396  -12.2966    0.0000 C   0  0  1  0  0  0
    4.1258  -11.9493    0.0000 C   0  0
    4.9861  -10.7422    0.0000 C   0  0
    3.1378  -10.8325    0.0000 C   0  0
    4.4394  -10.1261    0.0000 C   0  0
    5.5507  -12.0594    0.0000 O   0  0
    4.8110  -12.4166    0.0000 C   0  0
    3.3661  -11.6253    0.0000 C   0  0
    7.4212  -14.1187    0.0000 C   0  0
    8.1698  -14.4465    0.0000 C   0  0
    8.2601  -15.2587    0.0000 C   0  0
    9.0087  -15.5865    0.0000 C   0  0
    9.1850  -16.3810    0.0000 N   0  0
    9.7154  -15.1699    0.0000 O   0  0
   10.3261  -15.7129    0.0000 C   0  0
    9.9993  -16.4577    0.0000 C   0  0
   10.4807  -17.1110    0.0000 C   0  0
   11.2888  -17.0207    0.0000 C   0  0
   11.6131  -16.2715    0.0000 C   0  0
   11.1298  -15.6213    0.0000 C   0  0
 13 17  1  0
 14  1  1  0
 22  4  2  0
  8  9  1  0
 16 21  1  6
  2 11  1  0
  3 11  1  0
 12  9  1  0
 22 21  1  0
 12 16  1  0
 12  3  1  0
  2  8  1  0
  1 13  1  0
 19 10  1  0
 10 20  1  0
 20 18  1  0
 18 15  1  0
  7  2  1  0
 16  7  1  0
 17 22  1  0
 23 19  1  0
 23 17  1  0
  6  5  1  0
  5 14  2  0
 13  6  2  0
 17 15  1  0
  2 24  1  0
 24 25  1  0
 25 26  1  0
 26 27  1  0
 27 28  2  0
 28 31  1  0
 30 29  1  0
 29 27  1  0
 30 31  2  0
 31 32  1  0
 32 33  2  0
 33 34  1  0
 34 35  2  0
 35 30  1  0
M  CHG  1   2   1
M  END