
          11280714442D 1   1.00000     0.00000     0

 22 22  0     0  0            999 V2000
    5.8625   -2.5792    0.0000 C   0  0  0  0  0  0           0  0  0
    5.1667   -3.0292    0.0000 C   0  0  0  0  0  0           0  0  0
    6.5917   -2.9625    0.0000 O   0  0  0  0  0  0           0  0  0
    9.4500   -2.8292    0.0000 N   0  0  0  0  0  0           0  0  0
    5.8250   -1.7625    0.0000 O   0  0  0  0  0  0           0  0  0
   10.1417   -2.3917    0.0000 C   0  0  3  0  0  0           0  0  0
    4.4292   -2.6417    0.0000 C   0  0  0  0  0  0           0  0  0
    5.2042   -3.8500    0.0000 C   0  0  0  0  0  0           0  0  0
    8.0167   -2.9000    0.0000 C   0  0  3  0  0  0           0  0  0
    7.2875   -2.5167    0.0000 C   0  0  0  0  0  0           0  0  0
    8.7167   -2.4542    0.0000 C   0  0  0  0  0  0           0  0  0
    3.7792   -3.9167    0.0000 C   0  0  0  0  0  0           0  0  0
    3.7417   -3.0917    0.0000 C   0  0  0  0  0  0           0  0  0
    4.5167   -4.2917    0.0000 C   0  0  0  0  0  0           0  0  0
    8.0542   -3.7250    0.0000 O   0  0  0  0  0  0           0  0  0
    3.0792   -4.3625    0.0000 O   0  0  0  0  0  0           0  0  0
   10.1042   -1.5667    0.0000 C   0  0  0  0  0  0           0  0  0
   10.7000   -1.7792    0.0000 C   0  0  0  0  0  0           0  0  0
   10.8750   -2.7667    0.0000 C   0  0  0  0  0  0           0  0  0
    2.3500   -3.9792    0.0000 C   0  0  0  0  0  0           0  0  0
    1.6542   -4.4250    0.0000 C   0  0  0  0  0  0           0  0  0
    0.9167   -4.0417    0.0000 C   0  0  0  0  0  0           0  0  0
  2  1  1  0     0  0
  3  1  1  0     0  0
  4 11  1  0     0  0
  5  1  2  0     0  0
  6  4  1  0     0  0
  7  2  2  0     0  0
  8  2  1  0     0  0
  9 10  1  0     0  0
 10  3  1  0     0  0
 11  9  1  0     0  0
 12 14  1  0     0  0
 13  7  1  0     0  0
 14  8  2  0     0  0
 15  9  1  0     0  0
 16 12  1  0     0  0
 17  6  1  0     0  0
 18  6  1  0     0  0
 19  6  1  0     0  0
 20 16  1  0     0  0
 21 20  1  0     0  0
 22 21  1  0     0  0
 12 13  2  0     0  0
M  END