
          11280715472D 1   1.00000     0.00000     0

 29 32  0     0  0            999 V2000
   -1.7208   -2.4667    0.0000 N   0  0  3  0  0  0           0  0  0
    2.5542    3.2958    0.0000 N   0  0  3  0  0  0           0  0  0
   -0.2958   -1.6542    0.0000 N   0  0  3  0  0  0           0  0  0
    2.5542    2.4708    0.0000 C   0  0  0  0  0  0           0  0  0
    1.8417    3.7083    0.0000 C   0  0  0  0  0  0           0  0  0
   -1.7208   -1.6417    0.0000 C   0  0  0  0  0  0           0  0  0
   -1.0125   -2.8792    0.0000 C   0  0  0  0  0  0           0  0  0
   -2.4458   -2.8792    0.0000 C   0  0  0  0  0  0           0  0  0
    1.8417    2.0583    0.0000 C   0  0  0  0  0  0           0  0  0
    1.1250    3.2958    0.0000 C   0  0  0  0  0  0           0  0  0
    0.4167   -1.2417    0.0000 C   0  0  0  0  0  0           0  0  0
    0.4167    2.0625    0.0000 O   0  0  0  0  0  0           0  0  0
    3.2792    3.7083    0.0000 C   0  0  3  0  0  0           0  0  0
   -0.2958   -2.4792    0.0000 C   0  0  0  0  0  0           0  0  0
   -1.0083   -1.2375    0.0000 C   0  0  0  0  0  0           0  0  0
    1.1292    2.4750    0.0000 C   0  0  3  0  0  0           0  0  0
    0.4167    1.2375    0.0000 C   0  0  0  0  0  0           0  0  0
    0.4167   -0.4167    0.0000 C   0  0  0  0  0  0           0  0  0
    1.1292    0.8333    0.0000 C   0  0  0  0  0  0           0  0  0
   -0.2958    0.8208    0.0000 C   0  0  0  0  0  0           0  0  0
    1.1375   -0.0042    0.0000 C   0  0  0  0  0  0           0  0  0
   -0.2958   -0.0042    0.0000 C   0  0  0  0  0  0           0  0  0
   -3.1583   -2.4542    0.0000 C   0  0  0  0  0  0           0  0  0
   -2.4458   -3.6917    0.0000 C   0  0  0  0  0  0           0  0  0
    3.2792    4.5250    0.0000 C   0  0  0  0  0  0           0  0  0
    3.9875    3.2958    0.0000 C   0  0  0  0  0  0           0  0  0
   -3.8708   -2.8542    0.0000 C   0  0  0  0  0  0           0  0  0
   -3.1625   -4.1042    0.0000 C   0  0  0  0  0  0           0  0  0
   -3.8833   -3.6792    0.0000 C   0  0  0  0  0  0           0  0  0
  2  5  1  0     0  0
  3 14  1  0     0  0
  4  9  1  0     0  0
  5 10  1  0     0  0
  6  1  1  0     0  0
  7  1  1  0     0  0
  8  1  1  0     0  0
  9 16  1  0     0  0
 10 16  1  0     0  0
 11  3  1  0     0  0
 12 17  1  0     0  0
 13  2  1  0     0  0
 14  7  1  0     0  0
 15  6  1  0     0  0
 16 12  1  0     0  0
 17 20  1  0     0  0
 18 11  1  0     0  0
 19 21  1  0     0  0
 20 22  2  0     0  0
 21 18  2  0     0  0
 22 18  1  0     0  0
 23  8  2  0     0  0
 24  8  1  0     0  0
 25 13  1  0     0  0
 26 13  1  0     0  0
 27 23  1  0     0  0
 28 24  2  0     0  0
 29 28  1  0     0  0
  3 15  1  0     0  0
 29 27  2  0     0  0
 17 19  2  0     0  0
  2  4  1  0     0  0
M  END