
  SciTegic07221113202D

 37 39  0  0  0  0            999 V2000
    1.4143  -18.1205    0.0000 C   0  0
    2.2393  -18.1205    0.0000 C   0  0
    1.0018  -18.8350    0.0000 C   0  0
    2.6518  -18.8350    0.0000 C   0  0
    3.4768  -18.8350    0.0000 O   0  0
    2.2393  -19.5495    0.0000 O   0  0
    0.1768  -18.8350    0.0000 O   0  0
    1.4143  -19.5495    0.0000 O   0  0
    7.3449  -21.8181    0.0000 O   0  0
    3.0766  -21.8295    0.0000 N   0  0
    7.3449  -23.4681    0.0000 O   0  0
    2.3605  -22.2478    0.0000 C   0  0
    8.0668  -22.2306    0.0000 C   0  0
    3.7871  -22.2420    0.0000 C   0  0
    8.0610  -23.0556    0.0000 C   0  0
    6.6402  -22.2306    0.0000 C   0  0
    3.7871  -23.0670    0.0000 O   0  0
    1.6387  -21.8353    0.0000 C   0  0
    2.3605  -23.0728    0.0000 C   0  0
    6.6402  -23.0556    0.0000 C   0  0
    5.2137  -22.2420    0.0000 N   0  0
    4.5032  -21.8295    0.0000 C   0  0
    5.9355  -21.8181    0.0000 C   0  0
    8.7715  -21.8295    0.0000 C   0  0
    8.7715  -23.4681    0.0000 C   0  0
    0.9340  -22.2478    0.0000 C   0  0
    1.6387  -21.0103    0.0000 C   0  0
    3.0766  -23.4853    0.0000 C   0  0
    1.6559  -23.4853    0.0000 C   0  0
    9.4762  -22.2420    0.0000 C   0  0
    9.4762  -23.0670    0.0000 C   0  0
    0.9340  -20.5978    0.0000 C   0  0
    0.2235  -21.8353    0.0000 C   0  0
    1.6559  -24.3103    0.0000 C   0  0
    3.0766  -24.3103    0.0000 C   0  0
    0.2121  -21.0103    0.0000 C   0  0
    2.3605  -24.7228    0.0000 C   0  0
  1  2  2  0
  1  3  1  0
  2  4  1  0
  4  5  2  0
  4  6  1  0
  3  7  1  0
  3  8  2  0
 10 14  1  0
 11 20  1  0
 12 10  1  0
 13  9  1  0
 14 22  1  0
 15 13  2  0
 16  9  1  0
 17 14  2  0
 18 12  1  0
 19 12  1  0
 20 16  1  0
 21 23  1  0
 22 21  1  0
 23 16  1  0
 24 13  1  0
 25 15  1  0
 26 18  1  0
 27 18  2  0
 28 19  1  0
 29 19  1  0
 30 24  2  0
 31 30  1  0
 32 27  1  0
 33 26  2  0
 34 29  1  0
 35 28  1  0
 36 32  2  0
 37 34  1  0
 15 11  1  0
 25 31  2  0
 35 37  1  0
 33 36  1  0
M  END