
          11280715392D 1   1.00000     0.00000     0

 19 20  0     0  0            999 V2000
    4.3792   -3.9667    0.0000 C   0  0  0  0  0  0           0  0  0
    4.9042   -4.2667    0.0000 N   0  0  0  0  0  0           0  0  0
    3.8625   -4.2750    0.0000 N   0  0  0  0  0  0           0  0  0
    3.8542   -3.0667    0.0000 N   0  0  0  0  0  0           0  0  0
    5.4250   -3.9667    0.0000 C   0  0  0  0  0  0           0  0  0
    4.3792   -3.3667    0.0000 C   0  0  0  0  0  0           0  0  0
    3.3417   -3.9750    0.0000 C   0  0  0  0  0  0           0  0  0
    3.3417   -3.3750    0.0000 C   0  0  0  0  0  0           0  0  0
    5.4167   -3.3667    0.0000 N   0  0  0  0  0  0           0  0  0
    5.9417   -4.2542    0.0000 N   0  0  0  0  0  0           0  0  0
    4.8917   -3.0625    0.0000 C   0  0  0  0  0  0           0  0  0
    2.8167   -3.0750    0.0000 C   0  0  0  0  0  0           0  0  0
    2.8167   -4.2792    0.0000 C   0  0  0  0  0  0           0  0  0
    5.9500   -4.8625    0.0000 C   0  0  0  0  0  0           0  0  0
    6.4667   -5.1625    0.0000 C   0  0  0  0  0  0           0  0  0
    6.4667   -5.7625    0.0000 C   0  0  0  0  0  0           0  0  0
    6.9917   -6.0542    0.0000 C   0  0  0  0  0  0           0  0  0
    2.3042   -3.9792    0.0000 C   0  0  0  0  0  0           0  0  0
    2.3042   -3.3750    0.0000 C   0  0  0  0  0  0           0  0  0
  2  1  1  0     0  0
  3  1  2  0     0  0
  4  6  2  0     0  0
  5  2  1  0     0  0
  6  1  1  0     0  0
  7  3  1  0     0  0
  8  4  1  0     0  0
  9  5  1  0     0  0
 10  5  2  0     0  0
 11  6  1  0     0  0
 12  8  2  0     0  0
 13  7  2  0     0  0
 14 10  1  0     0  0
 15 14  1  0     0  0
 16 15  1  0     0  0
 17 16  1  0     0  0
 18 13  1  0     0  0
 19 12  1  0     0  0
  7  8  1  0     0  0
 18 19  2  0     0  0
M  END