
  CDK    9/16/09,10:4

 21 23  0  0  0  0  0  0  0  0999 V2000
   11.3459  -22.0926    0.0000 C   0  0  0  0  0  0  0  0  0  0  0  0
   12.0596  -21.6805    0.0000 N   0  0  0  0  0  0  0  0  0  0  0  0
   10.6323  -21.6805    0.0000 N   0  0  0  0  0  0  0  0  0  0  0  0
   11.3459  -22.9167    0.0000 S   0  0  0  0  0  0  0  0  0  0  0  0
    9.9186  -22.0926    0.0000 C   0  0  0  0  0  0  0  0  0  0  0  0
    9.2055  -21.6773    0.0000 C   0  0  0  0  0  0  0  0  0  0  0  0
    8.4922  -22.0887    0.0000 C   0  0  0  0  0  0  0  0  0  0  0  0
    8.4918  -22.9137    0.0000 C   0  0  0  0  0  0  0  0  0  0  0  0
    9.2106  -23.3257    0.0000 C   0  0  0  0  0  0  0  0  0  0  0  0
    9.9208  -22.9119    0.0000 C   0  0  0  0  0  0  0  0  0  0  0  0
   12.7734  -22.0926    0.0000 C   0  0  0  0  0  0  0  0  0  0  0  0
   12.7708  -22.9177    0.0000 C   0  0  0  0  0  0  0  0  0  0  0  0
   13.4837  -23.3297    0.0000 C   0  0  0  0  0  0  0  0  0  0  0  0
   13.4822  -21.6810    0.0000 C   0  0  0  0  0  0  0  0  0  0  0  0
   14.1957  -22.0892    0.0000 C   0  0  0  0  0  0  0  0  0  0  0  0
   14.1993  -22.9161    0.0000 C   0  0  0  0  0  0  0  0  0  0  0  0
   14.9868  -23.1682    0.0000 C   0  0  0  0  0  0  0  0  0  0  0  0
   15.4700  -22.4971    0.0000 O   0  0  0  0  0  0  0  0  0  0  0  0
   14.9810  -21.8303    0.0000 C   0  0  0  0  0  0  0  0  0  0  0  0
   15.2322  -21.0454    0.0000 O   0  0  0  0  0  0  0  0  0  0  0  0
    7.7786  -23.3267    0.0000 F   0  0  0  0  0  0  0  0  0  0  0  0
  1  3  1  0  0  0  0 
  2 11  1  0  0  0  0 
  5  6  2  0  0  0  0 
 11 12  2  0  0  0  0 
  1  2  1  0  0  0  0 
 12 13  1  0  0  0  0 
 13 16  2  0  0  0  0 
  6  7  1  0  0  0  0 
 15 14  2  0  0  0  0 
 14 11  1  0  0  0  0 
 15 16  1  0  0  0  0 
  1  4  2  0  0  0  0 
  7  8  2  0  0  0  0 
  8  9  1  0  0  0  0 
  3  5  1  0  0  0  0 
 16 17  1  0  0  0  0 
 17 18  1  0  0  0  0 
 18 19  1  0  0  0  0 
 19 15  1  0  0  0  0 
  9 10  2  0  0  0  0 
 19 20  2  0  0  0  0 
 10  5  1  0  0  0  0 
  8 21  1  0  0  0  0 
M  END