
  SciTegic04091414152D

 32 36  0  0  0  0            999 V2000
   13.5405   -4.4189    0.0000 C   0  0
   12.8239   -4.8165    0.0000 C   0  0  2  0  0  0
   12.8150   -5.6342    0.0000 C   0  0
   13.5400   -6.0346    0.0000 N   0  3
   14.2386   -5.6554    0.0000 C   0  0
   14.2492   -4.8275    0.0000 C   0  0
   13.0137   -5.0451    0.0000 C   0  0
   13.7569   -5.3845    0.0000 C   0  0
   12.1173   -4.3990    0.0000 O   0  0
   10.7682   -3.9465    0.0000 C   0  0
   10.2239   -4.5685    0.0000 C   0  0
   11.3154   -4.5654    0.0000 C   0  0
   10.0106   -3.6251    0.0000 C   0  0
    9.7840   -2.8345    0.0000 C   0  0
   10.2612   -2.1637    0.0000 C   0  0
   11.0794   -2.1297    0.0000 C   0  0
   11.6259   -2.7450    0.0000 C   0  0
   11.4867   -3.5568    0.0000 C   0  0
    9.4062   -4.4985    0.0000 C   0  0
    9.0835   -5.2570    0.0000 C   0  0
    9.7055   -5.8012    0.0000 C   0  0
   10.4099   -5.3762    0.0000 C   0  0
   11.0584   -5.3452    0.0000 O   0  0
   13.4315   -6.8486    0.0000 C   0  0
   14.0828   -7.3517    0.0000 C   0  0
   13.9742   -8.1658    0.0000 O   0  0
   14.6255   -8.6648    0.0000 C   0  0
   14.5116   -9.4780    0.0000 C   0  0
   15.1620   -9.9809    0.0000 C   0  0
   15.9229   -9.6659    0.0000 C   0  0
   16.0294   -8.8473    0.0000 C   0  0
   15.3778   -8.3521    0.0000 C   0  0
  1  2  1  0
  1  6  1  0
  2  3  1  0
  3  4  1  0
  4  5  1  0
  5  6  1  0
  1  7  1  0
  4  8  1  0
  7  8  1  0
  2  9  1  6
 11 10  1  0
 10 12  1  0
 13 14  1  0
 14 15  1  0
 15 16  1  0
 13 10  1  0
 16 17  1  0
 10 18  1  0
 17 18  1  0
 11 19  2  0
 19 20  1  0
 20 21  2  0
 21 22  1  0
 22 11  1  0
 12 23  2  0
 12  9  1  0
  4 24  1  0
 24 25  1  0
 25 26  1  0
 26 27  1  0
 27 28  2  0
 28 29  1  0
 29 30  2  0
 30 31  1  0
 31 32  2  0
 32 27  1  0
M  CHG  1   4   1
M  END