
          11280715062D 1   1.00000     0.00000     0

 34 37  0     1  0            999 V2000
    4.5625   -5.8667    0.0000 O   0  0  0  0  0  0           0  0  0
    4.5625   -7.0792    0.0000 O   0  0  0  0  0  0           0  0  0
    5.0792   -6.1750    0.0000 C   0  0  2  0  0  0           0  0  0
    5.0792   -6.7792    0.0000 C   0  0  2  0  0  0           0  0  0
    4.0417   -6.1750    0.0000 C   0  0  0  0  0  0           0  0  0
    8.2000   -6.7792    0.0000 C   0  0  0  0  0  0           0  0  0
    4.0417   -6.7792    0.0000 C   0  0  0  0  0  0           0  0  0
    5.6042   -5.8750    0.0000 C   0  0  0  0  0  0           0  0  0
    8.2000   -6.1792    0.0000 C   0  0  0  0  0  0           0  0  0
    8.7167   -7.0792    0.0000 C   0  0  0  0  0  0           0  0  0
    6.1167   -6.1792    0.0000 C   0  0  0  0  0  0           0  0  0
    5.6000   -5.2792    0.0000 C   0  0  0  0  0  0           0  0  0
    7.6792   -7.0792    0.0000 O   0  0  0  0  0  0           0  0  0
    5.6042   -7.0792    0.0000 C   0  0  0  0  0  0           0  0  0
    6.1250   -6.7792    0.0000 N   0  0  0  0  0  0           0  0  0
    6.1167   -4.9792    0.0000 C   0  0  0  0  0  0           0  0  0
    6.6417   -5.8792    0.0000 C   0  0  0  0  0  0           0  0  0
    6.6417   -5.2792    0.0000 C   0  0  0  0  0  0           0  0  0
    7.6792   -5.8875    0.0000 O   0  0  0  0  0  0           0  0  0
    8.7167   -7.6792    0.0000 O   0  0  0  0  0  0           0  0  0
    9.2417   -6.1792    0.0000 C   0  0  0  0  0  0           0  0  0
    3.5167   -5.8750    0.0000 C   0  0  0  0  0  0           0  0  0
    3.5167   -7.0792    0.0000 C   0  0  0  0  0  0           0  0  0
    8.7167   -5.8792    0.0000 C   0  0  0  0  0  0           0  0  0
    9.2417   -6.7875    0.0000 C   0  0  0  0  0  0           0  0  0
    6.6417   -7.0792    0.0000 C   0  0  0  0  0  0           0  0  0
    7.1625   -6.7792    0.0000 C   0  0  0  0  0  0           0  0  0
    7.1542   -4.9792    0.0000 C   0  0  0  0  0  0           0  0  0
    8.1917   -7.9792    0.0000 C   0  0  0  0  0  0           0  0  0
    7.6792   -5.2792    0.0000 C   0  0  0  0  0  0           0  0  0
    3.0042   -6.1792    0.0000 C   0  0  0  0  0  0           0  0  0
    3.0042   -6.7792    0.0000 C   0  0  0  0  0  0           0  0  0
    4.9292   -5.5917    0.0000 H   0  0  0  0  0  0           0  0  0
    5.5042   -6.3542    0.0000 H   0  0  0  0  0  0           0  0  0
  2  7  1  0     0  0
  3  1  1  0     0  0
  4  3  1  0     0  0
  5  1  1  0     0  0
  6 13  1  0     0  0
  7  5  1  0     0  0
  3  8  1  1     0  0
  9  6  1  0     0  0
 10  6  2  0     0  0
 11  8  2  0     0  0
 12  8  1  0     0  0
 13 27  1  0     0  0
  4 14  1  6     0  0
 15 14  1  0     0  0
 16 12  2  0     0  0
 17 11  1  0     0  0
 18 16  1  0     0  0
 19  9  1  0     0  0
 20 10  1  0     0  0
 21 25  2  0     0  0
 22  5  2  0     0  0
 23  7  2  0     0  0
 24  9  2  0     0  0
 25 10  1  0     0  0
 26 15  1  0     0  0
 27 26  1  0     0  0
 28 18  1  0     0  0
 29 20  1  0     0  0
 30 19  1  0     0  0
 31 22  1  0     0  0
 32 31  2  0     0  0
  3 33  1  6     0  0
  4 34  1  1     0  0
  4  2  1  0     0  0
 32 23  1  0     0  0
 17 18  2  0     0  0
 24 21  1  0     0  0
M  END