
  SciTegic06051313522D

 39 43  0  0  0  0            999 V2000
    5.4961   -6.1743    0.0000 C   0  0
    5.4949   -6.9938    0.0000 C   0  0
    6.2030   -7.4028    0.0000 C   0  0
    6.9126   -6.9934    0.0000 C   0  0
    6.9098   -6.1707    0.0000 C   0  0
    6.2012   -5.7654    0.0000 C   0  0
    4.7882   -5.7659    0.0000 C   0  0
    4.0777   -5.3571    0.0000 C   0  0
    3.3693   -4.9497    0.0000 C   0  0
    3.3723   -4.1325    0.0000 C   0  0
    1.9607   -4.9563    0.0000 N   0  0
    2.6688   -5.3600    0.0000 C   0  0
    1.9568   -4.1349    0.0000 C   0  0
    2.6671   -3.7261    0.0000 C   0  0
    2.4978   -2.9242    0.0000 C   0  0
    1.6828   -2.8374    0.0000 N   0  0
    1.3485   -3.5857    0.0000 N   0  0
    7.6159   -5.7594    0.0000 C   0  0
    8.3252   -6.1654    0.0000 N   0  0
    7.6129   -4.9423    0.0000 O   0  0
    9.0314   -5.7541    0.0000 C   0  0
    9.7390   -6.1634    0.0000 C   0  0
   10.4447   -5.7529    0.0000 C   0  0
   10.4421   -4.9348    0.0000 C   0  0
    9.7278   -4.5290    0.0000 C   0  0
    9.0251   -4.9420    0.0000 C   0  0
   11.1537   -6.1591    0.0000 C   0  0
   11.1564   -6.9763    0.0000 F   0  0
   11.8601   -5.7482    0.0000 F   0  0
   11.8575   -6.5664    0.0000 F   0  0
   11.1477   -4.5226    0.0000 C   0  0
   11.1435   -3.7054    0.0000 N   0  0
   11.8540   -3.2979    0.0000 C   0  0
   11.8518   -2.4843    0.0000 C   0  0
   11.1438   -2.0754    0.0000 N   0  0
   10.4364   -2.4864    0.0000 C   0  0
   10.4370   -3.3062    0.0000 C   0  0
   11.1428   -1.2582    0.0000 C   0  0
    4.7869   -7.4019    0.0000 C   0  0
  1  2  2  0
  2  3  1  0
  3  4  2  0
  4  5  1  0
  5  6  2  0
  6  1  1  0
  1  7  1  0
  7  8  3  0
  8  9  1  0
  9 10  2  0
 10 14  1  0
 13 11  1  0
 11 12  2  0
 12  9  1  0
 13 14  2  0
 14 15  1  0
 15 16  2  0
 16 17  1  0
 17 13  1  0
  5 18  1  0
 18 19  1  0
 18 20  2  0
 19 21  1  0
 21 22  2  0
 22 23  1  0
 23 24  2  0
 24 25  1  0
 25 26  2  0
 26 21  1  0
 23 27  1  0
 27 28  1  0
 27 29  1  0
 27 30  1  0
 24 31  1  0
 31 32  1  0
 32 33  1  0
 32 37  1  0
 33 34  1  0
 34 35  1  0
 35 36  1  0
 36 37  1  0
 35 38  1  0
  2 39  1  0
M  END