
  SciTegic02161214032D

 24 23  0  0  0  0            999 V2000
   -3.0917   -2.3792    0.0000 C   0  0
   -2.3796   -2.7875    0.0000 C   0  0
   -1.6676   -2.3792    0.0000 C   0  0
   -3.8073   -2.7920    0.0000 C   0  0
   -4.5614   -2.4575    0.0000 N   0  0
   -5.1126   -3.0714    0.0000 C   0  0
   -4.6990   -3.7853    0.0000 N   0  0
   -3.8923   -3.6126    0.0000 C   0  0
   -0.9544   -2.7937    0.0000 O   0  0
   -0.2387   -2.3833    0.0000 C   0  0
    0.4746   -2.7979    0.0000 N   0  0
   -0.2363   -1.5583    0.0000 O   0  0
    1.1902   -2.3875    0.0000 C   0  0
    1.9035   -2.8020    0.0000 C   0  0
    2.6192   -2.3916    0.0000 C   0  0
    3.3324   -2.8062    0.0000 C   0  0
   -0.3381   -3.6914    0.0000 O   0  0
    0.0738   -4.4063    0.0000 C   0  0
    0.8975   -4.4063    0.0000 O   0  0
   -0.3381   -5.1211    0.0000 C   0  0
   -1.1619   -5.1211    0.0000 C   0  0
   -1.5738   -4.4063    0.0000 C   0  0
   -2.3975   -4.4063    0.0000 O   0  0
   -1.1619   -3.6914    0.0000 O   0  0
  1  4  1  0
  1  2  1  0
  3  9  1  0
  5  6  2  0
  9 10  1  0
  2  3  1  0
 10 11  1  0
  7  8  1  0
 10 12  2  0
 11 13  1  0
  4  5  1  0
 13 14  1  0
  6  7  1  0
 14 15  2  3
  8  4  2  0
 15 16  1  0
 17 18  1  0
 18 19  2  0
 18 20  1  0
 20 21  2  0
 21 22  1  0
 22 23  2  0
 22 24  1  0
M  END