
          11280715462D 1   1.00000     0.00000     0

 29 32  0     0  0            999 V2000
   -0.8000    0.4833    0.0000 C   0  0  0  0  0  0           0  0  0
   -0.1375    0.9708    0.0000 N   0  0  3  0  0  0           0  0  0
   -0.5458   -0.3000    0.0000 N   0  0  3  0  0  0           0  0  0
    0.5375    0.4833    0.0000 C   0  0  0  0  0  0           0  0  0
    0.2792   -0.3000    0.0000 C   0  0  3  0  0  0           0  0  0
   -1.6250    0.4958    0.0000 N   0  0  0  0  0  0           0  0  0
   -1.2208   -0.7792    0.0000 C   0  0  0  0  0  0           0  0  0
   -0.1375    1.8000    0.0000 C   0  0  0  0  0  0           0  0  0
   -1.8833   -0.2917    0.0000 C   0  0  0  0  0  0           0  0  0
   -0.8458    2.2083    0.0000 C   0  0  0  0  0  0           0  0  0
    0.5792    2.2125    0.0000 C   0  0  0  0  0  0           0  0  0
   -1.2208   -1.6042    0.0000 C   0  0  0  0  0  0           0  0  0
    1.0750   -0.5167    0.0000 C   0  0  0  0  0  0           0  0  0
    1.3167    0.7458    0.0000 O   0  0  0  0  0  0           0  0  0
   -0.8458    3.0333    0.0000 C   0  0  0  0  0  0           0  0  0
    0.5792    3.0333    0.0000 C   0  0  0  0  0  0           0  0  0
   -0.1375    3.4458    0.0000 C   0  0  0  0  0  0           0  0  0
   -1.9375   -2.0167    0.0000 O   0  0  0  0  0  0           0  0  0
    0.2750   -1.1250    0.0000 C   0  0  0  0  0  0           0  0  0
    1.0625   -1.3375    0.0000 C   0  0  0  0  0  0           0  0  0
    1.0542   -2.9792    0.0000 C   0  0  0  0  0  0           0  0  0
    1.3000    3.4458    0.0000 Cl  0  0  0  0  0  0           0  0  0
   -1.5625    3.4458    0.0000 Cl  0  0  0  0  0  0           0  0  0
    1.0542   -3.8042    0.0000 Br  0  0  0  0  0  0           0  0  0
    1.7792   -1.7417    0.0000 C   0  0  0  0  0  0           0  0  0
    0.3417   -1.7417    0.0000 C   0  0  0  0  0  0           0  0  0
    1.7792   -2.5667    0.0000 C   0  0  0  0  0  0           0  0  0
    0.3375   -2.5667    0.0000 C   0  0  0  0  0  0           0  0  0
   -0.5083   -2.0167    0.0000 C   0  0  0  0  0  0           0  0  0
  2  1  1  0     0  0
  3  1  1  0     0  0
  4  2  1  0     0  0
  5  3  1  0     0  0
  6  1  2  0     0  0
  7  3  1  0     0  0
  8  2  1  0     0  0
  9  6  1  0     0  0
 10  8  1  0     0  0
 11  8  2  0     0  0
 12  7  1  0     0  0
 13  5  1  0     0  0
 14  4  2  0     0  0
 15 10  2  0     0  0
 16 11  1  0     0  0
 17 16  2  0     0  0
 18 12  2  0     0  0
 19  5  1  0     0  0
 20 13  1  0     0  0
 21 28  2  0     0  0
 22 16  1  0     0  0
 23 15  1  0     0  0
 24 21  1  0     0  0
 25 20  1  0     0  0
 26 20  2  0     0  0
 27 25  2  0     0  0
 28 26  1  0     0  0
 29 12  1  0     0  0
  7  9  2  0     0  0
  5  4  1  0     0  0
 15 17  1  0     0  0
 27 21  1  0     0  0
M  END