
  Mrv0541 05211314572D          

 23 23  0  0  0  0            999 V2000
   -0.5250   -0.3897    0.0000 C   0  0  0  0  0  0  0  0  0  0  0  0
   -1.3500   -0.3897    0.0000 C   0  0  0  0  0  0  0  0  0  0  0  0
   -1.7625    0.3248    0.0000 O   0  0  0  0  0  0  0  0  0  0  0  0
   -1.7625   -1.1042    0.0000 C   0  0  0  0  0  0  0  0  0  0  0  0
   -1.3500   -1.8187    0.0000 C   0  0  0  0  0  0  0  0  0  0  0  0
   -1.7625   -2.5331    0.0000 C   0  0  0  0  0  0  0  0  0  0  0  0
   -2.5875   -2.5331    0.0000 N   0  0  0  0  0  0  0  0  0  0  0  0
   -3.0000   -1.8187    0.0000 C   0  0  0  0  0  0  0  0  0  0  0  0
   -2.5875   -1.1042    0.0000 C   0  0  0  0  0  0  0  0  0  0  0  0
   -0.1125    0.3248    0.0000 N   0  0  0  0  0  0  0  0  0  0  0  0
   -0.5250    1.0392    0.0000 C   0  0  0  0  0  0  0  0  0  0  0  0
    0.7125    0.3248    0.0000 C   0  0  0  0  0  0  0  0  0  0  0  0
    1.1250    1.0392    0.0000 C   0  0  0  0  0  0  0  0  0  0  0  0
    1.9500    1.0392    0.0000 C   0  0  0  0  0  0  0  0  0  0  0  0
   -1.3500    1.0392    0.0000 C   0  0  0  0  0  0  0  0  0  0  0  0
   -1.7625    1.7537    0.0000 C   0  0  0  0  0  0  0  0  0  0  0  0
    2.3625    1.7537    0.0000 C   0  0  0  0  0  0  0  0  0  0  0  0
    3.1875    1.7537    0.0000 C   0  0  0  0  0  0  0  0  0  0  0  0
    3.6000    1.0392    0.0000 C   0  0  0  0  0  0  0  0  0  0  0  0
    3.1875    0.3248    0.0000 C   0  0  0  0  0  0  0  0  0  0  0  0
    2.3625    0.3248    0.0000 C   0  0  0  0  0  0  0  0  0  0  0  0
    1.9500   -0.3897    0.0000 Cl  0  0  0  0  0  0  0  0  0  0  0  0
    5.8393    0.0000    0.0000 Br  0  0  0  0  0  0  0  0  0  0  0  0
  1  2  1  0  0  0  0
  2  3  1  0  0  0  0
  2  4  1  0  0  0  0
  4  5  2  0  0  0  0
  5  6  1  0  0  0  0
  6  7  2  0  0  0  0
  7  8  1  0  0  0  0
  4  9  1  0  0  0  0
  8  9  2  0  0  0  0
  1 10  1  0  0  0  0
 10 11  1  0  0  0  0
 10 12  1  0  0  0  0
 12 13  1  0  0  0  0
 13 14  1  0  0  0  0
 11 15  1  0  0  0  0
 15 16  1  0  0  0  0
 14 17  2  0  0  0  0
 17 18  1  0  0  0  0
 18 19  2  0  0  0  0
 19 20  1  0  0  0  0
 14 21  1  0  0  0  0
 20 21  2  0  0  0  0
 21 22  1  0  0  0  0
M  END