
  CDK    9/16/09,9:59

 61 63  0  0  0  0  0  0  0  0999 V2000
    0.1125  -14.6000    0.0000 C   0  0  0  0  0  0  0  0  0  0  0  0
    0.1125  -15.4250    0.0000 C   0  0  0  0  0  0  0  0  0  0  0  0
    0.8245  -15.8333    0.0000 O   0  0  0  0  0  0  0  0  0  0  0  0
    1.5360  -15.4267    0.0000 C   0  0  0  0  0  0  0  0  0  0  0  0
    1.5365  -14.6000    0.0000 C   0  0  0  0  0  0  0  0  0  0  0  0
    0.8245  -14.1833    0.0000 C   0  0  0  0  0  0  0  0  0  0  0  0
    2.3581  -15.4568    0.0000 O   0  0  0  0  0  0  0  0  0  0  0  0
    1.9123  -16.1559    0.0000 C   0  0  0  0  0  0  0  0  0  0  0  0
    1.4714  -16.8464    0.0000 O   0  0  0  0  0  0  0  0  0  0  0  0
    2.7344  -16.1948    0.0000 O   0  0  0  0  0  0  0  0  0  0  0  0
   -0.6014  -15.8385    0.0000 C   0  0  0  0  0  0  0  0  0  0  0  0
   -1.3164  -15.4271    0.0000 C   0  0  0  0  0  0  0  0  0  0  0  0
   -0.6002  -16.6635    0.0000 O   0  0  0  0  0  0  0  0  0  0  0  0
   -2.0303  -15.8406    0.0000 O   0  0  0  0  0  0  0  0  0  0  0  0
   -1.3176  -14.6021    0.0000 C   0  0  0  0  0  0  0  0  0  0  0  0
   -2.0327  -14.1906    0.0000 N   0  0  0  0  0  0  0  0  0  0  0  0
   -0.6032  -14.1896    0.0000 N   0  0  0  0  0  0  0  0  0  0  0  0
   -0.6056  -13.3646    0.0000 C   0  0  0  0  0  0  0  0  0  0  0  0
   -1.3213  -12.9542    0.0000 C   0  0  0  0  0  0  0  0  0  0  0  0
    0.1077  -12.9500    0.0000 O   0  0  0  0  0  0  0  0  0  0  0  0
    0.1083  -16.2500    0.0000 H   0  0  0  0  0  0  0  0  0  0  0  0
    0.8245  -13.3583    0.0000 O   0  0  0  0  0  0  0  0  0  0  0  0
    2.7965  -14.7579    0.0000 C   0  0  0  0  0  0  0  0  0  0  0  0
    3.6222  -14.7908    0.0000 C   0  0  0  0  0  0  0  0  0  0  0  0
    4.0604  -14.0960    0.0000 C   0  0  0  0  0  0  0  0  0  0  0  0
    3.6779  -13.3646    0.0000 O   0  0  0  0  0  0  0  0  0  0  0  0
    2.8525  -13.3324    0.0000 C   0  0  0  0  0  0  0  0  0  0  0  0
    2.4097  -14.0316    0.0000 C   0  0  0  0  0  0  0  0  0  0  0  0
    3.2042  -15.4667    0.0000 H   0  0  0  0  0  0  0  0  0  0  0  0
    1.5853  -14.0006    0.0000 O   0  0  0  0  0  0  0  0  0  0  0  0
    2.4689  -12.6020    0.0000 C   0  0  0  0  0  0  0  0  0  0  0  0
    2.9096  -11.9046    0.0000 O   0  0  0  0  0  0  0  0  0  0  0  0
    4.0063  -15.5209    0.0000 O   0  0  0  0  0  0  0  0  0  0  0  0
    4.8847  -14.1293    0.0000 O   0  0  0  0  0  0  0  0  0  0  0  0
    5.3257  -13.4320    0.0000 C   0  0  0  0  0  0  0  0  0  0  0  0
    6.1523  -13.4681    0.0000 C   0  0  0  0  0  0  0  0  0  0  0  0
    6.5930  -12.7750    0.0000 C   0  0  0  0  0  0  0  0  0  0  0  0
    6.2133  -12.0421    0.0000 O   0  0  0  0  0  0  0  0  0  0  0  0
    5.3881  -12.0068    0.0000 C   0  0  0  0  0  0  0  0  0  0  0  0
    4.9426  -12.7044    0.0000 C   0  0  0  0  0  0  0  0  0  0  0  0
    4.1183  -12.6698    0.0000 O   0  0  0  0  0  0  0  0  0  0  0  0
    5.7333  -14.1417    0.0000 H   0  0  0  0  0  0  0  0  0  0  0  0
    6.5336  -14.1997    0.0000 O   0  0  0  0  0  0  0  0  0  0  0  0
    7.4172  -12.8114    0.0000 O   0  0  0  0  0  0  0  0  0  0  0  0
    7.7978  -13.5433    0.0000 C   0  0  0  0  0  0  0  0  0  0  0  0
    8.6220  -13.5797    0.0000 C   0  0  0  0  0  0  0  0  0  0  0  0
    9.0026  -14.3117    0.0000 Si  0  0  0  0  0  0  0  0  0  0  0  0
    9.4083  -15.0208    0.0000 C   0  0  0  0  0  0  0  0  0  0  0  0
    8.2784  -14.7069    0.0000 C   0  0  0  0  0  0  0  0  0  0  0  0
    9.7307  -13.9238    0.0000 C   0  0  0  0  0  0  0  0  0  0  0  0
    5.0072  -11.2750    0.0000 C   0  0  0  0  0  0  0  0  0  0  0  0
    5.4506  -10.5793    0.0000 O   0  0  0  0  0  0  0  0  0  0  0  0
   -2.7466  -14.6041    0.0000 C   0  0  0  0  0  0  0  0  0  0  0  0
   -3.4616  -14.1927    0.0000 C   0  0  0  0  0  0  0  0  0  0  0  0
   -2.7454  -15.4291    0.0000 O   0  0  0  0  0  0  0  0  0  0  0  0
   -3.4592  -13.3676    0.0000 C   0  0  0  0  0  0  0  0  0  0  0  0
   -4.1734  -12.9562    0.0000 C   0  0  0  0  0  0  0  0  0  0  0  0
   -4.8883  -13.3698    0.0000 C   0  0  0  0  0  0  0  0  0  0  0  0
   -4.8844  -14.1991    0.0000 C   0  0  0  0  0  0  0  0  0  0  0  0
   -4.1696  -14.6067    0.0000 C   0  0  0  0  0  0  0  0  0  0  0  0
    1.4333  -17.7042    0.0000 Na  0  0  0  0  0  0  0  0  0  0  0  0
 12 14  1  6  0  0  0 
 28 30  1  1  0  0  0 
 27 31  1  1  0  0  0 
 12 15  1  0  0  0  0 
 31 32  1  0  0  0  0 
  4  7  1  1  0  0  0 
 24 33  1  6  0  0  0 
 15 16  1  0  0  0  0 
 25 34  1  1  0  0  0 
 34 35  1  0  0  0  0 
 35 36  1  0  0  0  0 
  1 17  1  6  0  0  0 
  4  8  1  0  0  0  0 
 17 18  1  0  0  0  0 
  1  2  1  0  0  0  0 
 18 19  1  0  0  0  0 
 35 40  1  0  0  0  0 
 36 37  1  0  0  0  0 
 37 38  1  0  0  0  0 
 38 39  1  0  0  0  0 
 39 40  1  0  0  0  0 
  1  6  1  0  0  0  0 
 40 41  1  1  0  0  0 
 18 20  2  0  0  0  0 
 35 42  1  6  0  0  0 
  8  9  1  0  0  0  0 
 36 43  1  6  0  0  0 
  2 21  1  6  0  0  0 
 37 44  1  1  0  0  0 
  8 10  2  0  0  0  0 
 44 45  1  0  0  0  0 
  6 22  1  1  0  0  0 
 45 46  1  0  0  0  0 
  2  3  1  0  0  0  0 
 46 47  1  0  0  0  0 
  7 23  1  0  0  0  0 
 47 48  1  0  0  0  0 
 23 24  1  0  0  0  0 
 47 49  1  0  0  0  0 
  2 11  1  0  0  0  0 
 47 50  1  0  0  0  0 
  3  4  1  0  0  0  0 
 39 51  1  1  0  0  0 
 11 12  1  0  0  0  0 
 51 52  1  0  0  0  0 
  4  5  1  0  0  0  0 
 16 53  1  0  0  0  0 
 11 13  1  1  0  0  0 
 53 54  1  0  0  0  0 
 23 28  1  0  0  0  0 
 53 55  2  0  0  0  0 
 24 25  1  0  0  0  0 
 54 56  2  0  0  0  0 
 25 26  1  0  0  0  0 
 56 57  1  0  0  0  0 
 26 27  1  0  0  0  0 
 57 58  2  0  0  0  0 
 27 28  1  0  0  0  0 
 58 59  1  0  0  0  0 
  5  6  1  0  0  0  0 
 59 60  2  0  0  0  0 
 60 54  1  0  0  0  0 
 23 29  1  6  0  0  0 
M  CHG  1   9  -1
M  CHG  1  61   1
M  END