
  SciTegic11201309402D

 69 71  0  0  1  0            999 V2000
    6.0292   -5.1250    0.0000 C   0  0
    5.5417   -5.8000    0.0000 N   0  0
    5.5417   -4.4542    0.0000 C   0  0
    6.8542   -5.1250    0.0000 C   0  0
    4.7542   -5.5417    0.0000 C   0  0
    4.7542   -4.7125    0.0000 C   0  0
   10.5667   -7.2667    0.0000 C   0  0
    9.3042   -4.9042    0.0000 C   0  0
    9.3292   -6.5542    0.0000 N   0  0
   -1.0583   -1.5542    0.0000 C   0  0
    8.5042   -6.5542    0.0000 C   0  0
    7.2667   -5.8417    0.0000 N   0  0
   10.9792   -7.9792    0.0000 N   0  0
   10.6417   -4.9625    0.0000 N   0  0
    9.7417   -7.2667    0.0000 C   0  0  1  0  0  0
    9.9500   -5.4167    0.0000 C   0  0
    8.0917   -5.8417    0.0000 C   0  0  1  0  0  0
   -0.3458   -1.1500    0.0000 C   0  0
    9.7917   -0.6292    0.0000 C   0  0
   -0.9583   -6.3167    0.0000 C   0  0
   11.8042   -7.9792    0.0000 C   0  0  2  0  0  0
    9.5917   -4.1292    0.0000 C   0  0
   12.2167   -8.6917    0.0000 C   0  0
    8.5042   -5.1250    0.0000 C   0  0
   10.4167   -4.1667    0.0000 C   0  0
   10.3417   -1.2417    0.0000 N   0  0
   -1.5875   -5.7792    0.0000 N   0  0
    7.2667   -4.4125    0.0000 O   0  0
    4.0417   -5.9542    0.0000 C   0  0
   10.9792   -6.5542    0.0000 O   0  0
    8.0917   -7.2667    0.0000 O   0  0
   -0.3458   -0.3167    0.0000 O   0  0
   11.8042   -9.4125    0.0000 O   0  0
   12.2167   -7.2667    0.0000 C   0  0
   -0.6458   -2.2792    0.0000 F   0  0
   -1.4750   -0.8375    0.0000 F   0  0
   -1.7833   -1.9750    0.0000 F   0  0
    8.9792   -0.8000    0.0000 N   0  0
   -0.1833   -6.0292    0.0000 N   0  0
   10.0417    0.1583    0.0000 N   0  0
   -1.1000   -7.1250    0.0000 N   0  0
    9.3292   -7.9792    0.0000 C   0  0  2  0  0  0
    0.3667   -1.5625    0.0000 O   0  0
   13.0417   -8.6917    0.0000 O   0  0
    5.8000   -3.6667    0.0000 C   0  0
    4.0375   -4.3042    0.0000 C   0  0
    4.0417   -6.7792    0.0000 O   0  0
    3.3292   -4.7167    0.0000 C   0  0
    9.2167   -3.4042    0.0000 C   0  0
   13.0417   -7.2667    0.0000 C   0  0
    3.3250   -5.5417    0.0000 C   0  0
   10.8625   -3.4792    0.0000 C   0  0
    8.7292   -1.5875    0.0000 C   0  0
    0.4500   -6.5625    0.0000 C   0  0
    8.5042   -7.9792    0.0000 C   0  0
    9.7417   -8.7000    0.0000 C   0  0
    3.2667   -7.0625    0.0000 C   0  0
    6.6042   -3.5000    0.0000 C   0  0
    1.2292   -6.2792    0.0000 C   0  0
    7.9167   -1.7542    0.0000 C   0  0
    2.6292   -6.5292    0.0000 C   0  0
   13.4542   -7.9792    0.0000 C   0  0
   13.4542   -6.5542    0.0000 C   0  0
    6.8625   -2.7125    0.0000 C   0  0
    7.6667   -2.5417    0.0000 C   0  0
    1.8542   -6.8125    0.0000 C   0  0
    8.0917   -8.7000    0.0000 C   0  0
    9.6625   -2.7125    0.0000 C   0  0
   10.4875   -2.7500    0.0000 C   0  0
  2  1  1  0
  3  1  2  0
  4  1  1  0
  5  2  1  0
  6  3  1  0
  7 15  1  0
  8 24  1  0
  9 11  1  0
 11 17  1  0
 12  4  1  0
 13  7  1  0
 14 16  1  0
 15  9  1  6
 16  8  2  0
 17 12  1  1
 18 10  1  0
 19 38  2  0
 20 39  2  0
 21 13  1  1
 22  8  1  0
 23 21  1  0
 17 24  1  0
 25 22  2  0
 26 19  1  0
 27 20  1  0
 28  4  2  0
 29  5  2  0
 30  7  2  0
 31 11  2  0
 32 18  2  0
 33 23  2  0
 21 34  1  0
 35 10  1  0
 36 10  1  0
 37 10  1  0
 38 53  1  0
 39 54  1  0
 40 19  1  0
 41 20  1  0
 15 42  1  0
 43 18  1  0
 44 23  1  0
 45  3  1  0
 46  6  2  0
 47 29  1  0
 48 46  1  0
 49 22  1  0
 50 34  1  0
 51 29  1  0
 52 25  1  0
 53 60  1  0
 54 59  1  0
 55 42  1  0
 42 56  1  1
 57 47  1  0
 58 45  1  0
 59 66  1  0
 60 65  1  0
 61 57  1  0
 62 50  1  0
 63 50  1  0
 64 58  1  0
 65 64  1  0
 66 61  1  0
 67 55  1  0
 68 49  2  0
 69 68  1  0
  5  6  1  0
 51 48  2  0
 25 14  1  0
 69 52  2  0
M  END