
  SciTegic01111613442D

 26 27  0  0  0  0            999 V2000
    2.5988   -1.5004    0.0000 C   0  0
    2.6015   -3.0012    0.0000 C   0  0
    6.5060   -6.7488    0.0000 C   0  0
    5.2054   -5.9999    0.0000 C   0  0
    7.8093   -8.9986    0.0000 N   0  0
    1.5631   -3.6028    0.0000 O   0  0
    1.2990   -0.7500    0.0000 C   0  0
    3.8990   -0.7507    0.0000 C   0  0
    1.5601   -2.1013    0.0000 O   0  0
    7.8066   -7.4978    0.0000 C   0  0
    3.9021   -3.7502    0.0000 O   0  0
    3.9048   -5.2510    0.0000 C   0  0
    9.1099   -9.7475    0.0000 C   0  0
    6.5122   -9.7536    0.0000 C   0  0
    1.2990    0.7500    0.0000 C   0  0
    0.0000   -1.5000    0.0000 C   0  0
    5.1977   -1.5013    0.0000 C   0  0
    3.8998    0.7493    0.0000 C   0  0
    9.1120  -10.9475    0.0000 C   0  0
    6.5156  -10.9536    0.0000 C   0  0
   -1.2990   -0.7500    0.0000 C   0  0
    0.0000    1.5000    0.0000 C   0  0
    5.1992    1.4987    0.0000 C   0  0
    6.4971   -0.7520    0.0000 C   0  0
   -1.2990    0.7500    0.0000 C   0  0
    6.4979    0.7480    0.0000 C   0  0
  2  1  1  0
  3  4  3  0
  4 12  1  0
  5 10  1  0
  6  2  2  0
  7  1  1  0
  8  1  1  0
  9  1  1  0
 10  3  1  0
 11  2  1  0
 12 11  1  0
 13  5  1  0
 14  5  1  0
 15  7  2  0
 16  7  1  0
 17  8  1  0
 18  8  1  0
 19 13  1  0
 20 14  1  0
 21 16  2  0
 22 15  1  0
 23 18  1  0
 24 17  1  0
 25 22  2  0
 26 24  1  0
 23 26  1  0
 21 25  1  0
M  END