
  SciTegic01061111512D

 19 20  0  0  0  0            999 V2000
   13.7359    2.2223    0.0000 C   0  0  2  0  0  0
   13.7359    1.3973    0.0000 C   0  0  1  0  0  0
   14.4444    0.9909    0.0000 C   0  0  1  0  0  0
   15.1571    1.3973    0.0000 C   0  0  2  0  0  0
   15.1571    2.2223    0.0000 C   0  0  1  0  0  0
   14.4444    2.6411    0.0000 O   0  0
   15.8733    2.6348    0.0000 S   0  0
   16.5872    2.2181    0.0000 C   0  0
   15.8715    0.9857    0.0000 O   0  0
   14.4444    0.1659    0.0000 N   0  0
   13.7836   -0.3184    0.0000 N   0  0
   14.0372   -1.1033    0.0000 N   0  0
   14.8623   -1.1033    0.0000 C   0  0
   15.1159   -0.3184    0.0000 C   0  0
   13.0214    0.9857    0.0000 O   0  0
   13.0196    2.6348    0.0000 C   0  0
   13.0172    3.4599    0.0000 O   0  0
   15.3491   -1.7716    0.0000 C   0  0
   15.0111   -2.5256    0.0000 O   0  0
  2  3  1  0
  3 10  1  1
 10 11  1  0
  3  4  1  0
  4  5  1  0
  5  6  1  0
 11 12  2  0
 12 13  1  0
 13 14  2  0
 14 10  1  0
  5  7  1  1
  2 15  1  1
  1  2  1  0
  1 16  1  1
  7  8  1  0
 16 17  1  0
  1  6  1  0
 13 18  1  0
  4  9  1  6
 18 19  1  0
M  END