
          08180812472D 1   1.00000     0.00000     0

 25 28  0     1  0            999 V2000
   -3.9935  -21.8442    0.0000 C   0  0  0  0  0  0           0  0  0
   -3.9935  -21.0192    0.0000 C   0  0  0  0  0  0           0  0  0
   -3.2794  -20.6067    0.0000 C   0  0  0  0  0  0           0  0  0
   -4.7077  -22.2567    0.0000 O   0  0  0  0  0  0           0  0  0
   -3.2794  -22.2567    0.0000 C   0  0  0  0  0  0           0  0  0
   -2.5653  -21.8442    0.0000 C   0  0  0  0  0  0           0  0  0
   -1.8512  -22.2567    0.0000 C   0  0  2  0  0  0           0  0  0
   -1.1324  -21.8442    0.0000 C   0  0  0  0  0  0           0  0  0
   -1.1324  -21.0192    0.0000 C   0  0  1  0  0  0           0  0  0
   -0.4183  -20.6067    0.0000 C   0  0  2  0  0  0           0  0  0
    0.3622  -20.8666    0.0000 C   0  0  0  0  0  0           0  0  0
    0.8496  -20.1942    0.0000 C   0  0  0  0  0  0           0  0  0
    0.3622  -19.5309    0.0000 C   0  0  2  0  0  0           0  0  0
    0.6222  -18.7458    0.0000 O   0  0  0  0  0  0           0  0  0
   -0.4183  -19.7817    0.0000 C   0  0  2  0  0  0           0  0  0
   -0.4183  -18.9567    0.0000 C   0  0  0  0  0  0           0  0  0
   -1.1324  -19.3692    0.0000 C   0  0  0  0  0  0           0  0  0
   -1.8512  -19.7817    0.0000 C   0  0  0  0  0  0           0  0  0
   -1.8512  -20.6067    0.0000 C   0  0  2  0  0  0           0  0  0
   -2.5653  -21.0192    0.0000 C   0  0  1  0  0  0           0  0  0
   -2.5653  -20.1942    0.0000 C   0  0  0  0  0  0           0  0  0
   -1.8512  -23.0817    0.0000 C   0  0  0  0  0  0           0  0  0
   -1.8512  -21.4317    0.0000 H   0  0  0  0  0  0           0  0  0
   -1.1324  -20.1942    0.0000 H   0  0  0  0  0  0           0  0  0
   -0.4183  -21.4317    0.0000 H   0  0  0  0  0  0           0  0  0
  1  2  1  0     0  0
  2  3  1  0     0  0
  1  4  2  0     0  0
  1  5  1  0     0  0
  5  6  2  0     0  0
  6  7  1  0     0  0
  7  8  1  0     0  0
  8  9  1  0     0  0
  9 10  1  0     0  0
 10 11  1  0     0  0
 11 12  1  0     0  0
 12 13  1  0     0  0
 13 14  1  1     0  0
 13 15  1  0     0  0
 10 15  1  0     0  0
 15 16  1  1     0  0
 15 17  1  0     0  0
 17 18  1  0     0  0
 18 19  1  0     0  0
  9 19  1  0     0  0
 19 20  1  0     0  0
  3 20  1  0     0  0
  6 20  1  0     0  0
 20 21  1  1     0  0
  7 22  1  6     0  0
 19 23  1  6     0  0
  9 24  1  1     0  0
 10 25  1  6     0  0
M  END