
          11280715302D 1   1.00000     0.00000     0

 24 27  0     0  0            999 V2000
    3.5417   -4.1750    0.0000 C   0  0  0  0  0  0           0  0  0
    4.2625   -3.7542    0.0000 C   0  0  0  0  0  0           0  0  0
    2.8250   -3.7667    0.0000 C   0  0  0  0  0  0           0  0  0
    2.1125   -4.1750    0.0000 C   0  0  0  0  0  0           0  0  0
    3.5417   -5.0042    0.0000 C   0  0  0  0  0  0           0  0  0
    2.1125   -5.0042    0.0000 C   0  0  0  0  0  0           0  0  0
    4.2625   -2.9292    0.0000 N   0  0  0  0  0  0           0  0  0
    2.8250   -5.4167    0.0000 C   0  0  0  0  0  0           0  0  0
    4.9750   -2.5125    0.0000 C   0  0  3  0  0  0           0  0  0
    5.8292   -1.3125    0.0000 N   0  0  3  0  0  0           0  0  0
    5.2000   -1.5042    0.0000 C   0  0  3  0  0  0           0  0  0
    2.8167   -2.9417    0.0000 N   0  0  0  0  0  0           0  0  0
    5.2625   -0.5042    0.0000 C   0  0  0  0  0  0           0  0  0
    5.4917   -2.9625    0.0000 C   0  0  0  0  0  0           0  0  0
    4.9792   -4.1667    0.0000 O   0  0  0  0  0  0           0  0  0
    5.3917   -2.1500    0.0000 C   0  0  0  0  0  0           0  0  0
    1.3917   -5.4292    0.0000 N   0  0  0  0  0  0           0  0  0
    2.8250   -6.2417    0.0000 Cl  0  0  0  0  0  0           0  0  0
    1.4042   -3.7667    0.0000 C   0  0  0  0  0  0           0  0  0
    6.7167   -1.5125    0.0000 C   0  0  0  0  0  0           0  0  0
    6.2292   -1.9292    0.0000 C   0  0  0  0  0  0           0  0  0
    6.6167   -2.7292    0.0000 C   0  0  0  0  0  0           0  0  0
    2.1042   -2.5375    0.0000 C   0  0  0  0  0  0           0  0  0
    1.4000   -2.9542    0.0000 C   0  0  0  0  0  0           0  0  0
  2  1  1  0     0  0
  3  1  2  0     0  0
  4  3  1  0     0  0
  5  1  1  0     0  0
  6  8  1  0     0  0
  7  2  1  0     0  0
  8  5  2  0     0  0
  9  7  1  0     0  0
 10 16  1  0     0  0
 11  9  1  0     0  0
 12  3  1  0     0  0
 13 11  1  0     0  0
 14  9  1  0     0  0
 15  2  2  0     0  0
 16 14  1  0     0  0
 17  6  1  0     0  0
 18  8  1  0     0  0
 19  4  1  0     0  0
 20 10  1  0     0  0
 21 11  1  0     0  0
 22 21  1  0     0  0
 23 12  2  0     0  0
 24 23  1  0     0  0
  4  6  2  0     0  0
 24 19  2  0     0  0
 13 10  1  0     0  0
 22 20  1  0     0  0
M  END