
  SciTegic01161211252D

 37 39  0  0  0  0            999 V2000
   -0.6208    0.0625    0.0000 C   0  0  1  0  0  0
   -1.3458    0.4750    0.0000 C   0  0
    1.5292    0.4750    0.0000 C   0  0  1  0  0  0
    2.2417    0.0625    0.0000 C   0  0
    0.0917    0.4750    0.0000 C   0  0  1  0  0  0
    2.9667    0.4750    0.0000 N   0  0
   -2.0583    0.0625    0.0000 N   0  0
    0.8042    0.0625    0.0000 C   0  0  1  0  0  0
   -2.7833    0.4750    0.0000 C   0  0
    3.6792    0.0625    0.0000 C   0  0
   -3.5333    0.1375    0.0000 C   0  0
   -4.0833    0.7500    0.0000 C   0  0
   -2.8625    1.2958    0.0000 C   0  0  2  0  0  0
   -0.6208   -0.7667    0.0000 O   0  0
   -3.6708    1.4625    0.0000 C   0  0
    4.4042    0.4750    0.0000 C   0  0  2  0  0  0
    1.5292    1.3000    0.0000 O   0  0
   -1.3458    1.3000    0.0000 O   0  0
    2.2417   -0.7667    0.0000 O   0  0
    3.6792   -0.7667    0.0000 O   0  0
    0.0917    1.3000    0.0000 O   0  0
    0.8042   -0.7667    0.0000 O   0  0
   -2.2500    1.8458    0.0000 O   0  0
   -0.2208   -1.4792    0.0000 C   0  0
    4.4042    1.3000    0.0000 C   0  0
   -3.7833   -0.6417    0.0000 C   0  0
   -4.8833    0.5833    0.0000 C   0  0
    5.1167    0.0625    0.0000 C   0  0
    3.6792    1.7208    0.0000 C   0  0
    5.1167    1.7208    0.0000 C   0  0
    0.5917   -1.4792    0.0000 C   0  0
   -0.6333   -2.1792    0.0000 C   0  0
   -4.5833   -0.8125    0.0000 C   0  0
   -5.1458   -0.2000    0.0000 C   0  0
    1.0000   -2.1792    0.0000 C   0  0
   -0.2333   -2.8875    0.0000 C   0  0
    0.5875   -2.8875    0.0000 C   0  0
  2  1  1  0
  3  8  1  0
  4  3  1  0
  5  1  1  0
  6  4  1  0
  7  2  1  0
  8  5  1  0
  9  7  1  0
 10  6  1  0
 11  9  1  0
 12 11  2  0
 13  9  1  0
  1 14  1  1
 15 13  1  0
 16 10  1  0
  3 17  1  1
 18  2  2  0
 19  4  2  0
 20 10  2  0
  5 21  1  6
  8 22  1  6
 13 23  1  6
 24 14  1  0
 16 25  1  6
 26 11  1  0
 27 12  1  0
 28 16  1  0
 29 25  1  0
 30 25  1  0
 31 24  1  0
 32 24  2  0
 33 26  2  0
 34 33  1  0
 35 31  2  0
 36 32  1  0
 37 36  2  0
 35 37  1  0
 12 15  1  0
 27 34  2  0
M  END