
  SciTegic02271515072D

 11 10  0  0  0  0            999 V2000
   26.0662   -2.9097    0.0000 C   0  0
   26.0650   -3.7292    0.0000 C   0  0
   26.7731   -4.1382    0.0000 N   0  3
   27.4827   -3.7287    0.0000 C   0  0
   27.4799   -2.9061    0.0000 C   0  0
   26.7713   -2.5008    0.0000 C   0  0
   26.7729   -4.9554    0.0000 C   0  0
   26.7688   -1.6836    0.0000 C   0  0
   27.4753   -1.2729    0.0000 N   0  0
   27.4729   -0.4605    0.0000 O   0  0
   25.0605   -3.5907    0.0000 Br  0  5
  1  2  2  0
  2  3  1  0
  3  4  2  0
  4  5  1  0
  5  6  2  0
  6  1  1  0
  3  7  1  0
  6  8  1  0
  8  9  2  0
  9 10  1  0
M  CHG  2   3   1  11  -1
M  END