
          11280714522D 1   1.00000     0.00000     0

 24 25  0     0  0            999 V2000
    6.1042   -2.3417    0.0000 C   0  0  0  0  0  0           0  0  0
    5.3917   -1.9375    0.0000 C   0  0  0  0  0  0           0  0  0
    6.8167   -1.9292    0.0000 O   0  0  0  0  0  0           0  0  0
    6.1042   -3.1667    0.0000 O   0  0  0  0  0  0           0  0  0
    1.1042   -1.9542    0.0000 O   0  0  0  0  0  0           0  0  0
    7.5292   -2.3417    0.0000 C   0  0  0  0  0  0           0  0  0
    8.9667   -3.1542    0.0000 C   0  0  0  0  0  0           0  0  0
    2.5292   -1.9500    0.0000 C   0  0  3  0  0  0           0  0  0
    1.8167   -2.3625    0.0000 C   0  0  0  0  0  0           0  0  0
    3.9625   -1.9417    0.0000 N   0  0  0  0  0  0           0  0  0
    9.6792   -3.5667    0.0000 F   0  0  0  0  0  0           0  0  0
    0.3917   -2.3667    0.0000 C   0  0  0  0  0  0           0  0  0
    8.2417   -1.9250    0.0000 C   0  0  0  0  0  0           0  0  0
    7.5375   -3.1667    0.0000 C   0  0  0  0  0  0           0  0  0
    8.2500   -3.5750    0.0000 C   0  0  0  0  0  0           0  0  0
    8.9542   -2.3292    0.0000 C   0  0  0  0  0  0           0  0  0
    2.5292   -1.1250    0.0000 O   0  0  0  0  0  0           0  0  0
    4.6792   -2.3542    0.0000 C   0  0  0  0  0  0           0  0  0
    3.2500   -2.3542    0.0000 C   0  0  0  0  0  0           0  0  0
    0.3917   -3.2000    0.0000 C   0  0  0  0  0  0           0  0  0
   -0.3250   -1.9542    0.0000 C   0  0  0  0  0  0           0  0  0
   -0.3250   -3.6125    0.0000 C   0  0  0  0  0  0           0  0  0
   -1.0375   -2.3750    0.0000 C   0  0  0  0  0  0           0  0  0
   -1.0375   -3.2000    0.0000 C   0  0  0  0  0  0           0  0  0
  2  1  1  0     0  0
  3  1  1  0     0  0
  4  1  2  0     0  0
  5  9  1  0     0  0
  6  3  1  0     0  0
  7 15  2  0     0  0
  8 19  1  0     0  0
  9  8  1  0     0  0
 10 18  1  0     0  0
 11  7  1  0     0  0
 12  5  1  0     0  0
 13  6  1  0     0  0
 14  6  2  0     0  0
 15 14  1  0     0  0
 16 13  2  0     0  0
 17  8  1  0     0  0
 18  2  1  0     0  0
 19 10  1  0     0  0
 20 12  1  0     0  0
 21 12  2  0     0  0
 22 20  2  0     0  0
 23 21  1  0     0  0
 24 23  2  0     0  0
  7 16  1  0     0  0
 22 24  1  0     0  0
M  END