
          05080814032D 1   1.00000     0.00000     0

 32 36  0     0  0            999 V2000
    3.6152  -11.9583    0.0000 C   0  0  0  0  0  0           0  0  0
    3.6141  -12.7857    0.0000 C   0  0  0  0  0  0           0  0  0
    4.3289  -13.1985    0.0000 C   0  0  0  0  0  0           0  0  0
    4.3271  -11.5455    0.0000 C   0  0  0  0  0  0           0  0  0
    5.0425  -11.9547    0.0000 C   0  0  0  0  0  0           0  0  0
    5.0427  -12.7811    0.0000 C   0  0  0  0  0  0           0  0  0
    5.8288  -13.0363    0.0000 N   0  0  3  0  0  0           0  0  0
    6.3145  -12.3675    0.0000 C   0  0  0  0  0  0           0  0  0
    5.8284  -11.6991    0.0000 N   0  0  0  0  0  0           0  0  0
    4.3307  -14.0258    0.0000 C   0  0  0  0  0  0           0  0  0
    3.6174  -14.4402    0.0000 O   0  0  0  0  0  0           0  0  0
    5.0463  -14.4364    0.0000 O   0  0  0  0  0  0           0  0  0
    6.0840  -13.8208    0.0000 C   0  0  0  0  0  0           0  0  0
    6.8910  -13.9921    0.0000 C   0  0  0  0  0  0           0  0  0
    7.1443  -14.7779    0.0000 C   0  0  0  0  0  0           0  0  0
    7.9505  -14.9494    0.0000 C   0  0  0  0  0  0           0  0  0
    8.5033  -14.3358    0.0000 C   0  0  0  0  0  0           0  0  0
    8.2443  -13.5480    0.0000 C   0  0  0  0  0  0           0  0  0
    7.4387  -13.3803    0.0000 C   0  0  0  0  0  0           0  0  0
    9.3106  -14.5060    0.0000 N   0  0  3  0  0  0           0  0  0
    9.6482  -15.2560    0.0000 C   0  0  0  0  0  0           0  0  0
   10.4685  -15.1685    0.0000 C   0  0  0  0  0  0           0  0  0
   10.6388  -14.3612    0.0000 C   0  0  0  0  0  0           0  0  0
    9.9236  -13.9499    0.0000 C   0  0  0  0  0  0           0  0  0
    9.8363  -13.1340    0.0000 C   0  0  0  0  0  0           0  0  0
   10.4479  -12.5803    0.0000 N   0  0  0  0  0  0           0  0  0
   10.1103  -11.8275    0.0000 N   0  0  0  0  0  0           0  0  0
    9.2900  -11.9160    0.0000 N   0  0  0  0  0  0           0  0  0
    9.1208  -12.7235    0.0000 N   0  0  0  0  0  0           0  0  0
    7.1395  -12.3672    0.0000 C   0  0  0  0  0  0           0  0  0
    7.5517  -11.6526    0.0000 C   0  0  0  0  0  0           0  0  0
    7.1389  -10.9382    0.0000 C   0  0  0  0  0  0           0  0  0
  5  4  2  0     0  0
 15 16  1  0     0  0
  6  7  1  0     0  0
 16 17  2  0     0  0
  7  8  1  0     0  0
 17 18  1  0     0  0
  8  9  2  0     0  0
 18 19  2  0     0  0
 19 14  1  0     0  0
  9  5  1  0     0  0
 17 20  1  0     0  0
 20 21  1  0     0  0
  4  1  1  0     0  0
  5  6  1  0     0  0
 10 11  1  0     0  0
 21 22  2  0     0  0
 22 23  1  0     0  0
 23 24  2  0     0  0
 24 20  1  0     0  0
 25 26  1  0     0  0
 10 12  2  0     0  0
  3 10  1  0     0  0
  2  3  1  0     0  0
  7 13  1  0     0  0
  3  6  2  0     0  0
 26 27  1  0     0  0
 27 28  2  0     0  0
 28 29  1  0     0  0
 29 25  2  0     0  0
 24 25  1  0     0  0
 13 14  1  0     0  0
  8 30  1  0     0  0
  1  2  2  0     0  0
 30 31  1  0     0  0
 14 15  2  0     0  0
 31 32  1  0     0  0
M  END