
          11280715082D 1   1.00000     0.00000     0

 34 36  0     1  0            999 V2000
    5.8417   -2.5292    0.0000 C   0  0  0  0  0  0           0  0  0
   10.6875   -3.9292    0.0000 S   0  0  3  0  0  0           0  0  0
    5.8417   -1.7000    0.0000 C   0  0  0  0  0  0           0  0  0
    6.6292   -2.7917    0.0000 S   0  0  0  0  0  0           0  0  0
    7.1250   -2.1167    0.0000 C   0  0  0  0  0  0           0  0  0
    5.0417   -2.7875    0.0000 S   0  0  0  0  0  0           0  0  0
    6.6375   -1.4417    0.0000 C   0  0  0  0  0  0           0  0  0
   10.7000   -3.1042    0.0000 N   0  0  0  0  0  0           0  0  0
   10.1167   -2.5250    0.0000 C   0  0  2  0  0  0           0  0  0
    7.9542   -2.1167    0.0000 C   0  0  0  0  0  0           0  0  0
    5.0542   -1.4417    0.0000 C   0  0  0  0  0  0           0  0  0
    4.5625   -2.1167    0.0000 C   0  0  0  0  0  0           0  0  0
   10.8250   -2.1125    0.0000 C   0  0  0  0  0  0           0  0  0
    8.6750   -2.5292    0.0000 N   0  0  0  0  0  0           0  0  0
   10.6875   -4.7667    0.0000 C   0  0  0  0  0  0           0  0  0
    9.8542   -3.9292    0.0000 O   0  0  0  0  0  0           0  0  0
   11.5167   -3.9292    0.0000 O   0  0  0  0  0  0           0  0  0
    9.3917   -2.1167    0.0000 C   0  0  0  0  0  0           0  0  0
    0.8167   -2.7917    0.0000 N   0  0  0  0  0  0           0  0  0
    8.1625   -1.3167    0.0000 O   0  0  0  0  0  0           0  0  0
   10.8250   -1.2792    0.0000 O   0  0  0  0  0  0           0  0  0
    3.7292   -2.1125    0.0000 C   0  0  0  0  0  0           0  0  0
   11.5542   -2.5167    0.0000 O   0  0  0  0  0  0           0  0  0
    3.3042   -2.8250    0.0000 C   0  0  0  0  0  0           0  0  0
    9.9625   -5.1792    0.0000 C   0  0  0  0  0  0           0  0  0
    2.4792   -2.8167    0.0000 C   0  0  3  0  0  0           0  0  0
    9.9542   -6.0125    0.0000 O   0  0  0  0  0  0           0  0  0
    1.2375   -2.0792    0.0000 C   0  0  0  0  0  0           0  0  0
    1.2167   -3.5167    0.0000 C   0  0  0  0  0  0           0  0  0
    9.2292   -6.4167    0.0000 C   0  0  0  0  0  0           0  0  0
    2.0625   -3.5375    0.0000 C   0  0  0  0  0  0           0  0  0
    2.0667   -2.0917    0.0000 C   0  0  0  0  0  0           0  0  0
    9.2292   -7.2500    0.0000 C   0  0  0  0  0  0           0  0  0
    9.6917   -3.2417    0.0000 H   0  0  0  0  0  0           0  0  0
  2  8  1  0     0  0
  3  1  2  0     0  0
  4  1  1  0     0  0
  5  4  1  0     0  0
  6  1  1  0     0  0
  7  3  1  0     0  0
  9  8  1  1     0  0
  9 18  1  0     0  0
 10  5  1  0     0  0
 11  3  1  0     0  0
 12  6  1  0     0  0
 13  9  1  0     0  0
 14 10  1  0     0  0
 15  2  1  0     0  0
 16  2  2  0     0  0
 17  2  2  0     0  0
 18 14  1  0     0  0
 19 28  1  0     0  0
 20 10  2  0     0  0
 21 13  2  0     0  0
 22 12  1  0     0  0
 23 13  1  0     0  0
 24 22  1  0     0  0
 25 15  1  0     0  0
 26 24  1  0     0  0
 27 25  1  0     0  0
 28 32  1  0     0  0
 29 31  1  0     0  0
 30 27  1  0     0  0
 31 26  1  0     0  0
 32 26  1  0     0  0
 33 30  1  0     0  0
  9 34  1  6     0  0
 12 11  2  0     0  0
  7  5  2  0     0  0
 29 19  1  0     0  0
M  END