
          11280714442D 1   1.00000     0.00000     0

 23 24  0     0  0            999 V2000
    2.7542   -2.1542    0.0000 S   0  0  3  0  0  0           0  0  0
    2.7042   -1.2792    0.0000 O   0  0  0  0  0  0           0  0  0
    2.7542   -2.9792    0.0000 O   0  0  0  0  0  0           0  0  0
    1.9292   -2.1667    0.0000 C   0  0  0  0  0  0           0  0  0
    3.5792   -2.1542    0.0000 N   0  0  0  0  0  0           0  0  0
    6.4792   -7.1417    0.0000 C   0  0  0  0  0  0           0  0  0
    7.3125   -7.1417    0.0000 O   0  0  0  0  0  0           0  0  0
    6.4792   -5.7167    0.0000 O   0  0  0  0  0  0           0  0  0
    6.0667   -6.4292    0.0000 C   0  0  0  0  0  0           0  0  0
    6.0625   -5.0042    0.0000 C   0  0  0  0  0  0           0  0  0
    6.0792   -7.8625    0.0000 O   0  0  0  0  0  0           0  0  0
    5.2292   -3.5792    0.0000 C   0  0  0  0  0  0           0  0  0
    3.9917   -2.8667    0.0000 C   0  0  0  0  0  0           0  0  0
    6.4750   -4.2792    0.0000 C   0  0  0  0  0  0           0  0  0
    5.2375   -5.0042    0.0000 C   0  0  0  0  0  0           0  0  0
    6.0542   -3.5750    0.0000 C   0  0  0  0  0  0           0  0  0
    4.8250   -4.2917    0.0000 C   0  0  0  0  0  0           0  0  0
    1.5292   -2.8875    0.0000 C   0  0  0  0  0  0           0  0  0
    1.5125   -1.4542    0.0000 C   0  0  0  0  0  0           0  0  0
    4.8167   -2.8667    0.0000 C   0  0  0  0  0  0           0  0  0
    0.6792   -1.4667    0.0000 C   0  0  0  0  0  0           0  0  0
    0.7042   -2.8917    0.0000 C   0  0  0  0  0  0           0  0  0
    0.2792   -2.1917    0.0000 C   0  0  0  0  0  0           0  0  0
  2  1  2  0     0  0
  3  1  2  0     0  0
  4  1  1  0     0  0
  5  1  1  0     0  0
  6  9  1  0     0  0
  7  6  2  0     0  0
  8 10  1  0     0  0
  9  8  1  0     0  0
 10 15  2  0     0  0
 11  6  1  0     0  0
 12 20  1  0     0  0
 13  5  1  0     0  0
 14 16  2  0     0  0
 15 17  1  0     0  0
 16 12  1  0     0  0
 17 12  2  0     0  0
 18  4  1  0     0  0
 19  4  2  0     0  0
 20 13  1  0     0  0
 21 19  1  0     0  0
 22 18  2  0     0  0
 23 21  2  0     0  0
 23 22  1  0     0  0
 10 14  1  0     0  0
M  END