
  CDK    9/16/09,9:58

 26 30  0  0  0  0  0  0  0  0999 V2000
   11.0432    1.1003    0.0000 C   0  0  0  0  0  0  0  0  0  0  0  0
   11.0418    0.2726    0.0000 C   0  0  0  0  0  0  0  0  0  0  0  0
   11.7551   -0.1405    0.0000 C   0  0  0  0  0  0  0  0  0  0  0  0
   11.7531    1.5133    0.0000 C   0  0  0  0  0  0  0  0  0  0  0  0
   12.4714    1.1044    0.0000 C   0  0  0  0  0  0  0  0  0  0  0  0
   12.4719    0.2772    0.0000 C   0  0  0  0  0  0  0  0  0  0  0  0
   13.2589    0.0220    0.0000 N   0  0  0  0  0  0  0  0  0  0  0  0
   13.7448    0.6916    0.0000 C   0  0  0  0  0  0  0  0  0  0  0  0
   13.2580    1.3605    0.0000 N   0  0  0  0  0  0  0  0  0  0  0  0
   14.5701    0.6922    0.0000 N   0  0  0  0  0  0  0  0  0  0  0  0
   14.9832   -0.0222    0.0000 C   0  0  0  0  0  0  0  0  0  0  0  0
   14.5706   -0.7336    0.0000 C   0  0  0  0  0  0  0  0  0  0  0  0
   14.9803   -1.4459    0.0000 C   0  0  0  0  0  0  0  0  0  0  0  0
   15.8059   -1.4496    0.0000 C   0  0  0  0  0  0  0  0  0  0  0  0
   15.8090   -0.0162    0.0000 C   0  0  0  0  0  0  0  0  0  0  0  0
   16.2171   -0.7332    0.0000 C   0  0  0  0  0  0  0  0  0  0  0  0
   17.0401   -0.7372    0.0000 C   0  0  0  0  0  0  0  0  0  0  0  0
   17.4561   -0.0250    0.0000 C   0  0  0  0  0  0  0  0  0  0  0  0
   17.0429    0.6928    0.0000 C   0  0  0  0  0  0  0  0  0  0  0  0
   16.2211    0.6932    0.0000 C   0  0  0  0  0  0  0  0  0  0  0  0
   17.4557    1.4038    0.0000 C   0  0  0  0  0  0  0  0  0  0  0  0
   18.2821    1.4017    0.0000 C   0  0  0  0  0  0  0  0  0  0  0  0
   18.6953    2.1152    0.0000 C   0  0  0  0  0  0  0  0  0  0  0  0
   18.2833    2.8313    0.0000 C   0  0  0  0  0  0  0  0  0  0  0  0
   17.4538    2.8293    0.0000 C   0  0  0  0  0  0  0  0  0  0  0  0
   17.0443    2.1153    0.0000 C   0  0  0  0  0  0  0  0  0  0  0  0
  2  3  1  0  0  0  0 
  3  6  2  0  0  0  0 
 11 15  1  0  0  0  0 
 12 13  1  0  0  0  0 
 13 14  1  0  0  0  0 
 14 16  1  0  0  0  0 
  1  2  2  0  0  0  0 
  5  4  2  0  0  0  0 
 15 16  2  0  0  0  0 
  6  7  1  0  0  0  0 
 16 17  1  0  0  0  0 
  7  8  1  0  0  0  0 
 17 18  2  0  0  0  0 
  8  9  2  0  0  0  0 
 18 19  1  0  0  0  0 
  9  5  1  0  0  0  0 
 19 20  2  0  0  0  0 
 20 15  1  0  0  0  0 
  4  1  1  0  0  0  0 
  8 10  1  0  0  0  0 
 21 22  2  0  0  0  0 
  5  6  1  0  0  0  0 
 22 23  1  0  0  0  0 
 10 11  1  0  0  0  0 
 23 24  2  0  0  0  0 
 11 12  1  0  0  0  0 
 24 25  1  0  0  0  0 
 25 26  2  0  0  0  0 
 26 21  1  0  0  0  0 
 19 21  1  0  0  0  0 
M  END