
          11280714442D 1   1.00000     0.00000     0

 25 25  0     0  0            999 V2000
    4.6292   -1.8375    0.0000 C   0  0  0  0  0  0           0  0  0
    5.4500   -1.8167    0.0000 C   0  0  0  0  0  0           0  0  0
   11.2417   -3.1667    0.0000 C   0  0  0  0  0  0           0  0  0
   10.4167   -3.1667    0.0000 N   0  0  0  0  0  0           0  0  0
    5.8792   -2.5250    0.0000 O   0  0  0  0  0  0           0  0  0
    4.2000   -1.1292    0.0000 C   0  0  0  0  0  0           0  0  0
    5.8500   -1.0917    0.0000 O   0  0  0  0  0  0           0  0  0
    8.3542   -2.4667    0.0000 N   0  0  0  0  0  0           0  0  0
   11.6542   -2.4500    0.0000 O   0  0  0  0  0  0           0  0  0
    9.1792   -2.4542    0.0000 C   0  0  3  0  0  0           0  0  0
   10.0042   -2.4542    0.0000 C   0  0  0  0  0  0           0  0  0
   11.6542   -3.8792    0.0000 C   0  0  3  0  0  0           0  0  0
    7.1292   -3.2125    0.0000 C   0  0  3  0  0  0           0  0  0
    6.7042   -2.5042    0.0000 C   0  0  0  0  0  0           0  0  0
    7.9542   -3.1917    0.0000 C   0  0  0  0  0  0           0  0  0
    4.6000   -0.4125    0.0000 F   0  0  0  0  0  0           0  0  0
    4.2292   -2.5625    0.0000 C   0  0  0  0  0  0           0  0  0
    6.7375   -3.9375    0.0000 O   0  0  0  0  0  0           0  0  0
    3.3750   -1.1500    0.0000 C   0  0  0  0  0  0           0  0  0
    9.5750   -1.7292    0.0000 C   0  0  0  0  0  0           0  0  0
    9.6042   -3.1542    0.0000 C   0  0  0  0  0  0           0  0  0
   11.2417   -4.5917    0.0000 C   0  0  0  0  0  0           0  0  0
   12.4792   -3.8792    0.0000 C   0  0  0  0  0  0           0  0  0
    3.4000   -2.5792    0.0000 C   0  0  0  0  0  0           0  0  0
    2.9750   -1.8667    0.0000 C   0  0  0  0  0  0           0  0  0
  2  1  1  0     0  0
  3  4  1  0     0  0
  4 11  1  0     0  0
  5  2  1  0     0  0
  6  1  1  0     0  0
  7  2  2  0     0  0
  8 15  1  0     0  0
  9  3  2  0     0  0
 10  8  1  0     0  0
 11 10  1  0     0  0
 12  3  1  0     0  0
 13 14  1  0     0  0
 14  5  1  0     0  0
 15 13  1  0     0  0
 16  6  1  0     0  0
 17  1  2  0     0  0
 18 13  1  0     0  0
 19  6  2  0     0  0
 20 10  1  0     0  0
 21 10  1  0     0  0
 22 12  1  0     0  0
 23 12  1  0     0  0
 24 17  1  0     0  0
 25 24  2  0     0  0
 25 19  1  0     0  0
M  END