
          11280715342D 1   1.00000     0.00000     0

 24 24  0     0  0            999 V2000
   -0.0250   -0.3125    0.0000 S   0  0  3  0  0  0           0  0  0
    6.1792   -2.4167    0.0000 C   0  0  3  0  0  0           0  0  0
    7.0042   -2.4000    0.0000 C   0  0  0  0  0  0           0  0  0
    5.7500   -1.7125    0.0000 N   0  0  0  0  0  0           0  0  0
    3.2667   -0.2917    0.0000 C   0  0  0  0  0  0           0  0  0
    0.8000   -0.3042    0.0000 C   0  0  0  0  0  0           0  0  0
    4.9250   -1.7125    0.0000 C   0  0  0  0  0  0           0  0  0
    3.6792   -1.0042    0.0000 N   0  0  0  0  0  0           0  0  0
   -0.0333   -1.1292    0.0000 O   0  0  0  0  0  0           0  0  0
   -0.0250    0.5125    0.0000 O   0  0  0  0  0  0           0  0  0
    2.4417   -0.3000    0.0000 C   0  0  0  0  0  0           0  0  0
   -0.8500   -0.3042    0.0000 N   0  0  0  0  0  0           0  0  0
    7.4000   -1.6750    0.0000 O   0  0  0  0  0  0           0  0  0
    3.6750    0.4208    0.0000 O   0  0  0  0  0  0           0  0  0
    5.7792   -3.1417    0.0000 C   0  0  3  0  0  0           0  0  0
    4.5167   -2.4292    0.0000 O   0  0  0  0  0  0           0  0  0
    1.2000    0.4083    0.0000 C   0  0  0  0  0  0           0  0  0
    1.2125   -1.0167    0.0000 C   0  0  0  0  0  0           0  0  0
    2.0292   -1.0167    0.0000 C   0  0  0  0  0  0           0  0  0
    2.0167    0.4125    0.0000 C   0  0  0  0  0  0           0  0  0
    4.5042   -1.0000    0.0000 C   0  0  0  0  0  0           0  0  0
    7.4292   -3.1042    0.0000 O   0  0  0  0  0  0           0  0  0
    6.2042   -3.8417    0.0000 O   0  0  0  0  0  0           0  0  0
    4.9542   -3.1542    0.0000 C   0  0  0  0  0  0           0  0  0
  2  4  1  0     0  0
  3  2  1  0     0  0
  4  7  1  0     0  0
  5 11  1  0     0  0
  6  1  1  0     0  0
  7 21  1  0     0  0
  8  5  1  0     0  0
  9  1  2  0     0  0
 10  1  2  0     0  0
 11 19  2  0     0  0
 12  1  1  0     0  0
 13  3  2  0     0  0
 14  5  2  0     0  0
 15  2  1  0     0  0
 16  7  2  0     0  0
 17  6  1  0     0  0
 18  6  2  0     0  0
 19 18  1  0     0  0
 20 17  2  0     0  0
 21  8  1  0     0  0
 22  3  1  0     0  0
 23 15  1  0     0  0
 24 15  1  0     0  0
 11 20  1  0     0  0
M  END