
  SciTegic09171211542D

 16 16  0  0  0  0            999 V2000
   20.5902  -24.0541    0.0000 C   0  0
   20.5891  -24.8815    0.0000 C   0  0
   21.3039  -25.2944    0.0000 C   0  0
   22.0203  -24.8810    0.0000 C   0  0
   22.0175  -24.0505    0.0000 C   0  0
   21.3021  -23.6414    0.0000 C   0  0
   22.7304  -23.6353    0.0000 C   0  0
   22.7273  -22.8103    0.0000 C   0  0
   23.4402  -22.3951    0.0000 C   0  0
   24.1589  -22.8035    0.0000 O   0  0
   23.4398  -21.5687    0.0000 O   0  0
   22.0097  -22.4010    0.0000 C   0  0
   22.0066  -21.5760    0.0000 O   0  0
   21.2968  -22.8161    0.0000 O   0  0
   19.8743  -25.2934    0.0000 O   0  0
   19.8736  -26.1184    0.0000 C   0  0
  7  8  1  0
  8  9  1  0
  4  5  1  0
  2  3  1  0
  9 10  1  0
  9 11  2  0
  5  6  2  0
  6  1  1  0
  1  2  2  0
 12 13  1  0
 12 14  2  0
  8 12  1  0
  5  7  1  0
  2 15  1  0
  3  4  2  0
 15 16  1  0
M  END