
          11280715342D 1   1.00000     0.00000     0

 31 32  0     0  0            999 V2000
    0.9417   -3.6500    0.0000 S   0  0  3  0  0  0           0  0  0
    7.5917   -9.5542    0.0000 N   0  3  0  0  0  0           0  0  0
    4.2375   -3.6375    0.0000 C   0  0  0  0  0  0           0  0  0
    7.0042   -5.8250    0.0000 C   0  0  3  0  0  0           0  0  0
    7.8167   -5.9667    0.0000 C   0  0  0  0  0  0           0  0  0
    6.7167   -5.0500    0.0000 N   0  0  0  0  0  0           0  0  0
    1.7667   -3.6500    0.0000 C   0  0  0  0  0  0           0  0  0
    7.3125   -8.7792    0.0000 C   0  0  0  0  0  0           0  0  0
    5.8917   -5.0542    0.0000 C   0  0  0  0  0  0           0  0  0
    4.6542   -4.3500    0.0000 N   0  0  0  0  0  0           0  0  0
    0.9417   -4.4750    0.0000 O   0  0  0  0  0  0           0  0  0
    0.9417   -2.8250    0.0000 O   0  0  0  0  0  0           0  0  0
    8.4042   -9.7042    0.0000 O   0  5  0  0  0  0           0  0  0
    7.0625  -10.1875    0.0000 O   0  0  0  0  0  0           0  0  0
    3.4125   -3.6417    0.0000 C   0  0  0  0  0  0           0  0  0
    0.1167   -3.6417    0.0000 N   0  0  0  0  0  0           0  0  0
    6.4667   -6.4542    0.0000 C   0  0  0  0  0  0           0  0  0
    4.6417   -2.9167    0.0000 O   0  0  0  0  0  0           0  0  0
    8.3417   -5.3375    0.0000 O   0  0  0  0  0  0           0  0  0
    5.4875   -5.7667    0.0000 O   0  0  0  0  0  0           0  0  0
    2.1667   -2.9375    0.0000 C   0  0  0  0  0  0           0  0  0
    2.1792   -4.3625    0.0000 C   0  0  0  0  0  0           0  0  0
    3.0042   -4.3542    0.0000 C   0  0  0  0  0  0           0  0  0
    2.9917   -2.9292    0.0000 C   0  0  0  0  0  0           0  0  0
    5.4792   -4.3417    0.0000 C   0  0  0  0  0  0           0  0  0
    6.5000   -8.6292    0.0000 C   0  0  0  0  0  0           0  0  0
    7.8417   -8.1417    0.0000 C   0  0  0  0  0  0           0  0  0
    6.7542   -7.2292    0.0000 C   0  0  0  0  0  0           0  0  0
    8.0917   -6.7417    0.0000 O   0  0  0  0  0  0           0  0  0
    6.2167   -7.8542    0.0000 C   0  0  0  0  0  0           0  0  0
    7.5667   -7.3667    0.0000 C   0  0  0  0  0  0           0  0  0
  2  8  1  0     0  0
  3 15  1  0     0  0
  4  6  1  0     0  0
  5  4  1  0     0  0
  6  9  1  0     0  0
  7  1  1  0     0  0
  8 27  2  0     0  0
  9 25  1  0     0  0
 10  3  1  0     0  0
 11  1  2  0     0  0
 12  1  2  0     0  0
 13  2  1  0     0  0
 14  2  2  0     0  0
 15 23  2  0     0  0
 16  1  1  0     0  0
 17  4  1  0     0  0
 18  3  2  0     0  0
 19  5  2  0     0  0
 20  9  2  0     0  0
 21  7  1  0     0  0
 22  7  2  0     0  0
 23 22  1  0     0  0
 24 21  2  0     0  0
 25 10  1  0     0  0
 26 30  2  0     0  0
 27 31  1  0     0  0
 28 17  1  0     0  0
 29  5  1  0     0  0
 30 28  1  0     0  0
 31 28  2  0     0  0
 15 24  1  0     0  0
  8 26  1  0     0  0
M  CHG  2   2   1  13  -1
M  END