
  SciTegic03291108562D

 23 26  0  0  0  0            999 V2000
   -1.9642   -2.3112    0.0000 Br  0  0
   -0.9445    2.1621    0.0000 S   0  0
    0.5546   -0.1553    0.0000 S   0  0
    1.2691    1.0822    0.0000 N   0  0
    0.5546    2.3197    0.0000 N   0  0
    1.3553   -1.3883    0.0000 N   0  0
    2.0228   -0.2323    0.0000 N   0  0
    2.1623   -1.5598    0.0000 N   0  0
    2.5748   -0.8454    0.0000 N   0  0
   -0.1599    1.0822    0.0000 C   0  0
   -0.9445    0.8272    0.0000 C   0  0
   -0.1599    1.9072    0.0000 C   0  0
    0.5546    0.6697    0.0000 C   0  0
   -1.1994    0.0426    0.0000 C   0  0
   -1.4294    1.4947    0.0000 C   0  0
    1.2691   -0.5678    0.0000 C   0  0
    1.2691    1.9072    0.0000 C   0  0
   -0.6474   -0.5705    0.0000 C   0  0
   -2.0064   -0.1289    0.0000 C   0  0
   -0.9023   -1.3551    0.0000 C   0  0
   -2.2613   -0.9135    0.0000 C   0  0
   -1.7093   -1.5266    0.0000 C   0  0
    0.7422   -1.9403    0.0000 C   0  0
  1 22  1  0
  2 12  1  0
  2 15  1  0
  3 13  1  0
  3 16  1  0
  4 13  1  0
  4 17  2  0
  5 12  2  0
  5 17  1  0
  6  8  1  0
  6 16  1  0
  6 23  1  0
  7  9  1  0
  7 16  2  0
  8  9  2  0
 10 11  1  0
 10 12  1  0
 10 13  2  0
 11 14  1  0
 11 15  2  0
 14 18  2  0
 14 19  1  0
 18 20  1  0
 19 21  2  0
 20 22  2  0
 21 22  1  0
M  END