
  SciTegic10311316302D

 27 30  0  0  0  0            999 V2000
   13.4946  -10.7803    0.0000 C   0  0
   13.4935  -11.5998    0.0000 C   0  0
   14.2015  -12.0088    0.0000 C   0  0
   14.1997  -10.3714    0.0000 C   0  0
   14.9084  -10.7767    0.0000 C   0  0
   14.9132  -11.5998    0.0000 C   0  0
   15.6976  -11.8497    0.0000 S   0  0
   16.1776  -11.1808    0.0000 C   0  0
   15.6897  -10.5178    0.0000 N   0  0
   16.9947  -11.1760    0.0000 N   0  0
   17.3991  -10.4659    0.0000 N   0  0
   18.2163  -10.4611    0.0000 C   0  0
   18.6207   -9.7510    0.0000 C   0  0
   19.4295   -9.6584    0.0000 O   0  0
   19.5947   -8.8581    0.0000 C   0  0
   18.8845   -8.4537    0.0000 C   0  0
   18.2806   -9.0041    0.0000 C   0  0
   20.3361   -8.5211    0.0000 C   0  0
   21.0001   -8.9992    0.0000 C   0  0
   21.7441   -8.6631    0.0000 C   0  0
   21.8253   -7.8491    0.0000 C   0  0
   21.1564   -7.3723    0.0000 C   0  0
   20.4150   -7.7111    0.0000 C   0  0
   22.4079   -9.1398    0.0000 C   0  0
   22.3268   -9.9530    0.0000 O   0  0
   23.1526   -8.8034    0.0000 O   0  0
   18.6291  -11.1664    0.0000 C   0  0
  1  2  2  0
  2  3  1  0
  3  6  2  0
  5  4  2  0
  4  1  1  0
  5  6  1  0
  6  7  1  0
  7  8  1  0
  8  9  2  0
  9  5  1  0
  8 10  1  0
 10 11  1  0
 11 12  2  0
 12 13  1  0
 13 14  1  0
 14 15  1  0
 15 16  2  0
 16 17  1  0
 17 13  2  0
 18 19  2  0
 19 20  1  0
 20 21  2  0
 21 22  1  0
 22 23  2  0
 23 18  1  0
 15 18  1  0
 20 24  1  0
 24 25  2  0
 24 26  1  0
 12 27  1  0
M  END