
  SciTegic01161211232D

 17 18  0  0  0  0            999 V2000
    2.6038   -2.6105    0.0000 C   0  0
    2.6025   -3.4349    0.0000 C   0  0
    3.3171   -3.8456    0.0000 C   0  0
    4.0316   -3.4315    0.0000 C   0  0
    4.0270   -2.6022    0.0000 C   0  0
    3.3119   -2.1952    0.0000 C   0  0
    1.8883   -2.2000    0.0000 N   0  0
    1.0633   -1.3750    0.0000 C   0  0
    1.0633   -2.2000    0.0000 C   0  0
    1.8883   -1.3750    0.0000 C   0  0
    2.4717   -0.7916    0.0000 O   0  0
    0.4799   -2.7833    0.0000 O   0  0
    1.0541   -0.5454    0.0000 C   0  0
    1.7641   -0.1251    0.0000 C   0  0
    0.2383   -1.3795    0.0000 C   0  0
   -0.1782   -0.6674    0.0000 C   0  0
    4.7475   -3.8414    0.0000 C   0  0
  4  5  1  0
  9  7  1  0
  7 10  1  0
 10  8  1  0
  2  3  1  0
 10 11  2  0
  5  6  2  0
  9 12  2  0
  6  1  1  0
  8 13  1  0
  1  2  2  0
 13 14  1  0
  1  7  1  0
  8 15  1  0
  8  9  1  0
 15 16  1  0
  3  4  2  0
  4 17  1  0
M  END