
  CDK    9/16/09,9:48

 31 34  0  0  0  0  0  0  0  0999 V2000
   -1.9724  -13.0441    0.0000 C   0  0  0  0  0  0  0  0  0  0  0  0
   -1.9737  -13.8718    0.0000 C   0  0  0  0  0  0  0  0  0  0  0  0
   -1.2607  -14.2846    0.0000 C   0  0  0  0  0  0  0  0  0  0  0  0
   -1.2627  -12.6313    0.0000 C   0  0  0  0  0  0  0  0  0  0  0  0
   -0.5445  -13.0402    0.0000 C   0  0  0  0  0  0  0  0  0  0  0  0
   -0.5454  -13.8691    0.0000 C   0  0  0  0  0  0  0  0  0  0  0  0
    0.1682  -14.2822    0.0000 C   0  0  0  0  0  0  0  0  0  0  0  0
    0.8871  -13.8707    0.0000 N   0  0  0  0  0  0  0  0  0  0  0  0
    0.8880  -13.0417    0.0000 C   0  0  0  0  0  0  0  0  0  0  0  0
    0.1699  -12.6240    0.0000 N   0  0  0  0  0  0  0  0  0  0  0  0
    1.5983  -14.2820    0.0000 C   0  0  0  0  0  0  0  0  0  0  0  0
    1.5949  -15.1081    0.0000 C   0  0  0  0  0  0  0  0  0  0  0  0
    2.3075  -15.5222    0.0000 C   0  0  0  0  0  0  0  0  0  0  0  0
    3.0240  -15.1114    0.0000 C   0  0  0  0  0  0  0  0  0  0  0  0
    3.0233  -14.2822    0.0000 C   0  0  0  0  0  0  0  0  0  0  0  0
    2.3101  -13.8717    0.0000 C   0  0  0  0  0  0  0  0  0  0  0  0
    3.7380  -15.5247    0.0000 O   0  0  0  0  0  0  0  0  0  0  0  0
    4.4529  -15.1130    0.0000 C   0  0  0  0  0  0  0  0  0  0  0  0
    5.1669  -15.5263    0.0000 C   0  0  0  0  0  0  0  0  0  0  0  0
    5.8818  -15.1147    0.0000 C   0  0  0  0  0  0  0  0  0  0  0  0
    6.5958  -15.5279    0.0000 N   0  0  0  0  0  0  0  0  0  0  0  0
    6.6852  -16.3475    0.0000 C   0  0  0  0  0  0  0  0  0  0  0  0
    7.4920  -16.5200    0.0000 C   0  0  0  0  0  0  0  0  0  0  0  0
    7.9054  -15.8059    0.0000 C   0  0  0  0  0  0  0  0  0  0  0  0
    7.3539  -15.1923    0.0000 C   0  0  0  0  0  0  0  0  0  0  0  0
    0.1661  -15.1072    0.0000 O   0  0  0  0  0  0  0  0  0  0  0  0
    1.6034  -12.6306    0.0000 C   0  0  0  0  0  0  0  0  0  0  0  0
   -1.2602  -15.1096    0.0000 C   0  0  0  0  0  0  0  0  0  0  0  0
   -1.2650  -15.9316    0.0000 F   0  0  0  0  0  0  0  0  0  0  0  0
   -0.4352  -15.1118    0.0000 F   0  0  0  0  0  0  0  0  0  0  0  0
   -2.0852  -15.1105    0.0000 F   0  0  0  0  0  0  0  0  0  0  0  0
  5  4  2  0  0  0  0 
 15 16  2  0  0  0  0 
 16 11  1  0  0  0  0 
  8 11  1  0  0  0  0 
  4  1  1  0  0  0  0 
 14 17  1  0  0  0  0 
  5 10  1  0  0  0  0 
 17 18  1  0  0  0  0 
  6  7  1  0  0  0  0 
 18 19  1  0  0  0  0 
  7  8  1  0  0  0  0 
 19 20  1  0  0  0  0 
  8  9  1  0  0  0  0 
 20 21  1  0  0  0  0 
 21 22  1  0  0  0  0 
  9 10  2  0  0  0  0 
  5  6  1  0  0  0  0 
 11 12  2  0  0  0  0 
 22 23  1  0  0  0  0 
 23 24  1  0  0  0  0 
 24 25  1  0  0  0  0 
 25 21  1  0  0  0  0 
  2  3  1  0  0  0  0 
  7 26  2  0  0  0  0 
 12 13  1  0  0  0  0 
  9 27  1  0  0  0  0 
  3  6  2  0  0  0  0 
  3 28  1  0  0  0  0 
 13 14  2  0  0  0  0 
 28 29  1  0  0  0  0 
  1  2  2  0  0  0  0 
 28 30  1  0  0  0  0 
 14 15  1  0  0  0  0 
 28 31  1  0  0  0  0 
M  END