
  SciTegic01161211252D

 35 38  0  0  0  0            999 V2000
    7.8469  -15.5355    0.0000 O   0  0
    7.1154  -15.9170    0.0000 S   0  0
    7.8136  -16.3604    0.0000 O   0  0
    7.8630  -13.8909    0.0000 N   0  0
    8.5232  -13.3931    0.0000 C   0  0
    8.2582  -12.6118    0.0000 C   0  0  2  0  0  0
    7.4307  -12.6252    0.0000 C   0  0
    7.1888  -13.4143    0.0000 N   0  0
    7.0032  -11.9170    0.0000 C   0  0
    7.4062  -11.1980    0.0000 C   0  0
    6.9789  -10.4911    0.0000 C   0  0
    6.1531  -10.5061    0.0000 C   0  0
    5.7563  -11.2339    0.0000 C   0  0
    6.1816  -11.9378    0.0000 C   0  0
    8.6952  -11.9150    0.0000 C   0  0
    9.5209  -11.9493    0.0000 C   0  0
    9.9602  -11.2499    0.0000 C   0  0
    9.5708  -10.5198    0.0000 C   0  0
    8.7418  -10.4934    0.0000 C   0  0
    8.3104  -11.1936    0.0000 C   0  0
    7.8702  -14.7108    0.0000 C   0  0
    7.1421  -15.0935    0.0000 N   0  0
    6.3892  -16.3108    0.0000 N   0  0
    5.6914  -15.8747    0.0000 C   0  0
    4.9674  -16.2650    0.0000 C   0  0
    4.9396  -17.0895    0.0000 C   0  0
    5.6421  -17.5221    0.0000 C   0  0
    6.3722  -17.1344    0.0000 C   0  0
    5.7275   -9.8040    0.0000 Cl  0  0
    4.2162  -17.4777    0.0000 C   0  0
    3.5183  -17.0454    0.0000 F   0  0
    4.1908  -18.2984    0.0000 F   0  0
    3.4816  -17.8501    0.0000 F   0  0
    8.5748  -15.1323    0.0000 N   0  0
    9.2921  -14.7328    0.0000 C   0  0
 17 18  2  0
  9 10  2  0
 18 19  1  0
  4  5  1  0
 19 20  2  0
 20 15  1  0
  6 15  1  6
 10 11  1  0
  4 21  1  0
 21 22  2  0
 22  2  1  0
 11 12  2  0
  2 23  1  0
 23 24  1  0
  5  6  1  0
 12 13  1  0
  6  7  1  0
 13 14  2  0
 14  9  1  0
 23 28  1  0
 24 25  1  0
 25 26  1  0
 26 27  1  0
 27 28  1  0
  7  9  1  0
 12 29  1  0
  7  8  2  0
 26 30  1  0
  8  4  1  0
 30 31  1  0
 15 16  2  0
 30 32  1  0
  2  1  2  0
 30 33  1  0
 16 17  1  0
 21 34  1  0
  3  2  2  0
 34 35  1  0
M  END