
  Mrv0541 05211314572D          

 24 26  0  0  0  0            999 V2000
    5.2626   -1.6300    0.0000 C   0  0  0  0  0  0  0  0  0  0  0  0
    4.5482   -2.0425    0.0000 C   0  0  0  0  0  0  0  0  0  0  0  0
    3.8337   -1.6300    0.0000 C   0  0  0  0  0  0  0  0  0  0  0  0
    3.8337   -0.8050    0.0000 C   0  0  0  0  0  0  0  0  0  0  0  0
    4.5482   -0.3925    0.0000 C   0  0  0  0  0  0  0  0  0  0  0  0
    5.2626   -0.8050    0.0000 C   0  0  0  0  0  0  0  0  0  0  0  0
    4.5482    0.4325    0.0000 Cl  0  0  0  0  0  0  0  0  0  0  0  0
    3.1192   -0.3925    0.0000 N   0  0  0  0  0  0  0  0  0  0  0  0
    2.4047   -0.8050    0.0000 C   0  0  0  0  0  0  0  0  0  0  0  0
    1.6903   -0.3925    0.0000 C   0  0  0  0  0  0  0  0  0  0  0  0
    1.6903    0.4325    0.0000 N   0  0  0  0  0  0  0  0  0  0  0  0
    2.4047    0.8450    0.0000 N   0  0  0  0  0  0  0  0  0  0  0  0
    3.1192    0.4325    0.0000 C   0  0  0  0  0  0  0  0  0  0  0  0
    2.4047   -1.6300    0.0000 O   0  0  0  0  0  0  0  0  0  0  0  0
    2.4047    1.6700    0.0000 C   0  0  0  0  0  0  0  0  0  0  0  0
    1.6903    2.0825    0.0000 C   0  0  0  0  0  0  0  0  0  0  0  0
    1.6903    2.9075    0.0000 C   0  0  0  0  0  0  0  0  0  0  0  0
    2.4047    3.3200    0.0000 C   0  0  0  0  0  0  0  0  0  0  0  0
    3.1192    2.9075    0.0000 C   0  0  0  0  0  0  0  0  0  0  0  0
    3.1192    2.0825    0.0000 C   0  0  0  0  0  0  0  0  0  0  0  0
    0.9758   -0.8050    0.0000 N   0  0  0  0  0  0  0  0  0  0  0  0
    0.9758   -1.6300    0.0000 C   0  0  0  0  0  0  0  0  0  0  0  0
    0.2613   -0.3925    0.0000 C   0  0  0  0  0  0  0  0  0  0  0  0
    2.4047    4.1450    0.0000 Cl  0  0  0  0  0  0  0  0  0  0  0  0
 10 11  2  0  0  0  0
 11 12  1  0  0  0  0
 12 13  1  0  0  0  0
  4  8  1  0  0  0  0
  1  2  2  0  0  0  0
  9 14  2  0  0  0  0
  5  7  1  0  0  0  0
  8  9  1  0  0  0  0
 15 16  2  0  0  0  0
  3  4  2  0  0  0  0
 16 17  1  0  0  0  0
 17 18  2  0  0  0  0
  4  5  1  0  0  0  0
 18 19  1  0  0  0  0
  2  3  1  0  0  0  0
 19 20  2  0  0  0  0
 20 15  1  0  0  0  0
 12 15  1  0  0  0  0
  5  6  2  0  0  0  0
 10 21  1  0  0  0  0
  6  1  1  0  0  0  0
 21 22  1  0  0  0  0
  8 13  1  0  0  0  0
 21 23  1  0  0  0  0
  9 10  1  0  0  0  0
 18 24  1  0  0  0  0
M  END