
  SciTegic05221516342D

 18 20  0  0  0  0            999 V2000
    9.4472   -7.8335    0.0000 N   0  0
   10.2644   -7.8335    0.0000 N   0  0
   10.5194   -7.0562    0.0000 C   0  0
    9.8558   -6.5747    0.0000 O   0  0
    9.1965   -7.0570    0.0000 C   0  0
    8.4746   -6.6801    0.0000 C   0  0
    8.4431   -5.8624    0.0000 C   0  0
    7.7204   -5.4826    0.0000 C   0  0
    7.0287   -5.9194    0.0000 N   0  0
    7.0643   -6.7400    0.0000 C   0  0
    7.7875   -7.1161    0.0000 C   0  0
   11.2199   -6.6414    0.0000 C   0  0
   11.9311   -7.0461    0.0000 C   0  0
   12.6351   -6.6325    0.0000 C   0  0
   12.6290   -5.8145    0.0000 C   0  0
   11.9131   -5.4117    0.0000 C   0  0
   11.2121   -5.8276    0.0000 C   0  0
   11.9368   -7.8632    0.0000 N   0  0
  1  2  1  0
  2  3  2  0
  3  4  1  0
  4  5  1  0
  5  1  2  0
  6  7  2  0
  7  8  1  0
  8  9  2  0
  9 10  1  0
 10 11  2  0
 11  6  1  0
  5  6  1  0
 12 13  2  0
 13 14  1  0
 14 15  2  0
 15 16  1  0
 16 17  2  0
 17 12  1  0
  3 12  1  0
 13 18  1  0
M  END