
          11280715342D 1   1.00000     0.00000     0

 25 25  0     0  0            999 V2000
   -0.6708   -2.8042    0.0000 S   0  0  3  0  0  0           0  0  0
    5.4292   -5.5917    0.0000 C   0  0  0  0  0  0           0  0  0
    5.6667   -4.8042    0.0000 C   0  0  3  0  0  0           0  0  0
    2.6250   -2.7917    0.0000 C   0  0  0  0  0  0           0  0  0
    6.4750   -4.6250    0.0000 C   0  0  0  0  0  0           0  0  0
    5.1042   -4.2042    0.0000 N   0  0  0  0  0  0           0  0  0
    0.1542   -2.8042    0.0000 C   0  0  0  0  0  0           0  0  0
    5.9875   -6.2000    0.0000 C   0  0  0  0  0  0           0  0  0
    4.2792   -4.2042    0.0000 C   0  0  0  0  0  0           0  0  0
    3.0417   -3.5042    0.0000 N   0  0  0  0  0  0           0  0  0
   -0.6708   -3.6292    0.0000 O   0  0  0  0  0  0           0  0  0
   -0.6708   -1.9792    0.0000 O   0  0  0  0  0  0           0  0  0
    1.8000   -2.7917    0.0000 C   0  0  0  0  0  0           0  0  0
   -1.4958   -2.8000    0.0000 N   0  0  0  0  0  0           0  0  0
    3.0292   -2.0750    0.0000 O   0  0  0  0  0  0           0  0  0
    6.7167   -3.8375    0.0000 O   0  0  0  0  0  0           0  0  0
    6.7917   -6.0167    0.0000 O   0  0  0  0  0  0           0  0  0
    3.8750   -4.9250    0.0000 O   0  0  0  0  0  0           0  0  0
    0.5542   -2.0917    0.0000 C   0  0  0  0  0  0           0  0  0
    0.5667   -3.5167    0.0000 C   0  0  0  0  0  0           0  0  0
    1.3917   -3.5125    0.0000 C   0  0  0  0  0  0           0  0  0
    1.3792   -2.0792    0.0000 C   0  0  0  0  0  0           0  0  0
    3.8667   -3.4917    0.0000 C   0  0  0  0  0  0           0  0  0
    5.7417   -6.9917    0.0000 N   0  0  0  0  0  0           0  0  0
    7.0375   -5.2292    0.0000 O   0  0  0  0  0  0           0  0  0
  2  3  1  0     0  0
  3  6  1  0     0  0
  4 13  1  0     0  0
  5  3  1  0     0  0
  6  9  1  0     0  0
  7  1  1  0     0  0
  8  2  1  0     0  0
  9 23  1  0     0  0
 10  4  1  0     0  0
 11  1  2  0     0  0
 12  1  2  0     0  0
 13 21  2  0     0  0
 14  1  1  0     0  0
 15  4  2  0     0  0
 16  5  2  0     0  0
 17  8  2  0     0  0
 18  9  2  0     0  0
 19  7  1  0     0  0
 20  7  2  0     0  0
 21 20  1  0     0  0
 22 19  2  0     0  0
 23 10  1  0     0  0
 24  8  1  0     0  0
 25  5  1  0     0  0
 13 22  1  0     0  0
M  END