
  SciTegic12231509382D

  6  6  0  0  0  0            999 V2000
    5.0667   -5.5125    0.0000 N   0  0
    5.6875   -5.1542    0.0000 C   0  0
    4.4542   -5.1542    0.0000 C   0  0
    5.6875   -4.4417    0.0000 C   0  0
    4.4542   -4.4417    0.0000 C   0  0
    5.0667   -4.0917    0.0000 C   0  0
  2  1  1  0
  3  1  1  0
  4  2  1  0
  5  3  1  0
  6  5  1  0
  6  4  1  0
M  END