
  SciTegic02231516322D

 33 35  0  0  0  0            999 V2000
   31.9252  -12.0210    0.0000 C   0  0
   29.8252  -10.7126    0.0000 C   0  0
   30.5397  -10.3001    0.0000 C   0  0
   31.2541  -10.7126    0.0000 C   0  0
   31.2541  -11.5376    0.0000 N   0  0
   30.5930  -12.0236    0.0000 C   0  0
   30.8479  -12.8082    0.0000 N   0  0
   31.6730  -12.8082    0.0000 C   0  0
   32.1579  -13.4756    0.0000 O   0  0
   32.5085  -11.4334    0.0000 C   0  0
   32.6377  -12.4335    0.0000 C   0  0
   32.6340  -13.2578    0.0000 C   0  0
   33.3456  -13.6702    0.0000 C   0  0
   34.0601  -13.2594    0.0000 C   0  0
   34.0584  -12.4317    0.0000 C   0  0
   33.3461  -12.0231    0.0000 C   0  0
   30.3630  -13.4757    0.0000 C   0  0
   29.8076  -11.7709    0.0000 O   0  0
   29.1107  -10.3001    0.0000 C   0  0
   28.3962  -10.7126    0.0000 C   0  0
   27.6818  -10.3001    0.0000 N   0  0
   27.6864   -9.4787    0.0000 C   0  0
   26.9760   -9.0663    0.0000 C   0  0
   26.2591   -9.4752    0.0000 N   0  0
   26.2571  -10.3012    0.0000 C   0  0
   26.9721  -10.7182    0.0000 C   0  0
   25.5479   -9.0617    0.0000 C   0  0
   25.5523   -8.2356    0.0000 C   0  0
   24.8403   -7.8205    0.0000 C   0  0
   24.1232   -8.2304    0.0000 C   0  0
   24.1228   -9.0596    0.0000 C   0  0
   24.8354   -9.4710    0.0000 C   0  0
   32.5014   -8.3193    0.0000 Cl  0  0
  2  3  1  0
  3  4  1  0
  4  5  1  0
  5  6  1  0
  6  7  1  0
  7  8  1  0
  8  1  1  0
  1  5  1  0
  8  9  2  0
  1 10  1  0
  1 11  1  0
 11 12  2  0
 12 13  1  0
 13 14  2  0
 14 15  1  0
 15 16  2  0
 16 11  1  0
  7 17  1  0
  6 18  2  0
  2 19  1  0
 19 20  1  0
 20 21  1  0
 21 22  1  0
 21 26  1  0
 22 23  1  0
 23 24  1  0
 24 25  1  0
 25 26  1  0
 27 28  2  0
 28 29  1  0
 29 30  2  0
 30 31  1  0
 31 32  2  0
 32 27  1  0
 24 27  1  0
M  END