
          08180812482D 1   1.00000     0.00000     0

 18 19  0     0  0            999 V2000
   -2.7176   -7.4987    0.0000 N   0  0  0  0  0  0           0  0  0
   -2.7165   -8.3261    0.0000 C   0  0  0  0  0  0           0  0  0
   -2.0005   -8.7371    0.0000 C   0  0  0  0  0  0           0  0  0
   -2.0068   -7.0841    0.0000 C   0  0  0  0  0  0           0  0  0
   -1.2904   -7.4913    0.0000 C   0  0  0  0  0  0           0  0  0
   -1.2878   -8.3223    0.0000 C   0  0  0  0  0  0           0  0  0
   -0.5350   -7.1598    0.0000 C   0  0  0  0  0  0           0  0  0
    0.1299   -7.6483    0.0000 N   0  3  0  0  0  0           0  0  0
    0.1226   -8.4726    0.0000 C   0  0  0  0  0  0           0  0  0
    0.9058   -8.7318    0.0000 C   0  0  0  0  0  0           0  0  0
    1.3943   -8.0669    0.0000 S   0  0  0  0  0  0           0  0  0
    0.9129   -7.3970    0.0000 C   0  0  0  0  0  0           0  0  0
   -3.4302   -8.7400    0.0000 C   0  0  0  0  0  0           0  0  0
   -2.0115   -6.2591    0.0000 N   0  0  0  0  0  0           0  0  0
    1.1565   -9.5178    0.0000 C   0  0  0  0  0  0           0  0  0
    1.9626   -9.6937    0.0000 C   0  0  0  0  0  0           0  0  0
    2.2133  -10.4796    0.0000 O   0  0  0  0  0  0           0  0  0
    1.1713   -6.6135    0.0000 C   0  0  0  0  0  0           0  0  0
  9 10  2  0     0  0
 10 11  1  0     0  0
 11 12  1  0     0  0
 12  8  2  0     0  0
  2  3  1  0     0  0
  3  6  2  0     0  0
  5  7  1  0     0  0
  1  2  2  0     0  0
  7  8  1  0     0  0
  2 13  1  0     0  0
  8  9  1  0     0  0
  4 14  1  0     0  0
 10 15  1  0     0  0
  5  4  2  0     0  0
 15 16  1  0     0  0
  4  1  1  0     0  0
 16 17  1  0     0  0
  5  6  1  0     0  0
 12 18  1  0     0  0
M  CHG  1   8   1
M  END