
  SciTegic01111613442D

 25 26  0  0  0  0            999 V2000
  -15.5875   -1.5348    0.0000 C   0  0
    2.5973   -1.5031    0.0000 C   0  0
    1.2990   -0.7500    0.0000 C   0  0
  -14.2919   -0.7772    0.0000 C   0  0
  -15.5816   -2.7348    0.0000 N   0  0
    2.5956   -2.7031    0.0000 N   0  0
    1.2990    0.7500    0.0000 C   0  0
  -14.2971    0.7228    0.0000 C   0  0
  -12.9903   -1.5227    0.0000 C   0  0
    0.0000   -1.5000    0.0000 C   0  0
    3.6375   -0.9049    0.0000 N   0  0
  -16.6298   -0.9402    0.0000 N   0  0
   -1.2990    0.7500    0.0000 C   0  0
  -11.6990    0.7318    0.0000 C   0  0
    0.0000    1.5000    0.0000 C   0  0
  -13.0006    1.4773    0.0000 C   0  0
   -1.2990   -0.7500    0.0000 C   0  0
  -11.6938   -0.7682    0.0000 C   0  0
   -2.6003    1.4977    0.0000 O   0  0
  -10.4003    1.4841    0.0000 O   0  0
   -9.0990    0.7364    0.0000 C   0  0
   -3.8990    0.7455    0.0000 C   0  0
   -5.2003    1.4932    0.0000 C   0  0
   -7.8003    1.4887    0.0000 C   0  0
   -6.4990    0.7409    0.0000 C   0  0
  2  3  1  0
  1  4  1  0
  1  5  2  0
  2  6  2  0
  3  7  2  0
  4  8  1  0
  4  9  2  0
  3 10  1  0
  2 11  1  0
  1 12  1  0
  7 15  1  0
 13 15  2  0
  8 16  2  0
 14 16  1  0
 10 17  2  0
 13 17  1  0
  9 18  1  0
 14 18  2  0
 13 19  1  0
 14 20  1  0
 20 21  1  0
 19 22  1  0
 22 23  1  0
 21 24  1  0
 23 25  1  0
 24 25  1  0
M  END