
          11280715132D 1   1.00000     0.00000     0

 32 35  0     0  0            999 V2000
    6.6667   -6.0500    0.0000 C   0  0  0  0  0  0           0  0  0
    6.1375   -7.2792    0.0000 N   0  0  0  0  0  0           0  0  0
    6.8417   -6.8542    0.0000 N   0  0  0  0  0  0           0  0  0
    5.5167   -6.7417    0.0000 N   0  0  0  0  0  0           0  0  0
    3.6542   -1.7167    0.0000 C   0  0  0  0  0  0           0  0  0
    5.8500   -5.9750    0.0000 N   0  0  0  0  0  0           0  0  0
    7.2167   -5.4292    0.0000 C   0  0  0  0  0  0           0  0  0
    4.3667   -2.1292    0.0000 N   0  0  3  0  0  0           0  0  0
    3.6542   -0.8917    0.0000 C   0  0  0  0  0  0           0  0  0
    7.2167   -4.6042    0.0000 C   0  0  0  0  0  0           0  0  0
    4.2792   -0.3417    0.0000 N   0  0  0  0  0  0           0  0  0
    5.0792   -0.1250    0.0000 C   0  0  0  0  0  0           0  0  0
    2.9417   -2.1292    0.0000 N   0  0  0  0  0  0           0  0  0
    6.5042   -4.1917    0.0000 C   0  0  0  0  0  0           0  0  0
    4.3667   -2.9542    0.0000 C   0  0  0  0  0  0           0  0  0
    5.2917    0.6708    0.0000 O   0  0  0  0  0  0           0  0  0
    6.5042   -3.3667    0.0000 C   0  0  0  0  0  0           0  0  0
    5.7917   -4.6042    0.0000 C   0  0  0  0  0  0           0  0  0
    5.0792   -3.3667    0.0000 C   0  0  0  0  0  0           0  0  0
    5.0792   -4.1917    0.0000 C   0  0  0  0  0  0           0  0  0
    5.7875   -2.9542    0.0000 C   0  0  0  0  0  0           0  0  0
    5.0792   -1.7167    0.0000 C   0  0  0  0  0  0           0  0  0
    7.9292   -5.8417    0.0000 C   0  0  0  0  0  0           0  0  0
    7.9292   -4.1917    0.0000 C   0  0  0  0  0  0           0  0  0
    2.9417   -0.4792    0.0000 C   0  0  0  0  0  0           0  0  0
    2.2292   -1.7167    0.0000 C   0  0  0  0  0  0           0  0  0
    5.6667   -0.7042    0.0000 C   0  0  0  0  0  0           0  0  0
    5.7875   -2.1292    0.0000 C   0  0  0  0  0  0           0  0  0
    2.2292   -0.8917    0.0000 C   0  0  0  0  0  0           0  0  0
    8.6417   -4.6042    0.0000 C   0  0  0  0  0  0           0  0  0
    8.6417   -5.4292    0.0000 C   0  0  0  0  0  0           0  0  0
    6.4917   -1.7250    0.0000 C   0  0  0  0  0  0           0  0  0
  2  3  2  0     0  0
  3  1  1  0     0  0
  4  6  1  0     0  0
  5  8  1  0     0  0
  6  1  2  0     0  0
  7  1  1  0     0  0
  8 15  1  0     0  0
  9  5  1  0     0  0
 10  7  2  0     0  0
 11  9  1  0     0  0
 12 11  1  0     0  0
 13  5  2  0     0  0
 14 10  1  0     0  0
 15 19  1  0     0  0
 16 12  2  0     0  0
 17 14  2  0     0  0
 18 14  1  0     0  0
 19 20  1  0     0  0
 20 18  2  0     0  0
 21 17  1  0     0  0
 22  8  1  0     0  0
 23  7  1  0     0  0
 24 10  1  0     0  0
 25  9  2  0     0  0
 26 13  1  0     0  0
 27 12  1  0     0  0
 28 22  1  0     0  0
 29 26  2  0     0  0
 30 31  1  0     0  0
 31 23  2  0     0  0
 32 28  1  0     0  0
  2  4  1  0     0  0
 24 30  2  0     0  0
 19 21  2  0     0  0
 29 25  1  0     0  0
M  END