
  SciTegic07061118172D

 31 35  0  0  0  0            999 V2000
    8.3912   -5.0920    0.0000 S   0  0
    8.8037   -5.8065    0.0000 O   0  0
    9.2162   -5.0920    0.0000 O   0  0
    8.3854   -7.5666    0.0000 C   0  0
    8.3905   -6.7416    0.0000 C   0  0
    7.6767   -6.3295    0.0000 C   0  0
    6.9615   -6.7424    0.0000 C   0  0
    6.9645   -7.5717    0.0000 N   0  0
    7.6789   -7.9800    0.0000 C   0  0
    7.6767   -5.5045    0.0000 N   0  0
    8.3912   -4.2670    0.0000 C   0  0
    9.1067   -3.8573    0.0000 C   0  0
    9.1071   -3.0331    0.0000 C   0  0
    8.3921   -2.6198    0.0000 C   0  0
    7.6753   -3.0367    0.0000 C   0  0
    7.6784   -3.8596    0.0000 C   0  0
    9.0998   -7.9792    0.0000 C   0  0
    9.0979   -8.8065    0.0000 C   0  0
    9.8129   -9.2189    0.0000 C   0  0
    9.8101   -7.5660    0.0000 C   0  0
   10.5257   -7.9746    0.0000 N   0  0
   10.5255   -8.8006    0.0000 C   0  0
   11.3109   -9.0560    0.0000 N   0  0
   11.7965   -8.3879    0.0000 C   0  0
   11.3113   -7.7197    0.0000 C   0  0
   11.5663   -6.9351    0.0000 C   0  0
   12.3463   -6.6799    0.0000 N   0  0
   12.3465   -5.8549    0.0000 C   0  0
   11.5618   -5.5996    0.0000 O   0  0
   11.0769   -6.2671    0.0000 N   0  0
   13.0140   -5.3701    0.0000 C   0  0
  4  5  2  0
 15 16  2  0
 16 11  1  0
  8  9  2  0
  4 17  1  0
  9  4  1  0
  1  3  2  0
  6 10  1  0
 10  1  1  0
  5  6  1  0
  1 11  1  0
 11 12  2  0
  6  7  2  0
 12 13  1  0
  2  1  2  0
 13 14  2  0
  7  8  1  0
 14 15  1  0
 18 19  2  0
 19 22  1  0
 21 20  1  0
 20 17  2  0
 21 22  1  0
 22 23  2  0
 23 24  1  0
 24 25  2  0
 25 21  1  0
 25 26  1  0
 26 27  1  0
 27 28  2  0
 28 29  1  0
 29 30  1  0
 30 26  2  0
 17 18  1  0
 28 31  1  0
M  END