
  SciTegic09251318272D

 69 76  0  0  0  0            999 V2000
  -10.3778   -2.4047    0.0000 N   0  0
   10.5740    2.6264    0.0000 N   0  0
   10.8724    1.2705    0.0000 N   0  3
   11.3927    2.7885    0.0000 C   0  0
   10.1561    3.3427    0.0000 C   0  0
  -11.0685   -1.9528    0.0000 C   0  0
   11.6910    1.4240    0.0000 C   0  0
   -9.6615   -1.9784    0.0000 C   0  0
  -12.1685   -2.9505    0.0000 C   0  0
  -10.3266   -3.2064    0.0000 C   0  0
  -11.8701   -2.2001    0.0000 C   0  0
   11.9469    2.1915    0.0000 C   0  0
  -11.7592   -3.6582    0.0000 N   0  0
   10.1391    1.9356    0.0000 B   0  5
   10.7189    3.9397    0.0000 C   0  0
  -10.9406   -3.7692    0.0000 C   0  0
    9.3205    3.3427    0.0000 C   0  0
   11.4950    3.6071    0.0000 C   0  0
   10.7787    0.4519    0.0000 C   0  0
   12.1090    0.7333    0.0000 C   0  0
   11.5462    0.1193    0.0000 C   0  0
   -8.9452   -0.7505    0.0000 N   0  0
   -9.6615   -1.1598    0.0000 C   0  0
    8.8258    2.6861    0.0000 S   0  0
   -9.5336   -3.4366    0.0000 N   0  0
   -7.5126    0.0937    0.0000 N   0  0
    8.6212    0.0426    0.0000 C   0  0
   -9.0475   -2.5412    0.0000 O   0  0
  -13.0043   -2.9250    0.0000 O   0  0
    8.8344    4.0078    0.0000 C   0  0
    8.0158    2.9419    0.0000 C   0  0
   10.0624    0.0426    0.0000 C   0  0
    8.0328    3.7776    0.0000 C   0  0
    9.4228    2.3280    0.0000 F   0  0
    9.5507    1.3559    0.0000 F   0  0
    8.6212   -0.7761    0.0000 O   0  0
    7.8879    0.4519    0.0000 N   0  0
   -8.9707    0.0682    0.0000 C   0  0
   -8.2289   -1.1342    0.0000 C   0  0
   -8.2544    0.4775    0.0000 C   0  0
   -7.5126   -0.7249    0.0000 C   0  0
    9.3375    0.4519    0.0000 C   0  0
  -12.4671   -1.6459    0.0000 C   0  0
  -10.8894   -1.1512    0.0000 C   0  0
  -10.7359   -4.5536    0.0000 C   0  0
   -6.7963    0.4861    0.0000 C   0  0
   -2.9931    0.0937    0.0000 O   0  0
   -0.8100    0.4775    0.0000 O   0  0
    1.3645    0.0682    0.0000 O   0  0
    3.5389    0.4519    0.0000 O   0  0
    5.7134    0.0512    0.0000 O   0  0
   -5.1590    0.4861    0.0000 O   0  0
   -9.3289   -4.2297    0.0000 C   0  0
    7.1716    0.0426    0.0000 C   0  0
   -5.9776    0.2728    0.0000 C   0  0
    6.4553    0.4519    0.0000 C   0  0
    4.2722    0.0512    0.0000 C   0  0
    4.9971    0.4519    0.0000 C   0  0
   -1.5349    0.0682    0.0000 C   0  0
   -3.7094    0.4861    0.0000 C   0  0
   -0.0937    0.0682    0.0000 C   0  0
    0.6396    0.4775    0.0000 C   0  0
   -4.4427    0.0937    0.0000 C   0  0
    2.0977    0.4519    0.0000 C   0  0
    2.8226    0.0512    0.0000 C   0  0
   -2.2682    0.4775    0.0000 C   0  0
   -9.9173   -4.7925    0.0000 C   0  0
  -12.3050   -0.8528    0.0000 C   0  0
  -11.5120   -0.6140    0.0000 C   0  0
  2  4  1  0
  3 19  2  0
  4 12  1  0
  5  2  1  0
  6  1  1  0
  7  3  1  0
  8  1  1  0
  9 11  1  0
 10  1  1  0
 11  6  2  0
 12  7  2  0
 13 16  1  0
 14  2  1  0
 15 18  1  0
 16 10  2  0
 17  5  1  0
 18  4  2  0
 19 32  1  0
 20 21  2  0
 21 19  1  0
 22 23  1  0
 23  8  1  0
 24 17  1  0
 25 10  1  0
 26 41  1  0
 27 37  1  0
 28  8  2  0
 29  9  2  0
 30 17  2  0
 31 24  1  0
 32 42  1  0
 33 30  1  0
 34 14  1  0
 35 14  1  0
 36 27  2  0
 37 54  1  0
 38 22  1  0
 39 22  1  0
 40 38  1  0
 41 39  1  0
 42 27  1  0
 43 11  1  0
 44  6  1  0
 45 16  1  0
 46 26  1  0
 47 60  1  0
 48 59  1  0
 49 62  1  0
 50 65  1  0
 51 58  1  0
 52 55  1  0
 53 25  2  0
 54 56  1  0
 55 46  1  0
 56 51  1  0
 57 50  1  0
 58 57  1  0
 59 66  1  0
 60 63  1  0
 61 48  1  0
 62 61  1  0
 63 52  1  0
 64 49  1  0
 65 64  1  0
 66 47  1  0
 67 53  1  0
 68 69  1  0
 69 44  2  0
  9 13  1  0
 45 67  2  0
 43 68  2  0
 40 26  1  0
  7 20  1  0
  5 15  2  0
 33 31  2  0
  3 14  1  0
M  CHG  2   3   1  14  -1
M  END