
          11280714522D 1   1.00000     0.00000     0

 22 22  0     0  0            999 V2000
    8.9917   -3.2042    0.0000 C   0  0  3  0  0  0           0  0  0
    6.8542   -3.6250    0.0000 C   0  0  0  0  0  0           0  0  0
    6.1417   -3.2167    0.0000 C   0  0  0  0  0  0           0  0  0
    6.8542   -4.4417    0.0000 O   0  0  0  0  0  0           0  0  0
    7.5667   -3.2125    0.0000 O   0  0  0  0  0  0           0  0  0
    8.2792   -3.6167    0.0000 C   0  0  0  0  0  0           0  0  0
    9.7042   -3.6042    0.0000 F   0  0  0  0  0  0           0  0  0
    8.9875   -2.3792    0.0000 F   0  0  0  0  0  0           0  0  0
    9.2125   -4.0000    0.0000 F   0  0  0  0  0  0           0  0  0
    1.8542   -3.2292    0.0000 O   0  0  0  0  0  0           0  0  0
    3.2792   -3.2292    0.0000 C   0  0  3  0  0  0           0  0  0
    2.5667   -3.6417    0.0000 C   0  0  0  0  0  0           0  0  0
    4.7125   -3.2167    0.0000 N   0  0  0  0  0  0           0  0  0
    1.1417   -3.6500    0.0000 C   0  0  0  0  0  0           0  0  0
    3.2792   -2.4042    0.0000 O   0  0  0  0  0  0           0  0  0
    5.4292   -3.6292    0.0000 C   0  0  0  0  0  0           0  0  0
    4.0000   -3.6375    0.0000 C   0  0  0  0  0  0           0  0  0
    1.1417   -4.4792    0.0000 C   0  0  0  0  0  0           0  0  0
    0.4250   -3.2375    0.0000 C   0  0  0  0  0  0           0  0  0
    0.4250   -4.8917    0.0000 C   0  0  0  0  0  0           0  0  0
   -0.2875   -3.6500    0.0000 C   0  0  0  0  0  0           0  0  0
   -0.2875   -4.4792    0.0000 C   0  0  0  0  0  0           0  0  0
  2  5  1  0     0  0
  3  2  1  0     0  0
  4  2  2  0     0  0
  5  6  1  0     0  0
  6  1  1  0     0  0
  7  1  1  0     0  0
  8  1  1  0     0  0
  9  1  1  0     0  0
 10 12  1  0     0  0
 11 17  1  0     0  0
 12 11  1  0     0  0
 13 16  1  0     0  0
 14 10  1  0     0  0
 15 11  1  0     0  0
 16  3  1  0     0  0
 17 13  1  0     0  0
 18 14  1  0     0  0
 19 14  2  0     0  0
 20 18  2  0     0  0
 21 19  1  0     0  0
 22 21  2  0     0  0
 22 20  1  0     0  0
M  END