
  SciTegic02181312462D

 32 33  0  0  0  0            999 V2000
    6.7624   -5.3874    0.0000 C   0  0  1  0  0  0
   -0.4819   -8.5498    0.0000 C   0  0
   -0.4807   -9.3773    0.0000 C   0  0
    0.2372   -9.7901    0.0000 C   0  0
    0.2354   -8.1371    0.0000 C   0  0
    0.9508   -8.5462    0.0000 C   0  0
    0.9511   -9.3773    0.0000 C   0  0
    1.7415   -9.6339    0.0000 N   0  0
    2.2298   -8.9613    0.0000 C   0  0
    1.7411   -8.2893    0.0000 O   0  0
    3.0548   -8.9611    0.0000 N   0  0
    3.4671   -8.2465    0.0000 C   0  0
    4.2921   -8.2462    0.0000 C   0  0
    4.7043   -7.5316    0.0000 C   0  0
    5.5279   -7.5342    0.0000 C   0  0
    5.9401   -6.8205    0.0000 C   0  0
    5.5273   -6.1052    0.0000 C   0  0
    4.6980   -6.1082    0.0000 C   0  0
    4.2896   -6.8225    0.0000 C   0  0
    5.9385   -5.3901    0.0000 O   0  0
    7.1748   -4.6735    0.0000 C   0  0
    7.9998   -4.6721    0.0000 O   0  5
    6.7611   -3.9597    0.0000 O   0  0
    3.4676   -9.6754    0.0000 C   0  0
    4.2926   -9.6751    0.0000 C   0  0
    4.7053  -10.3894    0.0000 C   0  0
    5.5303  -10.3891    0.0000 C   0  0
    5.9430  -11.1035    0.0000 C   0  0
    6.7680  -11.1032    0.0000 C   0  0
    7.1803  -10.3886    0.0000 C   0  0
    7.1759   -6.1013    0.0000 C   0  0
    1.2375   -5.7750    0.0000 Na  0  3
  2  3  2  0
  3  4  1  0
  4  7  2  0
  6  5  2  0
  5  2  1  0
  6  7  1  0
  7  8  1  0
  8  9  2  0
  9 10  1  0
 10  6  1  0
  9 11  1  0
 11 12  1  0
 12 13  1  0
 13 14  1  0
 14 15  2  0
 15 16  1  0
 16 17  2  0
 17 18  1  0
 18 19  2  0
 19 14  1  0
 17 20  1  0
 20  1  1  0
  1 21  1  0
 21 22  1  0
 21 23  2  0
 11 24  1  0
 24 25  1  0
 25 26  1  0
 26 27  1  0
 27 28  1  0
 28 29  1  0
 29 30  1  0
  1 31  1  1
M  CHG  2  22  -1  32   1
M  END