
  SciTegic08161218152D

 58 58  0  0  1  0            999 V2000
   -0.9603   -3.0230    0.0000 C   0  0  1  0  0  0
   -1.7870   -3.0230    0.0000 C   0  0  2  0  0  0
   -0.3465   -3.6743    0.0000 C   0  0  1  0  0  0
   -0.4592   -2.6472    0.0000 O   0  0
   -1.9123   -1.8205    0.0000 C   0  0  2  0  0  0
   -1.2860   -2.6472    0.0000 C   0  0  2  0  0  0
    2.6722   -2.4092    0.0000 C   0  0
    1.9583   -2.8225    0.0000 N   0  0
    1.9708   -3.6492    0.0000 C   0  0  1  0  0  0
    0.4551   -3.4488    0.0000 O   0  0
    1.1691   -3.8622    0.0000 C   0  0
    2.6722   -1.5825    0.0000 O   0  0
    2.6848   -4.0626    0.0000 C   0  0  1  0  0  0
    3.4739   -3.8497    0.0000 C   0  0
   -0.9603   -3.8497    0.0000 O   0  0
   -2.5010   -3.4363    0.0000 O   0  0
    4.1879   -4.2505    0.0000 C   0  0
   -2.2129   -1.0564    0.0000 O   0  0
    3.3862   -2.8100    0.0000 O   0  0
   -0.9227   -1.8956    0.0000 C   0  0
    2.6722   -4.8893    0.0000 O   0  0
   -0.0960   -1.8455    0.0000 O   0  0
    4.9018   -3.8497    0.0000 C   0  0
    4.1002   -2.3967    0.0000 C   0  0
    5.6158   -4.2505    0.0000 C   0  0
    4.8142   -2.8100    0.0000 C   0  0
    4.0877   -0.7307    0.0000 C   0  0
   12.7556   -4.2380    0.0000 C   0  0
   12.0416   -3.8246    0.0000 C   0  0
    4.8016   -1.1441    0.0000 C   0  0
   10.5260   -2.7975    0.0000 C   0  0
   11.2399   -2.3841    0.0000 C   0  0
   11.2399   -1.5574    0.0000 C   0  0
   10.5134   -1.1441    0.0000 C   0  0
    9.7995   -0.7307    0.0000 C   0  0
    9.0855   -1.1441    0.0000 C   0  0
    8.3715   -0.7307    0.0000 C   0  0
    7.6575   -1.1441    0.0000 C   0  0
    6.9436   -0.7307    0.0000 C   0  0
    6.2296   -1.1441    0.0000 C   0  0
    5.5156   -0.7307    0.0000 C   0  0
    5.5281   -2.3967    0.0000 C   0  0
    6.2421   -2.8100    0.0000 C   0  0
    6.9561   -2.3967    0.0000 C   0  0
    6.3298   -3.8371    0.0000 C   0  0
    7.0438   -4.2505    0.0000 C   0  0
    7.7577   -3.8371    0.0000 C   0  0
    8.4717   -4.2505    0.0000 C   0  0
    9.1857   -3.8371    0.0000 C   0  0
    9.8997   -4.2380    0.0000 C   0  0
   10.6137   -3.8246    0.0000 C   0  0
   11.3276   -4.2380    0.0000 C   0  0
    7.6701   -2.7975    0.0000 C   0  0
    8.3840   -2.3841    0.0000 C   0  0
    9.0980   -2.7975    0.0000 C   0  0
    9.8120   -2.3841    0.0000 C   0  0
   13.4696   -3.8246    0.0000 C   0  0
    4.0877    0.0960    0.0000 C   0  0
  2  1  1  0
  3  1  1  0
  4  3  1  0
  5  2  1  0
  6  4  1  0
  7  8  1  0
  9  8  1  6
  9 11  1  0
  3 10  1  1
 11 10  1  0
 12  7  2  0
 13  9  1  0
 14 13  1  0
  1 15  1  6
  2 16  1  1
 17 14  2  0
  5 18  1  1
 19  7  1  0
  6 20  1  1
 13 21  1  1
 22 20  1  0
 23 17  1  0
 24 19  1  0
 25 23  1  0
 26 24  1  0
 27 30  1  0
 28 29  1  0
 29 52  1  0
 30 41  1  0
 31 56  1  0
 32 31  1  0
 33 32  1  0
 34 33  1  0
 35 34  1  0
 36 35  1  0
 37 36  1  0
 38 37  1  0
 39 38  1  0
 40 39  1  0
 41 40  1  0
 42 26  1  0
 43 42  1  0
 44 43  1  0
 45 25  1  0
 46 45  1  0
 47 46  1  0
 48 47  1  0
 49 48  1  0
 50 49  1  0
 51 50  1  0
 52 51  1  0
 53 44  1  0
 54 53  1  0
 55 54  1  0
 56 55  1  0
 57 28  1  0
 58 27  1  0
  6  5  1  0
M  END