
  SciTegic06011109532D

156163  0  0  0  0            999 V2000
    1.4568   -5.9092    0.0000 C   0  0
    1.4574   -5.0842    0.0000 O   0  0
    0.7421   -6.3212    0.0000 C   0  0
    0.0279   -5.9083    0.0000 O   0  0
   -0.6868   -6.3203    0.0000 C   0  0
   -1.4011   -5.9073    0.0000 C   0  0
   -2.1158   -6.3194    0.0000 N   0  0
   -1.4005   -5.0823    0.0000 O   0  0
   -2.1163   -7.1444    0.0000 C   0  0
   -1.4009   -7.5544    0.0000 C   0  0
   -1.4010   -8.3786    0.0000 C   0  0
   -2.1163   -8.7915    0.0000 C   0  0
   -2.8329   -8.3741    0.0000 C   0  0
   -2.8292   -7.5513    0.0000 C   0  0
   -2.1179   -9.6165    0.0000 C   0  0
   -1.4043  -10.0304    0.0000 C   0  0
   -1.4059  -10.8554    0.0000 C   0  0
   -0.6922  -11.2693    0.0000 O   0  0
   -2.1212  -11.2665    0.0000 N   0  0
   -2.3365  -12.0627    0.0000 C   0  0
   -3.1329  -11.8476    0.0000 C   0  0
   -2.9178  -11.0511    0.0000 C   0  0
   -1.9255  -12.7780    0.0000 O   0  0
    7.8816   -6.3152    0.0000 C   0  0  2  0  0  0
    7.1701   -5.0773    0.0000 O   0  0
    7.1701   -5.9010    0.0000 C   0  0
    7.8816   -7.1346    0.0000 C   0  0
    7.1701   -7.5483    0.0000 C   0  0
    7.1701   -8.3720    0.0000 C   0  0
    5.7406   -5.9010    0.0000 C   0  0  1  0  0  0
    5.0292   -7.1346    0.0000 O   0  0
    5.0292   -6.3152    0.0000 C   0  0
    3.5997   -6.3152    0.0000 C   0  0  2  0  0  0
    2.8842   -5.0773    0.0000 O   0  0
    2.8842   -5.9010    0.0000 C   0  0
    3.5997   -7.1346    0.0000 C   0  0
    2.8842   -7.5483    0.0000 C   0  0
    8.5963   -5.9050    0.0000 N   0  0
    4.3270   -2.5517    0.0000 C   0  0  2  0  0  0
    5.0484   -1.3185    0.0000 O   0  0
    5.0510   -2.1375    0.0000 C   0  0
    4.3375   -3.3702    0.0000 C   0  0
    6.4679   -2.1300    0.0000 C   0  0  2  0  0  0
    7.1832   -3.3575    0.0000 O   0  0
    7.1835   -2.5303    0.0000 C   0  0
    6.4692   -1.3116    0.0000 C   0  0
    7.1719   -0.8975    0.0000 C   0  0
    5.7502   -0.8983    0.0000 C   0  0
   10.0185   -5.0798    0.0000 C   0  0
   10.0185   -5.9011    0.0000 C   0  0  1  0  0  0
    9.3412   -2.1357    0.0000 C   0  0
    8.6115   -2.5446    0.0000 C   0  0  2  0  0  0
    8.6033   -3.3736    0.0000 C   0  0
    9.3218   -3.8028    0.0000 S   0  0
    9.3129   -4.6413    0.0000 S   0  0
   12.1519   -2.1884    0.0000 C   0  0
   10.7398   -1.3508    0.0000 C   0  0
   10.0223   -0.9289    0.0000 C   0  0  2  0  0  0
    9.3042   -6.3152    0.0000 C   0  0
    9.3038   -7.1341    0.0000 O   0  0
   10.0544   -2.5335    0.0000 O   0  0
   12.1607   -1.3704    0.0000 C   0  0  2  0  0  0
   10.0344   -0.1101    0.0000 C   0  0
   10.7342   -2.1727    0.0000 O   0  0
   12.8696   -0.9696    0.0000 C   0  0
   12.8779   -0.1467    0.0000 C   0  0
   11.4353   -2.5955    0.0000 O   0  0
   10.7248   -7.1408    0.0000 C   0  0
   10.0093   -7.5467    0.0000 O   0  0
   11.4328   -7.5491    0.0000 C   0  0  2  0  0  0
   11.4238   -8.3775    0.0000 C   0  0
   12.8508   -7.5577    0.0000 C   0  0
   12.8474   -8.3800    0.0000 O   0  0
   12.8550   -5.9292    0.0000 C   0  0
   12.8538   -5.1063    0.0000 C   0  0  2  0  0  0
   12.1488   -6.3368    0.0000 O   0  0
   12.1452   -4.6970    0.0000 C   0  0
   13.5568   -3.8680    0.0000 C   0  0
   12.8459   -3.4653    0.0000 O   0  0
   14.2694   -3.4522    0.0000 C   0  0  1  0  0  0
   14.9766   -2.2225    0.0000 C   0  0
   14.9689   -1.3939    0.0000 C   0  0  2  0  0  0
   15.6917   -2.6254    0.0000 O   0  0
   15.6838   -0.9780    0.0000 C   0  0
   15.6824   -0.1614    0.0000 C   0  0
   16.3926   -1.3937    0.0000 C   0  0
    3.6280   -2.1431    0.0000 N   0  0
    5.7543   -2.5408    0.0000 N   0  0
   10.7273   -6.3186    0.0000 N   0  0
    9.3101   -1.3438    0.0000 N   0  0
   11.4528   -0.9467    0.0000 N   0  0
   12.1443   -7.1473    0.0000 N   0  0
   13.5687   -4.6911    0.0000 N   0  0
   14.2804   -2.6241    0.0000 N   0  0
   12.8606   -2.6064    0.0000 N   0  0
    7.9025   -2.1334    0.0000 N   0  0
   13.5549    0.3206    0.0000 C   0  0
   13.3122    1.1066    0.0000 N   0  0
    6.4585   -6.3152    0.0000 N   0  0
    4.3176   -5.9010    0.0000 N   0  0
    2.1726   -6.3152    0.0000 N   0  0
   12.2257    0.3389    0.0000 C   0  0
   12.4897    1.1155    0.0000 C   0  0
   11.9497    1.7303    0.0000 C   0  0
   11.1458    1.5699    0.0000 C   0  0
   10.8845    0.7892    0.0000 C   0  0
   11.4260    0.1776    0.0000 C   0  0
    3.6219   -3.7958    0.0000 C   0  0
    3.6325   -4.6283    0.0000 O   0  0
    2.8955   -3.3887    0.0000 O   0  0
    3.6325   -1.3105    0.0000 C   0  0
    2.9136   -0.8903    0.0000 C   0  0  2  0  0  0
    4.3557   -0.8980    0.0000 O   0  0
    2.9180   -0.0577    0.0000 C   0  0
    2.1902   -1.3028    0.0000 N   0  0
    3.6413    0.3548    0.0000 C   0  0
    4.3593   -0.0689    0.0000 C   0  0
    5.0822    0.3429    0.0000 C   0  0
    5.0870    1.1764    0.0000 C   0  0
    4.3631    1.5965    0.0000 C   0  0
    3.6433    1.1823    0.0000 C   0  0
    5.7390   -5.0683    0.0000 C   0  0
    5.0172   -4.6534    0.0000 C   0  0
   11.4240   -5.1133    0.0000 C   0  0
   10.7030   -4.6968    0.0000 C   0  0
   11.4239   -5.9459    0.0000 C   0  0
   13.5730   -6.3290    0.0000 N   0  0
   13.5697   -7.1499    0.0000 C   0  0  1  0  0  0
   14.3494   -7.4067    0.0000 C   0  0
   14.8345   -6.7445    0.0000 C   0  0
   14.3547   -6.0785    0.0000 C   0  0
   13.5652   -7.9801    0.0000 H   0  0
   10.6983   -8.7861    0.0000 C   0  0
    9.9412   -8.4425    0.0000 C   0  0
    9.3774   -9.0553    0.0000 N   0  0
    9.7860   -9.7808    0.0000 C   0  0
   10.6022   -9.6164    0.0000 N   0  0
   14.9887   -3.8717    0.0000 C   0  0  1  0  0  0
   14.9850   -4.7043    0.0000 C   0  0
   15.7115   -3.4585    0.0000 O   0  0
   14.2632   -4.2836    0.0000 H   0  0
    6.4489   -8.7883    0.0000 C   0  0
    6.4489   -9.6210    0.0000 N   0  0
    6.4527   -4.6545    0.0000 C   0  0
    1.4780   -0.8865    0.0000 C   0  0
    0.7613   -1.2952    0.0000 C   0  0
    1.4824   -0.0615    0.0000 O   0  0
    5.7344  -10.0335    0.0000 C   0  0
    5.7344  -10.8585    0.0000 O   0  0
    5.0200   -9.6210    0.0000 C   0  0
    9.3261    0.3129    0.0000 C   0  0
    2.8847   -8.3733    0.0000 C   0  0
    2.1705   -8.7863    0.0000 C   0  0
    2.1710   -9.6113    0.0000 N   0  0
    9.3383    1.1378    0.0000 O   0  0
    8.6056   -0.0890    0.0000 N   0  0
  7  9  1  0
  9 10  2  0
 10 11  1  0
 11 12  2  0
 12 13  1  0
 13 14  2  0
 14  9  1  0
 12 15  1  0
 15 16  1  0
 16 17  1  0
 17 18  2  0
 17 19  1  0
 19 20  1  0
 20 21  1  0
 21 22  1  0
 22 19  1  0
 20 23  2  0
  1  2  2  0
  1  3  1  0
  3  4  1  0
  4  5  1  0
  5  6  1  0
  6  7  1  0
  6  8  2  0
 35101  1  0
 39 41  1  0
102103  2  0
 41 40  2  0
103104  1  0
 39 42  1  6
104105  2  0
 43 45  1  0
105106  1  0
 45 44  2  0
106107  2  0
107102  1  0
 43 46  1  0
 42108  1  0
 46 47  1  0
108109  2  0
 46 48  1  0
108110  1  0
 41 88  1  0
 87111  1  0
 43 88  1  1
111112  1  0
 87 39  1  0
111113  2  0
 49 50  1  0
112114  1  1
 50 89  1  0
112115  1  0
 51 52  1  0
114116  1  0
 52 53  1  0
116117  2  0
 53 54  1  0
117118  1  0
 55 54  1  0
118119  2  0
 56 95  1  0
119120  1  0
 91 57  1  0
120121  2  0
121116  1  0
 56 62  1  0
 58 90  1  0
 57 58  1  0
 90 51  1  0
 30122  1  6
 55 49  1  0
 50 59  1  6
122123  1  0
 59 60  2  0
 77124  1  0
 52 96  1  6
124125  1  0
 96 45  1  0
124126  1  0
127128  1  0
 51 61  2  0
 91 62  1  0
 58 63  1  1
 57 64  2  0
 62 65  1  1
128129  1  0
129130  1  0
130131  1  0
131127  1  0
 65 66  1  0
128132  1  6
 56 67  2  0
 71133  1  0
133134  2  0
 89 68  1  0
 68 69  2  0
 68 70  1  0
 70 71  1  1
134135  1  0
135136  2  0
136137  1  0
137133  1  0
 70 92  1  0
 80138  1  0
 92 72  1  0
138139  1  0
128 72  1  0
138140  1  6
 72 73  2  0
 80141  1  6
127 74  1  0
 29142  1  0
 74 75  1  0
142143  1  0
122144  1  0
 74 76  2  0
115145  1  0
 75 93  1  0
145146  1  0
 75 77  1  6
145147  2  0
 93 78  1  0
143148  1  0
 78 79  2  0
148149  2  0
 78 80  1  0
148150  1  0
 80 94  1  0
 63151  1  0
 94 81  1  0
 37152  1  0
 81 82  1  0
152153  1  0
 81 83  2  0
153154  1  0
 82 84  1  1
 84 85  1  0
 84 86  1  0
 82 95  1  0
 24 26  1  0
 26 25  2  0
 24 27  1  1
 27 28  1  0
 28 29  1  0
 66 97  2  0
 99 30  1  0
 30 32  1  0
 97 98  1  0
102 66  1  0
 32 31  2  0
103 98  1  0
100 33  1  0
 33 35  1  0
 35 34  2  0
 59 38  1  0
 33 36  1  1
 36 37  1  0
 24 38  1  0
 26 99  1  0
151155  2  0
 32100  1  0
151156  1  0
101  1  1  0
M  END