
  SciTegic05161214222D

 65 67  0  0  0  0            999 V2000
   27.2627  -20.6296    0.0000 C   0  0
   27.9775  -20.2176    0.0000 C   0  0
   22.9833  -19.8125    0.0000 C   0  0
   22.9833  -20.6375    0.0000 C   0  0
   23.6954  -21.0458    0.0000 O   0  0
   24.4074  -20.6375    0.0000 C   0  0
   24.4074  -19.8125    0.0000 C   0  0
   23.6954  -19.3958    0.0000 C   0  0
   22.2656  -19.4073    0.0000 S   0  0
   21.8573  -20.1241    0.0000 O   0  0
   22.6823  -20.1193    0.0000 O   0  0
   19.3986  -14.4708    0.0000 C   0  0
   19.3974  -15.2982    0.0000 C   0  0
   20.1122  -15.7110    0.0000 C   0  0
   20.1104  -14.0580    0.0000 C   0  0
   20.8258  -14.4672    0.0000 C   0  0
   20.8266  -15.2940    0.0000 C   0  0
   21.5419  -15.7050    0.0000 N   0  0
   22.2569  -15.2902    0.0000 C   0  0
   22.2521  -14.4602    0.0000 C   0  0
   21.5362  -14.0530    0.0000 C   0  0
   22.9730  -15.6999    0.0000 C   0  0
   21.5319  -13.2280    0.0000 C   0  0
   20.1141  -16.5360    0.0000 O   0  0
   20.8296  -16.9469    0.0000 C   0  0
   20.8315  -17.7719    0.0000 C   0  0
   20.1154  -18.1817    0.0000 C   0  0
   20.1169  -19.0059    0.0000 C   0  0
   20.8329  -19.4176    0.0000 C   0  0
   21.5488  -18.9990    0.0000 C   0  0
   21.5437  -18.1761    0.0000 C   0  0
   19.4013  -17.7685    0.0000 Cl  0  0
   22.2554  -17.7588    0.0000 Cl  0  0
   22.9777  -18.9906    0.0000 N   0  0
   24.4066  -18.9823    0.0000 C   0  0
   25.1223  -19.3926    0.0000 N   0  0
   24.4041  -18.1573    0.0000 O   0  0
   25.1213  -20.2175    0.0000 C   0  0
   25.8329  -20.6278    0.0000 C   0  0
   26.5485  -20.2166    0.0000 N   0  3
   26.5480  -19.3906    0.0000 C   0  0
   25.8318  -18.9758    0.0000 C   0  0
   27.1292  -19.6250    0.0000 C   0  0
   28.6916  -20.6306    0.0000 C   0  0
   29.4064  -20.2186    0.0000 C   0  0
   30.1206  -20.6316    0.0000 C   0  0
   30.8353  -20.2196    0.0000 C   0  0
   31.5495  -20.6326    0.0000 N   0  3
   32.2643  -20.2206    0.0000 C   0  0
   31.5490  -21.4576    0.0000 C   0  0
   31.5417  -19.8042    0.0000 C   0  0
   26.6597  -18.2113    0.0000 F   0  0
   27.3741  -17.7988    0.0000 C   0  0
   28.0886  -18.2113    0.0000 F   0  0
   27.3680  -18.6196    0.0000 F   0  0
   27.3772  -16.9738    0.0000 C   0  0
   28.0932  -16.5640    0.0000 O   0  5
   26.6643  -16.5586    0.0000 O   0  0
   30.8784  -18.9926    0.0000 F   0  0
   31.5928  -18.5801    0.0000 C   0  0
   32.3073  -18.9926    0.0000 F   0  0
   31.5867  -19.4009    0.0000 F   0  0
   31.5959  -17.7551    0.0000 C   0  0
   32.3119  -17.3453    0.0000 O   0  5
   30.8830  -17.3399    0.0000 O   0  0
 25 26  1  0
 14 17  2  0
 26 27  2  0
  6  7  1  0
 27 28  1  0
 16 15  2  0
 28 29  2  0
 15 12  1  0
 29 30  1  0
  7  8  1  0
 30 31  2  0
 31 26  1  0
 10  9  2  0
 27 32  1  0
 16 17  1  0
 31 33  1  0
 30  9  1  0
  9 11  2  0
  9 34  1  0
 34  8  1  0
 17 18  1  0
  8 35  1  0
 35 36  1  0
 18 19  2  0
 35 37  2  0
 36 38  1  0
  1  2  1  0
 19 20  1  0
  3  4  1  0
 20 21  2  0
 21 16  1  0
 36 42  1  0
 38 39  1  0
 39 40  1  0
 40 41  1  0
 41 42  1  0
 40  1  1  0
  3  8  1  0
 40 43  1  0
 19 22  1  0
  2 44  1  0
  4  5  1  0
 44 45  1  0
 21 23  1  0
 45 46  1  0
 12 13  2  0
 46 47  1  0
 14 24  1  0
 47 48  1  0
  5  6  1  0
 48 49  1  0
 24 25  1  0
 48 50  1  0
 13 14  1  0
 48 51  1  0
 52 53  1  0
 53 55  1  0
 53 56  1  0
 53 54  1  0
 56 57  1  0
 56 58  2  0
 59 60  1  0
 60 62  1  0
 60 63  1  0
 60 61  1  0
 63 64  1  0
 63 65  2  0
M  CHG  4  40   1  48   1  57  -1  64  -1
M  END