
          08180812472D 1   1.00000     0.00000     0

 30 32  0     1  0            999 V2000
   11.5179  -18.0996    0.0000 C   0  0  2  0  0  0           0  0  0
   11.5179  -18.9291    0.0000 C   0  0  1  0  0  0           0  0  0
   12.2324  -19.3416    0.0000 C   0  0  2  0  0  0           0  0  0
   12.9514  -18.9291    0.0000 C   0  0  1  0  0  0           0  0  0
   12.9514  -18.0996    0.0000 O   0  0  0  0  0  0           0  0  0
   12.2324  -17.6825    0.0000 C   0  0  2  0  0  0           0  0  0
   10.8034  -19.3416    0.0000 N   0  0  0  0  0  0           0  0  0
   10.8024  -17.6887    0.0000 O   0  0  0  0  0  0           0  0  0
   13.6653  -19.3426    0.0000 S   0  0  0  0  0  0           0  0  0
   14.3804  -18.9311    0.0000 C   0  0  0  0  0  0           0  0  0
   10.0890  -18.9291    0.0000 C   0  0  0  0  0  0           0  0  0
    9.3745  -19.3416    0.0000 C   0  0  0  0  0  0           0  0  0
   10.0890  -18.1041    0.0000 O   0  0  0  0  0  0           0  0  0
    8.6612  -18.9249    0.0000 C   0  0  0  0  0  0           0  0  0
    7.9473  -19.3368    0.0000 C   0  0  0  0  0  0           0  0  0
    7.9467  -20.1626    0.0000 C   0  0  0  0  0  0           0  0  0
    8.6662  -20.5749    0.0000 C   0  0  0  0  0  0           0  0  0
    9.3773  -20.1608    0.0000 C   0  0  0  0  0  0           0  0  0
    7.2328  -20.5761    0.0000 C   0  0  0  0  0  0           0  0  0
   12.2312  -20.1666    0.0000 O   0  0  0  0  0  0           0  0  0
   12.2312  -16.8575    0.0000 C   0  0  0  0  0  0           0  0  0
   12.9451  -16.4440    0.0000 O   0  0  0  0  0  0           0  0  0
   12.9451  -20.5801    0.0000 C   0  0  0  0  0  0           0  0  0
   12.9440  -21.4051    0.0000 C   0  0  0  0  0  0           0  0  0
   13.6602  -20.1686    0.0000 O   0  0  0  0  0  0           0  0  0
   12.2271  -21.8137    0.0000 C   0  0  0  0  0  0           0  0  0
   12.2256  -22.6380    0.0000 C   0  0  0  0  0  0           0  0  0
   12.9400  -23.0523    0.0000 C   0  0  0  0  0  0           0  0  0
   13.6575  -22.6364    0.0000 C   0  0  0  0  0  0           0  0  0
   13.6554  -21.8135    0.0000 C   0  0  0  0  0  0           0  0  0
 14 15  1  0     0  0
  1  2  1  0     0  0
 15 16  2  0     0  0
  1  8  1  1     0  0
 16 17  1  0     0  0
  1  6  1  0     0  0
 17 18  2  0     0  0
 18 12  1  0     0  0
  4  9  1  1     0  0
 16 19  1  0     0  0
  2  3  1  0     0  0
  3 20  1  6     0  0
  9 10  1  0     0  0
  6 21  1  1     0  0
  3  4  1  0     0  0
 21 22  1  0     0  0
  7 11  1  0     0  0
 20 23  1  0     0  0
  4  5  1  0     0  0
 23 24  1  0     0  0
 11 12  1  0     0  0
 23 25  2  0     0  0
  5  6  1  0     0  0
 24 26  2  0     0  0
 11 13  2  0     0  0
 26 27  1  0     0  0
 27 28  2  0     0  0
 12 14  2  0     0  0
 28 29  1  0     0  0
  2  7  1  1     0  0
 29 30  2  0     0  0
 30 24  1  0     0  0
M  END