
  SciTegic02271515152D

 94 95  0  0  0  0            999 V2000
    2.7713   -0.4717    0.0000 O   0  0
    2.8677   -2.8787    0.0000 C   0  0
    2.1554   -0.8269    0.0000 O   0  0
    2.1554   -3.2960    0.0000 C   0  0
    0.7251   -3.2960    0.0000 C   0  0
    1.4412   -2.8787    0.0000 C   0  0
    0.7251   -0.8269    0.0000 C   0  0
    0.0172   -2.8787    0.0000 O   0  0
   -2.1294   -0.8269    0.0000 C   0  0
   -1.4216    0.4179    0.0000 C   0  0
   -1.4216   -0.4173    0.0000 C   0  0
   -0.7081   -0.8269    0.0000 C   0  0
   -2.1294   -1.6454    0.0000 C   0  0
   -0.7070   -4.4763    0.0000 O   0  0
   -2.0924   -3.6076    0.0000 C   0  0
   -3.5075   -3.5719    0.0000 C   0  0
   -2.8165   -3.9999    0.0000 C   0  0
   -2.8303   -4.8220    0.0000 C   0  0
   -2.8415   -6.4882    0.0000 C   0  0
   -1.4216   -7.3070    0.0000 O   0  0
   -0.7081   -5.2508    0.0000 C   0  0
    0.7251   -5.2508    0.0000 O   0  0
    1.4412   -7.3070    0.0000 C   0  0
    2.8677   -7.3070    0.0000 O   0  0
    2.1554   -5.2508    0.0000 C   0  0
    2.8677   -4.0145    0.0000 C   0  0
    2.8677   -4.8413    0.0000 C   0  0
    3.5843   -5.2508    0.0000 C   0  0
    4.2933   -7.3070    0.0000 C   0  0
    5.0058   -5.2508    0.0000 O   0  0
    6.4345   -7.7288    0.0000 C   0  0
    5.0058   -7.7288    0.0000 C   0  0
    5.7226   -7.3070    0.0000 C   0  0
    7.1518   -7.3070    0.0000 O   0  0
    8.6913   -4.5874    0.0000 C   0  0
    8.5773   -2.8787    0.0000 O   0  0
    7.8923   -2.4420    0.0000 C   0  0
    7.8603   -1.6454    0.0000 C   0  0
    6.4345   -0.8269    0.0000 O   0  0
    4.2933   -2.8787    0.0000 O   0  0
    4.2933   -2.0594    0.0000 C   0  0
    6.4345   -3.2960    0.0000 C   0  0
    5.7226   -2.8787    0.0000 C   0  0
    5.7226   -2.0594    0.0000 C   0  0  1  0  0  0
    6.4345   -1.6454    0.0000 C   0  0
    7.1518   -2.0594    0.0000 N   0  0
    7.1518   -2.8787    0.0000 C   0  0  1  0  0  0
    7.8603   -3.2960    0.0000 C   0  0
    7.8603   -4.5874    0.0000 N   0  0
    8.5763   -7.3446    0.0000 C   0  0
    9.2896   -6.0786    0.0000 C   0  0
    8.5773   -6.4882    0.0000 C   0  0  2  0  0  0
    7.8603   -6.0786    0.0000 C   0  0  1  0  0  0
    7.1518   -6.4882    0.0000 C   0  0
    6.4345   -6.0786    0.0000 N   0  0
    5.7226   -6.4882    0.0000 C   0  0  2  0  0  0
    5.0058   -6.0786    0.0000 C   0  0
    4.2933   -6.4882    0.0000 N   0  0
    3.5843   -6.0786    0.0000 C   0  0  2  0  0  0
    2.8677   -6.4882    0.0000 C   0  0
    2.1554   -6.0786    0.0000 N   0  0
    1.4412   -6.4882    0.0000 C   0  0  2  0  0  0
    0.7251   -6.0786    0.0000 C   0  0
    0.0172   -6.4882    0.0000 N   0  0
   -0.7081   -6.0786    0.0000 C   0  0  1  0  0  0
   -1.4216   -6.4882    0.0000 C   0  0
   -2.1294   -6.0786    0.0000 N   0  0
   -2.1294   -5.2508    0.0000 C   0  0  2  0  0  0
   -1.4216   -4.8902    0.0000 C   0  0
   -1.4216   -2.0594    0.0000 N   0  0
   -0.7081   -1.6454    0.0000 C   0  0  2  0  0  0
    0.0172   -2.0594    0.0000 C   0  0
    0.7251   -1.6454    0.0000 N   0  0
    1.4412   -2.0594    0.0000 C   0  0  2  0  0  0
    2.1554   -1.6454    0.0000 C   0  0
    2.8677   -2.0594    0.0000 N   0  0
    3.5843   -1.6454    0.0000 C   0  0  1  0  0  0
    5.0058   -0.8269    0.0000 C   0  0
    2.8677    2.0694    0.0000 C   0  0
    3.5843    1.6556    0.0000 C   0  0
    3.5843    0.8401    0.0000 C   0  0
    4.2933    0.4178    0.0000 C   0  0
    4.2933   -0.4173    0.0000 C   0  0  2  0  0  0
    3.5843   -0.8269    0.0000 C   0  0  1  0  0  0
    5.0058   -1.6458    0.0000 N   0  0
   10.0319   -6.5090    0.0000 N   0  0
   10.7374   -6.0327    0.0000 C   0  0
   11.5593   -6.2859    0.0000 C   0  0
    9.9656   -7.3692    0.0000 C   0  0
   11.8756   -7.0819    0.0000 O   0  0
   10.5959   -7.9535    0.0000 C   0  0
   11.4449   -7.8226    0.0000 C   0  0
    2.7182   -1.1455    0.0000 H   0  0
    7.8629   -7.0786    0.0000 H   0  0
 84 83  1  0
 77 84  1  0
 84  1  1  6
 83 82  1  0
 83 78  1  1
 82 81  1  0
 81 80  2  0
 80 79  1  0
 77 76  1  0
 77 41  1  0
 75 76  1  0
 76  2  1  0
 74 75  1  0
 75  3  2  0
 73 74  1  0
 74  6  1  6
 72 73  1  0
 73  7  1  0
 71 72  1  0
 72  8  2  0
 70 71  1  0
 71 12  1  1
 70 69  1  0
 70 13  1  0
 68 69  1  0
 69 14  2  0
 67 68  1  0
 68 18  1  1
 66 67  1  0
 67 19  1  0
 65 66  1  0
 66 20  2  0
 64 65  1  0
 65 21  1  1
 63 64  1  0
 62 63  1  0
 63 22  2  0
 61 62  1  0
 62 23  1  1
 60 61  1  0
 59 60  1  0
 60 24  2  0
 58 59  1  0
 59 28  1  6
 57 58  1  0
 58 29  1  0
 56 57  1  0
 57 30  2  0
 55 56  1  0
 56 33  1  1
 54 55  1  0
 54 53  1  0
 54 34  2  0
 53 52  1  0
 53 49  1  0
 52 51  1  0
 52 50  1  1
 48 49  1  0
 49 35  1  0
 47 48  1  0
 48 36  2  0
 46 47  1  0
 47 37  1  1
 45 46  1  0
 46 38  1  0
 44 45  1  0
 45 39  2  0
 44 43  1  6
 85 44  1  0
 43 42  1  0
 41 40  2  0
 41 85  1  0
 33 32  1  0
 33 31  1  0
 28 27  1  0
 27 26  1  0
 27 25  1  0
 18 17  1  0
 17 16  1  0
 17 15  1  0
 12 11  1  0
 11 10  1  0
 11  9  1  0
  6  5  1  0
  6  4  1  0
 51 86  1  0
 86 87  1  0
 87 88  1  0
 86 89  1  0
 88 90  1  0
 89 91  1  0
 90 92  1  0
 91 92  1  0
 77 93  1  6
 53 94  1  6
M  STY  1   1 SUP
M  SLB  1   1   1
M  SAL   1  1  85
M  SBL   1  2  69  72
M  SMT   1 N
M  END