
  SciTegic06271217572D

 13 13  0  0  0  0            999 V2000
   -5.3552    2.6373    0.0000 C   0  0
   -5.3564    1.8100    0.0000 C   0  0
   -4.6415    1.3972    0.0000 C   0  0
   -3.9252    1.8104    0.0000 C   0  0
   -3.9281    2.6410    0.0000 C   0  0
   -4.6433    3.0500    0.0000 C   0  0
   -4.6417    0.5723    0.0000 F   0  0
   -3.2151    3.0561    0.0000 Cl  0  0
   -3.2101    1.3992    0.0000 C   0  0
   -3.2088    0.5743    0.0000 S   0  0
   -2.4938    0.1629    0.0000 C   0  0
   -2.4925   -0.6620    0.0000 N   0  0
   -1.7800    0.5765    0.0000 N   0  0
  1  2  2  0
  3  7  1  0
  3  4  2  0
  5  8  1  0
  4  9  1  0
  4  5  1  0
  9 10  1  0
  2  3  1  0
 10 11  1  0
  5  6  2  0
 11 12  2  0
  6  1  1  0
 11 13  1  0
M  END