
  SciTegic04091414152D

 18 18  0  0  0  0            999 V2000
    9.0048   -5.0327    0.0000 S   0  0
    9.4065   -4.3122    0.0000 O   0  0
    8.5817   -4.3244    0.0000 O   0  0
    8.2879   -5.4604    0.0000 C   0  0
    8.2911   -6.2894    0.0000 C   0  0
    7.5783   -6.7046    0.0000 C   0  0
    6.8623   -6.2949    0.0000 C   0  0
    6.8591   -5.4658    0.0000 C   0  0
    7.5719   -5.0506    0.0000 C   0  0
    9.7333   -5.4382    0.0000 N   0  0
   10.4441   -5.0146    0.0000 C   0  0
   11.1725   -5.4159    0.0000 C   0  0
   11.8832   -4.9882    0.0000 N   0  0
   12.5993   -5.3938    0.0000 C   0  0
   13.3120   -4.9744    0.0000 C   0  0
   11.8656   -4.1592    0.0000 C   0  0
   11.1474   -3.7536    0.0000 C   0  0
    7.5778   -7.5319    0.0000 Cl  0  0
  2  1  2  0
  1  3  2  0
  4  5  1  0
  5  6  2  0
  6  7  1  0
  7  8  2  0
  8  9  1  0
  4  9  2  0
  1 10  1  0
  4  1  1  0
 11 12  1  0
 14 15  1  0
 13 14  1  0
 16 17  1  0
 13 16  1  0
 12 13  1  0
 10 11  1  0
  6 18  1  0
M  END