
  SciTegic12091613522D

 42 46  0  0  0  0            999 V2000
  -14.9943   -0.8819    0.0000 C   0  0
  -15.9947    0.2291    0.0000 C   0  0
  -15.5316    1.6765    0.0000 C   0  0
  -13.5064   -0.5726    0.0000 C   0  0
  -13.0568    0.8626    0.0000 C   0  0
  -14.0572    1.9736    0.0000 C   0  0
  -13.3054    3.2639    0.0000 N   0  0
  -11.8377    2.9417    0.0000 C   0  0
  -11.7121    1.4840    0.0000 C   0  0
  -10.4109    0.7361    0.0000 C   0  0
   -9.1121    1.4882    0.0000 N   0  0
   -7.8109    0.7403    0.0000 C   0  0
   -6.5121    1.4924    0.0000 C   0  0
   -5.2109    0.7445    0.0000 N   0  0
   -3.9122    1.4966    0.0000 C   0  0
   -2.6111    0.7486    0.0000 C   0  0
   -2.6111   -0.7486    0.0000 C   0  0
   -1.2964   -1.4973    0.0000 O   0  0
   -1.2964    1.4973    0.0000 C   0  0
   -1.2928    2.6973    0.0000 O   0  0
    0.0000    0.7486    0.0000 C   0  0
    0.0000   -0.7486    0.0000 C   0  0
    1.2964   -1.4973    0.0000 C   0  0
    2.5929   -0.7486    0.0000 C   0  0
    2.5929    0.7486    0.0000 C   0  0
    1.2964    1.4973    0.0000 C   0  0
   -9.1141    2.6882    0.0000 C   0  0
   -5.2090   -0.4555    0.0000 C   0  0
  -10.4090   -0.4639    0.0000 O   0  0
   -3.9141    2.6966    0.0000 O   0  0
  -13.9092    4.6351    0.0000 S   0  0
  -15.4011    4.7989    0.0000 C   0  0
  -16.2884    3.5895    0.0000 C   0  0
  -17.7794    3.7532    0.0000 C   0  0
  -18.3832    5.1263    0.0000 C   0  0
  -17.4959    6.3357    0.0000 C   0  0
  -16.0048    6.1720    0.0000 C   0  0
  -13.1997    5.6028    0.0000 O   0  0
  -12.7163    4.5047    0.0000 O   0  0
  -18.0971    7.7109    0.0000 N   0  3
  -17.3859    8.6774    0.0000 O   0  0
  -19.2897    7.8439    0.0000 O   0  5
  1  2  2  0
  2  3  1  0
  3  6  2  0
  5  4  2  0
  4  1  1  0
  5  6  1  0
  6  7  1  0
  7  8  1  0
  8  9  2  0
  9  5  1  0
  9 10  1  0
 10 11  1  0
 11 12  1  0
 12 13  1  0
 13 14  1  0
 14 15  1  0
 15 16  1  0
 16 17  2  0
 16 19  1  0
 17 18  1  0
 18 22  1  0
 21 19  1  0
 19 20  2  0
 21 22  2  0
 22 23  1  0
 23 24  2  0
 24 25  1  0
 25 26  2  0
 26 21  1  0
 11 27  1  0
 14 28  1  0
 10 29  2  0
 15 30  2  0
  7 31  1  0
 31 32  1  0
 32 33  2  0
 33 34  1  0
 34 35  2  0
 35 36  1  0
 36 37  2  0
 37 32  1  0
 31 38  2  0
 31 39  2  0
 40 41  2  0
 40 42  1  0
 36 40  1  0
M  CHG  2  40   1  42  -1
M  END