
  SciTegic11281211512D

 29 31  0  0  0  0            999 V2000
    3.0496   -3.6496    0.0000 C   0  0
    2.5747   -2.9747    0.0000 N   0  0
    2.5539   -4.3120    0.0000 N   0  0
   11.7404   -1.6415    0.0000 C   0  0
    3.8746   -3.6663    0.0000 C   0  0
    1.7873   -3.2163    0.0000 C   0  0
   11.3404   -0.9249    0.0000 C   0  0
    1.7748   -4.0412    0.0000 C   0  0
   11.3154   -2.3539    0.0000 C   0  0
    4.2912   -2.9539    0.0000 C   0  0
    4.2745   -4.3787    0.0000 C   0  0
   10.5113   -0.9124    0.0000 C   0  0
    6.3493   -3.7038    0.0000 O   0  0
    5.5244   -3.6913    0.0000 C   0  0
   10.4905   -2.3372    0.0000 C   0  0
    7.5741   -4.4370    0.0000 C   0  0  1  0  0  0
    6.7492   -4.4245    0.0000 C   0  0
    5.1161   -2.9664    0.0000 C   0  0
    5.0994   -4.3995    0.0000 C   0  0
   10.0905   -1.6165    0.0000 C   0  0
   12.5653   -1.6540    0.0000 O   0  0
    8.8240   -3.7413    0.0000 N   0  0
   11.7612   -0.2125    0.0000 O   0  0
    7.9783   -5.1536    0.0000 O   0  0
    7.9991   -3.7288    0.0000 C   0  0
    9.2406   -3.0289    0.0000 C   0  0
   10.0655   -3.0414    0.0000 C   0  0
   12.9652   -2.3789    0.0000 C   0  0
   12.5861   -0.2167    0.0000 C   0  0
  2  1  2  0
  3  1  1  0
  4  9  1  0
  5  1  1  0
  6  2  1  0
  7 12  1  0
  8  3  1  0
  9 15  2  0
 10  5  1  0
 11  5  2  0
 12 20  2  0
 13 14  1  0
 14 19  2  0
 15 27  1  0
 16 17  1  0
 17 13  1  0
 18 10  2  0
 19 11  1  0
 20 15  1  0
 21  4  1  0
 22 25  1  0
 23  7  1  0
 16 24  1  6
 25 16  1  0
 26 22  1  0
 27 26  1  0
 28 21  1  0
 29 23  1  0
  8  6  2  0
 18 14  1  0
  7  4  2  0
M  END