
          08180812492D 1   1.00000     0.00000     0

 30 33  0     0  0            999 V2000
    0.8777  -16.2958    0.0000 C   0  0  0  0  0  0           0  0  0
    0.8766  -17.1232    0.0000 C   0  0  0  0  0  0           0  0  0
    1.5914  -17.5360    0.0000 C   0  0  0  0  0  0           0  0  0
    2.3078  -17.1227    0.0000 C   0  0  0  0  0  0           0  0  0
    2.3050  -16.2922    0.0000 C   0  0  0  0  0  0           0  0  0
    1.5896  -15.8830    0.0000 C   0  0  0  0  0  0           0  0  0
    0.1619  -17.5348    0.0000 C   0  0  0  0  0  0           0  0  0
   -0.5806  -17.1752    0.0000 N   0  0  3  0  0  0           0  0  0
    0.1611  -18.3601    0.0000 O   0  0  0  0  0  0           0  0  0
    3.0179  -15.8770    0.0000 O   0  0  0  0  0  0           0  0  0
    3.0148  -15.0520    0.0000 C   0  0  0  0  0  0           0  0  0
    3.7295  -14.6416    0.0000 C   0  0  0  0  0  0           0  0  0
    3.7267  -13.8174    0.0000 C   0  0  0  0  0  0           0  0  0
    3.0101  -13.4068    0.0000 C   0  0  0  0  0  0           0  0  0
    2.2949  -13.8264    0.0000 C   0  0  0  0  0  0           0  0  0
    2.3012  -14.6492    0.0000 C   0  0  0  0  0  0           0  0  0
    3.0230  -17.5341    0.0000 C   0  0  0  0  0  0           0  0  0
    3.7368  -17.1204    0.0000 N   0  0  0  0  0  0           0  0  0
    4.4519  -17.5318    0.0000 C   0  0  0  0  0  0           0  0  0
   -1.2245  -17.6879    0.0000 C   0  0  0  0  0  0           0  0  0
   -2.0306  -17.5038    0.0000 C   0  0  0  0  0  0           0  0  0
   -0.5798  -16.3511    0.0000 C   0  0  0  0  0  0           0  0  0
   -2.3908  -16.7630    0.0000 C   0  0  0  0  0  0           0  0  0
   -1.2260  -15.8360    0.0000 C   0  0  0  0  0  0           0  0  0
   -2.0307  -16.0220    0.0000 N   0  0  3  0  0  0           0  0  0
   -2.5449  -15.3768    0.0000 C   0  0  3  0  0  0           0  0  0
   -2.6700  -14.5578    0.0000 C   0  0  0  0  0  0           0  0  0
   -3.3152  -15.0719    0.0000 C   0  0  0  0  0  0           0  0  0
    3.0031  -12.5837    0.0000 C   0  0  0  0  0  0           0  0  0
    2.9989  -11.7587    0.0000 N   0  0  0  0  0  0           0  0  0
 14 15  1  0     0  0
  3  4  2  0     0  0
 15 16  2  0     0  0
 16 11  1  0     0  0
  7  8  1  0     0  0
  4 17  1  0     0  0
 17 18  1  0     0  0
  7  9  2  0     0  0
 18 19  1  0     0  0
  4  5  1  0     0  0
  8 20  1  0     0  0
  5 10  1  0     0  0
 20 21  1  0     0  0
  2  3  1  0     0  0
  8 22  1  0     0  0
 10 11  1  0     0  0
 21 23  1  0     0  0
  5  6  2  0     0  0
 22 24  1  0     0  0
 11 12  2  0     0  0
 23 25  1  0     0  0
 24 25  1  0     0  0
  6  1  1  0     0  0
 25 26  1  0     0  0
 27 26  1  0     0  0
 28 27  1  0     0  0
 26 28  1  0     0  0
 12 13  1  0     0  0
  1  2  2  0     0  0
 13 14  2  0     0  0
  2  7  1  0     0  0
 29 30  3  0     0  0
 14 29  1  0     0  0
M  END