
          11280714472D 1   1.00000     0.00000     0

 28 31  0     0  0            999 V2000
    3.4417   -3.2625    0.0000 N   0  0  0  0  0  0           0  0  0
    2.6292   -3.1250    0.0000 C   0  0  0  0  0  0           0  0  0
    3.2542   -1.9417    0.0000 N   0  0  0  0  0  0           0  0  0
    2.5042   -2.3042    0.0000 C   0  0  0  0  0  0           0  0  0
    3.8292   -2.5417    0.0000 C   0  0  0  0  0  0           0  0  0
    7.1125   -2.2667    0.0000 S   0  0  3  0  0  0           0  0  0
    6.2875   -2.3292    0.0000 C   0  0  0  0  0  0           0  0  0
    2.0667   -3.7250    0.0000 C   0  0  0  0  0  0           0  0  0
    4.6417   -2.4667    0.0000 C   0  0  0  0  0  0           0  0  0
    7.3250   -3.0625    0.0000 O   0  0  0  0  0  0           0  0  0
    6.8917   -1.4667    0.0000 O   0  0  0  0  0  0           0  0  0
    1.8000   -1.8917    0.0000 C   0  0  0  0  0  0           0  0  0
    0.3667   -1.0625    0.0000 N   0  0  0  0  0  0           0  0  0
    5.8167   -1.6542    0.0000 C   0  0  0  0  0  0           0  0  0
    5.9417   -3.0792    0.0000 C   0  0  0  0  0  0           0  0  0
    4.9917   -1.7250    0.0000 C   0  0  0  0  0  0           0  0  0
    5.1125   -3.1500    0.0000 C   0  0  0  0  0  0           0  0  0
    2.3000   -4.5042    0.0000 C   0  0  0  0  0  0           0  0  0
    1.2667   -3.5292    0.0000 C   0  0  0  0  0  0           0  0  0
    7.9292   -2.2000    0.0000 C   0  0  0  0  0  0           0  0  0
    0.9417   -4.9167    0.0000 C   0  0  0  0  0  0           0  0  0
    1.7292   -5.1042    0.0000 C   0  0  0  0  0  0           0  0  0
    0.7042   -4.1292    0.0000 C   0  0  0  0  0  0           0  0  0
    0.3875   -5.5167    0.0000 F   0  0  0  0  0  0           0  0  0
    0.3667   -1.8917    0.0000 C   0  0  0  0  0  0           0  0  0
    1.0792   -0.6500    0.0000 C   0  0  0  0  0  0           0  0  0
    1.8000   -1.0625    0.0000 C   0  0  0  0  0  0           0  0  0
    1.0792   -2.3042    0.0000 C   0  0  0  0  0  0           0  0  0
  2  1  1  0     0  0
  3  5  1  0     0  0
  4  2  2  0     0  0
  5  1  2  0     0  0
  6  7  1  0     0  0
  7 15  2  0     0  0
  8  2  1  0     0  0
  9  5  1  0     0  0
 10  6  2  0     0  0
 11  6  2  0     0  0
 12  4  1  0     0  0
 13 25  2  0     0  0
 14 16  2  0     0  0
 15 17  1  0     0  0
 16  9  1  0     0  0
 17  9  2  0     0  0
 18  8  1  0     0  0
 19  8  2  0     0  0
 20  6  1  0     0  0
 21 23  2  0     0  0
 22 18  2  0     0  0
 23 19  1  0     0  0
 24 21  1  0     0  0
 25 28  1  0     0  0
 26 27  2  0     0  0
 27 12  1  0     0  0
 28 12  2  0     0  0
  3  4  1  0     0  0
 14  7  1  0     0  0
 21 22  1  0     0  0
 26 13  1  0     0  0
M  END