
  SciTegic10041313232D

 55 61  0  0  1  0            999 V2000
   -4.9931   -4.9875    0.0000 C   0  0
   -4.9943   -5.8148    0.0000 C   0  0
   -4.2794   -6.2277    0.0000 C   0  0
   -4.2812   -4.5747    0.0000 C   0  0
   -3.5659   -4.9838    0.0000 C   0  0
   -3.5624   -5.8169    0.0000 C   0  0
   -2.8433   -6.2282    0.0000 C   0  0
   -2.1229   -5.8110    0.0000 C   0  0
   -4.0625   -6.9792    0.0000 N   0  0
   -3.0625   -7.0208    0.0000 C   0  0
   -2.8501   -4.5620    0.0000 C   0  0
   -2.1244   -4.9774    0.0000 C   0  0  2  0  0  0
   -1.4058   -4.5589    0.0000 N   0  0
   -1.4067   -3.7233    0.0000 C   0  0
   -2.1324   -3.3080    0.0000 C   0  0  1  0  0  0
   -2.8573   -3.7282    0.0000 C   0  0
   -0.6904   -4.9696    0.0000 C   0  0
   -2.1347   -2.4830    0.0000 C   0  0
   -1.4214   -2.0685    0.0000 N   0  0
   -2.8503   -2.0725    0.0000 O   0  0
   -1.4237   -1.2435    0.0000 C   0  0  2  0  0  0
   -0.7104   -0.8290    0.0000 C   0  0
   -2.1393   -0.8330    0.0000 C   0  0
   -2.1416   -0.0080    0.0000 C   0  0
    0.0052   -1.2395    0.0000 N   0  0
   -0.7127   -0.0040    0.0000 O   0  0
    0.7185   -0.8250    0.0000 C   0  0  2  0  0  0
    1.3092   -1.2980    0.0000 C   0  0
    0.7162    0.0000    0.0000 C   0  0
    1.4296    0.4145    0.0000 C   0  0
    0.9958   -2.0458    0.0000 O   0  0
    2.1113   -1.1054    0.0000 N   0  0
   -1.4125   -5.3875    0.0000 H   0  0
   -1.4293    0.4027    0.0000 C   0  0
   -1.4313    1.2269    0.0000 C   0  0
   -2.1474    1.6382    0.0000 C   0  0
   -2.8631    1.2193    0.0000 C   0  0
   -2.8576    0.3964    0.0000 C   0  0
   -2.1522    2.4683    0.0000 N   0  3
   -2.8683    2.8779    0.0000 O   0  0
   -1.4394    2.8838    0.0000 O   0  5
    2.6752   -1.7071    0.0000 C   0  0
    3.4744   -1.5172    0.0000 C   0  0
    3.7128   -0.7271    0.0000 C   0  0
    3.1456   -0.1266    0.0000 C   0  0
    2.3400   -0.3163    0.0000 C   0  0
    4.0400   -2.1177    0.0000 C   0  0
    3.8028   -2.9079    0.0000 O   0  0
    4.8429   -1.9281    0.0000 N   0  0
    2.1426    0.0018    0.0000 C   0  0
    2.8554    0.4156    0.0000 C   0  0
    2.8536    1.2415    0.0000 C   0  0
    2.1329    1.6518    0.0000 C   0  0
    1.4231    1.2356    0.0000 C   0  0
    3.5664    1.6569    0.0000 F   0  0
 22 26  2  0
 25 27  1  0
  2  3  1  0
 27 28  1  0
  3  6  2  0
 27 29  1  1
  1  2  2  0
 29 30  1  0
  5 11  1  0
 28 31  2  0
 11 16  2  0
 28 32  1  0
 12 13  1  0
 12 33  1  1
 13 14  1  0
 24 34  2  0
 14 15  1  0
 34 35  1  0
 15 16  1  0
 35 36  2  0
  6  7  1  0
 36 37  1  0
 13 17  1  0
 37 38  2  0
 38 24  1  0
  7  8  1  0
 15 18  1  1
  8 12  1  0
 39 40  2  0
 39 41  1  0
 36 39  1  0
 32 42  1  0
 18 19  1  0
  5  4  2  0
 18 20  2  0
  3  9  1  0
 19 21  1  0
 32 46  1  0
 42 43  1  0
 43 44  1  0
 44 45  1  0
 45 46  1  0
  4  1  1  0
 43 47  1  0
 21 22  1  0
 47 48  2  0
  7 10  2  0
 47 49  1  0
 21 23  1  1
 30 50  2  0
  9 10  1  0
 50 51  1  0
 23 24  1  0
 51 52  2  0
 11 12  1  0
 52 53  1  0
 22 25  1  0
 53 54  2  0
 54 30  1  0
  5  6  1  0
 52 55  1  0
M  CHG  2  39   1  41  -1
M  END