
  SciTegic09291413392D

 34 34  0  0  0  0            999 V2000
   21.9353   -7.4325    0.0000 Br  0  5
   19.4916  -11.8283    0.0000 Br  0  5
   19.9465   -6.3561    0.0000 C   0  0
   19.9318   -5.5638    0.0000 C   0  0
   20.6087   -5.1550    0.0000 C   0  0
   21.3043   -5.5384    0.0000 C   0  0
   21.3190   -6.3307    0.0000 C   0  0
   20.6380   -6.7355    0.0000 N   0  3
   19.2255   -4.3881    0.0000 C   0  0
   18.5341   -4.0088    0.0000 C   0  0
   19.9025   -3.9834    0.0000 O   0  0
   19.2402   -5.1804    0.0000 N   0  0
   18.5194   -3.2165    0.0000 N   0  0
   17.8278   -2.8330    0.0000 O   0  0
   20.6521   -7.5525    0.0000 C   0  0
   17.9199  -10.0248    0.0000 C   0  0
   17.2431  -10.4337    0.0000 C   0  0
   17.2578  -11.2260    0.0000 C   0  0
   17.9492  -11.6053    0.0000 C   0  0
   18.6262  -11.2006    0.0000 C   0  0
   18.6115  -10.4083    0.0000 N   0  3
   15.8746  -10.4591    0.0000 C   0  0
   15.1831  -10.0756    0.0000 C   0  0
   15.8893  -11.2513    0.0000 O   0  0
   16.5515  -10.0502    0.0000 N   0  0
   14.5062  -10.4844    0.0000 N   0  0
   13.8105  -10.1011    0.0000 O   0  0
   19.3117   -9.9871    0.0000 C   0  0
   19.9557   -7.9737    0.0000 C   0  0
   19.9703   -8.7618    0.0000 C   0  0
   19.2935   -9.1707    0.0000 C   0  0
   18.6019   -8.7872    0.0000 C   0  0
   18.5873   -7.9990    0.0000 C   0  0
   19.2642   -7.5902    0.0000 C   0  0
  3  4  1  0
  4  5  2  0
  5  6  1  0
  6  7  2  0
  7  8  1  0
  3  8  2  0
  9 10  1  0
  9 11  2  0
  9 12  1  0
 13 14  1  0
 10 13  2  0
  4 12  1  0
  8 15  1  0
 16 17  1  0
 17 18  2  0
 18 19  1  0
 19 20  2  0
 20 21  1  0
 16 21  2  0
 22 23  1  0
 22 24  2  0
 22 25  1  0
 26 27  1  0
 23 26  2  0
 17 25  1  0
 21 28  1  0
 29 30  1  0
 30 31  2  0
 31 32  1  0
 32 33  2  0
 33 34  1  0
 29 34  2  0
 29 15  1  0
 31 28  1  0
M  CHG  4   1  -1   2  -1   8   1  21   1
M  END