
  SciTegic02011310452D

 26 28  0  0  0  0            999 V2000
    3.0052   -7.1099    0.0000 C   0  0
    3.0041   -7.9379    0.0000 N   0  0
    3.7194   -8.3512    0.0000 C   0  0
    4.4365   -7.9375    0.0000 N   0  0
    4.4335   -7.1063    0.0000 C   0  0
    3.7176   -6.6968    0.0000 C   0  0
    5.1471   -6.6907    0.0000 N   0  0
    5.8637   -7.1009    0.0000 C   0  0
    5.8634   -7.9242    0.0000 C   0  0
    6.5792   -8.3343    0.0000 C   0  0
    7.2937   -7.9186    0.0000 C   0  0
    7.2879   -7.0887    0.0000 C   0  0
    6.5716   -6.6824    0.0000 C   0  0
    3.7192   -9.1769    0.0000 N   0  0
    3.0041   -9.5895    0.0000 C   0  0
    2.2905   -9.1770    0.0000 C   0  0
    1.5758   -9.5890    0.0000 C   0  0
    1.5752  -10.4156    0.0000 C   0  0
    2.2952  -10.8284    0.0000 C   0  0
    3.0069  -10.4141    0.0000 C   0  0
    6.5624   -5.8539    0.0000 C   0  0
    7.2737   -5.4347    0.0000 O   0  0
    5.8436   -5.4476    0.0000 O   0  0
    0.8577  -10.8264    0.0000 C   0  0
    0.1422  -10.4143    0.0000 O   0  0
    0.8585  -11.6535    0.0000 O   0  0
  1  2  2  0
  2  3  1  0
  3  4  2  0
  4  5  1  0
  5  6  2  0
  6  1  1  0
  5  7  1  0
  7  8  1  0
  8  9  2  0
  9 10  1  0
 10 11  2  0
 11 12  1  0
 12 13  2  0
 13  8  1  0
  3 14  1  0
 14 15  1  0
 15 16  2  0
 16 17  1  0
 17 18  2  0
 18 19  1  0
 19 20  2  0
 20 15  1  0
 21 22  1  0
 21 23  2  0
 13 21  1  0
 24 25  1  0
 24 26  2  0
 18 24  1  0
M  END