
  Symyx   11300911332D 1   1.00000     0.00000     0

 21 23  0     0  0            999 V2000
   10.6897  -18.9310    0.0000 C   0  0  0  0  0  0           0  0  0
   11.4095  -18.5290    0.0000 N   0  0  0  0  0  0           0  0  0
    9.9817  -18.5087    0.0000 N   0  0  0  0  0  0           0  0  0
   10.6780  -19.7554    0.0000 S   0  0  0  0  0  0           0  0  0
    9.2618  -18.9107    0.0000 C   0  0  0  0  0  0           0  0  0
    8.5543  -18.4853    0.0000 C   0  0  0  0  0  0           0  0  0
    7.8349  -18.8866    0.0000 C   0  0  0  0  0  0           0  0  0
    7.8227  -19.7119    0.0000 C   0  0  0  0  0  0           0  0  0
    8.5359  -20.1342    0.0000 C   0  0  0  0  0  0           0  0  0
    9.2523  -19.7303    0.0000 C   0  0  0  0  0  0           0  0  0
   12.1177  -18.9513    0.0000 C   0  0  0  0  0  0           0  0  0
   12.1035  -19.7768    0.0000 C   0  0  0  0  0  0           0  0  0
   12.8107  -20.1991    0.0000 C   0  0  0  0  0  0           0  0  0
   12.8328  -18.5497    0.0000 C   0  0  0  0  0  0           0  0  0
   13.5407  -18.9683    0.0000 C   0  0  0  0  0  0           0  0  0
   13.5325  -19.7955    0.0000 C   0  0  0  0  0  0           0  0  0
   14.3168  -20.0589    0.0000 C   0  0  0  0  0  0           0  0  0
   14.8097  -19.3943    0.0000 O   0  0  0  0  0  0           0  0  0
   14.3299  -18.7205    0.0000 C   0  0  0  0  0  0           0  0  0
   14.5925  -17.9387    0.0000 O   0  0  0  0  0  0           0  0  0
    8.5271  -20.9591    0.0000 C   0  0  0  0  0  0           0  0  0
  1  3  1  0     0  0
  2 11  1  0     0  0
  5  6  2  0     0  0
 11 12  2  0     0  0
  1  2  1  0     0  0
 12 13  1  0     0  0
 13 16  2  0     0  0
  6  7  1  0     0  0
 15 14  2  0     0  0
 14 11  1  0     0  0
 15 16  1  0     0  0
  1  4  2  0     0  0
  7  8  2  0     0  0
  8  9  1  0     0  0
  3  5  1  0     0  0
 16 17  1  0     0  0
 17 18  1  0     0  0
 18 19  1  0     0  0
 19 15  1  0     0  0
  9 10  2  0     0  0
 19 20  2  0     0  0
 10  5  1  0     0  0
  9 21  1  0     0  0
M  END