
          11280714582D 1   1.00000     0.00000     0

 35 39  0     0  0            999 V2000
    5.4667   -4.2167    0.0000 C   0  0  0  0  0  0           0  0  0
    4.7500   -8.7542    0.0000 C   0  0  0  0  0  0           0  0  0
    6.1792   -3.8042    0.0000 C   0  0  0  0  0  0           0  0  0
    3.9917   -9.0875    0.0000 N   0  0  0  0  0  0           0  0  0
    3.4417   -8.4750    0.0000 N   0  0  0  0  0  0           0  0  0
    4.6625   -7.9292    0.0000 N   0  0  0  0  0  0           0  0  0
    3.8542   -7.7625    0.0000 N   0  0  0  0  0  0           0  0  0
    5.4667   -9.1625    0.0000 C   0  0  0  0  0  0           0  0  0
    5.4667   -5.0417    0.0000 N   0  0  3  0  0  0           0  0  0
    4.7542   -3.8042    0.0000 N   0  0  0  0  0  0           0  0  0
    6.1792   -8.7500    0.0000 C   0  0  0  0  0  0           0  0  0
    6.1792   -2.9792    0.0000 C   0  0  0  0  0  0           0  0  0
    6.9000   -4.2167    0.0000 C   0  0  0  0  0  0           0  0  0
    5.4667   -2.5667    0.0000 N   0  0  0  0  0  0           0  0  0
    4.7542   -2.9792    0.0000 C   0  0  0  0  0  0           0  0  0
    6.1792   -7.9292    0.0000 C   0  0  0  0  0  0           0  0  0
    6.1792   -5.4542    0.0000 C   0  0  0  0  0  0           0  0  0
    5.4667   -7.5167    0.0000 C   0  0  0  0  0  0           0  0  0
    6.9000   -7.5125    0.0000 C   0  0  0  0  0  0           0  0  0
    6.8917   -2.5625    0.0000 C   0  0  0  0  0  0           0  0  0
    6.1792   -6.2792    0.0000 C   0  0  0  0  0  0           0  0  0
    7.6125   -3.8000    0.0000 C   0  0  0  0  0  0           0  0  0
    5.4667   -6.6917    0.0000 C   0  0  0  0  0  0           0  0  0
    6.8917   -6.6917    0.0000 C   0  0  0  0  0  0           0  0  0
    7.6042   -2.9667    0.0000 C   0  0  0  0  0  0           0  0  0
    4.7542   -5.4542    0.0000 C   0  0  0  0  0  0           0  0  0
    5.4667   -9.9875    0.0000 C   0  0  0  0  0  0           0  0  0
    8.3250   -4.2042    0.0000 O   0  0  0  0  0  0           0  0  0
    6.8917   -9.1542    0.0000 C   0  0  0  0  0  0           0  0  0
    9.0375   -3.7917    0.0000 C   0  0  0  0  0  0           0  0  0
    4.0375   -5.0417    0.0000 C   0  0  0  0  0  0           0  0  0
    3.3250   -5.4542    0.0000 C   0  0  0  0  0  0           0  0  0
    6.1792  -10.4000    0.0000 C   0  0  0  0  0  0           0  0  0
    6.9000   -9.9792    0.0000 C   0  0  0  0  0  0           0  0  0
    2.6125   -5.0417    0.0000 C   0  0  0  0  0  0           0  0  0
  2  8  1  0     0  0
  3  1  2  0     0  0
  4  2  1  0     0  0
  5  4  2  0     0  0
  6  2  2  0     0  0
  7  6  1  0     0  0
  8 11  2  0     0  0
  9  1  1  0     0  0
 10  1  1  0     0  0
 11 16  1  0     0  0
 12  3  1  0     0  0
 13  3  1  0     0  0
 14 15  1  0     0  0
 15 10  2  0     0  0
 16 19  1  0     0  0
 17  9  1  0     0  0
 18 23  1  0     0  0
 19 24  2  0     0  0
 20 12  1  0     0  0
 21 17  1  0     0  0
 22 13  2  0     0  0
 23 21  2  0     0  0
 24 21  1  0     0  0
 25 22  1  0     0  0
 26  9  1  0     0  0
 27  8  1  0     0  0
 28 22  1  0     0  0
 29 11  1  0     0  0
 30 28  1  0     0  0
 31 26  1  0     0  0
 32 31  1  0     0  0
 33 34  1  0     0  0
 34 29  2  0     0  0
 35 32  1  0     0  0
 14 12  2  0     0  0
 20 25  2  0     0  0
 16 18  2  0     0  0
 33 27  2  0     0  0
  5  7  1  0     0  0
M  END