
  SciTegic01161211212D

 17 17  0  0  0  0            999 V2000
    3.9707   -5.5823    0.0000 C   0  0
    4.6847   -5.1690    0.0000 C   0  0
    5.3987   -5.5782    0.0000 C   0  0
    6.1126   -5.1649    0.0000 C   0  0
    6.8266   -5.5740    0.0000 C   0  0
    7.5406   -5.1607    0.0000 C   0  0
    8.2546   -5.5698    0.0000 C   0  0
    8.9685   -5.1565    0.0000 O   0  0
    9.6850   -5.5690    0.0000 C   0  0
    9.6807   -6.3935    0.0000 C   0  0
   10.3963   -6.8059    0.0000 C   0  0
   11.1128   -6.3916    0.0000 C   0  0
   11.1091   -5.5606    0.0000 C   0  0
   10.3929   -5.1520    0.0000 C   0  0
   11.8298   -6.8032    0.0000 C   0  0
   11.8319   -7.6299    0.0000 O   0  0
   12.5446   -6.3880    0.0000 O   0  0
  8  9  1  0
  4  5  1  0
  9 10  2  0
  2  3  1  0
 10 11  1  0
  5  6  1  0
 11 12  2  0
  1  2  1  0
 12 13  1  0
  6  7  1  0
 13 14  2  0
 14  9  1  0
  3  4  1  0
 12 15  1  0
  7  8  1  0
 15 16  2  0
 15 17  1  0
M  END