
          03140815512D 1   1.00000     0.00000     0

 27 31  0     0  0            999 V2000
    6.0094   -2.8916    0.0000 C   0  0  0  0  0  0           0  0  0
    6.6506   -2.2080    0.0000 C   0  0  3  0  0  0           0  0  0
    6.8138   -2.6666    0.0000 C   0  0  3  0  0  0           0  0  0
    7.3620   -2.4706    0.0000 C   0  0  0  0  0  0           0  0  0
    7.5665   -2.9693    0.0000 C   0  0  0  0  0  0           0  0  0
    8.1098   -2.2851    0.0000 C   0  0  3  0  0  0           0  0  0
    6.8070   -1.8182    0.0000 C   0  0  0  0  0  0           0  0  0
    7.3677   -1.1562    0.0000 C   0  0  3  0  0  0           0  0  0
    6.6462   -1.4125    0.0000 C   0  0  0  0  0  0           0  0  0
    8.1157   -1.4662    0.0000 C   0  0  0  0  0  0           0  0  0
    7.3625   -0.3292    0.0000 C   0  0  0  0  0  0           0  0  0
    8.0743    0.0878    0.0000 N   0  0  0  0  0  0           0  0  0
    8.7914   -0.3201    0.0000 C   0  0  0  0  0  0           0  0  0
    8.7966   -1.1451    0.0000 O   0  0  0  0  0  0           0  0  0
    9.5033    0.0969    0.0000 C   0  0  0  0  0  0           0  0  0
   10.2552   -0.2335    0.0000 C   0  0  0  0  0  0           0  0  0
   10.8034    0.3831    0.0000 S   0  0  0  0  0  0           0  0  0
   10.3863    1.0950    0.0000 C   0  0  0  0  0  0           0  0  0
    9.5805    0.9182    0.0000 C   0  0  0  0  0  0           0  0  0
   10.7171    1.8508    0.0000 C   0  0  0  0  0  0           0  0  0
   11.5370    1.9423    0.0000 N   0  0  3  0  0  0           0  0  0
   12.0223    1.2731    0.0000 C   0  0  0  0  0  0           0  0  0
   12.8389    1.3622    0.0000 C   0  0  0  0  0  0           0  0  0
   13.1736    2.1167    0.0000 N   0  0  0  0  0  0           0  0  0
   12.6855    2.7829    0.0000 C   0  0  0  0  0  0           0  0  0
   11.8625    2.6948    0.0000 C   0  0  0  0  0  0           0  0  0
   10.4313   -1.0395    0.0000 C   0  0  0  0  0  0           0  0  0
  1  3  1  0     0  0
 12 13  1  0     0  0
  2  4  1  0     0  0
 13 14  2  0     0  0
  3  5  1  0     0  0
 13 15  1  0     0  0
 15 16  2  0     0  0
  4  6  1  0     0  0
  5  6  1  0     0  0
  7  8  1  0     0  0
  3  7  1  0     0  0
 16 17  1  0     0  0
 17 18  1  0     0  0
 18 19  2  0     0  0
 19 15  1  0     0  0
  2  9  1  0     0  0
 18 20  1  0     0  0
  6 10  1  0     0  0
 20 21  1  0     0  0
 21 22  1  0     0  0
 10  8  1  0     0  0
  8  9  1  0     0  0
  8 11  1  0     0  0
  1  2  1  0     0  0
 21 26  1  0     0  0
 22 23  1  0     0  0
 23 24  1  0     0  0
 24 25  1  0     0  0
 25 26  1  0     0  0
 11 12  1  0     0  0
 16 27  1  0     0  0
M  END