
  SciTegic12171313052D

 40 45  0  0  0  0            999 V2000
   36.2925   -4.0764    0.0000 C   0  0
   37.0050   -4.4889    0.0000 C   0  0
   37.7145   -4.0804    0.0000 C   0  0
   37.7178   -3.2577    0.0000 N   0  0
   37.0053   -2.8452    0.0000 C   0  0
   36.2895   -3.2554    0.0000 C   0  0
   38.4333   -2.8470    0.0000 C   0  0
   39.1467   -3.2614    0.0000 C   0  0
   39.1426   -4.0855    0.0000 C   0  0
   39.8519   -4.4998    0.0000 C   0  0
   40.5698   -4.0926    0.0000 N   0  0
   40.5739   -3.2667    0.0000 C   0  0
   39.8601   -2.8479    0.0000 C   0  0
   35.6114   -4.5419    0.0000 N   0  0
   34.7986   -5.6008    0.0000 N   0  0
   35.5901   -5.3684    0.0000 C   0  0
   34.3330   -4.9196    0.0000 C   0  0
   34.8378   -4.2673    0.0000 C   0  0
   34.5250   -3.5061    0.0000 C   0  0
   33.7078   -3.3961    0.0000 C   0  0
   33.2043   -4.0534    0.0000 C   0  0
   33.5198   -4.8119    0.0000 C   0  0
   41.2816   -4.5097    0.0000 C   0  0
   41.9987   -4.1017    0.0000 C   0  0
   42.7088   -4.5233    0.0000 C   0  0
   43.4254   -4.1161    0.0000 C   0  0
   43.4311   -3.2902    0.0000 N   0  0
   42.7142   -2.8733    0.0000 C   0  0
   42.0005   -3.2829    0.0000 C   0  0
   36.2442   -5.8713    0.0000 O   0  0
   38.4355   -2.0221    0.0000 O   0  0
   44.1370   -4.5334    0.0000 N   0  0
   34.5212   -6.3778    0.0000 C   0  0
   33.7097   -6.5261    0.0000 C   0  0
   33.4323   -7.3031    0.0000 N   0  0
   32.6208   -7.4468    0.0000 C   0  0
   32.3428   -8.2197    0.0000 C   0  0
   32.8740   -8.8514    0.0000 O   0  0
   33.6869   -8.7049    0.0000 C   0  0
   33.9686   -7.9266    0.0000 C   0  0
  1  2  1  0
  1  6  1  0
  2  3  1  0
  3  4  1  0
  4  5  1  0
  5  6  1  0
  4  7  1  0
  7  8  1  0
  8  9  1  0
  8 13  1  0
  9 10  1  0
 10 11  1  0
 11 12  1  0
 12 13  1  0
  1 14  1  0
 14 18  1  0
 17 15  1  0
 15 16  1  0
 16 14  1  0
 17 18  2  0
 18 19  1  0
 19 20  2  0
 20 21  1  0
 21 22  2  0
 22 17  1  0
 11 23  1  0
 23 24  1  0
 24 25  2  0
 25 26  1  0
 26 27  2  0
 27 28  1  0
 28 29  2  0
 29 24  1  0
 16 30  2  0
  7 31  2  0
 26 32  1  0
 15 33  1  0
 33 34  1  0
 34 35  1  0
 35 36  1  0
 35 40  1  0
 36 37  1  0
 37 38  1  0
 38 39  1  0
 39 40  1  0
M  END