
  SciTegic09261414532D

 72 77  0  0  0  0            999 V2000
    8.7991   -8.3793    0.0000 N   0  0
    8.0440   -8.7096    0.0000 C   0  0
    7.5023   -8.1031    0.0000 C   0  0
    7.9109   -7.3940    0.0000 C   0  0
    8.7097   -7.5648    0.0000 C   0  0
    6.6824   -8.1871    0.0000 C   0  0
    6.2009   -7.5239    0.0000 O   0  0
    6.3915   -8.9551    0.0000 N   0  0
    7.5767   -6.6426    0.0000 C   0  0
    6.7568   -6.5586    0.0000 C   0  0
    6.4267   -5.8072    0.0000 C   0  0
    6.9124   -5.1439    0.0000 C   0  0
    7.7239   -5.2320    0.0000 C   0  0
    8.0582   -5.9793    0.0000 C   0  0
    5.5838   -9.0828    0.0000 C   0  0
    5.2888   -9.8466    0.0000 C   0  0
    4.4811   -9.9743    0.0000 C   0  0
    3.9602   -9.3381    0.0000 C   0  0
    4.2512   -8.5742    0.0000 C   0  0
    5.0671   -8.4424    0.0000 C   0  0
    7.8764   -9.5121    0.0000 C   0  0
    8.4874  -10.0599    0.0000 C   0  0
    7.1017   -9.7668    0.0000 C   0  0
    9.3208   -7.0128    0.0000 C   0  0
    9.1531   -6.2103    0.0000 C   0  0
    9.7642   -5.6624    0.0000 C   0  0
   10.5388   -5.9171    0.0000 C   0  0
   10.7065   -6.7196    0.0000 C   0  0
   10.0995   -7.2675    0.0000 C   0  0
   11.1499   -5.3693    0.0000 F   0  0
   27.2564  -10.0178    0.0000 C   0  0
   26.5473   -9.6092    0.0000 C   0  0
   25.8382  -10.0178    0.0000 C   0  0
   25.1250   -9.6092    0.0000 C   0  0
   24.4159  -10.0178    0.0000 C   0  0
   23.7068   -9.6092    0.0000 N   0  0
   22.9977  -10.0178    0.0000 C   0  0
   22.2845   -9.6092    0.0000 C   0  0
   21.5754  -10.0178    0.0000 C   0  0
   20.8664   -9.6092    0.0000 O   0  0
   20.1573  -10.0178    0.0000 C   0  0
   19.4440   -9.6092    0.0000 C   0  0
   18.7350  -10.0178    0.0000 O   0  0
   18.0259   -9.6092    0.0000 C   0  0
   17.3168  -10.0178    0.0000 C   0  0
   16.6077   -9.6092    0.0000 O   0  0
   15.8945  -10.0178    0.0000 C   0  0
   15.1854   -9.6092    0.0000 C   0  0
   14.4763  -10.0178    0.0000 C   0  0
   13.7672   -9.6092    0.0000 N   0  0
   13.0581  -10.0178    0.0000 C   0  0
   12.3449   -9.6092    0.0000 C   0  0
   11.6376  -10.0178    0.0000 C   0  0  1  0  0  0
   10.9270   -9.6092    0.0000 C   0  0
   10.2163  -10.0178    0.0000 C   0  0  1  0  0  0
    9.5056   -9.6092    0.0000 C   0  0
    9.5056   -8.7879    0.0000 C   0  0
   29.9280  -10.4819    0.0000 C   0  0
   30.0162   -9.6633    0.0000 N   0  0
   29.2648   -9.3330    0.0000 C   0  0  2  0  0  0
   28.7169   -9.9395    0.0000 C   0  0  2  0  0  0
   29.1255  -10.6527    0.0000 N   0  0
   28.8562   -8.6239    0.0000 C   0  0
   27.9696   -9.6092    0.0000 C   0  0  1  0  0  0
   28.0537   -8.7947    0.0000 S   0  0
   30.5386  -11.0298    0.0000 O   0  0
   13.0581  -10.8391    0.0000 O   0  0
   24.4159  -10.8391    0.0000 O   0  0
   10.2163  -10.8391    0.0000 O   0  0
   11.6376  -10.8391    0.0000 O   0  0
   28.1691  -10.5501    0.0000 H   0  0
   29.8126   -8.7224    0.0000 H   0  0
  1  2  1  0
  2  3  2  0
  3  4  1  0
  4  5  2  0
  1  5  1  0
  6  7  2  0
  6  8  1  0
  3  6  1  0
  9 10  1  0
 10 11  2  0
 11 12  1  0
 12 13  2  0
 13 14  1  0
  9 14  2  0
  4  9  1  0
 15 16  1  0
 16 17  2  0
 17 18  1  0
 18 19  2  0
 19 20  1  0
 15 20  2  0
  8 15  1  0
 21 22  1  0
 21 23  1  0
  2 21  1  0
 24 25  1  0
 25 26  2  0
 26 27  1  0
 27 28  2  0
 28 29  1  0
 24 29  2  0
 27 30  1  0
  5 24  1  0
 31 32  1  0
 32 33  1  0
 33 34  1  0
 34 35  1  0
 35 36  1  0
 36 37  1  0
 37 38  1  0
 38 39  1  0
 39 40  1  0
 40 41  1  0
 41 42  1  0
 42 43  1  0
 43 44  1  0
 44 45  1  0
 45 46  1  0
 46 47  1  0
 47 48  1  0
 48 49  1  0
 49 50  1  0
 50 51  1  0
 51 52  1  0
 52 53  1  0
 53 54  1  0
 54 55  1  0
 55 56  1  0
 56 57  1  0
 58 59  1  0
 59 60  1  0
 60 61  1  0
 61 62  1  0
 58 62  1  0
 64 65  1  0
 63 65  1  0
 60 63  1  0
 61 64  1  0
 58 66  2  0
 64 31  1  6
 51 67  2  0
 35 68  2  0
 55 69  1  6
 53 70  1  6
  1 57  1  0
 61 71  1  1
 60 72  1  1
M  END