
          11280715272D 1   1.00000     0.00000     0

 49 51  0     0  0            999 V2000
   -1.0583   -4.0292    0.0000 N   0  0  3  0  0  0           0  0  0
   -1.7958   -4.4042    0.0000 C   0  0  0  0  0  0           0  0  0
   -1.4333   -5.8417    0.0000 C   0  0  0  0  0  0           0  0  0
   -1.9708   -5.2042    0.0000 C   0  0  0  0  0  0           0  0  0
   -0.3083   -4.3750    0.0000 C   0  0  0  0  0  0           0  0  0
   -0.6125   -5.8292    0.0000 N   0  0  0  0  0  0           0  0  0
   -0.1083   -5.1750    0.0000 C   0  0  0  0  0  0           0  0  0
   -1.0583   -3.2125    0.0000 C   0  0  0  0  0  0           0  0  0
    1.0792    0.5083    0.0000 C   0  0  0  0  0  0           0  0  0
    8.9250    0.9333    0.0000 C   0  0  0  0  0  0           0  0  0
    0.2792   -3.8042    0.0000 N   0  0  0  0  0  0           0  0  0
   -1.7833   -6.5917    0.0000 O   0  0  0  0  0  0           0  0  0
    1.7917    0.9208    0.0000 N   0  0  3  0  0  0           0  0  0
    8.2125    0.5208    0.0000 N   0  0  3  0  0  0           0  0  0
   -0.3458   -2.7917    0.0000 O   0  0  0  0  0  0           0  0  0
    1.0792   -0.3167    0.0000 O   0  0  0  0  0  0           0  0  0
    8.9250    1.7583    0.0000 O   0  0  0  0  0  0           0  0  0
   -2.7458   -5.4542    0.0000 C   0  0  0  0  0  0           0  0  0
   -2.3958   -3.8542    0.0000 C   0  0  0  0  0  0           0  0  0
   -1.0583   -0.7375    0.0000 N   0  0  0  0  0  0           0  0  0
   10.3625   -1.5375    0.0000 N   0  0  0  0  0  0           0  0  0
   -1.7708   -2.8000    0.0000 C   0  0  0  0  0  0           0  0  0
    0.6792   -5.4042    0.0000 C   0  0  0  0  0  0           0  0  0
    0.3667    0.9208    0.0000 C   0  0  0  0  0  0           0  0  0
    9.6417    0.5208    0.0000 C   0  0  0  0  0  0           0  0  0
    1.0750   -4.0292    0.0000 C   0  0  0  0  0  0           0  0  0
    7.5000    0.9333    0.0000 C   0  0  0  0  0  0           0  0  0
    2.5042    0.5083    0.0000 C   0  0  0  0  0  0           0  0  0
    8.2125   -0.3042    0.0000 C   0  0  0  0  0  0           0  0  0
    1.7917    1.7458    0.0000 C   0  0  0  0  0  0           0  0  0
   -1.0583   -1.5625    0.0000 C   0  0  0  0  0  0           0  0  0
   -1.7833   -0.3250    0.0000 C   0  0  0  0  0  0           0  0  0
   10.3542   -0.7125    0.0000 C   0  0  0  0  0  0           0  0  0
   -1.7833   -1.9750    0.0000 C   0  0  0  0  0  0           0  0  0
   -0.3458    0.5083    0.0000 C   0  0  0  0  0  0           0  0  0
   10.3542    0.9375    0.0000 C   0  0  0  0  0  0           0  0  0
    3.2250    0.9208    0.0000 C   0  0  0  0  0  0           0  0  0
    6.7875    0.5208    0.0000 C   0  0  0  0  0  0           0  0  0
   -1.7833    0.5000    0.0000 C   0  0  0  0  0  0           0  0  0
   11.0667   -0.3000    0.0000 C   0  0  0  0  0  0           0  0  0
    1.2750   -4.8292    0.0000 C   0  0  0  0  0  0           0  0  0
   -3.3500   -4.9042    0.0000 C   0  0  0  0  0  0           0  0  0
   -3.1750   -4.1042    0.0000 C   0  0  0  0  0  0           0  0  0
    4.6500    0.9250    0.0000 C   0  0  0  0  0  0           0  0  0
    5.3625    0.5125    0.0000 C   0  0  0  0  0  0           0  0  0
    6.0750    0.9250    0.0000 C   0  0  0  0  0  0           0  0  0
   -1.0625    0.9125    0.0000 C   0  0  0  0  0  0           0  0  0
   11.0667    0.5250    0.0000 C   0  0  0  0  0  0           0  0  0
    3.9375    0.5125    0.0000 C   0  0  0  0  0  0           0  0  0
  2  1  1  0     0  0
  3  4  1  0     0  0
  4  2  2  0     0  0
  5  1  1  0     0  0
  6  7  1  0     0  0
  7  5  2  0     0  0
  8  1  1  0     0  0
  9 24  1  0     0  0
 10 14  1  0     0  0
 11  5  1  0     0  0
 12  3  2  0     0  0
 13  9  1  0     0  0
 14 27  1  0     0  0
 15  8  2  0     0  0
 16  9  2  0     0  0
 17 10  2  0     0  0
 18  4  1  0     0  0
 19  2  1  0     0  0
 20 31  1  0     0  0
 21 33  1  0     0  0
 22  8  1  0     0  0
 23  7  1  0     0  0
 24 35  1  0     0  0
 25 10  1  0     0  0
 26 11  2  0     0  0
 27 38  1  0     0  0
 28 13  1  0     0  0
 29 14  1  0     0  0
 30 13  1  0     0  0
 31 34  1  0     0  0
 32 20  1  0     0  0
 33 40  1  0     0  0
 34 22  1  0     0  0
 35 47  1  0     0  0
 36 25  1  0     0  0
 37 28  1  0     0  0
 38 46  1  0     0  0
 39 32  1  0     0  0
 40 48  1  0     0  0
 41 26  1  0     0  0
 42 43  1  0     0  0
 43 19  2  0     0  0
 44 49  1  0     0  0
 45 44  1  0     0  0
 46 45  1  0     0  0
 47 39  1  0     0  0
 48 36  1  0     0  0
 49 37  1  0     0  0
  3  6  1  0     0  0
 23 41  2  0     0  0
 18 42  2  0     0  0
M  END