
          11280715042D 1   1.00000     0.00000     0

 49 53  0     1  0            999 V2000
   -1.7000    0.6208    0.0000 C   0  0  0  0  0  0           0  0  0
   -1.7000   -0.2042    0.0000 N   0  0  3  0  0  0           0  0  0
   -0.9833    1.8625    0.0000 N   0  0  3  0  0  0           0  0  0
    5.4375   -1.8875    0.0000 C   0  0  0  0  0  0           0  0  0
   -1.6958    2.2750    0.0000 C   0  0  0  0  0  0           0  0  0
    3.2917   -1.4667    0.0000 C   0  0  0  0  0  0           0  0  0
    6.1542   -1.4792    0.0000 C   0  0  0  0  0  0           0  0  0
    4.7250   -1.4750    0.0000 N   0  0  3  0  0  0           0  0  0
   -2.4125    1.0375    0.0000 C   0  0  3  0  0  0           0  0  0
    2.5750   -2.7000    0.0000 C   0  0  0  0  0  0           0  0  0
    4.0042   -1.8792    0.0000 C   0  0  0  0  0  0           0  0  0
    2.5792   -1.8750    0.0000 C   0  0  1  0  0  0           0  0  0
   -2.4125    1.8625    0.0000 C   0  0  0  0  0  0           0  0  0
   -0.9833   -0.6167    0.0000 C   0  0  3  0  0  0           0  0  0
    0.4375   -1.4500    0.0000 N   0  0  3  0  0  0           0  0  0
    3.2792   -3.1042    0.0000 C   0  0  0  0  0  0           0  0  0
   -0.9875    2.6958    0.0000 C   0  0  0  0  0  0           0  0  0
   -0.1708    1.8708    0.0000 C   0  0  0  0  0  0           0  0  0
    3.2792   -3.9292    0.0000 C   0  0  0  0  0  0           0  0  0
    3.3000   -0.6417    0.0000 N   0  0  0  0  0  0           0  0  0
   -0.1625    2.6958    0.0000 C   0  0  3  0  0  0           0  0  0
    1.8667   -1.4542    0.0000 C   0  0  0  0  0  0           0  0  0
    6.8625   -1.9000    0.0000 C   0  0  0  0  0  0           0  0  0
    6.1542   -0.6542    0.0000 C   0  0  0  0  0  0           0  0  0
   -0.9833    1.0333    0.0000 O   0  0  0  0  0  0           0  0  0
   -0.9875   -1.4417    0.0000 C   0  0  0  0  0  0           0  0  0
   -0.2708   -0.2042    0.0000 C   0  0  0  0  0  0           0  0  0
    2.5667   -4.3417    0.0000 C   0  0  0  0  0  0           0  0  0
    5.4292   -2.7125    0.0000 O   0  0  0  0  0  0           0  0  0
   -1.6958    3.1083    0.0000 O   0  0  0  0  0  0           0  0  0
    6.8667   -0.2500    0.0000 C   0  0  0  0  0  0           0  0  0
    7.5792   -1.4917    0.0000 C   0  0  0  0  0  0           0  0  0
    7.5792   -0.6667    0.0000 C   0  0  0  0  0  0           0  0  0
    1.8542   -3.1042    0.0000 C   0  0  0  0  0  0           0  0  0
    1.1500   -1.8667    0.0000 C   0  0  0  0  0  0           0  0  0
    1.8500   -3.9292    0.0000 C   0  0  0  0  0  0           0  0  0
   -0.2833   -1.8542    0.0000 C   0  0  0  0  0  0           0  0  0
    0.4417   -0.6250    0.0000 C   0  0  0  0  0  0           0  0  0
   -2.4125   -0.6125    0.0000 C   0  0  0  0  0  0           0  0  0
    3.9917   -4.3417    0.0000 Cl  0  0  0  0  0  0           0  0  0
    2.5625   -5.1667    0.0000 Cl  0  0  0  0  0  0           0  0  0
    8.2917   -1.9042    0.0000 Cl  0  0  0  0  0  0           0  0  0
    6.8667    0.5750    0.0000 Cl  0  0  0  0  0  0           0  0  0
    0.4167    3.2750    0.0000 O   0  0  0  0  0  0           0  0  0
    4.0167   -0.2292    0.0000 O   0  0  0  0  0  0           0  0  0
    4.7292   -0.6500    0.0000 C   0  0  0  0  0  0           0  0  0
   -3.1208    0.6208    0.0000 C   0  0  0  0  0  0           0  0  0
   -3.1208   -0.2042    0.0000 C   0  0  0  0  0  0           0  0  0
    4.7292    0.1708    0.0000 C   0  0  0  0  0  0           0  0  0
  2  1  1  0     0  0
  3  5  1  0     0  0
  4  8  1  0     0  0
  5 13  1  0     0  0
  6 12  1  0     0  0
  7  4  1  0     0  0
  8 11  1  0     0  0
  9  1  1  0     0  0
 12 10  1  1     0  0
 11  6  1  0     0  0
 12 22  1  0     0  0
  9 13  1  0     0  0
 14  2  1  0     0  0
 15 38  1  0     0  0
 16 10  1  0     0  0
 17  3  1  0     0  0
 18  3  1  0     0  0
 19 16  2  0     0  0
 20  6  2  0     0  0
 21 18  1  0     0  0
 22 35  1  0     0  0
 23  7  2  0     0  0
 24  7  1  0     0  0
 25  1  2  0     0  0
 26 14  1  0     0  0
 27 14  1  0     0  0
 28 36  2  0     0  0
 29  4  2  0     0  0
 30  5  2  0     0  0
 31 24  2  0     0  0
 32 23  1  0     0  0
 33 31  1  0     0  0
 34 10  2  0     0  0
 35 15  1  0     0  0
 36 34  1  0     0  0
 37 26  1  0     0  0
 38 27  1  0     0  0
 39  2  1  0     0  0
 40 19  1  0     0  0
 41 28  1  0     0  0
 42 32  1  0     0  0
 43 31  1  0     0  0
 44 21  1  0     0  0
 45 20  1  0     0  0
 46  8  1  0     0  0
 47  9  1  0     0  0
 48 47  1  0     0  0
 49 45  1  0     0  0
 39 48  1  0     0  0
 37 15  1  0     0  0
 17 21  1  0     0  0
 19 28  1  0     0  0
 32 33  2  0     0  0
M  END