
  SciTegic12231509382D

 17 17  0  0  0  0            999 V2000
    2.2393    0.1456    0.0000 C   0  0
    2.9538    0.5581    0.0000 O   0  0
    3.6682    0.1456    0.0000 C   0  0
    3.6682   -0.6794    0.0000 C   0  0
    4.3827   -1.0919    0.0000 C   0  0
    5.0972   -0.6794    0.0000 C   0  0
    5.8116   -1.0919    0.0000 O   0  0
    6.5261   -0.6794    0.0000 C   0  0
    5.0972    0.1456    0.0000 C   0  0
    4.3827    0.5581    0.0000 C   0  0
    5.8116    0.5581    0.0000 C   0  0
    5.8116    1.3831    0.0000 O   0  0
    6.5261    0.1456    0.0000 C   0  0
    7.2406    0.5581    0.0000 N   0  0
    7.9551    0.1456    0.0000 C   0  0
    8.6695    0.5581    0.0000 C   0  0
    7.9551   -0.6794    0.0000 C   0  0
  1  2  1  0
  2  3  1  0
  3 10  2  0
  3  4  1  0
  4  5  2  0
  5  6  1  0
  6  7  1  0
  7  8  1  0
  6  9  2  0
  9 10  1  0
  9 11  1  0
 11 12  1  0
 11 13  1  0
 13 14  1  0
 14 15  1  0
 15 16  1  0
 15 17  1  0
M  END