
          11280714522D 1   1.00000     0.00000     0

 26 28  0     1  0            999 V2000
    1.8750   -4.7167    0.0000 S   0  0  3  0  0  0           0  0  0
    0.8042   -2.0917    0.0000 C   0  0  2  0  0  0           0  0  0
    0.7917   -2.9167    0.0000 C   0  0  0  0  0  0           0  0  0
    1.5250   -1.6875    0.0000 N   0  0  3  0  0  0           0  0  0
    2.0917   -3.9250    0.0000 N   0  0  3  0  0  0           0  0  0
    1.5042   -3.3417    0.0000 C   0  0  2  0  0  0           0  0  0
    0.0792   -1.6875    0.0000 C   0  0  0  0  0  0           0  0  0
    1.0750   -4.5042    0.0000 O   0  0  0  0  0  0           0  0  0
    2.6667   -4.9292    0.0000 O   0  0  0  0  0  0           0  0  0
    2.2292   -2.9292    0.0000 C   0  0  0  0  0  0           0  0  0
    2.2375   -2.1042    0.0000 C   0  0  0  0  0  0           0  0  0
    0.0875   -0.8542    0.0000 C   0  0  0  0  0  0           0  0  0
    1.5250   -0.8542    0.0000 C   0  0  0  0  0  0           0  0  0
    0.8042   -0.4292    0.0000 C   0  0  0  0  0  0           0  0  0
    1.6750   -5.5167    0.0000 C   0  0  0  0  0  0           0  0  0
    2.8875   -3.7042    0.0000 C   0  0  0  0  0  0           0  0  0
   -0.6333   -2.0917    0.0000 C   0  0  0  0  0  0           0  0  0
   -0.6333   -0.4417    0.0000 C   0  0  0  0  0  0           0  0  0
    0.8792   -5.7417    0.0000 C   0  0  0  0  0  0           0  0  0
   -0.1208   -6.7667    0.0000 C   0  0  0  0  0  0           0  0  0
    0.6792   -6.5417    0.0000 C   0  0  0  0  0  0           0  0  0
   -1.3458   -1.6792    0.0000 C   0  0  0  0  0  0           0  0  0
   -0.3208   -7.5667    0.0000 C   0  0  0  0  0  0           0  0  0
   -1.3458   -0.8542    0.0000 C   0  0  0  0  0  0           0  0  0
    0.0875   -2.5042    0.0000 H   0  0  0  0  0  0           0  0  0
    0.7917   -3.7500    0.0000 H   0  0  0  0  0  0           0  0  0
  2  3  1  0     0  0
  3  6  1  0     0  0
  4 11  1  0     0  0
  5  1  1  0     0  0
  6  5  1  0     0  0
  7  2  1  0     0  0
  8  1  2  0     0  0
  9  1  2  0     0  0
 10  6  1  0     0  0
 11 10  1  0     0  0
 12  7  1  0     0  0
 13  4  1  0     0  0
 14 13  1  0     0  0
 15  1  1  0     0  0
 16  5  1  0     0  0
 17  7  2  0     0  0
 18 12  2  0     0  0
 19 15  1  0     0  0
 20 21  1  0     0  0
 21 19  1  0     0  0
 22 17  1  0     0  0
 23 20  1  0     0  0
 24 22  2  0     0  0
  2 25  1  6     0  0
  6 26  1  6     0  0
  2  4  1  0     0  0
 14 12  1  0     0  0
 24 18  1  0     0  0
M  END