
  SciTegic12231509382D

 30 34  0  0  1  0            999 V2000
    3.1875   -1.8292    0.0000 C   0  0  2  0  0  0
    1.3375   -2.8542    0.0000 C   0  0  1  0  0  0
    3.2042   -0.6750    0.0000 N   0  0
    1.3250   -3.5875    0.0000 C   0  0
    3.1792   -2.5292    0.0000 C   0  0  2  0  0  0
    3.8750   -1.6042    0.0000 C   0  0  1  0  0  0
    1.9250   -2.5167    0.0000 C   0  0  2  0  0  0
    2.5417   -2.8792    0.0000 C   0  0  1  0  0  0
    2.7750   -1.2625    0.0000 C   0  0
    3.9000   -0.9042    0.0000 C   0  0  2  0  0  0
    1.9375   -3.9417    0.0000 C   0  0
    2.5750   -1.4750    0.0000 C   0  0
    2.5542   -3.6000    0.0000 C   0  0
    0.7042   -3.9417    0.0000 C   0  0
    1.9292   -1.8292    0.0000 C   0  0
    0.7250   -2.5125    0.0000 C   0  0
    3.8625   -2.7542    0.0000 C   0  0
    4.3042   -2.1917    0.0000 C   0  0
    0.0792   -3.5792    0.0000 C   0  0  1  0  0  0
   -0.5458   -3.9167    0.0000 N   0  0
    0.0917   -2.8542    0.0000 C   0  0
    2.9917    0.0208    0.0000 C   0  0
    1.3417   -2.1667    0.0000 C   0  0
    4.4875   -0.4792    0.0000 C   0  0
   -1.1750   -3.5792    0.0000 C   0  0
   -0.5625   -4.6542    0.0000 C   0  0
    3.4067   -3.3810    0.0000 H   0  0
    1.0611   -2.0131    0.0000 H   0  0
    4.8310   -1.3110    0.0000 H   0  0
    3.2711   -3.5250    0.0000 H   0  0
  2  7  1  0
  3  9  1  0
  4  2  1  0
  5  1  1  0
  6  1  1  0
  7 15  1  0
  8  5  1  0
  1  9  1  1
 10  6  1  0
 11 13  1  0
 12  1  1  0
 13  8  1  0
 14  4  1  0
 15 12  1  0
 16  2  1  0
 17  5  1  0
 18  6  1  0
 19 21  1  0
 19 20  1  1
 21 16  1  0
 22  3  1  0
  2 23  1  1
 10 24  1  1
 25 20  1  0
 26 20  1  0
 17 18  1  0
 10  3  1  0
  8  7  1  0
 11  4  2  0
 14 19  1  0
  8 27  1  1
  7 28  1  6
  6 29  1  6
  5 30  1  6
M  END