
  SciTegic10311217562D

 30 32  0  0  0  0            999 V2000
   11.7727    1.1999    0.0000 C   0  0
   11.7715    0.3727    0.0000 C   0  0
   12.4862   -0.0402    0.0000 C   0  0
   13.2027    0.3731    0.0000 C   0  0
   13.1998    1.2036    0.0000 C   0  0
   12.4844    1.6127    0.0000 C   0  0
   12.4820    2.4376    0.0000 O   0  0
   13.9126    1.6188    0.0000 O   0  0
   13.9177   -0.0382    0.0000 O   0  0
   11.0567   -0.0393    0.0000 C   0  0
   10.3427    0.3738    0.0000 O   0  0
   11.0561   -0.8642    0.0000 O   0  0
   10.3414   -1.2761    0.0000 O   0  0
   10.3407   -2.1010    0.0000 C   0  0
    9.6259   -2.5129    0.0000 O   0  0
   11.0548   -2.5141    0.0000 C   0  0
   11.0498   -3.3383    0.0000 C   0  0
   11.7631   -3.7513    0.0000 C   0  0
   12.4788   -3.3393    0.0000 C   0  0
   12.4768   -2.5101    0.0000 C   0  0
   11.7630   -2.1009    0.0000 C   0  0
   13.1902   -2.0956    0.0000 O   0  0
   13.1935   -3.7514    0.0000 O   0  0
   11.7621   -4.5762    0.0000 O   0  0
    9.6272   -0.8630    0.0000 C   0  0  1  0  0  0
    9.6319   -0.0343    0.0000 C   0  0  1  0  0  0
    8.9205    0.3819    0.0000 C   0  0
    8.1998   -0.0261    0.0000 C   0  0
    8.1950   -0.8549    0.0000 C   0  0
    8.9111   -1.2757    0.0000 C   0  0
  6  7  1  0
 14 15  2  0
  3  4  2  0
 14 16  1  0
  5  8  1  0
 16 17  2  0
 17 18  1  0
  4  9  1  0
 18 19  2  0
  4  5  1  0
 19 20  1  0
  2 10  1  0
 20 21  2  0
 21 16  1  0
  2  3  1  0
 20 22  1  0
 10 11  1  0
 19 23  1  0
  5  6  2  0
 18 24  1  0
 25 26  1  0
 10 12  2  0
 26 11  1  1
  6  1  1  0
 25 13  1  6
  1  2  2  0
 13 14  1  0
 25 30  1  0
 26 27  1  0
 27 28  1  0
 28 29  1  0
 29 30  1  0
M  END