
          11280715372D 1   1.00000     0.00000     0

 34 37  0     0  0            999 V2000
    4.3292   -6.9375    0.0000 C   0  0  0  0  0  0           0  0  0
    4.3292   -7.8167    0.0000 C   0  0  0  0  0  0           0  0  0
    2.8042   -6.9375    0.0000 N   0  0  3  0  0  0           0  0  0
    3.5667   -8.2542    0.0000 N   0  0  3  0  0  0           0  0  0
    2.8042   -7.8167    0.0000 C   0  0  0  0  0  0           0  0  0
    3.5667   -6.4875    0.0000 C   0  0  0  0  0  0           0  0  0
    5.1667   -6.6542    0.0000 N   0  0  0  0  0  0           0  0  0
    5.1792   -8.0875    0.0000 N   0  0  0  0  0  0           0  0  0
    5.6917   -7.3667    0.0000 C   0  0  0  0  0  0           0  0  0
    2.0417   -6.4917    0.0000 C   0  0  0  0  0  0           0  0  0
    6.5792   -7.3667    0.0000 C   0  0  0  0  0  0           0  0  0
    2.0417   -8.2625    0.0000 O   0  0  0  0  0  0           0  0  0
    1.2500   -4.3042    0.0000 C   0  0  0  0  0  0           0  0  0
    3.5667   -5.6042    0.0000 O   0  0  0  0  0  0           0  0  0
   10.5542   -8.1042    0.0000 C   0  0  0  0  0  0           0  0  0
    2.0042   -3.8417    0.0000 C   0  0  0  0  0  0           0  0  0
    2.0375   -5.6125    0.0000 C   0  0  0  0  0  0           0  0  0
    1.2667   -5.1792    0.0000 C   0  0  0  0  0  0           0  0  0
    3.5667   -9.1375    0.0000 C   0  0  0  0  0  0           0  0  0
   10.9917   -7.3375    0.0000 O   0  0  0  0  0  0           0  0  0
    7.0167   -8.1292    0.0000 C   0  0  0  0  0  0           0  0  0
    7.0042   -6.6000    0.0000 C   0  0  0  0  0  0           0  0  0
    2.7792   -4.2792    0.0000 C   0  0  0  0  0  0           0  0  0
    9.2250   -7.3500    0.0000 O   0  0  0  0  0  0           0  0  0
    9.6667   -8.1125    0.0000 C   0  0  0  0  0  0           0  0  0
    0.4792   -3.8625    0.0000 I   0  0  0  0  0  0           0  0  0
    8.3417   -7.3542    0.0000 C   0  0  0  0  0  0           0  0  0
    2.0000   -2.9625    0.0000 N   0  0  0  0  0  0           0  0  0
    2.7917   -5.1625    0.0000 C   0  0  0  0  0  0           0  0  0
   11.0000   -8.8667    0.0000 O   0  0  0  0  0  0           0  0  0
    7.8917   -6.5917    0.0000 C   0  0  0  0  0  0           0  0  0
    7.9042   -8.1250    0.0000 C   0  0  0  0  0  0           0  0  0
    2.8000   -9.5792    0.0000 C   0  0  0  0  0  0           0  0  0
    2.8000  -10.4625    0.0000 C   0  0  0  0  0  0           0  0  0
  2  1  2  0     0  0
  3  6  1  0     0  0
  4  2  1  0     0  0
  5  3  1  0     0  0
  6  1  1  0     0  0
  7  1  1  0     0  0
  8  2  1  0     0  0
  9  7  1  0     0  0
 10  3  1  0     0  0
 11  9  1  0     0  0
 12  5  2  0     0  0
 13 18  2  0     0  0
 14  6  2  0     0  0
 15 25  1  0     0  0
 16 23  2  0     0  0
 17 10  1  0     0  0
 18 17  1  0     0  0
 19  4  1  0     0  0
 20 15  2  0     0  0
 21 11  2  0     0  0
 22 11  1  0     0  0
 23 29  1  0     0  0
 24 27  1  0     0  0
 25 24  1  0     0  0
 26 13  1  0     0  0
 27 31  1  0     0  0
 28 16  1  0     0  0
 29 17  2  0     0  0
 30 15  1  0     0  0
 31 22  2  0     0  0
 32 21  1  0     0  0
 33 19  1  0     0  0
 34 33  1  0     0  0
  8  9  2  0     0  0
  4  5  1  0     0  0
 32 27  2  0     0  0
 16 13  1  0     0  0
M  END