
          11290712382D 1   1.00000     0.00000     0

 68 72  0     0  0            999 V2000
   -1.6775   -1.8411    0.0000 C   0  0  0  0  0  0           0  0  0
   -0.9668   -2.2599    0.0000 N   0  0  0  0  0  0           0  0  0
   -2.3957   -2.2470    0.0000 C   0  0  0  0  0  0           0  0  0
   -3.1065   -1.8282    0.0000 N   0  0  3  0  0  0           0  0  0
   -3.0990   -1.0031    0.0000 C   0  0  0  0  0  0           0  0  0
   -3.8246   -2.2342    0.0000 C   0  0  0  0  0  0           0  0  0
   -1.7801    3.0382    0.0000 C   0  0  0  0  0  0           0  0  0
   -1.0694    3.4572    0.0000 N   0  0  0  0  0  0           0  0  0
   -0.3587    3.0430    0.0000 C   0  0  0  0  0  0           0  0  0
   -0.3598    2.2194    0.0000 O   0  0  0  0  0  0           0  0  0
    0.3596    3.4562    0.0000 C   0  0  0  0  0  0           0  0  0
    7.1025    1.1249    0.0000 C   0  0  0  0  0  0           0  0  0
    7.8133    1.5391    0.0000 C   0  0  0  0  0  0           0  0  0
    7.8121    2.3628    0.0000 O   0  0  0  0  0  0           0  0  0
    8.5240    1.1296    0.0000 N   0  0  0  0  0  0           0  0  0
    9.2865    1.5015    0.0000 C   0  0  0  0  0  0           0  0  0
    6.3871    1.5344    0.0000 O   0  0  0  0  0  0           0  0  0
    3.4972    0.1223    0.0000 C   0  0  0  0  0  0           0  0  0
    5.3463   -4.3984    0.0000 C   0  0  0  0  0  0           0  0  0
    5.7369   -3.6717    0.0000 N   0  0  0  0  0  0           0  0  0
    5.3042   -2.9778    0.0000 C   0  0  0  0  0  0           0  0  0
    4.4765   -3.0066    0.0000 O   0  0  0  0  0  0           0  0  0
    5.6890   -2.2485    0.0000 C   0  0  0  0  0  0           0  0  0
    5.2529   -1.5527    0.0000 O   0  0  0  0  0  0           0  0  0
    1.4461    0.1186    0.0000 C   0  0  0  0  0  0           0  0  0
    1.2755   -2.7629    0.0000 O   0  0  0  0  0  0           0  0  0
    2.4663   -1.4073    0.0000 C   0  0  0  0  0  0           0  0  0
    2.4757    1.6521    0.0000 C   0  0  0  0  0  0           0  0  0
    3.9019   -0.5900    0.0000 C   0  0  0  0  0  0           0  0  0
    4.7283   -0.5960    0.0000 C   0  0  0  0  0  0           0  0  0
    5.1398    0.1109    0.0000 C   0  0  0  0  0  0           0  0  0
    4.7311    0.8244    0.0000 C   0  0  0  0  0  0           0  0  0
    3.9059    0.8260    0.0000 C   0  0  0  0  0  0           0  0  0
    3.1788   -2.6500    0.0000 C   0  0  0  0  0  0           0  0  0
    3.1800   -1.8235    0.0000 C   0  0  0  0  0  0           0  0  0
    1.7515   -1.8241    0.0000 C   0  0  0  0  0  0           0  0  0
    1.7546   -2.6540    0.0000 C   0  0  0  0  0  0           0  0  0
    2.4687   -3.0598    0.0000 C   0  0  0  0  0  0           0  0  0
    3.8972   -1.4167    0.0000 C   0  0  0  0  0  0           0  0  0
    1.0330   -1.4111    0.0000 C   0  0  0  0  0  0           0  0  0
    1.0402   -0.5884    0.0000 C   0  0  0  0  0  0           0  0  0
    1.0403    0.8300    0.0000 C   0  0  0  0  0  0           0  0  0
    0.2186    0.8360    0.0000 C   0  0  0  0  0  0           0  0  0
   -0.1931    0.1291    0.0000 C   0  0  0  0  0  0           0  0  0
    0.2110   -0.5844    0.0000 C   0  0  0  0  0  0           0  0  0
    1.7682    2.8900    0.0000 C   0  0  0  0  0  0           0  0  0
    3.1954    2.0642    0.0000 C   0  0  0  0  0  0           0  0  0
    3.1921    2.8941    0.0000 C   0  0  0  0  0  0           0  0  0
    2.4780    3.2998    0.0000 C   0  0  0  0  0  0           0  0  0
    1.0496    1.6567    0.0000 C   0  0  0  0  0  0           0  0  0
    3.9091    1.6512    0.0000 C   0  0  0  0  0  0           0  0  0
    1.7603    2.0709    0.0000 C   0  0  0  0  0  0           0  0  0
    0.8472    3.3041    0.0000 O   0  0  0  0  0  0           0  0  0
    9.9897    1.0271    0.0000 C   0  0  0  0  0  0           0  0  0
   10.7522    1.3988    0.0000 N   0  0  3  0  0  0           0  0  0
    4.5216   -4.4235    0.0000 C   0  0  0  0  0  0           0  0  0
    4.1311   -5.1502    0.0000 N   0  0  3  0  0  0           0  0  0
   -2.4983    3.4443    0.0000 C   0  0  0  0  0  0           0  0  0
   -3.2090    3.0254    0.0000 N   0  0  3  0  0  0           0  0  0
   11.4554    0.9244    0.0000 C   0  0  0  0  0  0           0  0  0
   10.8115    2.2450    0.0000 C   0  0  0  0  0  0           0  0  0
    3.3065   -5.1751    0.0000 C   0  0  0  0  0  0           0  0  0
    4.5651   -5.8517    0.0000 C   0  0  0  0  0  0           0  0  0
   -3.9271    3.4313    0.0000 C   0  0  0  0  0  0           0  0  0
   -3.2016    2.2004    0.0000 C   0  0  0  0  0  0           0  0  0
    0.5369   -2.3059    0.0000 C   0  0  0  0  0  0           0  0  0
   -0.2282   -2.7170    0.0000 C   0  0  0  0  0  0           0  0  0
   -0.2547   -3.5852    0.0000 O   0  0  0  0  0  0           0  0  0
 39 29  1  0     0  0
 26 27  1  0     0  0
 36 40  1  0     0  0
 12 17  1  0     0  0
 40 41  1  0     0  0
 21 23  1  0     0  0
 42 43  2  0     0  0
 13 15  1  0     0  0
 43 44  1  0     0  0
 44 45  2  0     0  0
 45 41  1  0     0  0
 41 25  2  0     0  0
 25 42  1  0     0  0
 23 24  1  0     0  0
 46 52  2  0     0  0
 17 18  1  0     0  0
 28 47  2  0     0  0
 47 48  1  0     0  0
 24 25  1  0     0  0
 48 49  2  0     0  0
 49 46  1  0     0  0
 52 50  1  0     0  0
 50 42  1  0     0  0
 12 13  1  0     0  0
 47 51  1  0     0  0
 51 33  1  0     0  0
 29 30  2  0     0  0
 19 20  1  0     0  0
 30 31  1  0     0  0
 31 32  2  0     0  0
 15 16  1  0     0  0
 32 33  1  0     0  0
 33 18  2  0     0  0
 18 29  1  0     0  0
 20 21  1  0     0  0
 34 35  2  0     0  0
 35 27  1  0     0  0
  4  6  1  0     0  0
 28 52  1  0     0  0
  1  2  1  0     0  0
 28 53  1  0     0  0
 53 11  1  0     0  0
  3  4  1  0     0  0
 16 54  1  0     0  0
 54 55  1  0     0  0
  4  5  1  0     0  0
 19 56  1  0     0  0
  1  3  1  0     0  0
 56 57  1  0     0  0
  7  8  1  0     0  0
  7 58  1  0     0  0
  8  9  1  0     0  0
 58 59  1  0     0  0
  9 10  2  0     0  0
 55 60  1  0     0  0
  9 11  1  0     0  0
 55 61  1  0     0  0
 27 36  2  0     0  0
 57 62  1  0     0  0
 13 14  2  0     0  0
 57 63  1  0     0  0
 36 37  1  0     0  0
 59 64  1  0     0  0
 37 38  2  0     0  0
 59 65  1  0     0  0
 38 34  1  0     0  0
 26 66  1  0     0  0
 21 22  2  0     0  0
 66 67  1  0     0  0
 67  2  1  0     0  0
 35 39  1  0     0  0
 67 68  2  0     0  0
M  END