
  SciTegic12231509382D

 35 40  0  0  1  0            999 V2000
    0.2167    0.4125    0.0000 C   0  0
    1.0375    0.3375    0.0000 C   0  0
   -0.2958   -0.2292    0.0000 C   0  0
    1.4292   -0.3875    0.0000 C   0  0
    1.3625    1.1000    0.0000 C   0  0
    0.0375    1.2125    0.0000 C   0  0
    0.7417    1.6333    0.0000 N   0  0
    1.6375   -1.7417    0.0000 N   0  0
    1.0292   -1.1750    0.0000 C   0  0
   -0.0375   -1.0125    0.0000 C   0  0
   -0.6958   -1.4917    0.0000 N   0  0
    2.2417   -0.5292    0.0000 C   0  0
   -1.1125   -0.2292    0.0000 C   0  0
    2.3542   -1.3417    0.0000 C   0  0
   -1.3708   -1.0125    0.0000 C   0  0
   -0.7333    1.5458    0.0000 O   0  0
    2.1667    1.3000    0.0000 O   0  0
    0.7375   -2.3250    0.0000 C   0  0
   -0.1958   -3.4042    0.0000 O   0  0
    1.2625   -2.9667    0.0000 C   0  0
    0.6250   -3.4875    0.0000 C   0  0  1  0  0  0
    1.6667   -4.4792    0.0000 N   0  0
   -0.1708   -2.1375    0.0000 C   0  0
    0.8667   -4.2875    0.0000 C   0  0
   -0.7125   -2.7625    0.0000 C   0  0
    2.8917   -0.0292    0.0000 C   0  0
   -1.6708    0.3833    0.0000 C   0  0
   -2.1708   -1.1875    0.0000 C   0  0
    3.1167   -1.6542    0.0000 C   0  0
    2.2375   -3.8792    0.0000 C   0  0
    1.9042   -5.2667    0.0000 C   0  0
   -2.4708    0.2083    0.0000 C   0  0
    3.6542   -0.3375    0.0000 C   0  0
    3.7667   -1.1542    0.0000 C   0  0
   -2.7250   -0.5750    0.0000 C   0  0
  2  1  2  0
  3  1  1  0
  4  2  1  0
  5  2  1  0
  6  1  1  0
  7  6  1  0
  8  9  1  0
  9  4  2  0
 10  3  2  0
 11 10  1  0
 12  4  1  0
 13  3  1  0
 14 12  2  0
 15 13  2  0
 16  6  2  0
 17  5  2  0
 18  8  1  0
 19 25  1  0
 20 18  1  0
 21 19  1  0
 22 24  1  0
 23 11  1  0
 21 24  1  1
 25 23  1  0
 26 12  1  0
 27 13  1  0
 28 15  1  0
 29 14  1  0
 30 22  1  0
 31 22  1  0
 32 27  2  0
 33 26  2  0
 34 33  1  0
 35 32  1  0
  7  5  1  0
 11 15  1  0
 14  8  1  0
 35 28  2  0
 34 29  2  0
 21 20  1  0
M  END