
  SciTegic12231509382D

 21 19  0  0  0  0            999 V2000
   12.9115  -10.6314    0.0000 C   0  0
   14.1529  -11.3402    0.0000 C   0  0
   14.5719  -12.0536    0.0000 C   0  0
   15.3985  -12.0492    0.0000 C   0  0
    9.5991   -9.2176    0.0000 C   0  0
   11.6658   -9.9224    0.0000 C   0  0
   10.4245   -9.2134    0.0000 C   0  0
   13.3263  -11.3445    0.0000 C   0  0
   12.0849  -10.6356    0.0000 C   0  0
   10.8393   -9.9266    0.0000 C   0  0
    9.1914   -9.9323    0.0000 C   0  0
    8.3685   -9.9366    0.0000 C   0  0
    7.9607  -10.6513    0.0000 C   0  0
    7.1377  -10.6556    0.0000 C   0  0
    6.7300  -11.3703    0.0000 C   0  0
    5.9071  -11.3746    0.0000 C   0  0
    5.4993  -12.0892    0.0000 C   0  0
    4.6764  -12.0934    0.0000 C   0  0
   15.8062  -11.3345    0.0000 O   0  0
   15.8137  -12.7598    0.0000 O   0  5
   17.3935  -12.0120    0.0000 K   0  3
  6  9  1  0
 10  6  1  0
  5  7  2  0
  7 10  1  0
  3  4  1  0
  1  8  1  0
  2  3  1  0
  8  2  1  0
  9  1  1  0
  5 11  1  0
 11 12  1  0
 12 13  1  0
 13 14  1  0
 14 15  1  0
 15 16  1  0
 16 17  1  0
 17 18  1  0
  4 19  2  0
  4 20  1  0
M  CHG  2  20  -1  21   1
M  END