
  SciTegic01091216402D

 31 35  0  0  0  0            999 V2000
   19.1569  -22.9541    0.0000 N   0  0
   19.1557  -23.7815    0.0000 C   0  0
   19.8706  -24.1944    0.0000 N   0  0
   19.8688  -22.5414    0.0000 C   0  0
   20.5841  -22.9505    0.0000 C   0  0
   20.5844  -23.7815    0.0000 C   0  0
   21.3749  -24.0381    0.0000 N   0  0
   21.8632  -23.3656    0.0000 C   0  0
   21.3744  -22.6935    0.0000 N   0  0
   18.4409  -24.1934    0.0000 C   0  0
   19.8663  -21.7164    0.0000 N   0  0
   19.1506  -21.3060    0.0000 C   0  0
   19.1481  -20.4810    0.0000 C   0  0
   18.4374  -21.7206    0.0000 C   0  0
   19.5597  -19.7728    0.0000 C   0  0
   18.7338  -19.7711    0.0000 C   0  0
   17.6122  -21.7229    0.0000 C   0  0
   18.0268  -22.4361    0.0000 C   0  0
   21.7991  -24.7448    0.0000 C   0  0
   21.3956  -25.4635    0.0000 C   0  0
   21.8191  -26.1706    0.0000 C   0  0
   22.6449  -26.1575    0.0000 C   0  0
   23.0453  -25.4313    0.0000 C   0  0
   22.6195  -24.7272    0.0000 C   0  0
   22.6882  -23.3653    0.0000 C   0  0
   23.0170  -24.0043    0.0000 O   0  0
   23.0700  -26.8645    0.0000 O   0  0
   22.6703  -27.5862    0.0000 C   0  0
   23.8418  -23.9870    0.0000 C   0  0
   23.0954  -28.2932    0.0000 F   0  0
   21.8454  -27.6009    0.0000 F   0  0
 16 15  1  0
 13 16  1  0
  1  2  2  0
  5  4  2  0
 17 14  1  0
 18 17  1  0
 14 18  1  0
  6  7  1  0
  7  8  1  0
  8  9  2  0
  7 19  1  0
  9  5  1  0
 19 20  2  0
  4  1  1  0
 20 21  1  0
  2 10  1  0
 21 22  2  0
  5  6  1  0
 22 23  1  0
  4 11  1  0
 23 24  2  0
 24 19  1  0
  8 25  1  0
 11 12  1  0
 24 26  1  0
  2  3  1  0
 22 27  1  0
 12 13  1  0
 27 28  1  0
  3  6  2  0
 26 29  1  0
 12 14  1  0
 28 30  1  0
 15 13  1  0
 28 31  1  0
M  END