
  SciTegic06051313522D

 21 23  0  0  0  0            999 V2000
    9.9340  -31.1426    0.0000 C   0  0
   10.6436  -30.7332    0.0000 C   0  0
   10.6408  -29.9105    0.0000 C   0  0
    9.9322  -29.5053    0.0000 C   0  0
   11.3470  -29.4993    0.0000 N   0  0
   12.0562  -29.9052    0.0000 C   0  0
    9.2259  -30.7337    0.0000 C   0  0
    9.2271  -29.9126    0.0000 C   0  0
    8.4466  -29.6577    0.0000 N   0  0
    7.9630  -30.3212    0.0000 O   0  0
    8.4447  -30.9861    0.0000 N   0  0
    9.9322  -28.6843    0.0000 N   0  3
    9.2236  -28.2772    0.0000 O   0  0
   10.6390  -28.2741    0.0000 O   0  5
   12.0560  -30.7200    0.0000 C   0  0
   12.7644  -31.1259    0.0000 C   0  0
   13.4715  -30.7146    0.0000 C   0  0
   13.4658  -29.8932    0.0000 C   0  0
   12.7568  -29.4910    0.0000 C   0  0
   14.1813  -31.1196    0.0000 F   0  0
   12.7670  -31.9431    0.0000 Cl  0  0
  7  1  1  0
  1  2  2  0
  2  3  1  0
  3  4  2  0
  4  8  1  0
  3  5  1  0
  5  6  1  0
  7  8  1  0
  8  9  2  0
  9 10  1  0
 10 11  1  0
 11  7  2  0
 12 13  2  0
 12 14  1  0
  4 12  1  0
  6 15  2  0
 15 16  1  0
 16 17  2  0
 17 18  1  0
 18 19  2  0
 19  6  1  0
 17 20  1  0
 16 21  1  0
M  CHG  2  12   1  14  -1
M  END