
          11280715122D 1   1.00000     0.00000     0

 27 30  0     1  0            999 V2000
    0.2125   -3.0667    0.0000 C   0  0  1  0  0  0           0  0  0
   -0.8500   -2.1125    0.0000 N   0  0  3  0  0  0           0  0  0
   -0.3583   -1.4417    0.0000 C   0  0  3  0  0  0           0  0  0
   -0.8500   -0.7667    0.0000 C   0  0  2  0  0  0           0  0  0
    0.5500   -3.8167    0.0000 C   0  0  0  0  0  0           0  0  0
    0.8250   -2.5125    0.0000 C   0  0  0  0  0  0           0  0  0
    1.3667   -3.7292    0.0000 C   0  0  0  0  0  0           0  0  0
    1.5417   -2.9167    0.0000 C   0  0  0  0  0  0           0  0  0
   -1.6375   -1.0250    0.0000 C   0  0  0  0  0  0           0  0  0
   -0.5958   -2.8917    0.0000 C   0  0  0  0  0  0           0  0  0
   -1.6375   -1.8542    0.0000 C   0  0  0  0  0  0           0  0  0
    0.4375   -1.1792    0.0000 O   0  0  0  0  0  0           0  0  0
    0.1417   -4.5292    0.0000 O   0  0  0  0  0  0           0  0  0
    0.7375   -1.6917    0.0000 O   0  0  0  0  0  0           0  0  0
   -0.3583   -0.0917    0.0000 C   0  0  0  0  0  0           0  0  0
   -1.2708   -0.0500    0.0000 O   0  0  0  0  0  0           0  0  0
    0.2042   -2.2417    0.0000 C   0  0  0  0  0  0           0  0  0
    0.4375   -0.3500    0.0000 C   0  0  0  0  0  0           0  0  0
    2.2917   -2.5792    0.0000 C   0  0  0  0  0  0           0  0  0
    1.9250   -4.3417    0.0000 C   0  0  0  0  0  0           0  0  0
   -2.3583   -0.6125    0.0000 C   0  0  0  0  0  0           0  0  0
   -2.3583   -2.2667    0.0000 C   0  0  0  0  0  0           0  0  0
    2.9625   -3.0667    0.0000 C   0  0  0  0  0  0           0  0  0
    3.7125   -2.7292    0.0000 C   0  0  0  0  0  0           0  0  0
   -3.0708   -1.0250    0.0000 C   0  0  0  0  0  0           0  0  0
   -3.0708   -1.8542    0.0000 C   0  0  0  0  0  0           0  0  0
    4.3792   -3.2125    0.0000 C   0  0  0  0  0  0           0  0  0
  2 10  1  0     0  0
  3  2  1  0     0  0
  4  3  1  0     0  0
  5  1  1  0     0  0
  6  1  1  0     0  0
  7  5  1  0     0  0
  8  6  1  0     0  0
  9 11  1  0     0  0
 10  1  1  0     0  0
 11  2  1  0     0  0
 12  3  1  0     0  0
 13  5  2  0     0  0
 14  6  2  0     0  0
 15  4  1  0     0  0
  4 16  1  1     0  0
  1 17  1  1     0  0
 18 12  1  0     0  0
 19  8  1  0     0  0
 20  7  1  0     0  0
 21  9  2  0     0  0
 22 11  2  0     0  0
 23 19  1  0     0  0
 24 23  1  0     0  0
 25 26  2  0     0  0
 26 22  1  0     0  0
 27 24  1  0     0  0
  8  7  2  0     0  0
  9  4  1  0     0  0
 15 18  1  0     0  0
 25 21  1  0     0  0
M  END