
  SciTegic11201309402D

 16 18  0  0  0  0            999 V2000
    0.2463    0.3260    0.0000 C   0  0  1  0  0  0
    0.6116    0.9865    0.0000 C   0  0
    1.2519    1.4367    0.0000 C   0  0  2  0  0  0
    2.0474    0.9714    0.0000 C   0  0
    1.7523    0.3460    0.0000 C   0  0
    1.0218    0.7163    0.0000 C   0  0  1  0  0  0
    1.0919    2.2521    0.0000 N   0  0
   -0.3483   -0.2459    0.0000 C   0  0
   -0.1503   -1.0468    0.0000 C   0  0
   -0.7449   -1.6187    0.0000 C   0  0
   -1.5375   -1.3897    0.0000 C   0  0
   -2.1321   -1.9616    0.0000 Cl  0  0
   -1.7355   -0.5888    0.0000 N   0  0
   -1.1409   -0.0169    0.0000 C   0  0
    1.0204   -0.2837    0.0000 H   0  0
    1.2937    0.4376    0.0000 H   0  0
  1  2  1  0
  1  6  1  0
  1  8  1  1
  3  2  1  0
  3  4  1  0
  3  7  1  0
  4  5  1  0
  5  6  1  0
  6  7  1  0
  8  9  2  0
 14  8  1  0
  9 10  1  0
 11 10  2  0
 11 12  1  0
 11 13  1  0
 14 13  2  0
  6 15  1  1
  3 16  1  6
M  END