
  Mrv0541 04051115152D          

 29 32  0  0  0  0            999 V2000
   -4.7397    0.9828    0.0000 S   0  0  0  0  0  0  0  0  0  0  0  0
   -4.0252    0.5703    0.0000 C   0  0  0  0  0  0  0  0  0  0  0  0
   -3.3107    0.9828    0.0000 C   0  0  0  0  0  0  0  0  0  0  0  0
   -2.5963    0.5703    0.0000 C   0  0  0  0  0  0  0  0  0  0  0  0
   -1.8818    0.9828    0.0000 N   0  0  0  0  0  0  0  0  0  0  0  0
   -1.1673    0.5703    0.0000 C   0  0  0  0  0  0  0  0  0  0  0  0
   -0.4528    0.9828    0.0000 N   0  0  0  0  0  0  0  0  0  0  0  0
    0.2616    0.5703    0.0000 C   0  0  0  0  0  0  0  0  0  0  0  0
    0.9761    0.9828    0.0000 N   0  0  0  0  0  0  0  0  0  0  0  0
    0.9761    1.8078    0.0000 C   0  0  0  0  0  0  0  0  0  0  0  0
    1.6906    0.5703    0.0000 C   0  0  0  0  0  0  0  0  0  0  0  0
    2.4050    0.9828    0.0000 O   0  0  0  0  0  0  0  0  0  0  0  0
    1.6906   -0.2547    0.0000 C   0  0  0  0  0  0  0  0  0  0  0  0
    2.4050   -0.6672    0.0000 C   0  0  0  0  0  0  0  0  0  0  0  0
    3.1195   -0.2547    0.0000 C   0  0  0  0  0  0  0  0  0  0  0  0
    1.6906   -1.9047    0.0000 Cl  0  0  0  0  0  0  0  0  0  0  0  0
    3.8340   -0.6672    0.0000 C   0  0  0  0  0  0  0  0  0  0  0  0
    3.8340   -1.4922    0.0000 C   0  0  0  0  0  0  0  0  0  0  0  0
    3.1195   -1.9047    0.0000 C   0  0  0  0  0  0  0  0  0  0  0  0
    2.4050   -1.4922    0.0000 C   0  0  0  0  0  0  0  0  0  0  0  0
    3.1195    0.5703    0.0000 Cl  0  0  0  0  0  0  0  0  0  0  0  0
    0.9761   -0.6672    0.0000 C   0  0  0  0  0  0  0  0  0  0  0  0
    0.2616   -0.2547    0.0000 C   0  0  0  0  0  0  0  0  0  0  0  0
   -0.4528   -0.6672    0.0000 C   0  0  0  0  0  0  0  0  0  0  0  0
   -1.1673   -0.2547    0.0000 N   0  0  0  0  0  0  0  0  0  0  0  0
   -2.5963   -0.2547    0.0000 C   0  0  0  0  0  0  0  0  0  0  0  0
   -3.3107   -0.6672    0.0000 C   0  0  0  0  0  0  0  0  0  0  0  0
   -4.0252   -0.2547    0.0000 C   0  0  0  0  0  0  0  0  0  0  0  0
   -5.4541    0.5703    0.0000 C   0  0  0  0  0  0  0  0  0  0  0  0
  2  1  1  0  0  0  0
 29  1  1  0  0  0  0
  2  3  2  0  0  0  0
  2 28  1  0  0  0  0
  4  3  1  0  0  0  0
  4  5  1  0  0  0  0
 26  4  2  0  0  0  0
  6  5  1  0  0  0  0
  6  7  2  0  0  0  0
  6 25  1  0  0  0  0
  8  7  1  0  0  0  0
  8  9  1  0  0  0  0
 23  8  2  0  0  0  0
 10  9  1  0  0  0  0
 11  9  1  0  0  0  0
 11 12  2  0  0  0  0
 13 11  1  0  0  0  0
 13 14  1  0  0  0  0
 22 13  2  0  0  0  0
 14 15  1  0  0  0  0
 14 20  2  0  0  0  0
 17 15  2  0  0  0  0
 15 21  1  0  0  0  0
 20 16  1  0  0  0  0
 18 17  1  0  0  0  0
 19 18  2  0  0  0  0
 20 19  1  0  0  0  0
 23 22  1  0  0  0  0
 24 23  1  0  0  0  0
 24 25  2  0  0  0  0
 27 26  1  0  0  0  0
 28 27  2  0  0  0  0
M  END