
          11280714442D 1   1.00000     0.00000     0

 19 19  0     0  0            999 V2000
    1.2792   -7.4375    0.0000 C   0  0  0  0  0  0           0  0  0
    4.8667   -7.6875    0.0000 N   0  0  0  0  0  0           0  0  0
    1.2417   -6.6167    0.0000 O   0  0  0  0  0  0           0  0  0
    5.5625   -7.2417    0.0000 C   0  0  3  0  0  0           0  0  0
    2.0042   -7.8167    0.0000 O   0  0  0  0  0  0           0  0  0
    0.5875   -7.8792    0.0000 C   0  0  0  0  0  0           0  0  0
    3.4417   -7.7542    0.0000 C   0  0  3  0  0  0           0  0  0
    4.1375   -7.3042    0.0000 C   0  0  0  0  0  0           0  0  0
    2.7042   -7.3750    0.0000 C   0  0  0  0  0  0           0  0  0
    0.6292   -8.7042    0.0000 C   0  0  0  0  0  0           0  0  0
    3.4792   -8.5792    0.0000 O   0  0  0  0  0  0           0  0  0
    6.2917   -7.6250    0.0000 C   0  0  0  0  0  0           0  0  0
    5.5292   -6.4167    0.0000 C   0  0  0  0  0  0           0  0  0
    6.2750   -6.8292    0.0000 C   0  0  0  0  0  0           0  0  0
   -0.0625   -9.1417    0.0000 C   0  0  0  0  0  0           0  0  0
    1.3542   -9.0750    0.0000 C   0  0  0  0  0  0           0  0  0
    1.4000   -9.8917    0.0000 C   0  0  0  0  0  0           0  0  0
   -0.0250   -9.9625    0.0000 C   0  0  0  0  0  0           0  0  0
    0.7042  -10.3417    0.0000 C   0  0  0  0  0  0           0  0  0
  2  8  1  0     0  0
  3  1  2  0     0  0
  4  2  1  0     0  0
  5  1  1  0     0  0
  6  1  1  0     0  0
  7  9  1  0     0  0
  8  7  1  0     0  0
  9  5  1  0     0  0
 10  6  1  0     0  0
 11  7  1  0     0  0
 12  4  1  0     0  0
 13  4  1  0     0  0
 14  4  1  0     0  0
 15 10  2  0     0  0
 16 10  1  0     0  0
 17 16  2  0     0  0
 18 15  1  0     0  0
 19 17  1  0     0  0
 19 18  2  0     0  0
M  END