
  SciTegic11201309402D

 32 36  0  0  0  0            999 V2000
    2.0730    0.2062    0.0000 O   0  0
    1.8181   -0.5784    0.0000 C   0  0
    2.3030   -1.2459    0.0000 O   0  0
    1.0335   -0.8334    0.0000 C   0  0  1  0  0  0
    1.0335   -1.6584    0.0000 C   0  0  2  0  0  0
    1.8181   -1.9133    0.0000 C   0  0
    0.3190   -0.4209    0.0000 C   0  0  1  0  0  0
   -0.3955   -0.8334    0.0000 C   0  0
   -0.3955   -1.6584    0.0000 C   0  0
    0.3190   -2.0709    0.0000 C   0  0  2  0  0  0
    0.3190   -2.8959    0.0000 O   0  0
   -1.1099   -2.0709    0.0000 C   0  0
   -1.8244   -1.6584    0.0000 C   0  0
   -1.8244   -0.8334    0.0000 C   0  0
   -1.1099   -0.4209    0.0000 C   0  0
   -2.6090   -1.9133    0.0000 O   0  0
   -3.0939   -1.2459    0.0000 C   0  0
   -2.6090   -0.5784    0.0000 O   0  0
    0.3190    0.4041    0.0000 C   0  0
   -0.3955    0.8166    0.0000 C   0  0
   -0.3955    1.6416    0.0000 C   0  0
   -1.1099    2.0541    0.0000 O   0  0
   -1.1099    2.8791    0.0000 C   0  0
    0.3190    2.0541    0.0000 C   0  0
    0.3190    2.8791    0.0000 O   0  0
   -0.3955    3.2916    0.0000 C   0  0
    1.0335    1.6416    0.0000 C   0  0
    1.0335    0.8166    0.0000 C   0  0
    1.7480    2.0541    0.0000 O   0  0
    2.4624    1.6416    0.0000 C   0  0
    1.1380   -2.6529    0.0000 H   0  0
    1.1380    0.1611    0.0000 H   0  0
  2  1  2  0
  2  3  1  0
  4  2  1  0
  6  3  1  0
  4  5  1  0
  4  7  1  0
  5  6  1  0
 10  5  1  0
  7  8  1  0
  7 19  1  1
  8  9  1  0
 15  8  2  0
  9 10  1  0
  9 12  2  0
 10 11  1  1
 13 12  1  0
 13 14  2  0
 13 16  1  0
 14 15  1  0
 14 18  1  0
 17 16  1  0
 17 18  1  0
 19 20  1  0
 19 28  2  0
 20 21  2  0
 21 22  1  0
 21 24  1  0
 23 22  1  0
 24 25  1  0
 24 27  2  0
 26 25  1  0
 27 28  1  0
 27 29  1  0
 30 29  1  0
  5 31  1  1
  4 32  1  6
M  END