
  SciTegic02181312462D

 32 33  0  0  0  0            999 V2000
   16.7879   -6.1752    0.0000 C   0  0  2  0  0  0
    9.5488   -9.3377    0.0000 C   0  0
    9.5476  -10.1650    0.0000 C   0  0
   10.2625  -10.5780    0.0000 C   0  0
   10.2606   -8.9249    0.0000 C   0  0
   10.9760   -9.3341    0.0000 C   0  0
   10.9763  -10.1651    0.0000 C   0  0
   11.7667  -10.4217    0.0000 N   0  0
   12.2552   -9.7492    0.0000 C   0  0
   11.7663   -9.0770    0.0000 O   0  0
   13.0802   -9.7489    0.0000 N   0  0
   13.4924   -9.0342    0.0000 C   0  0
   14.3174   -9.0340    0.0000 C   0  0
   14.7296   -8.3193    0.0000 C   0  0
   15.5533   -8.3221    0.0000 C   0  0
   15.9655   -7.6083    0.0000 C   0  0
   15.5527   -6.8929    0.0000 C   0  0
   14.7234   -6.8958    0.0000 C   0  0
   14.3149   -7.6102    0.0000 C   0  0
   15.9640   -6.1777    0.0000 O   0  0
   17.2003   -5.4612    0.0000 C   0  0
   18.0253   -5.4598    0.0000 O   0  5
   16.7866   -4.7473    0.0000 O   0  0
   13.4929  -10.4633    0.0000 C   0  0
   14.3179  -10.4630    0.0000 C   0  0
   14.7307  -11.1772    0.0000 C   0  0
   15.5557  -11.1770    0.0000 C   0  0
   15.9685  -11.8913    0.0000 C   0  0
   16.7934  -11.8910    0.0000 C   0  0
   17.2057  -11.1764    0.0000 C   0  0
   17.2014   -6.8891    0.0000 C   0  0
   10.7250   -6.8946    0.0000 Na  0  3
  2  3  2  0
  3  4  1  0
  4  7  2  0
  6  5  2  0
  5  2  1  0
  6  7  1  0
  7  8  1  0
  8  9  2  0
  9 10  1  0
 10  6  1  0
  9 11  1  0
 11 12  1  0
 12 13  1  0
 13 14  1  0
 14 15  2  0
 15 16  1  0
 16 17  2  0
 17 18  1  0
 18 19  2  0
 19 14  1  0
 17 20  1  0
 20  1  1  0
  1 21  1  0
 21 22  1  0
 21 23  2  0
 11 24  1  0
 24 25  1  0
 25 26  1  0
 26 27  1  0
 27 28  1  0
 28 29  1  0
 29 30  1  0
  1 31  1  6
M  CHG  2  22  -1  32   1
M  END