
  CDK    9/16/09,10:7

 24 27  0  0  0  0  0  0  0  0999 V2000
    3.8322  -15.5320    0.0000 C   0  0  0  0  0  0  0  0  0  0  0  0
    3.8310  -16.3581    0.0000 C   0  0  0  0  0  0  0  0  0  0  0  0
    4.5426  -16.7702    0.0000 C   0  0  0  0  0  0  0  0  0  0  0  0
    4.5406  -15.1199    0.0000 C   0  0  0  0  0  0  0  0  0  0  0  0
    5.2575  -15.5281    0.0000 C   0  0  0  0  0  0  0  0  0  0  0  0
    5.2567  -16.3555    0.0000 C   0  0  0  0  0  0  0  0  0  0  0  0
    5.9689  -16.7678    0.0000 C   0  0  0  0  0  0  0  0  0  0  0  0
    6.6866  -16.3570    0.0000 C   0  0  0  0  0  0  0  0  0  0  0  0
    5.9707  -15.1127    0.0000 C   0  0  0  0  0  0  0  0  0  0  0  0
    6.6839  -15.5315    0.0000 C   0  0  0  0  0  0  0  0  0  0  0  0
    6.6943  -13.8802    0.0000 C   0  0  0  0  0  0  0  0  0  0  0  0
    5.9728  -14.2879    0.0000 C   0  0  0  0  0  0  0  0  0  0  0  0
    7.4076  -14.2990    0.0000 C   0  0  0  0  0  0  0  0  0  0  0  0
    7.3998  -15.1238    0.0000 C   0  0  0  0  0  0  0  0  0  0  0  0
    8.1819  -15.3862    0.0000 C   0  0  0  0  0  0  0  0  0  0  0  0
    8.6732  -14.7233    0.0000 C   0  0  0  0  0  0  0  0  0  0  0  0
    8.1946  -14.0515    0.0000 C   0  0  0  0  0  0  0  0  0  0  0  0
    5.2619  -13.8720    0.0000 O   0  0  0  0  0  0  0  0  0  0  0  0
    7.4024  -13.4733    0.0000 C   0  0  0  0  0  0  0  0  0  0  0  0
    8.4563  -13.2707    0.0000 O   0  0  0  0  0  0  0  0  0  0  0  0
    3.1172  -16.7688    0.0000 O   0  0  0  0  0  0  0  0  0  0  0  0
    5.9657  -15.9346    0.0000 H   0  0  0  0  0  0  0  0  0  0  0  0
    7.3931  -15.9438    0.0000 H   0  0  0  0  0  0  0  0  0  0  0  0
    6.6749  -14.7040    0.0000 H   0  0  0  0  0  0  0  0  0  0  0  0
  9 12  1  0  0  0  0 
 10 14  1  0  0  0  0 
 13 11  1  0  0  0  0 
 11 12  1  0  0  0  0 
 13 14  1  0  0  0  0 
  2  3  2  0  0  0  0 
  3  6  1  0  0  0  0 
  1  2  1  0  0  0  0 
  5  9  1  0  0  0  0 
  6  7  1  0  0  0  0 
 14 15  1  0  0  0  0 
 15 16  1  0  0  0  0 
 16 17  1  0  0  0  0 
 17 13  1  0  0  0  0 
 12 18  2  0  0  0  0 
  7  8  1  0  0  0  0 
  8 10  1  0  0  0  0 
 13 19  1  1  0  0  0 
  9 10  1  0  0  0  0 
 17 20  2  0  0  0  0 
  5  4  1  0  0  0  0 
  2 21  1  0  0  0  0 
  4  1  2  0  0  0  0 
  9 22  1  6  0  0  0 
  5  6  2  0  0  0  0 
 14 23  1  6  0  0  0 
 10 24  1  1  0  0  0 
M  END