
  SciTegic11201309402D

 82 85  0  0  1  0            999 V2000
    2.9417   -2.0625    0.0000 N   0  0
    4.1625   -2.7667    0.0000 C   0  0
    4.4417   -5.4333    0.0000 N   0  0
    4.5500   -3.3625    0.0000 N   0  0
    0.9417   -2.5958    0.0000 N   0  0
    2.2292   -2.0250    0.0000 C   0  0
    4.7000   -4.7625    0.0000 C   0  0
    0.4917   -3.1583    0.0000 C   0  0
    3.9958   -5.9917    0.0000 C   0  0  1  0  0  0
    3.6083   -2.3208    0.0000 C   0  0  2  0  0  0
    4.7375   -4.0542    0.0000 C   0  0  1  0  0  0
    0.2000   -4.5333    0.0000 N   0  0
    1.5375   -2.2083    0.0000 C   0  0  1  0  0  0
    0.3833   -5.2167    0.0000 C   0  0
    0.2333   -3.8208    0.0000 C   0  0  2  0  0  0
    8.9500   -8.5125    0.0000 C   0  0
    8.5958   -7.9000    0.0000 N   0  0
    5.4458   -3.9750    0.0000 C   0  0
    4.4750   -6.5208    0.0000 C   0  0
    5.1333   -8.7625    0.0000 C   0  0
   12.1500   -6.6583    0.0000 C   0  0
    0.7750   -5.8208    0.0000 C   0  0
    2.7042   -6.5625    0.0000 S   0  0
    7.5250   -7.2833    0.0000 C   0  0
    2.0125   -6.5667    0.0000 S   0  0
    6.0375   -4.4042    0.0000 C   0  0
    1.3417   -6.1500    0.0000 C   0  0
    7.8833   -7.9000    0.0000 C   0  0  1  0  0  0
    5.1417   -8.0500    0.0000 N   0  0
   12.8625   -6.6583    0.0000 N   0  0
    4.6958   -2.2917    0.0000 O   0  0
    2.1000   -1.4958    0.0000 O   0  0
    5.3958   -4.9167    0.0000 O   0  0
   -0.1250   -2.7958    0.0000 O   0  0
    3.3958   -6.3792    0.0000 C   0  0
   -0.4583   -3.6708    0.0000 C   0  0
    1.2500   -1.5625    0.0000 C   0  0
    8.5958   -9.1292    0.0000 O   0  0
   -0.2708   -5.5083    0.0000 O   0  0
    4.2458   -7.2000    0.0000 O   0  0
    7.8833   -6.6625    0.0000 O   0  0
    5.8750   -4.9458    0.0000 O   0  0
    9.6625   -8.5125    0.0000 C   0  0  2  0  0  0
    5.7458   -9.1292    0.0000 N   0  0
   11.7958   -7.2792    0.0000 N   0  0
    5.1708   -6.3708    0.0000 N   0  0
    6.8208   -7.2833    0.0000 N   0  0
    4.5125   -9.1125    0.0000 N   0  0
   11.7958   -6.0458    0.0000 N   0  0
    3.9667   -1.7000    0.0000 C   0  0
    6.7458   -4.3292    0.0000 N   0  0
   -1.0833   -4.0208    0.0000 C   0  0
   10.0167   -9.1292    0.0000 N   0  0
   -2.3208   -4.7208    0.0000 C   0  0
    1.6708   -0.9792    0.0000 C   0  0
   -1.6958   -3.6625    0.0000 C   0  0
   -1.0833   -4.7333    0.0000 C   0  0
   -1.7000   -5.0833    0.0000 C   0  0
   -2.3125   -4.0083    0.0000 C   0  0
   -2.9375   -5.0792    0.0000 O   0  0
    1.7333   -6.8042    0.0000 C   0  0
    0.6625   -6.1833    0.0000 C   0  0
    7.5250   -8.5125    0.0000 C   0  0
    5.6458   -6.9000    0.0000 C   0  0
    6.3375   -6.7500    0.0000 C   0  0
   11.0875   -7.2792    0.0000 C   0  0
    6.4583   -9.1333    0.0000 C   0  0
   10.0167   -7.9000    0.0000 C   0  0
    4.6792   -1.7000    0.0000 C   0  0
    3.6083   -1.0833    0.0000 C   0  0
   -2.9417   -5.7875    0.0000 C   0  0
    1.3792   -0.3292    0.0000 C   0  0
    2.3792   -1.0542    0.0000 C   0  0
    6.8125   -8.5125    0.0000 C   0  0
   10.7292   -7.9000    0.0000 C   0  0
   -2.3250   -6.1458    0.0000 C   0  0
    0.3042   -6.8042    0.0000 C   0  0
    1.3750   -7.4167    0.0000 C   0  0
    2.7958   -0.4792    0.0000 C   0  0
    1.8000    0.2500    0.0000 C   0  0
    0.6625   -7.4167    0.0000 C   0  0
    2.5083    0.1750    0.0000 C   0  0
  2 10  1  0
  3  7  1  0
  4  2  1  0
  5 13  1  0
  6  1  1  0
  7 11  1  0
  8  5  1  0
  9  3  1  0
 10  1  1  0
 11  4  1  0
 12 15  1  0
 13  6  1  0
 14 12  1  0
 15  8  1  0
 16 17  1  0
 28 17  1  6
 11 18  1  6
  9 19  1  1
 20 44  2  0
 21 45  2  0
 22 14  1  0
 23 35  1  0
 24 47  1  0
 25 23  1  0
 26 18  1  0
 27 22  1  0
 28 24  1  0
 29 20  1  0
 30 21  1  0
 31  2  2  0
 32  6  2  0
 33  7  2  0
 34  8  2  0
  9 35  1  0
 15 36  1  6
 13 37  1  6
 38 16  2  0
 39 14  2  0
 40 19  2  0
 41 24  2  0
 42 26  2  0
 43 16  1  0
 44 67  1  0
 45 66  1  0
 46 19  1  0
 47 65  1  0
 48 20  1  0
 49 21  1  0
 10 50  1  1
 51 26  1  0
 52 36  1  0
 43 53  1  1
 54 58  1  0
 55 37  1  0
 56 52  2  0
 57 52  1  0
 58 57  2  0
 59 56  1  0
 60 54  1  0
 61 27  1  0
 62 27  1  0
 28 63  1  0
 64 46  1  0
 65 64  1  0
 66 75  1  0
 67 74  1  0
 43 68  1  0
 69 50  1  0
 70 50  1  0
 71 60  1  0
 72 55  2  0
 73 55  1  0
 74 63  1  0
 75 68  1  0
 76 71  1  0
 77 62  1  0
 78 61  1  0
 79 73  2  0
 80 72  1  0
 81 77  1  0
 82 79  1  0
 82 80  2  0
 54 59  2  0
 25 27  1  0
 81 78  1  0
M  END