
          11280715362D 1   1.00000     0.00000     0

 38 41  0     1  0            999 V2000
    3.6625   -5.5792    0.0000 C   0  0  1  0  0  0           0  0  0
    3.7042   -4.7542    0.0000 C   0  0  2  0  0  0           0  0  0
    4.3042   -6.1000    0.0000 N   0  0  3  0  0  0           0  0  0
    2.8667   -5.7917    0.0000 C   0  0  0  0  0  0           0  0  0
    6.6167   -3.0667    0.0000 C   0  0  0  0  0  0           0  0  0
    2.9417   -4.4625    0.0000 C   0  0  2  0  0  0           0  0  0
    5.7917   -3.0792    0.0000 C   0  0  0  0  0  0           0  0  0
    7.8875   -5.4542    0.0000 C   0  0  0  0  0  0           0  0  0
    2.7292   -3.6667    0.0000 O   0  0  0  0  0  0           0  0  0
    7.8542   -3.7792    0.0000 N   0  0  0  0  0  0           0  0  0
    2.4167   -5.1042    0.0000 C   0  0  0  0  0  0           0  0  0
    8.5417   -5.3917    0.0000 O   0  0  0  0  0  0           0  0  0
    7.0167   -2.3542    0.0000 C   0  0  0  0  0  0           0  0  0
    5.3792   -3.7917    0.0000 C   0  0  0  0  0  0           0  0  0
    5.3667   -2.3625    0.0000 C   0  0  0  0  0  0           0  0  0
    5.5792   -4.4917    0.0000 C   0  0  0  0  0  0           0  0  0
    6.3292   -4.6792    0.0000 C   0  0  0  0  0  0           0  0  0
    4.4000   -4.3125    0.0000 O   0  0  0  0  0  0           0  0  0
    3.3167   -3.0792    0.0000 C   0  0  0  0  0  0           0  0  0
    4.1417   -3.0875    0.0000 C   0  0  0  0  0  0           0  0  0
    7.7292   -6.2042    0.0000 O   0  0  0  0  0  0           0  0  0
    4.5417   -2.3667    0.0000 C   0  0  0  0  0  0           0  0  0
    4.5542   -3.8042    0.0000 C   0  0  0  0  0  0           0  0  0
    7.0292   -3.7792    0.0000 C   0  0  0  0  0  0           0  0  0
    5.0417   -5.7542    0.0000 C   0  0  0  0  0  0           0  0  0
    4.1167   -6.9042    0.0000 C   0  0  0  0  0  0           0  0  0
    6.5917   -0.2042    0.0000 O   0  0  0  0  0  0           0  0  0
    5.0500   -4.8292    0.0000 C   0  0  0  0  0  0           0  0  0
    7.3542   -4.9542    0.0000 C   0  0  0  0  0  0           0  0  0
    8.2667   -3.0542    0.0000 C   0  0  0  0  0  0           0  0  0
    6.6042   -5.2042    0.0000 C   0  0  0  0  0  0           0  0  0
    6.6000   -1.6375    0.0000 C   0  0  0  0  0  0           0  0  0
    7.8417   -2.3417    0.0000 C   0  0  0  0  0  0           0  0  0
    7.0042   -0.9167    0.0000 C   0  0  0  0  0  0           0  0  0
    4.6250   -7.5542    0.0000 C   0  0  0  0  0  0           0  0  0
    5.7917   -6.1167    0.0000 C   0  0  0  0  0  0           0  0  0
    5.4542   -7.5625    0.0000 C   0  0  0  0  0  0           0  0  0
    5.9667   -6.9167    0.0000 C   0  0  0  0  0  0           0  0  0
  2  1  1  0     0  0
  1  3  1  1     0  0
  4  1  1  0     0  0
  5  7  1  0     0  0
  6  2  1  0     0  0
  7 14  2  0     0  0
  8 29  1  0     0  0
  6  9  1  1     0  0
 10 24  1  0     0  0
 11  4  1  0     0  0
 12  8  2  0     0  0
 13  5  1  0     0  0
 14 23  1  0     0  0
 15 22  2  0     0  0
 16 28  1  0     0  0
 17 16  2  0     0  0
  2 18  1  6     0  0
 19  9  1  0     0  0
 20 19  1  0     0  0
 21  8  1  0     0  0
 22 20  1  0     0  0
 23 20  2  0     0  0
 24  5  2  0     0  0
 25  3  1  0     0  0
 26  3  1  0     0  0
 27 34  1  0     0  0
 28 18  1  0     0  0
 29 31  1  0     0  0
 30 10  2  0     0  0
 31 17  1  0     0  0
 32 13  1  0     0  0
 33 13  2  0     0  0
 34 32  1  0     0  0
 35 26  1  0     0  0
 36 25  1  0     0  0
 37 35  1  0     0  0
 38 36  1  0     0  0
 11  6  1  0     0  0
 37 38  1  0     0  0
 15  7  1  0     0  0
 33 30  1  0     0  0
M  END