
  SciTegic11111309142D

 54 58  0  0  1  0            999 V2000
   -1.4467  -22.6601    0.0000 C   0  0
   -0.9790  -23.3423    0.0000 N   0  0
   -0.1587  -23.2764    0.0000 C   0  0
    0.1987  -22.5351    0.0000 C   0  0
   -0.2690  -21.8528    0.0000 C   0  0
   -1.0940  -21.9118    0.0000 C   0  0
   -1.9633  -15.9242    0.0000 C   0  0
   -3.0845  -18.6764    0.0000 O   0  0
   -3.5692  -19.3436    0.0000 C   0  0
   -3.2668  -20.1108    0.0000 C   0  0
   -3.7680  -20.7223    0.0000 C   0  0
   -3.4876  -21.4557    0.0000 C   0  0
   -2.7114  -21.5594    0.0000 C   0  0
   -2.2500  -20.9256    0.0000 C   0  0
   -2.5722  -20.2037    0.0000 C   0  0
   -4.5820  -20.5902    0.0000 Cl  0  0
   -2.0784  -19.5433    0.0000 Cl  0  0
   -1.4298  -21.0118    0.0000 S   0  0
   -1.3436  -20.1917    0.0000 O   0  0
   -1.5160  -21.8320    0.0000 O   0  0
    0.4414  -21.4399    0.0000 C   0  0
    1.1549  -21.8518    0.0000 N   0  0
    0.4414  -20.6145    0.0000 O   0  0
    1.1549  -22.6781    0.0000 C   0  0
    1.8644  -23.0877    0.0000 C   0  0
    2.5744  -22.6777    0.0000 N   0  0
    2.5744  -21.8564    0.0000 C   0  0
    1.8646  -21.4421    0.0000 C   0  0
    3.2851  -23.0880    0.0000 C   0  0
    3.2851  -23.9084    0.0000 O   0  0
    4.0030  -22.6735    0.0000 C   0  0  2  0  0  0
   -3.4209  -17.9209    0.0000 C   0  0
   -4.0917  -16.4140    0.0000 C   0  0
   -4.5782  -17.0883    0.0000 C   0  0
   -4.2398  -17.8407    0.0000 C   0  0
   -3.2682  -16.5011    0.0000 C   0  0
   -2.9364  -17.2573    0.0000 C   0  0
   -2.1173  -17.3469    0.0000 N   0  0
   -1.6291  -16.6810    0.0000 C   0  0
   -2.7841  -15.8375    0.0000 C   0  0
   -0.8067  -16.7695    0.0000 C   0  0
   -3.1197  -15.0816    0.0000 C   0  0
    4.7193  -23.0871    0.0000 C   0  0
    5.4357  -22.6735    0.0000 C   0  0
    6.1521  -23.0871    0.0000 C   0  0
    6.8683  -22.6735    0.0000 N   0  3
    7.5847  -23.0871    0.0000 C   0  0
    6.8683  -21.8464    0.0000 C   0  0
    7.5788  -22.2554    0.0000 C   0  0
    4.0029  -21.8464    0.0000 N   0  0
   -1.3349  -24.0889    0.0000 C   0  0
   -2.1596  -24.1540    0.0000 O   0  0
   -0.8663  -24.7706    0.0000 C   0  0
   -0.6097  -21.1014    0.0000 N   0  0
 21 22  1  0
 21 23  2  0
 22 24  1  0
 22 28  1  0
 24 25  1  0
 25 26  1  0
 26 27  1  0
 27 28  1  0
 26 29  1  0
 29 30  2  0
 29 31  1  0
  3  4  1  0
  8 32  1  0
 32 37  2  0
  4  5  1  0
 36 33  2  0
  5  6  1  0
 33 34  1  0
 34 35  2  0
 35 32  1  0
  1  2  1  0
  1  6  1  0
 36 37  1  0
  2  3  1  0
 37 38  1  0
  8  9  1  0
 38 39  2  0
 39  7  1  0
  9 10  1  0
  7 40  2  0
 40 36  1  0
 10 11  2  0
 39 41  1  0
 11 12  1  0
 40 42  1  0
 12 13  2  0
 31 43  1  0
 13 14  1  0
 43 44  1  0
 14 15  2  0
 44 45  1  0
 15 10  1  0
 45 46  1  0
 11 16  1  0
 46 47  1  0
 15 17  1  0
 46 48  1  0
 14 18  1  0
 46 49  1  0
 18 19  2  0
 31 50  1  1
 18 20  2  0
  2 51  1  0
 51 52  2  0
 51 53  1  0
  5 21  1  0
 18 54  1  0
 54  5  1  0
M  CHG  1  46   1
M  END