
          01230816042D 1   1.00000     0.00000     0

 42 46  0     0  0            999 V2000
   -3.5181   -1.2667    0.0000 C   0  0  0  0  0  0           0  0  0
   -3.5193   -2.0940    0.0000 C   0  0  0  0  0  0           0  0  0
   -2.8045   -2.5069    0.0000 C   0  0  0  0  0  0           0  0  0
   -2.8063   -0.8539    0.0000 C   0  0  0  0  0  0           0  0  0
   -1.4251   -2.6100    0.0000 C   0  0  0  0  0  0           0  0  0
   -0.5921   -2.3909    0.0000 N   0  0  0  0  0  0           0  0  0
   -0.2733   -1.6397    0.0000 N   0  0  3  0  0  0           0  0  0
   -2.0906   -2.0957    0.0000 C   0  0  0  0  0  0           0  0  0
   -2.0909   -1.2630    0.0000 C   0  0  0  0  0  0           0  0  0
   -1.4117   -0.7214    0.0000 N   0  0  3  0  0  0           0  0  0
   -0.6321   -0.9011    0.0000 C   0  0  0  0  0  0           0  0  0
   -0.1180   -0.2558    0.0000 O   0  0  0  0  0  0           0  0  0
    0.5514   -1.6187    0.0000 C   0  0  0  0  0  0           0  0  0
    0.9819   -2.3224    0.0000 C   0  0  0  0  0  0           0  0  0
    1.8067   -2.3014    0.0000 N   0  0  0  0  0  0           0  0  0
    0.5878   -3.0472    0.0000 O   0  0  0  0  0  0           0  0  0
    2.2372   -3.0052    0.0000 C   0  0  0  0  0  0           0  0  0
    1.8408   -3.7288    0.0000 C   0  0  0  0  0  0           0  0  0
    2.2706   -4.4321    0.0000 C   0  0  0  0  0  0           0  0  0
    3.0962   -4.4115    0.0000 C   0  0  0  0  0  0           0  0  0
    3.4901   -3.6817    0.0000 C   0  0  0  0  0  0           0  0  0
    3.0580   -2.9815    0.0000 C   0  0  0  0  0  0           0  0  0
   -1.4468    0.1029    0.0000 C   0  0  0  0  0  0           0  0  0
   -1.5893   -3.4185    0.0000 C   0  0  3  0  0  0           0  0  0
   -2.3721   -3.6758    0.0000 C   0  0  0  0  0  0           0  0  0
   -2.5375   -4.4804    0.0000 C   0  0  0  0  0  0           0  0  0
   -1.9220   -5.0303    0.0000 C   0  0  0  0  0  0           0  0  0
   -1.1382   -4.7698    0.0000 C   0  0  0  0  0  0           0  0  0
   -0.9699   -3.9594    0.0000 C   0  0  0  0  0  0           0  0  0
   -2.1782    0.4846    0.0000 C   0  0  0  0  0  0           0  0  0
   -2.8745    0.0421    0.0000 O   0  0  0  0  0  0           0  0  0
   -2.2133    1.3089    0.0000 C   0  0  3  0  0  0           0  0  0
   -2.2209    2.1375    0.0000 C   0  0  0  0  0  0           0  0  0
   -3.0380    1.2876    0.0000 C   0  0  0  0  0  0           0  0  0
   -1.3885    1.3265    0.0000 C   0  0  0  0  0  0           0  0  0
    4.3148   -3.6578    0.0000 N   0  0  3  0  0  0           0  0  0
    4.7478   -4.3601    0.0000 C   0  0  0  0  0  0           0  0  0
    4.7064   -2.9317    0.0000 C   0  0  0  0  0  0           0  0  0
    4.4370   -5.1236    0.0000 N   0  0  0  0  0  0           0  0  0
    5.0659   -5.6576    0.0000 N   0  0  0  0  0  0           0  0  0
    5.7681   -5.2246    0.0000 N   0  0  0  0  0  0           0  0  0
    5.5733   -4.4229    0.0000 N   0  0  0  0  0  0           0  0  0
  9 10  1  0     0  0
 20 21  1  0     0  0
 10 11  1  0     0  0
 21 22  2  0     0  0
 22 17  1  0     0  0
 11  7  1  0     0  0
 10 23  1  0     0  0
  8  9  1  0     0  0
  5 24  1  0     0  0
 24 25  1  0     0  0
  2  3  1  0     0  0
 11 12  2  0     0  0
  3  8  2  0     0  0
  7 13  1  0     0  0
  1  2  2  0     0  0
 24 29  1  0     0  0
 25 26  1  0     0  0
 26 27  1  0     0  0
 27 28  1  0     0  0
 28 29  1  0     0  0
 13 14  1  0     0  0
 23 30  1  0     0  0
  9  4  2  0     0  0
 30 31  2  0     0  0
 14 15  1  0     0  0
 30 32  1  0     0  0
  4  1  1  0     0  0
 32 33  1  0     0  0
 14 16  2  0     0  0
 32 34  1  0     0  0
 32 35  1  0     0  0
 15 17  1  0     0  0
 21 36  1  0     0  0
  5  6  2  0     0  0
 36 37  1  0     0  0
 17 18  2  0     0  0
 36 38  1  0     0  0
 41 42  1  0     0  0
  6  7  1  0     0  0
 39 40  2  0     0  0
 18 19  1  0     0  0
  5  8  1  0     0  0
 19 20  2  0     0  0
 37 39  1  0     0  0
 40 41  1  0     0  0
 42 37  2  0     0  0
M  END