
          08180812482D 1   1.00000     0.00000     0

 17 18  0     0  0            999 V2000
   -4.0556    0.6542    0.0000 N   0  0  0  0  0  0           0  0  0
   -4.0568   -0.1732    0.0000 C   0  0  0  0  0  0           0  0  0
   -3.3419   -0.5860    0.0000 C   0  0  0  0  0  0           0  0  0
   -3.3437    1.0670    0.0000 C   0  0  0  0  0  0           0  0  0
   -2.6284    0.6578    0.0000 C   0  0  0  0  0  0           0  0  0
   -2.6281   -0.1732    0.0000 C   0  0  0  0  0  0           0  0  0
   -1.8721    0.9872    0.0000 C   0  0  0  0  0  0           0  0  0
   -1.2086    0.4969    0.0000 N   0  3  0  0  0  0           0  0  0
   -1.2181   -0.3274    0.0000 C   0  0  0  0  0  0           0  0  0
   -0.4356   -0.5886    0.0000 S   0  0  0  0  0  0           0  0  0
    0.0547    0.0749    0.0000 C   0  0  0  0  0  0           0  0  0
   -0.4249    0.7461    0.0000 C   0  0  0  0  0  0           0  0  0
   -0.1644    1.5289    0.0000 C   0  0  0  0  0  0           0  0  0
    0.8797    0.0683    0.0000 C   0  0  0  0  0  0           0  0  0
    1.2865   -0.6495    0.0000 C   0  0  0  0  0  0           0  0  0
    2.1114   -0.6561    0.0000 O   0  0  0  0  0  0           0  0  0
   -1.9134   -0.5853    0.0000 N   0  0  0  0  0  0           0  0  0
  8  9  2  0     0  0
  5  4  2  0     0  0
  4  1  1  0     0  0
  5  6  1  0     0  0
  9 10  1  0     0  0
 10 11  1  0     0  0
 11 12  2  0     0  0
 12  8  1  0     0  0
  2  3  1  0     0  0
 12 13  1  0     0  0
  3  6  2  0     0  0
 11 14  1  0     0  0
  5  7  1  0     0  0
 14 15  1  0     0  0
  1  2  2  0     0  0
 15 16  1  0     0  0
  7  8  1  0     0  0
  6 17  1  0     0  0
M  CHG  1   8   1
M  END