
  CDK    9/16/09,9:47

 37 39  0  0  0  0  0  0  0  0999 V2000
   11.5404   -0.2210    0.0000 N   0  0  0  0  0  0  0  0  0  0  0  0
   12.3491   -0.3939    0.0000 C   0  0  0  0  0  0  0  0  0  0  0  0
   12.7643    0.3203    0.0000 N   0  0  0  0  0  0  0  0  0  0  0  0
   12.2123    0.9361    0.0000 C   0  0  0  0  0  0  0  0  0  0  0  0
   11.4602    0.5943    0.0000 C   0  0  0  0  0  0  0  0  0  0  0  0
   12.7335   -1.1254    0.0000 C   0  0  0  0  0  0  0  0  0  0  0  0
   12.2892   -1.8222    0.0000 C   0  0  0  0  0  0  0  0  0  0  0  0
   12.6727   -2.5530    0.0000 C   0  0  0  0  0  0  0  0  0  0  0  0
   13.4982   -2.5851    0.0000 C   0  0  0  0  0  0  0  0  0  0  0  0
   13.9384   -1.8815    0.0000 C   0  0  0  0  0  0  0  0  0  0  0  0
   13.5554   -1.1549    0.0000 C   0  0  0  0  0  0  0  0  0  0  0  0
   13.8797   -3.3161    0.0000 F   0  0  0  0  0  0  0  0  0  0  0  0
   12.2244    1.7641    0.0000 C   0  0  0  0  0  0  0  0  0  0  0  0
   12.9440    2.1671    0.0000 C   0  0  0  0  0  0  0  0  0  0  0  0
   11.5135    2.1840    0.0000 C   0  0  0  0  0  0  0  0  0  0  0  0
   13.4910    0.7211    0.0000 C   0  0  0  0  0  0  0  0  0  0  0  0
   14.1964    0.2928    0.0000 C   0  0  0  0  0  0  0  0  0  0  0  0
   14.9220    0.6917    0.0000 C   0  0  0  0  0  0  0  0  0  0  0  0
   15.6258    0.2673    0.0000 C   0  0  0  0  0  0  0  0  0  0  0  0
   16.3514    0.6662    0.0000 C   0  0  0  0  0  0  0  0  0  0  0  0
   17.0568    0.2378    0.0000 C   0  0  0  0  0  0  0  0  0  0  0  0
   17.7786    0.6353    0.0000 C   0  0  0  0  0  0  0  0  0  0  0  0
   18.4862    0.2123    0.0000 O   0  0  0  0  0  0  0  0  0  0  0  0
   17.7934    1.4649    0.0000 O   0  0  0  0  0  0  0  0  0  0  0  0
   14.9345    1.5159    0.0000 O   0  0  0  0  0  0  0  0  0  0  0  0
   16.3640    1.4904    0.0000 O   0  0  0  0  0  0  0  0  0  0  0  0
   10.7474    1.0053    0.0000 C   0  0  0  0  0  0  0  0  0  0  0  0
   10.0083    0.6439    0.0000 N   0  0  0  0  0  0  0  0  0  0  0  0
   10.7470    1.8281    0.0000 O   0  0  0  0  0  0  0  0  0  0  0  0
   12.2334   -3.2486    0.0000 F   0  0  0  0  0  0  0  0  0  0  0  0
    9.3258    1.1035    0.0000 C   0  0  0  0  0  0  0  0  0  0  0  0
    8.5867    0.7422    0.0000 C   0  0  0  0  0  0  0  0  0  0  0  0
    7.8878    1.1752    0.0000 C   0  0  0  0  0  0  0  0  0  0  0  0
    7.1656    0.7827    0.0000 C   0  0  0  0  0  0  0  0  0  0  0  0
    7.1443   -0.0406    0.0000 C   0  0  0  0  0  0  0  0  0  0  0  0
    7.8511   -0.4699    0.0000 C   0  0  0  0  0  0  0  0  0  0  0  0
    8.5704   -0.0750    0.0000 C   0  0  0  0  0  0  0  0  0  0  0  0
 10 11  2  0  0  0  0 
 11  6  1  0  0  0  0 
  9 12  1  0  0  0  0 
  4 13  1  0  0  0  0 
 13 14  1  0  0  0  0 
 13 15  1  0  0  0  0 
  3 16  1  0  0  0  0 
 16 17  1  0  0  0  0 
 17 18  1  0  0  0  0 
 18 19  1  0  0  0  0 
 19 20  1  0  0  0  0 
 20 21  1  0  0  0  0 
 21 22  1  0  0  0  0 
 22 23  1  0  0  0  0 
 22 24  2  0  0  0  0 
 18 25  1  1  0  0  0 
 20 26  1  1  0  0  0 
  5 27  1  0  0  0  0 
  1  2  2  0  0  0  0 
 27 28  1  0  0  0  0 
  2  3  1  0  0  0  0 
 27 29  2  0  0  0  0 
  3  4  1  0  0  0  0 
  8 30  1  0  0  0  0 
  4  5  2  0  0  0  0 
 28 31  1  0  0  0  0 
  5  1  1  0  0  0  0 
 31 32  1  0  0  0  0 
  2  6  1  0  0  0  0 
 32 33  2  0  0  0  0 
  6  7  2  0  0  0  0 
 33 34  1  0  0  0  0 
  7  8  1  0  0  0  0 
 34 35  2  0  0  0  0 
  8  9  2  0  0  0  0 
 35 36  1  0  0  0  0 
  9 10  1  0  0  0  0 
 36 37  2  0  0  0  0 
 37 32  1  0  0  0  0 
M  END