
  SciTegic11201309402D

 26 29  0  0  0  0            999 V2000
    1.7486   -0.5188    0.0000 C   0  0
    2.5607   -0.3736    0.0000 C   0  0
    2.8410    0.4023    0.0000 C   0  0
    3.6531    0.5475    0.0000 O   0  0
    2.3092    1.0330    0.0000 C   0  0
    1.4971    0.8878    0.0000 C   0  0
    0.9653    1.5185    0.0000 C   0  0
    0.1531    1.3733    0.0000 C   0  0
   -0.1272    0.5974    0.0000 C   0  0  2  0  0  0
    0.4047   -0.0334    0.0000 C   0  0  1  0  0  0
    1.2168    0.1119    0.0000 C   0  0  1  0  0  0
    0.1244   -0.8093    0.0000 C   0  0
   -0.6878   -0.9545    0.0000 C   0  0
   -1.2196   -0.3238    0.0000 C   0  0  1  0  0  0
   -0.9393    0.4521    0.0000 C   0  0  1  0  0  0
   -1.5906    0.9585    0.0000 C   0  0
   -2.2735    0.4955    0.0000 C   0  0
   -2.0441   -0.2970    0.0000 C   0  0  2  0  0  0
   -1.5795   -1.0662    0.0000 C   0  0
    0.9365   -0.6641    0.0000 C   0  0
   -2.5505   -0.9483    0.0000 C   0  0
   -2.2396   -1.7125    0.0000 O   0  0
   -3.3677   -0.8355    0.0000 C   0  0
   -0.6997    1.4230    0.0000 H   0  0
    1.0494   -0.7979    0.0000 H   0  0
   -0.7719    1.3619    0.0000 H   0  0
  1  2  1  0
  1 11  1  0
  2  3  1  0
  3  4  2  0
  3  5  1  0
  5  6  2  0
  6  7  1  0
 11  6  1  0
  7  8  1  0
  9  8  1  0
  9 10  1  0
 15  9  1  0
 11 10  1  0
 10 12  1  0
 11 20  1  1
 12 13  1  0
 13 14  1  0
 14 15  1  0
 14 18  1  0
 14 19  1  1
 15 16  1  0
 16 17  1  0
 17 18  1  0
 18 21  1  1
 21 22  2  0
 21 23  1  0
 15 24  1  6
 10 25  1  6
  9 26  1  1
M  END