
          11280715132D 1   1.00000     0.00000     0

 23 22  0     0  0            999 V2000
   -1.0750    1.4333    0.0000 N   0  0  0  0  0  0           0  0  0
   -1.0708    0.0958    0.0000 N   0  0  0  0  0  0           0  0  0
   -1.5583    0.7583    0.0000 C   0  0  0  0  0  0           0  0  0
   -0.2875    1.1833    0.0000 C   0  0  0  0  0  0           0  0  0
    5.3167   -1.7542    0.0000 C   0  0  0  0  0  0           0  0  0
    3.6875   -1.7167    0.0000 C   0  0  0  0  0  0           0  0  0
    4.1042   -1.0042    0.0000 C   0  0  0  0  0  0           0  0  0
    4.9292   -1.0292    0.0000 C   0  0  0  0  0  0           0  0  0
   -0.2833    0.3583    0.0000 C   0  0  0  0  0  0           0  0  0
    6.1417   -1.7875    0.0000 O   0  0  0  0  0  0           0  0  0
    4.0917   -2.4375    0.0000 O   0  0  0  0  0  0           0  0  0
    2.8625   -1.7042    0.0000 O   0  0  0  0  0  0           0  0  0
    4.8875   -2.4625    0.0000 O   0  0  0  0  0  0           0  0  0
    2.5625    1.1875    0.0000 O   0  0  0  0  0  0           0  0  0
    0.4250    1.5958    0.0000 C   0  0  0  0  0  0           0  0  0
    1.8500    1.6000    0.0000 C   0  0  0  0  0  0           0  0  0
    3.2750    1.6000    0.0000 C   0  0  0  0  0  0           0  0  0
    1.1375    1.1833    0.0000 C   0  0  0  0  0  0           0  0  0
    3.9875    1.1875    0.0000 C   0  0  0  0  0  0           0  0  0
    6.1292    1.6208    0.0000 C   0  0  0  0  0  0           0  0  0
    5.4167    1.2000    0.0000 C   0  0  0  0  0  0           0  0  0
    4.7000    1.6083    0.0000 C   0  0  0  0  0  0           0  0  0
    6.8417    1.2125    0.0000 C   0  0  0  0  0  0           0  0  0
  2  3  1  0     0  0
  3  1  2  0     0  0
  4  1  1  0     0  0
  6  7  1  0     0  0
  7  8  2  0     0  0
  8  5  1  0     0  0
  9  4  2  0     0  0
 10  5  2  0     0  0
 11  6  2  0     0  0
 12  6  1  0     0  0
 13  5  1  0     0  0
 14 16  1  0     0  0
 15  4  1  0     0  0
 16 18  1  0     0  0
 17 14  1  0     0  0
 18 15  1  0     0  0
 19 17  1  0     0  0
 20 21  1  0     0  0
 21 22  1  0     0  0
 22 19  1  0     0  0
 23 20  1  0     0  0
  9  2  1  0     0  0
M  END