
          11280715522D 1   1.00000     0.00000     0

 47 50  0     1  0            999 V2000
   -4.0621    2.7304    0.0000 C   0  0  0  0  0  0           0  0  0
   -4.0620    1.9031    0.0000 C   0  0  0  0  0  0           0  0  0
   -3.3465    1.4913    0.0000 C   0  0  0  0  0  0           0  0  0
   -3.3509    3.1443    0.0000 C   0  0  0  0  0  0           0  0  0
   -2.6349    2.7364    0.0000 C   0  0  0  0  0  0           0  0  0
   -2.6328    1.9095    0.0000 C   0  0  0  0  0  0           0  0  0
   -1.9169    1.4997    0.0000 N   0  0  0  0  0  0           0  0  0
   -1.2025    1.9155    0.0000 C   0  0  0  0  0  0           0  0  0
   -1.2085    2.7455    0.0000 C   0  0  0  0  0  0           0  0  0
   -1.9251    3.1516    0.0000 C   0  0  0  0  0  0           0  0  0
   -3.3433    0.6663    0.0000 O   0  0  0  0  0  0           0  0  0
   -2.6272    0.2567    0.0000 C   0  0  0  0  0  0           0  0  0
   -2.6240   -0.5683    0.0000 C   0  0  0  0  0  0           0  0  0
   -3.3394   -0.9793    0.0000 C   0  0  0  0  0  0           0  0  0
   -3.3365   -1.8036    0.0000 C   0  0  0  0  0  0           0  0  0
   -2.6200   -2.2140    0.0000 C   0  0  0  0  0  0           0  0  0
   -1.9047   -1.7943    0.0000 C   0  0  0  0  0  0           0  0  0
   -1.9112   -0.9715    0.0000 C   0  0  0  0  0  0           0  0  0
   -4.0542   -0.5672    0.0000 Cl  0  0  0  0  0  0           0  0  0
   -1.2001   -0.5530    0.0000 Cl  0  0  0  0  0  0           0  0  0
   -0.4858    1.5070    0.0000 C   0  0  0  0  0  0           0  0  0
   -1.1872   -2.2014    0.0000 S   0  0  3  0  0  0           0  0  0
   -0.4773   -2.6097    0.0000 N   0  0  0  0  0  0           0  0  0
   -0.7468   -1.6101    0.0000 O   0  0  0  0  0  0           0  0  0
   -1.5912   -2.8583    0.0000 O   0  0  0  0  0  0           0  0  0
    0.3615   -2.1960    0.0000 C   0  0  3  0  0  0           0  0  0
    0.9464   -1.7742    0.0000 C   0  0  0  0  0  0           0  0  0
    0.6854   -2.8450    0.0000 C   0  0  0  0  0  0           0  0  0
    0.0995   -1.5475    0.0000 C   0  0  0  0  0  0           0  0  0
    0.9361   -0.9492    0.0000 O   0  0  0  0  0  0           0  0  0
    1.6661   -2.1776    0.0000 N   0  0  3  0  0  0           0  0  0
    1.6719   -3.0031    0.0000 C   0  0  0  0  0  0           0  0  0
    2.3874   -3.4066    0.0000 C   0  0  0  0  0  0           0  0  0
    3.0992   -2.9887    0.0000 N   0  0  3  0  0  0           0  0  0
    3.0907   -2.1627    0.0000 C   0  0  0  0  0  0           0  0  0
    2.3707   -1.7547    0.0000 C   0  0  0  0  0  0           0  0  0
    3.8172   -3.3948    0.0000 C   0  0  0  0  0  0           0  0  0
    4.5280   -2.9761    0.0000 O   0  0  0  0  0  0           0  0  0
    3.8244   -4.2198    0.0000 C   0  0  2  0  0  0           0  0  0
    4.5425   -4.6261    0.0000 C   0  0  0  0  0  0           0  0  0
    3.1136   -4.6385    0.0000 N   0  0  0  0  0  0           0  0  0
    5.2533   -4.2073    0.0000 C   0  0  0  0  0  0           0  0  0
    5.9713   -4.6135    0.0000 C   0  0  0  0  0  0           0  0  0
    6.6822   -4.1948    0.0000 C   0  0  0  0  0  0           0  0  0
    7.4002   -4.6010    0.0000 N   0  0  3  0  0  0           0  0  0
    8.1111   -4.1822    0.0000 C   0  0  0  0  0  0           0  0  0
    7.4074   -5.4259    0.0000 C   0  0  0  0  0  0           0  0  0
 22 23  1  0     0  0
  3 11  1  0     0  0
 22 24  2  0     0  0
  2  3  1  0     0  0
 22 25  2  0     0  0
 11 12  1  0     0  0
 23 26  1  0     0  0
  5  6  1  0     0  0
 26 27  1  0     0  0
 12 13  1  0     0  0
 26 28  1  0     0  0
  3  6  2  0     0  0
 26 29  1  0     0  0
 13 14  2  0     0  0
 27 30  2  0     0  0
  6  7  1  0     0  0
 27 31  1  0     0  0
 31 32  1  0     0  0
 14 15  1  0     0  0
  1  2  2  0     0  0
 15 16  2  0     0  0
  7  8  2  0     0  0
 16 17  1  0     0  0
 31 36  1  0     0  0
 32 33  1  0     0  0
 33 34  1  0     0  0
 34 35  1  0     0  0
 35 36  1  0     0  0
  5  4  2  0     0  0
 34 37  1  0     0  0
 17 18  2  0     0  0
 37 38  2  0     0  0
 18 13  1  0     0  0
 37 39  1  0     0  0
  8  9  1  0     0  0
 39 40  1  0     0  0
 14 19  1  0     0  0
 39 41  1  6     0  0
  4  1  1  0     0  0
 40 42  1  0     0  0
 18 20  1  0     0  0
 42 43  1  0     0  0
  9 10  2  0     0  0
 43 44  1  0     0  0
  8 21  1  0     0  0
 44 45  1  0     0  0
 10  5  1  0     0  0
 45 46  1  0     0  0
 17 22  1  0     0  0
 45 47  1  0     0  0
M  END