
  SciTegic06051313522D

 31 33  0  0  0  0            999 V2000
    1.3514  -14.6676    0.0000 C   0  0
    1.3525  -15.4949    0.0000 C   0  0
    2.0705  -15.9078    0.0000 C   0  0
    2.7869  -15.4945    0.0000 C   0  0
    2.7841  -14.6639    0.0000 C   0  0
    2.0687  -14.2548    0.0000 C   0  0
    3.4970  -14.2487    0.0000 C   0  0
    4.2130  -14.6585    0.0000 C   0  0
    4.2127  -15.4812    0.0000 C   0  0
    4.9279  -15.8909    0.0000 C   0  0
    5.6418  -15.4757    0.0000 C   0  0
    5.6360  -14.6464    0.0000 C   0  0
    4.9203  -14.2404    0.0000 N   0  0
    3.5020  -15.9058    0.0000 O   0  0
    3.5033  -16.7308    0.0000 C   0  0
    4.2184  -17.1422    0.0000 C   0  0
    4.2151  -17.9645    0.0000 C   0  0
    4.9294  -18.3758    0.0000 C   0  0
    5.6442  -17.9622    0.0000 C   0  0
    5.6402  -17.1329    0.0000 C   0  0
    4.9254  -16.7253    0.0000 C   0  0
    3.5000  -18.3760    0.0000 F   0  0
    6.3599  -18.3726    0.0000 Cl  0  0
    0.6409  -14.2552    0.0000 Cl  0  0
    6.3497  -14.2281    0.0000 C   0  0
    7.0671  -14.6353    0.0000 N   0  0
    6.3436  -13.4031    0.0000 O   0  0
    7.7786  -14.2176    0.0000 C   0  0
    8.4960  -14.6249    0.0000 C   0  0
    7.7725  -13.3927    0.0000 C   0  0
    8.4874  -13.8009    0.0000 C   0  0
  1  2  2  0
  2  3  1  0
  3  4  2  0
  4  5  1  0
  5  6  2  0
  6  1  1  0
  5  7  1  0
  7  8  1  0
  8  9  2  0
  9 10  1  0
 10 11  2  0
 11 12  1  0
 12 13  2  0
 13  8  1  0
  4 14  1  0
 14 15  1  0
 15 16  1  0
 16 17  2  0
 17 18  1  0
 18 19  2  0
 19 20  1  0
 20 21  2  0
 21 16  1  0
 17 22  1  0
 19 23  1  0
  1 24  1  0
 25 26  1  0
 25 27  2  0
 12 25  1  0
 26 28  1  0
 28 29  1  0
 28 30  1  0
 28 31  1  0
M  END