
  SciTegic09261414532D

 42 48  0  0  0  0            999 V2000
   28.1752   -8.9065    0.0000 C   0  0
   28.1740   -9.7261    0.0000 C   0  0
   28.8821  -10.1350    0.0000 C   0  0
   28.8803   -8.4977    0.0000 C   0  0
   29.5889   -8.9029    0.0000 C   0  0
   29.5937   -9.7215    0.0000 C   0  0
   30.3737   -9.9700    0.0000 N   0  0
   30.8511   -9.3049    0.0000 C   0  0
   30.3660   -8.6455    0.0000 N   0  0
   30.6308  -10.7457    0.0000 C   0  0
   30.0875  -11.3562    0.0000 C   0  0
   29.2888  -11.1884    0.0000 C   0  0
   28.7458  -11.7981    0.0000 C   0  0
   29.0027  -12.5748    0.0000 C   0  0
   29.8077  -12.7383    0.0000 C   0  0
   30.3472  -12.1273    0.0000 C   0  0
   31.6675   -9.2987    0.0000 N   0  0
   32.0790  -10.0058    0.0000 C   0  0
   32.8926  -10.0030    0.0000 C   0  0
   33.3009   -9.2947    0.0000 C   0  0
   32.8893   -8.5876    0.0000 C   0  0
   32.0695   -8.5888    0.0000 C   0  0
   34.1181   -9.2930    0.0000 C   0  0
   34.5282   -9.9998    0.0000 O   0  0
   34.5252   -8.5844    0.0000 O   0  0
   34.1211  -10.7084    0.0000 C   0  0
   34.5311  -11.4152    0.0000 C   0  0
   34.1240  -12.1238    0.0000 N   0  0
   33.3119  -12.2132    0.0000 C   0  0
   33.1437  -13.0129    0.0000 N   0  0
   34.4584  -12.8719    0.0000 C   0  0
   33.8502  -13.4175    0.0000 C   0  0
   34.0192  -14.2149    0.0000 C   0  0
   34.7958  -14.4679    0.0000 C   0  0
   35.4036  -13.9173    0.0000 C   0  0
   35.2315  -13.1219    0.0000 C   0  0
   32.7630  -11.6079    0.0000 C   0  0
   33.0160  -10.8319    0.0000 C   0  0
   32.4679  -10.2269    0.0000 C   0  0
   31.6682  -10.3994    0.0000 C   0  0
   31.4196  -11.1823    0.0000 C   0  0
   31.9695  -11.7840    0.0000 C   0  0
  1  2  2  0
  2  3  1  0
  3  6  2  0
  5  4  2  0
  4  1  1  0
  5  6  1  0
  6  7  1  0
  7  8  1  0
  8  9  2  0
  9  5  1  0
  7 10  1  0
 10 11  1  0
 11 12  2  0
 12 13  1  0
 13 14  2  0
 14 15  1  0
 15 16  2  0
 16 11  1  0
 17 18  1  0
 17 22  1  0
 18 19  1  0
 19 20  1  0
 20 21  1  0
 21 22  1  0
  8 17  1  0
 20 23  1  0
 23 24  1  0
 23 25  2  0
 24 26  1  0
 26 27  1  0
 27 28  1  0
 28 29  1  0
 29 30  2  0
 30 32  1  0
 31 28  1  0
 31 32  2  0
 32 33  1  0
 33 34  2  0
 34 35  1  0
 35 36  2  0
 36 31  1  0
 29 37  1  0
 37 38  2  0
 38 39  1  0
 39 40  2  0
 40 41  1  0
 41 42  2  0
 42 37  1  0
M  END