
  SciTegic02271317262D

 17 16  0  0  0  0            999 V2000
   -5.9150    1.0607    0.0000 C   0  0
   -6.6295    1.4732    0.0000 N   0  0
   -7.3439    1.0607    0.0000 C   0  0
   -7.3440    0.2357    0.0000 C   0  0  1  0  0  0
   -6.6295   -0.1768    0.0000 N   0  0
   -5.9150    0.2357    0.0000 C   0  0
   -5.2005   -0.1768    0.0000 O   0  0
   -8.0584    1.4732    0.0000 O   0  0
   -8.0584   -0.1768    0.0000 C   0  0
   -8.7729    0.2357    0.0000 N   0  0
   -5.6277   -1.9152    0.0000 C   0  0
   -4.9132   -1.5027    0.0000 C   0  0
   -4.1987   -1.9152    0.0000 O   0  0
   -4.9132   -0.6777    0.0000 O   0  0
   -6.3421   -1.5027    0.0000 F   0  0
   -5.6277   -2.7402    0.0000 F   0  0
   -6.3421   -2.3277    0.0000 F   0  0
  1  2  1  0
  6  1  1  0
  2  3  1  0
  3  4  1  0
  4  5  1  0
  5  6  1  0
  6  7  2  0
  3  8  2  0
  4  9  1  1
  9 10  1  0
 11 12  1  0
 12 13  1  0
 12 14  2  0
 11 15  1  0
 11 16  1  0
 11 17  1  0
M  END