
  SciTegic01161211252D

 27 30  0  0  0  0            999 V2000
   10.6089  -17.4322    0.0000 N   0  0
   11.4100  -17.2541    0.0000 C   0  0
   12.0559  -17.7704    0.0000 C   0  0
   10.2482  -18.1774    0.0000 C   0  0
   12.0576  -18.5940    0.0000 N   0  0
   10.6060  -18.9223    0.0000 C   0  0
   11.4116  -19.1048    0.0000 C   0  0
   12.7715  -19.0074    0.0000 C   0  0
   12.7695  -19.8324    0.0000 O   0  0
   13.4867  -18.5974    0.0000 C   0  0  1  0  0  0
   14.1571  -19.0724    0.0000 N   0  0
   14.8174  -18.5778    0.0000 C   0  0
   14.5510  -17.7969    0.0000 C   0  0  1  0  0  0
   13.7261  -17.8091    0.0000 C   0  0
   15.0261  -17.1223    0.0000 O   0  0
   14.6208  -16.4037    0.0000 C   0  0
   15.0421  -15.6965    0.0000 C   0  0
   14.6375  -14.9785    0.0000 C   0  0
   13.8116  -14.9697    0.0000 C   0  0
   13.3921  -15.6851    0.0000 C   0  0
   13.7991  -16.4002    0.0000 C   0  0
   10.0419  -16.8331    0.0000 C   0  0
   10.0640  -16.0089    0.0000 C   0  0
    9.2391  -15.9868    0.0000 C   0  0
    9.2171  -16.8117    0.0000 C   0  0
   13.4044  -14.2538    0.0000 C   0  0
   12.9981  -13.5358    0.0000 N   0  0
 12 13  1  0
 13 14  1  0
 14 10  1  0
  6  7  1  0
 13 15  1  1
  1  4  1  0
 15 16  1  0
  5  8  1  0
 16 17  2  0
 17 18  1  0
  8  9  2  0
 18 19  2  0
  3  5  1  0
 19 20  1  0
 10  8  1  6
 20 21  2  0
 21 16  1  0
 10 11  1  0
  1 22  1  0
 22 23  1  0
  2  3  1  0
  4  6  1  0
  1  2  1  0
 23 24  1  0
 24 25  1  0
 25 22  1  0
  5  7  1  0
 11 12  1  0
 26 27  3  0
 19 26  1  0
M  END