
  SciTegic06051313552D

 36 39  0  0  0  0            999 V2000
   11.4351  -24.1731    0.0000 C   0  0
   11.4340  -24.9927    0.0000 C   0  0
   12.1420  -25.4016    0.0000 C   0  0
   12.1402  -23.7643    0.0000 C   0  0
   13.6326  -23.9135    0.0000 C   0  0
   12.8489  -24.1695    0.0000 C   0  0
   12.8514  -24.9948    0.0000 C   0  0
   13.6377  -25.2461    0.0000 N   0  0
   14.1185  -24.5752    0.0000 N   0  0
   13.8947  -26.0218    0.0000 C   0  0
   13.4763  -26.7229    0.0000 C   0  0
   12.6615  -26.7083    0.0000 C   0  0
   12.2426  -27.4091    0.0000 C   0  0
   12.6407  -28.1238    0.0000 C   0  0
   13.4621  -28.1333    0.0000 C   0  0
   13.8773  -27.4319    0.0000 C   0  0
   13.8627  -28.8455    0.0000 C   0  0
   13.4462  -29.5486    0.0000 N   0  0
   13.8468  -30.2609    0.0000 C   0  0
   14.0543  -23.2135    0.0000 N   0  0
   14.8713  -23.2286    0.0000 S   0  0
   15.3580  -23.8851    0.0000 C   0  0
   14.8439  -22.4049    0.0000 O   0  0
   15.6528  -22.9855    0.0000 O   0  0
   15.1129  -24.6667    0.0000 C   0  0
   15.7792  -25.1414    0.0000 C   0  0
   16.4359  -24.6531    0.0000 C   0  0
   16.1732  -23.8783    0.0000 S   0  0
   17.2161  -24.8964    0.0000 Cl  0  0
   12.1336  -22.9512    0.0000 O   0  0
   11.4226  -22.5484    0.0000 C   0  0
   14.6639  -30.2701    0.0000 O   0  0
   13.4303  -30.9639    0.0000 C   0  0
   12.6131  -30.9547    0.0000 N   0  0
   13.4259  -31.7797    0.0000 C   0  0
   14.2183  -31.1730    0.0000 C   0  0
  1  2  2  0
  2  3  1  0
  3  7  2  0
  6  4  2  0
  4  1  1  0
  6  7  1  0
  5  6  1  0
  7  8  1  0
  8  9  1  0
  9  5  2  0
  8 10  1  0
 10 11  1  0
 11 12  2  0
 12 13  1  0
 13 14  2  0
 14 15  1  0
 15 16  2  0
 16 11  1  0
 15 17  1  0
 17 18  1  0
 18 19  1  0
  5 20  1  0
 20 21  1  0
 21 22  1  0
 21 23  2  0
 21 24  2  0
 25 26  1  0
 22 25  2  0
 26 27  2  0
 27 28  1  0
 28 22  1  0
 27 29  1  0
  4 30  1  0
 30 31  1  0
 19 32  2  0
 19 33  1  0
 33 34  1  0
 33 35  1  0
 33 36  1  0
M  END