
  SciTegic12011114592D

 33 37  0  0  0  0            999 V2000
   18.0591  -11.7796    0.0000 N   0  0
   18.7743  -11.3698    0.0000 C   0  0
   18.7772  -10.5439    0.0000 N   0  0
   18.0589  -10.1295    0.0000 C   0  0
   18.0584   -9.3044    0.0000 N   0  0
   18.7730   -8.8914    0.0000 C   0  0
   19.4875  -11.7848    0.0000 S   0  0
   20.2033  -11.3747    0.0000 C   0  0
   20.9123  -11.7928    0.0000 C   0  0
   21.6277  -11.3835    0.0000 C   0  0
   21.6309  -10.5575    0.0000 C   0  0
   20.9129  -10.1427    0.0000 C   0  0
   20.2003  -10.5545    0.0000 C   0  0
   22.3464  -10.1465    0.0000 N   0  0
   19.5588   -9.1395    0.0000 C   0  0
   20.0379   -8.4678    0.0000 C   0  0
   19.5472   -7.8046    0.0000 N   0  0
   18.7647   -8.0663    0.0000 N   0  0
   20.8630   -8.4606    0.0000 C   0  0
   16.5722  -10.2904    0.0000 C   0  0
   16.0912  -10.9515    0.0000 C   0  0
   16.5714  -11.6134    0.0000 C   0  0
   17.3491  -11.3611    0.0000 N   0  0
   17.3497  -10.5435    0.0000 C   0  0
   23.0600  -10.5605    0.0000 C   0  0
   23.7754  -10.1495    0.0000 C   0  0
   24.4890  -10.5635    0.0000 N   0  0
   23.0583  -11.3856    0.0000 O   0  0
   25.2046  -10.1521    0.0000 C   0  0
   25.9893  -10.3967    0.0000 C   0  0
   26.4678   -9.7244    0.0000 C   0  0
   25.9763   -9.0617    0.0000 C   0  0
   25.1943   -9.3244    0.0000 C   0  0
 15 16  2  0
  2  7  1  0
  7  8  1  0
  6 15  1  0
 16 17  1  0
 18  6  2  0
  3  4  2  0
 16 19  1  0
 23 24  1  0
  8  9  2  0
  4 24  1  0
 21 22  2  0
  9 10  1  0
  1  2  2  0
 10 11  2  0
 20 21  1  0
 22 23  1  0
 24 20  2  0
  4  5  1  0
 14 25  1  0
 11 12  1  0
 25 26  1  0
 23  1  1  0
 26 27  1  0
 12 13  2  0
 25 28  2  0
 13  8  1  0
 27 29  1  0
 29 30  1  0
  5  6  1  0
 11 14  1  0
 17 18  1  0
  2  3  1  0
 30 31  1  0
 31 32  1  0
 32 33  1  0
 33 29  1  0
M  END