
  SciTegic01161211252D

 18 18  0  0  0  0            999 V2000
    4.7223  -16.3004    0.0000 C   0  0
    5.4362  -15.8871    0.0000 C   0  0
    6.1502  -16.3004    0.0000 C   0  0
    6.8642  -15.8871    0.0000 C   0  0
    7.5782  -16.3004    0.0000 C   0  0
    8.2922  -15.8871    0.0000 C   0  0
    9.0061  -16.3004    0.0000 C   0  0
    9.7226  -15.8879    0.0000 O   0  0
   10.4380  -16.3021    0.0000 C   0  0
   10.4345  -17.1281    0.0000 C   0  0
   11.1491  -17.5423    0.0000 C   0  0
   11.8665  -17.1297    0.0000 C   0  0
   11.8648  -16.2987    0.0000 C   0  0
   11.1497  -15.8884    0.0000 C   0  0
   12.5825  -17.5430    0.0000 C   0  0
   12.5826  -18.3697    0.0000 O   0  0
   13.2984  -17.1295    0.0000 O   0  0
   11.1474  -15.0617    0.0000 Cl  0  0
  4  5  1  0
  9 10  2  0
  2  3  1  0
 10 11  1  0
  5  6  1  0
 11 12  2  0
  1  2  1  0
 12 13  1  0
  6  7  1  0
 13 14  2  0
 14  9  1  0
  3  4  1  0
 12 15  1  0
  7  8  1  0
 15 16  2  0
 15 17  1  0
  8  9  1  0
 14 18  1  0
M  END