
          11280715072D 1   1.00000     0.00000     0

 42 46  0     0  0            999 V2000
    2.3542   -4.1292    0.0000 C   0  0  0  0  0  0           0  0  0
    5.4625    0.8000    0.0000 C   0  0  0  0  0  0           0  0  0
    5.0000    0.1125    0.0000 C   0  0  0  0  0  0           0  0  0
    2.8292   -3.4500    0.0000 C   0  0  0  0  0  0           0  0  0
    1.5292   -4.0542    0.0000 C   0  0  0  0  0  0           0  0  0
    5.1000    1.5458    0.0000 C   0  0  0  0  0  0           0  0  0
    1.1875   -3.3042    0.0000 C   0  0  0  0  0  0           0  0  0
    4.2750    1.5958    0.0000 C   0  0  0  0  0  0           0  0  0
    2.4792   -2.7000    0.0000 C   0  0  0  0  0  0           0  0  0
    4.1750    0.1708    0.0000 C   0  0  0  0  0  0           0  0  0
    3.8125    0.9125    0.0000 C   0  0  0  0  0  0           0  0  0
    1.6542   -2.6292    0.0000 C   0  0  0  0  0  0           0  0  0
    5.3542   -0.6292    0.0000 O   0  0  0  0  0  0           0  0  0
    3.6542   -3.4500    0.0000 O   0  0  0  0  0  0           0  0  0
    4.0667   -2.7375    0.0000 C   0  0  0  0  0  0           0  0  0
    4.9000   -1.3042    0.0000 C   0  0  0  0  0  0           0  0  0
    2.7042   -4.8750    0.0000 C   0  0  0  0  0  0           0  0  0
    6.2792    0.7458    0.0000 C   0  0  0  0  0  0           0  0  0
    3.0167    1.1458    0.0000 O   0  0  0  0  0  0           0  0  0
    1.1542   -1.9750    0.0000 O   0  0  0  0  0  0           0  0  0
    4.8917   -2.7417    0.0000 C   0  0  0  0  0  0           0  0  0
    4.0792   -1.3125    0.0000 C   0  0  0  0  0  0           0  0  0
    5.3125   -2.0167    0.0000 C   0  0  0  0  0  0           0  0  0
    3.6625   -2.0167    0.0000 C   0  0  0  0  0  0           0  0  0
    0.3917   -3.0667    0.0000 C   0  0  0  0  0  0           0  0  0
    3.7667    2.2458    0.0000 C   0  0  0  0  0  0           0  0  0
    0.3792   -2.2417    0.0000 C   0  0  0  0  0  0           0  0  0
    2.9917    1.9708    0.0000 C   0  0  0  0  0  0           0  0  0
    2.2292   -5.5500    0.0000 O   0  0  0  0  0  0           0  0  0
    6.7417    1.4333    0.0000 O   0  0  0  0  0  0           0  0  0
    5.5625    2.2208    0.0000 O   0  0  0  0  0  0           0  0  0
    1.0667   -4.7292    0.0000 O   0  0  0  0  0  0           0  0  0
    2.9417   -2.0250    0.0000 O   0  0  0  0  0  0           0  0  0
    3.7125   -0.5042    0.0000 O   0  0  0  0  0  0           0  0  0
    6.1375   -2.0167    0.0000 C   0  0  0  0  0  0           0  0  0
    3.2417   -1.3042    0.0000 C   0  0  0  0  0  0           0  0  0
    3.5250   -4.9500    0.0000 C   0  0  0  0  0  0           0  0  0
    6.6500    0.0083    0.0000 C   0  0  0  0  0  0           0  0  0
    5.2000    2.9708    0.0000 C   0  0  0  0  0  0           0  0  0
    0.2417   -4.6625    0.0000 C   0  0  0  0  0  0           0  0  0
    2.8875   -0.4417    0.0000 C   0  0  0  0  0  0           0  0  0
    2.5917   -1.2792    0.0000 C   0  0  0  0  0  0           0  0  0
  2  3  1  0     0  0
  3 13  1  0     0  0
  4  1  1  0     0  0
  5  1  2  0     0  0
  6  2  2  0     0  0
  7  5  1  0     0  0
  8 11  2  0     0  0
  9  4  2  0     0  0
 10  3  2  0     0  0
 11 10  1  0     0  0
 12  7  2  0     0  0
 13 16  1  0     0  0
 14  4  1  0     0  0
 15 14  1  0     0  0
 16 22  1  0     0  0
 17  1  1  0     0  0
 18  2  1  0     0  0
 19 11  1  0     0  0
 20 12  1  0     0  0
 21 15  2  0     0  0
 22 24  2  0     0  0
 23 21  1  0     0  0
 24 15  1  0     0  0
 25  7  1  0     0  0
 26  8  1  0     0  0
 27 25  2  0     0  0
 28 19  1  0     0  0
 29 17  2  0     0  0
 30 18  2  0     0  0
 31  6  1  0     0  0
 32  5  1  0     0  0
 33  9  1  0     0  0
 34 10  1  0     0  0
 35 23  1  0     0  0
 36 24  1  0     0  0
 37 17  1  0     0  0
 38 18  1  0     0  0
 39 31  1  0     0  0
 40 32  1  0     0  0
 41 34  1  0     0  0
 42 33  1  0     0  0
  9 12  1  0     0  0
 20 27  1  0     0  0
 16 23  2  0     0  0
  8  6  1  0     0  0
 28 26  2  0     0  0
M  END