
  SciTegic02271217242D

 24 26  0  0  0  0            999 V2000
   11.5083    2.8167    0.0000 O   0  0
   11.9250    2.1000    0.0000 S   0  0
   12.3373    2.8192    0.0000 O   0  0
    9.7861    1.6792    0.0000 C   0  0
    9.7849    0.8518    0.0000 C   0  0
   10.4997    0.4390    0.0000 C   0  0
   11.2162    0.8523    0.0000 C   0  0
   11.2133    1.6828    0.0000 C   0  0
   10.4979    2.0920    0.0000 C   0  0
   12.6422    1.6882    0.0000 N   0  0
   12.6454    0.8632    0.0000 C   0  0
   11.9333    0.4512    0.0000 C   0  0
   11.9361   -0.3730    0.0000 N   0  0
   12.6526   -0.7836    0.0000 C   0  0
   13.3679   -0.3640    0.0000 C   0  0
   13.3616    0.4588    0.0000 C   0  0
   14.0854   -0.7713    0.0000 C   0  0
   14.0866   -1.5969    0.0000 C   0  0
   14.8032   -2.0041    0.0000 N   0  0
   14.7898   -0.3537    0.0000 C   0  0
   15.5055   -0.7541    0.0000 N   0  0
   15.5141   -1.5857    0.0000 C   0  0
   16.2324   -1.9915    0.0000 N   0  0
    9.0701    0.4399    0.0000 C   0  0
 11 12  2  0
  6  7  2  0
 12 13  1  0
  2  1  2  0
 13 14  2  0
  7  8  1  0
 14 15  1  0
  4  5  2  0
 15 16  2  0
 16 11  1  0
  8  9  2  0
 15 17  1  0
  9  4  1  0
 17 18  2  0
  8  2  1  0
 18 19  1  0
 19 22  2  0
  3  2  2  0
 21 20  2  0
 20 17  1  0
 21 22  1  0
  2 10  1  0
  5  6  1  0
 10 11  1  0
 22 23  1  0
  5 24  1  0
M  END