
  CDK    9/16/09,9:52

 32 35  0  0  0  0  0  0  0  0999 V2000
   -5.6604   -0.6868    0.0000 C   0  0  0  0  0  0  0  0  0  0  0  0
   -5.6617   -1.5134    0.0000 C   0  0  0  0  0  0  0  0  0  0  0  0
   -4.9494   -1.9259    0.0000 C   0  0  0  0  0  0  0  0  0  0  0  0
   -4.9514   -0.2744    0.0000 C   0  0  0  0  0  0  0  0  0  0  0  0
   -4.2341   -0.6827    0.0000 C   0  0  0  0  0  0  0  0  0  0  0  0
   -4.2304   -1.5155    0.0000 C   0  0  0  0  0  0  0  0  0  0  0  0
   -3.5113   -1.9263    0.0000 C   0  0  0  0  0  0  0  0  0  0  0  0
   -2.7914   -1.5091    0.0000 C   0  0  0  0  0  0  0  0  0  0  0  0
   -2.7951   -0.6763    0.0000 C   0  0  0  0  0  0  0  0  0  0  0  0
   -3.5188   -0.2609    0.0000 C   0  0  0  0  0  0  0  0  0  0  0  0
   -3.5235    0.5632    0.0000 N   0  0  0  0  0  0  0  0  0  0  0  0
   -2.8123    0.9795    0.0000 C   0  0  0  0  0  0  0  0  0  0  0  0
   -2.8171    1.7951    0.0000 O   0  0  0  0  0  0  0  0  0  0  0  0
   -2.0962    0.5716    0.0000 C   0  0  0  0  0  0  0  0  0  0  0  0
   -1.3872    0.9843    0.0000 C   0  0  0  0  0  0  0  0  0  0  0  0
   -0.6776    0.5723    0.0000 C   0  0  0  0  0  0  0  0  0  0  0  0
    0.0321    0.9843    0.0000 C   0  0  0  0  0  0  0  0  0  0  0  0
    0.7417    0.5723    0.0000 C   0  0  0  0  0  0  0  0  0  0  0  0
    1.4564    0.9825    0.0000 N   0  0  0  0  0  0  0  0  0  0  0  0
    2.1711    0.5648    0.0000 C   0  0  0  0  0  0  0  0  0  0  0  0
    2.8837    0.9716    0.0000 C   0  0  0  0  0  0  0  0  0  0  0  0
    2.8900    1.7960    0.0000 N   0  0  0  0  0  0  0  0  0  0  0  0
    2.1774    2.2120    0.0000 C   0  0  0  0  0  0  0  0  0  0  0  0
    1.4587    1.8036    0.0000 C   0  0  0  0  0  0  0  0  0  0  0  0
    3.6036    2.2050    0.0000 C   0  0  0  0  0  0  0  0  0  0  0  0
    4.3150    1.7868    0.0000 C   0  0  0  0  0  0  0  0  0  0  0  0
    5.0308    2.1936    0.0000 C   0  0  0  0  0  0  0  0  0  0  0  0
    5.0364    3.0186    0.0000 C   0  0  0  0  0  0  0  0  0  0  0  0
    4.3203    3.4350    0.0000 C   0  0  0  0  0  0  0  0  0  0  0  0
    3.6074    3.0258    0.0000 C   0  0  0  0  0  0  0  0  0  0  0  0
    4.3091    0.9627    0.0000 S   0  0  0  0  0  0  0  0  0  0  0  0
    5.0197    0.5454    0.0000 C   0  0  0  0  0  0  0  0  0  0  0  0
  5  4  2  0  0  0  0 
 15 16  1  0  0  0  0 
  4  1  1  0  0  0  0 
 16 17  1  0  0  0  0 
  5 10  1  0  0  0  0 
 17 18  1  0  0  0  0 
  6  7  1  0  0  0  0 
 18 19  1  0  0  0  0 
 19 20  1  0  0  0  0 
  7  8  1  0  0  0  0 
  8  9  1  0  0  0  0 
  9 10  1  0  0  0  0 
  5  6  1  0  0  0  0 
 10 11  1  0  0  0  0 
 19 24  1  0  0  0  0 
 20 21  1  0  0  0  0 
 21 22  1  0  0  0  0 
 22 23  1  0  0  0  0 
 23 24  1  0  0  0  0 
 11 12  1  0  0  0  0 
 25 26  2  0  0  0  0 
  2  3  1  0  0  0  0 
 26 27  1  0  0  0  0 
 12 13  2  0  0  0  0 
 27 28  2  0  0  0  0 
  3  6  2  0  0  0  0 
 28 29  1  0  0  0  0 
 12 14  1  0  0  0  0 
 29 30  2  0  0  0  0 
 30 25  1  0  0  0  0 
 22 25  1  0  0  0  0 
  1  2  2  0  0  0  0 
 26 31  1  0  0  0  0 
 14 15  1  0  0  0  0 
 31 32  1  0  0  0  0 
M  END