
          11280715142D 1   1.00000     0.00000     0

 20 22  0     0  0            999 V2000
    2.1125   -2.7667    0.0000 C   0  0  0  0  0  0           0  0  0
    2.9000   -2.5167    0.0000 N   0  0  0  0  0  0           0  0  0
    3.5042   -3.0667    0.0000 C   0  0  0  0  0  0           0  0  0
    1.4417   -2.2875    0.0000 C   0  0  0  0  0  0           0  0  0
    1.0292   -3.5542    0.0000 N   0  0  0  0  0  0           0  0  0
    6.8500   -4.8792    0.0000 N   0  0  3  0  0  0           0  0  0
    1.8542   -3.5542    0.0000 S   0  0  0  0  0  0           0  0  0
    6.1292   -4.4750    0.0000 C   0  0  0  0  0  0           0  0  0
    6.3000   -3.6625    0.0000 C   0  0  0  0  0  0           0  0  0
    7.4625   -4.3292    0.0000 C   0  0  0  0  0  0           0  0  0
    7.1167   -3.5750    0.0000 C   0  0  0  0  0  0           0  0  0
    0.7792   -2.7667    0.0000 C   0  0  0  0  0  0           0  0  0
    4.2917   -2.8167    0.0000 N   0  0  0  0  0  0           0  0  0
    5.3417   -4.7292    0.0000 C   0  0  0  0  0  0           0  0  0
    5.6875   -3.1125    0.0000 C   0  0  0  0  0  0           0  0  0
    4.9042   -3.3667    0.0000 C   0  0  0  0  0  0           0  0  0
    3.3375   -3.8792    0.0000 O   0  0  0  0  0  0           0  0  0
    4.7292   -4.1750    0.0000 C   0  0  0  0  0  0           0  0  0
    6.9375   -5.7042    0.0000 C   0  0  0  0  0  0           0  0  0
   -0.0083   -2.5167    0.0000 C   0  0  0  0  0  0           0  0  0
  2  1  1  0     0  0
  3  2  1  0     0  0
  4  1  2  0     0  0
  5  7  1  0     0  0
  6  8  1  0     0  0
  7  1  1  0     0  0
  8 14  2  0     0  0
  9 15  2  0     0  0
 10 11  2  0     0  0
 11  9  1  0     0  0
 12  4  1  0     0  0
 13  3  1  0     0  0
 14 18  1  0     0  0
 15 16  1  0     0  0
 16 13  1  0     0  0
 17  3  2  0     0  0
 18 16  2  0     0  0
 19  6  1  0     0  0
 20 12  1  0     0  0
 12  5  2  0     0  0
  9  8  1  0     0  0
  6 10  1  0     0  0
M  END