
  SciTegic06051313522D

 22 24  0  0  0  0            999 V2000
    7.0325  -24.6918    0.0000 C   0  0
    7.7422  -24.2823    0.0000 C   0  0
    7.7394  -23.4597    0.0000 C   0  0
    7.0307  -23.0544    0.0000 C   0  0
    8.4455  -23.0484    0.0000 N   0  0
    9.1548  -23.4543    0.0000 C   0  0
    6.3245  -24.2828    0.0000 C   0  0
    6.3257  -23.4617    0.0000 C   0  0
    5.5452  -23.2068    0.0000 N   0  0
    5.0615  -23.8704    0.0000 O   0  0
    5.5432  -24.5353    0.0000 N   0  0
    7.0308  -22.2334    0.0000 N   0  3
    6.3221  -21.8264    0.0000 O   0  0
    7.7376  -21.8233    0.0000 O   0  5
    9.1545  -24.2692    0.0000 C   0  0
    9.8629  -24.6750    0.0000 C   0  0
   10.5701  -24.2637    0.0000 C   0  0
   10.5643  -23.4423    0.0000 C   0  0
    9.8554  -23.0402    0.0000 C   0  0
    9.8657  -25.4954    0.0000 N   0  3
   10.5748  -25.9017    0.0000 O   0  0
    9.1594  -25.9063    0.0000 O   0  5
  7  1  1  0
  1  2  2  0
  2  3  1  0
  3  4  2  0
  4  8  1  0
  3  5  1  0
  5  6  1  0
  7  8  1  0
  8  9  2  0
  9 10  1  0
 10 11  1  0
 11  7  2  0
 12 13  2  0
 12 14  1  0
  4 12  1  0
  6 15  2  0
 15 16  1  0
 16 17  2  0
 17 18  1  0
 18 19  2  0
 19  6  1  0
 20 21  2  0
 20 22  1  0
 16 20  1  0
M  CHG  4  12   1  14  -1  20   1  22  -1
M  END