
          11290714372D 1   1.00000     0.00000     0

 27 28  0     1  0            999 V2000
   14.5048  -16.0085    0.0000 C   0  0  0  0  0  0           0  0  0
   13.7905  -16.4211    0.0000 N   0  0  3  0  0  0           0  0  0
   13.0757  -16.0079    0.0000 C   0  0  0  0  0  0           0  0  0
   12.3634  -16.4171    0.0000 C   0  0  0  0  0  0           0  0  0
   12.3594  -17.2424    0.0000 C   0  0  0  0  0  0           0  0  0
   13.0738  -17.6570    0.0000 N   0  0  3  0  0  0           0  0  0
   13.7923  -17.2461    0.0000 C   0  0  0  0  0  0           0  0  0
   13.0768  -15.1829    0.0000 O   0  0  0  0  0  0           0  0  0
   14.5063  -17.6593    0.0000 O   0  0  0  0  0  0           0  0  0
   13.0712  -18.4819    0.0000 C   0  0  0  0  0  0           0  0  0
   12.3554  -18.8922    0.0000 C   0  0  2  0  0  0           0  0  0
   11.6422  -18.4774    0.0000 N   0  0  0  0  0  0           0  0  0
   12.3538  -19.7183    0.0000 C   0  0  0  0  0  0           0  0  0
   11.6381  -20.1285    0.0000 O   0  0  0  0  0  0           0  0  0
   13.0670  -20.1330    0.0000 O   0  0  0  0  0  0           0  0  0
   15.2194  -16.4208    0.0000 C   0  0  0  0  0  0           0  0  0
   15.3100  -17.2377    0.0000 C   0  0  0  0  0  0           0  0  0
   16.1170  -17.4091    0.0000 C   0  0  0  0  0  0           0  0  0
   16.5294  -16.6945    0.0000 S   0  0  0  0  0  0           0  0  0
   15.9771  -16.0816    0.0000 C   0  0  0  0  0  0           0  0  0
   16.1477  -15.2744    0.0000 C   0  0  0  0  0  0           0  0  0
   16.9333  -15.0159    0.0000 O   0  0  0  0  0  0           0  0  0
   15.5353  -14.7205    0.0000 O   0  0  0  0  0  0           0  0  0
   11.6504  -16.0021    0.0000 C   0  0  3  0  0  0           0  0  0
   10.9333  -15.5875    0.0000 F   0  0  0  0  0  0           0  0  0
   12.0644  -15.2884    0.0000 F   0  0  0  0  0  0           0  0  0
   11.2393  -16.7173    0.0000 F   0  0  0  0  0  0           0  0  0
  6  7  1  0     0  0
 13 14  1  0     0  0
 13 15  2  0     0  0
 11 13  1  0     0  0
  2  3  1  0     0  0
  1 16  1  0     0  0
 16 17  1  0     0  0
  3  8  2  0     0  0
  7  9  2  0     0  0
  1  2  1  0     0  0
 17 18  2  0     0  0
 18 19  1  0     0  0
 19 20  1  0     0  0
 20 16  2  0     0  0
  6 10  1  0     0  0
 20 21  1  0     0  0
  2  7  1  0     0  0
 10 11  1  0     0  0
 21 22  1  0     0  0
 21 23  2  0     0  0
  3  4  1  0     0  0
  4 24  1  0     0  0
 11 12  1  1     0  0
 24 25  1  0     0  0
  4  5  2  0     0  0
 24 26  1  0     0  0
  5  6  1  0     0  0
 24 27  1  0     0  0
M  END