
  SciTegic01061414252D

 39 39  0  0  0  0            999 V2000
   19.7808   -4.2600    0.0000 P   0  0
   20.1919   -3.5424    0.0000 O   0  0
   19.3696   -3.5424    0.0000 O   0  5
   21.9252   -4.6711    0.0000 C   0  0
   22.6387   -4.2600    0.0000 N   0  0
   21.2076   -4.2600    0.0000 C   0  0  1  0  0  0
   20.4942   -4.6711    0.0000 N   0  0
   21.9252   -5.4974    0.0000 O   0  0
   21.2076   -3.4333    0.0000 C   0  0
   23.3521   -4.6711    0.0000 C   0  0  2  0  0  0
   24.0656   -4.2600    0.0000 C   0  0
   24.7790   -4.6711    0.0000 O   0  5
   24.0656   -3.4336    0.0000 O   0  0
   21.8779   -2.9503    0.0000 C   0  0
   21.7944   -2.1302    0.0000 C   0  0
   22.6319   -3.2914    0.0000 C   0  0
   19.0673   -4.6711    0.0000 O   0  0
   18.3539   -4.2600    0.0000 C   0  0  1  0  0  0
   18.3571   -3.4349    0.0000 O   0  0
   17.6456   -3.0239    0.0000 C   0  0  2  0  0  0
   16.9286   -3.4339    0.0000 C   0  0  1  0  0  0
   16.9298   -4.2575    0.0000 C   0  0  2  0  0  0
   17.6438   -4.6754    0.0000 C   0  0  1  0  0  0
   17.6425   -5.5017    0.0000 O   0  0
   16.2100   -4.6692    0.0000 O   0  0
   16.2175   -3.0187    0.0000 O   0  0
   17.6504   -2.1976    0.0000 C   0  0
   23.3521   -5.4974    0.0000 C   0  0
   24.0194   -5.9802    0.0000 C   0  0
   25.2962   -6.3907    0.0000 N   0  0
   24.8079   -5.7242    0.0000 C   0  0
   24.8097   -7.0588    0.0000 C   0  0
   24.0250   -6.8041    0.0000 C   0  0
   23.4159   -7.3540    0.0000 C   0  0
   23.5895   -8.1587    0.0000 C   0  0
   24.3764   -8.4091    0.0000 C   0  0
   24.9847   -7.8567    0.0000 C   0  0
   25.7831   -4.3560    0.0000 Na  0  3
   19.6166   -2.5828    0.0000 Na  0  3
  2  1  2  0
  1  3  1  0
  4  5  1  0
  4  6  1  0
  6  7  1  0
  4  8  2  0
  6  9  1  1
  5 10  1  0
 10 11  1  0
 11 12  1  0
 11 13  2  0
  9 14  1  0
 14 15  1  0
 14 16  1  0
  7  1  1  0
  1 17  1  0
 18 17  1  6
 18 19  1  0
 18 23  1  0
 19 20  1  0
 20 21  1  0
 21 22  1  0
 22 23  1  0
 23 24  1  6
 22 25  1  6
 21 26  1  1
 20 27  1  6
 10 28  1  6
 28 29  1  0
 29 33  1  0
 32 30  1  0
 30 31  1  0
 31 29  2  0
 32 33  2  0
 33 34  1  0
 34 35  2  0
 35 36  1  0
 36 37  2  0
 37 32  1  0
M  CHG  4   3  -1  12  -1  38   1  39   1
M  END