
  SciTegic09251318272D

 76 81  0  0  0  0            999 V2000
    5.2715   -1.2915    0.0000 S   0  0
    4.4279   -1.2915    0.0000 S   0  0
    0.2647   -1.2417    0.0000 S   0  0
    8.8995    0.0034    0.0000 S   0  0
    5.6796   -0.5705    0.0000 C   0  0
    3.8293   -1.8675    0.0000 C   0  0
    2.4007   -1.2915    0.0000 O   0  0
    7.2170   -0.7337    0.0000 O   0  0
    2.9858   -1.8675    0.0000 C   0  0
    6.4823   -0.3528    0.0000 C   0  0
    8.1286   -0.0807    0.0000 C   0  0
    0.9858   -1.6589    0.0000 C   0  0
    8.0605   -0.7201    0.0000 C   0  0
    1.5844   -1.0784    0.0000 C   0  0
   -2.4941   -1.9760    0.0000 C   0  0  2  0  0  0
   -4.3506   -2.0481    0.0000 C   0  0  1  0  0  0
   -5.3561   -1.0427    0.0000 C   0  0  2  0  0  0
   -2.7069   -1.1868    0.0000 C   0  0  1  0  0  0
   -4.5633   -1.2520    0.0000 C   0  0  2  0  0  0
   -2.1236   -0.6035    0.0000 C   0  0  2  0  0  0
   -1.7015   -2.1922    0.0000 O   0  0
   -3.5545   -2.2677    0.0000 O   0  0
   -5.3697    0.5563    0.0000 C   0  0  1  0  0  0
   -5.5755   -0.2467    0.0000 O   0  0
   -1.3275   -0.8093    0.0000 C   0  0  1  0  0  0
   -4.5770    0.3402    0.0000 O   0  0
   -1.1182   -1.6089    0.0000 C   0  0  1  0  0  0
   -4.9373   -2.6349    0.0000 C   0  0  1  0  0  0
   -5.9428   -1.6295    0.0000 C   0  0  2  0  0  0
   -5.7300   -2.4187    0.0000 C   0  0
   -3.9903    0.9269    0.0000 C   0  0  1  0  0  0
   -4.9957    1.9323    0.0000 C   0  0
   -5.5825    1.3456    0.0000 C   0  0  1  0  0  0
   -4.2030    1.7230    0.0000 C   0  0  2  0  0  0
   -2.3397    0.1961    0.0000 N   0  0
   -3.5064   -0.9706    0.0000 O   0  0
   -3.9800   -0.6687    0.0000 O   0  0
   -6.7388   -1.4099    0.0000 N   0  0
   -4.7245   -3.4309    0.0000 N   0  0
   -0.7442   -0.2260    0.0000 O   0  0
   -6.3786    1.5651    0.0000 N   0  0
   -3.6197    2.3063    0.0000 O   0  0
   -0.3186   -1.8250    0.0000 C   0  0
   -2.6108    1.2907    0.0000 N   0  0
   -3.1943    0.7073    0.0000 C   0  0
   11.5380   -0.4159    0.0000 C   0  0  2  0  0  0
   13.1817   -1.2818    0.0000 C   0  0  1  0  0  0
   13.5498   -2.6552    0.0000 C   0  0  2  0  0  0
   11.3277   -1.2059    0.0000 C   0  0  1  0  0  0
   12.9679   -2.0776    0.0000 C   0  0  2  0  0  0
   10.5308   -1.4194    0.0000 C   0  0  2  0  0  0
   10.9596    0.1675    0.0000 O   0  0
   12.6022   -0.6936    0.0000 O   0  0
   12.7620   -4.0468    0.0000 C   0  0  1  0  0  0
   13.3419   -3.4544    0.0000 O   0  0
    9.9443   -0.8431    0.0000 C   0  0  1  0  0  0
   12.1837   -3.4634    0.0000 O   0  0
   10.1628   -0.0460    0.0000 C   0  0  1  0  0  0
   13.9832   -1.0670    0.0000 C   0  0  1  0  0  0
   14.3513   -2.4405    0.0000 C   0  0  2  0  0  0
   14.5617   -1.6505    0.0000 C   0  0
   11.3822   -3.6780    0.0000 C   0  0  1  0  0  0
   11.7502   -5.0515    0.0000 C   0  0
   12.5519   -4.8367    0.0000 C   0  0  1  0  0  0
   11.1683   -4.4739    0.0000 C   0  0  2  0  0  0
   10.3182   -2.2199    0.0000 N   0  0
   11.9119   -1.7928    0.0000 O   0  0
   12.1711   -2.2911    0.0000 O   0  0
   14.9309   -3.0286    0.0000 N   0  0
   14.1970   -0.2713    0.0000 N   0  0
    9.1475   -1.0566    0.0000 O   0  0
   13.1314   -5.4250    0.0000 N   0  0
   10.3716   -4.6874    0.0000 O   0  0
    9.5784    0.5410    0.0000 C   0  0
   10.0057   -3.3034    0.0000 N   0  0
   10.8026   -3.0899    0.0000 C   0  0
  1  2  1  0
  2  6  1  0
  4 11  1  0
  5  1  1  0
  6  9  1  0
  7 14  1  0
  8 10  1  0
  9  7  1  0
 10  5  1  0
 11 13  1  0
 12  3  1  0
 13  8  1  0
 14 12  1  0
  3 43  1  0
 16 22  1  1
 17 19  1  0
 18 15  1  0
 19 16  1  0
 20 18  1  0
 21 15  1  0
 15 22  1  6
 23 24  1  6
 17 24  1  1
 25 27  1  0
 26 23  1  0
 27 21  1  0
 28 16  1  0
 29 30  1  0
 30 28  1  0
 31 26  1  0
 32 33  1  0
 33 23  1  0
 34 31  1  0
 20 35  1  1
 18 36  1  6
 19 37  1  6
 29 38  1  6
 28 39  1  6
 25 40  1  6
 33 41  1  6
 34 42  1  6
 27 43  1  1
 44 45  1  0
 31 45  1  1
 25 20  1  0
 29 17  1  0
 34 32  1  0
  4 74  1  0
 47 53  1  1
 48 50  1  0
 49 46  1  0
 50 47  1  0
 51 49  1  0
 52 46  1  0
 46 53  1  6
 54 55  1  6
 48 55  1  1
 56 58  1  0
 57 54  1  0
 58 52  1  0
 59 47  1  0
 60 61  1  0
 61 59  1  0
 62 57  1  0
 63 64  1  0
 64 54  1  0
 65 62  1  0
 51 66  1  1
 49 67  1  6
 50 68  1  6
 60 69  1  6
 59 70  1  6
 56 71  1  6
 64 72  1  6
 65 73  1  6
 58 74  1  1
 75 76  1  0
 62 76  1  1
 56 51  1  0
 60 48  1  0
 65 63  1  0
M  END