
          11280715102D 1   1.00000     0.00000     0

 32 34  0     1  0            999 V2000
    0.0417   -4.1542    0.0000 N   0  0  0  0  0  0           0  0  0
    0.7542   -2.9167    0.0000 C   0  0  0  0  0  0           0  0  0
    0.7542   -3.7417    0.0000 C   0  0  0  0  0  0           0  0  0
   -0.6708   -2.9167    0.0000 N   0  0  0  0  0  0           0  0  0
    0.0417   -2.5042    0.0000 C   0  0  0  0  0  0           0  0  0
   -0.6708   -3.7417    0.0000 C   0  0  0  0  0  0           0  0  0
    5.5875   -2.0917    0.0000 C   0  0  0  0  0  0           0  0  0
    5.1042   -2.7625    0.0000 S   0  0  0  0  0  0           0  0  0
    4.3167   -2.5042    0.0000 C   0  0  0  0  0  0           0  0  0
    4.3167   -1.6792    0.0000 C   0  0  0  0  0  0           0  0  0
    6.4125   -2.0917    0.0000 C   0  0  0  0  0  0           0  0  0
    5.1125   -1.4250    0.0000 C   0  0  0  0  0  0           0  0  0
    1.4667   -2.4917    0.0000 S   0  0  0  0  0  0           0  0  0
    6.8250   -2.8167    0.0000 N   0  0  0  0  0  0           0  0  0
    8.0625   -2.1042    0.0000 C   0  0  0  0  0  0           0  0  0
    7.6500   -2.8167    0.0000 C   0  0  2  0  0  0           0  0  0
    0.0417   -1.6792    0.0000 O   0  0  0  0  0  0           0  0  0
    9.2875   -4.2542    0.0000 C   0  0  0  0  0  0           0  0  0
    3.6042   -2.9167    0.0000 C   0  0  0  0  0  0           0  0  0
    6.8292   -1.3875    0.0000 O   0  0  0  0  0  0           0  0  0
    1.4667   -4.1542    0.0000 N   0  0  0  0  0  0           0  0  0
    3.6042   -1.2667    0.0000 C   0  0  0  0  0  0           0  0  0
    8.8875   -2.1125    0.0000 O   0  0  0  0  0  0           0  0  0
   -1.3875   -4.1417    0.0000 N   0  0  0  0  0  0           0  0  0
    8.8750   -4.9667    0.0000 O   0  0  0  0  0  0           0  0  0
    8.0500   -3.5417    0.0000 C   0  0  0  0  0  0           0  0  0
    2.1875   -2.9042    0.0000 C   0  0  0  0  0  0           0  0  0
    8.8750   -3.5417    0.0000 C   0  0  0  0  0  0           0  0  0
    7.6542   -1.3917    0.0000 O   0  0  0  0  0  0           0  0  0
    2.8917   -2.4917    0.0000 C   0  0  3  0  0  0           0  0  0
   10.1125   -4.2542    0.0000 O   0  0  0  0  0  0           0  0  0
    2.8917   -1.6792    0.0000 C   0  0  0  0  0  0           0  0  0
  2  3  1  0     0  0
  3  1  2  0     0  0
  4  6  2  0     0  0
  5  4  1  0     0  0
  6  1  1  0     0  0
  7  8  1  0     0  0
  8  9  1  0     0  0
  9 19  1  0     0  0
 10 22  1  0     0  0
 11  7  1  0     0  0
 12 10  1  0     0  0
 13  2  1  0     0  0
 14 11  1  0     0  0
 16 15  1  6     0  0
 16 14  1  0     0  0
 17  5  1  0     0  0
 18 28  1  0     0  0
 19 30  1  0     0  0
 20 11  2  0     0  0
 21  3  1  0     0  0
 22 32  1  0     0  0
 23 15  2  0     0  0
 24  6  1  0     0  0
 25 18  2  0     0  0
 26 16  1  0     0  0
 27 13  1  0     0  0
 28 26  1  0     0  0
 29 15  1  0     0  0
 30 27  1  0     0  0
 31 18  1  0     0  0
 32 30  1  0     0  0
  2  5  2  0     0  0
 10  9  2  0     0  0
  7 12  2  0     0  0
M  END