
          11280715482D 1   1.00000     0.00000     0

 31 34  0     0  0            999 V2000
    6.3667   -2.2667    0.0000 S   0  0  3  0  0  0           0  0  0
    5.5417   -2.2667    0.0000 N   0  0  0  0  0  0           0  0  0
    5.2875   -0.0542    0.0000 N   0  0  0  0  0  0           0  0  0
    5.5417   -0.8375    0.0000 N   0  0  3  0  0  0           0  0  0
    5.1292   -1.5542    0.0000 C   0  0  0  0  0  0           0  0  0
    5.9542    0.4333    0.0000 C   0  0  0  0  0  0           0  0  0
    6.6250   -0.0542    0.0000 C   0  0  3  0  0  0           0  0  0
    6.3667   -3.0917    0.0000 N   0  0  3  0  0  0           0  0  0
    6.3667   -0.8375    0.0000 C   0  0  0  0  0  0           0  0  0
    7.1917   -2.2667    0.0000 O   0  0  0  0  0  0           0  0  0
    6.3667   -1.4417    0.0000 O   0  0  0  0  0  0           0  0  0
    5.9167    1.2583    0.0000 C   0  0  0  0  0  0           0  0  0
    7.4167    0.1625    0.0000 C   0  0  0  0  0  0           0  0  0
    4.3000   -1.5542    0.0000 N   0  0  0  0  0  0           0  0  0
    6.3667   -4.7417    0.0000 O   0  0  0  0  0  0           0  0  0
    5.1875    1.6458    0.0000 C   0  0  0  0  0  0           0  0  0
    6.6167    1.6958    0.0000 C   0  0  0  0  0  0           0  0  0
    5.6500   -3.5042    0.0000 C   0  0  0  0  0  0           0  0  0
    7.0792   -3.5042    0.0000 C   0  0  0  0  0  0           0  0  0
    5.8542    2.9125    0.0000 C   0  0  0  0  0  0           0  0  0
    5.1542    2.4708    0.0000 C   0  0  0  0  0  0           0  0  0
    6.5792    2.5250    0.0000 C   0  0  0  0  0  0           0  0  0
    5.8375    3.7375    0.0000 Cl  0  0  0  0  0  0           0  0  0
    7.0792   -4.3292    0.0000 C   0  0  0  0  0  0           0  0  0
    5.6500   -4.3292    0.0000 C   0  0  0  0  0  0           0  0  0
    8.0042   -0.4167    0.0000 C   0  0  0  0  0  0           0  0  0
    7.6292    0.9583    0.0000 C   0  0  0  0  0  0           0  0  0
    3.8875   -2.2667    0.0000 C   0  0  0  0  0  0           0  0  0
    8.7917   -0.2000    0.0000 C   0  0  0  0  0  0           0  0  0
    8.4250    1.1833    0.0000 C   0  0  0  0  0  0           0  0  0
    9.0042    0.6000    0.0000 C   0  0  0  0  0  0           0  0  0
  2  1  1  0     0  0
  3  4  1  0     0  0
  4  5  1  0     0  0
  5  2  1  0     0  0
  6  3  2  0     0  0
  7  9  1  0     0  0
  8  1  1  0     0  0
  9  4  1  0     0  0
 10  1  2  0     0  0
 11  1  2  0     0  0
 12  6  1  0     0  0
 13  7  1  0     0  0
 14  5  2  0     0  0
 15 24  1  0     0  0
 16 12  2  0     0  0
 17 12  1  0     0  0
 18  8  1  0     0  0
 19  8  1  0     0  0
 20 22  1  0     0  0
 21 16  1  0     0  0
 22 17  2  0     0  0
 23 20  1  0     0  0
 24 19  1  0     0  0
 25 18  1  0     0  0
 26 13  2  0     0  0
 27 13  1  0     0  0
 28 14  1  0     0  0
 29 26  1  0     0  0
 30 27  2  0     0  0
 31 30  1  0     0  0
 25 15  1  0     0  0
  7  6  1  0     0  0
 21 20  2  0     0  0
 29 31  2  0     0  0
M  END