
          11280715122D 1   1.00000     0.00000     0

 29 31  0     0  0            999 V2000
    7.1000   -5.2542    0.0000 C   0  0  0  0  0  0           0  0  0
    7.8125   -5.6625    0.0000 C   0  0  0  0  0  0           0  0  0
    2.5625   -7.3667    0.0000 N   0  0  3  0  0  0           0  0  0
    1.7500   -7.2292    0.0000 C   0  0  0  0  0  0           0  0  0
    4.2042   -7.4250    0.0000 N   0  0  3  0  0  0           0  0  0
    7.1000   -4.4292    0.0000 N   0  0  3  0  0  0           0  0  0
    7.8125   -6.4917    0.0000 C   0  0  0  0  0  0           0  0  0
    6.3792   -5.6667    0.0000 O   0  0  0  0  0  0           0  0  0
    2.9500   -8.0917    0.0000 C   0  0  0  0  0  0           0  0  0
    2.9917   -6.6625    0.0000 C   0  0  0  0  0  0           0  0  0
    1.4542   -6.4500    0.0000 C   0  0  0  0  0  0           0  0  0
    3.7667   -8.1167    0.0000 C   0  0  0  0  0  0           0  0  0
    3.8167   -6.7000    0.0000 C   0  0  0  0  0  0           0  0  0
    6.9917   -6.4917    0.0000 S   0  0  0  0  0  0           0  0  0
    8.5250   -5.2500    0.0000 C   0  0  0  0  0  0           0  0  0
    1.9792   -5.8125    0.0000 O   0  0  0  0  0  0           0  0  0
    5.0292   -7.4542    0.0000 C   0  0  0  0  0  0           0  0  0
    5.6125   -6.8667    0.0000 C   0  0  0  0  0  0           0  0  0
    1.2167   -7.8667    0.0000 C   0  0  0  0  0  0           0  0  0
    6.3792   -4.0167    0.0000 C   0  0  0  0  0  0           0  0  0
    7.8125   -4.0042    0.0000 C   0  0  0  0  0  0           0  0  0
    6.4042   -7.0792    0.0000 C   0  0  0  0  0  0           0  0  0
    8.5250   -6.9042    0.0000 C   0  0  0  0  0  0           0  0  0
    0.6417   -6.3167    0.0000 C   0  0  0  0  0  0           0  0  0
    2.7917   -5.9500    0.0000 C   0  0  0  0  0  0           0  0  0
    9.2417   -5.6625    0.0000 C   0  0  0  0  0  0           0  0  0
    0.4042   -7.7250    0.0000 C   0  0  0  0  0  0           0  0  0
    9.2417   -6.4917    0.0000 C   0  0  0  0  0  0           0  0  0
    0.1167   -6.9500    0.0000 C   0  0  0  0  0  0           0  0  0
  2  1  1  0     0  0
  3 10  1  0     0  0
  4  3  1  0     0  0
  5 17  1  0     0  0
  6  1  1  0     0  0
  7  2  2  0     0  0
  8  1  2  0     0  0
  9 12  1  0     0  0
 10 13  1  0     0  0
 11  4  1  0     0  0
 12  5  1  0     0  0
 13  5  1  0     0  0
 14  7  1  0     0  0
 15  2  1  0     0  0
 16 11  1  0     0  0
 17 18  1  0     0  0
 18 22  1  0     0  0
 19  4  2  0     0  0
 20  6  1  0     0  0
 21  6  1  0     0  0
 22 14  1  0     0  0
 23  7  1  0     0  0
 24 11  2  0     0  0
 25 16  1  0     0  0
 26 15  2  0     0  0
 27 19  1  0     0  0
 28 26  1  0     0  0
 29 27  2  0     0  0
 28 23  2  0     0  0
  9  3  1  0     0  0
 29 24  1  0     0  0
M  END