
          11280715262D 1   1.00000     0.00000     0

 34 38  0     0  0            999 V2000
    3.2417   -1.4000    0.0000 C   0  0  0  0  0  0           0  0  0
    1.8042    1.0958    0.0000 C   0  0  0  0  0  0           0  0  0
   -0.3250   -0.1542    0.0000 C   0  0  3  0  0  0           0  0  0
    0.3917   -1.4000    0.0000 C   0  0  3  0  0  0           0  0  0
    1.0917    0.6750    0.0000 C   0  0  0  0  0  0           0  0  0
    2.5292   -1.8125    0.0000 C   0  0  0  0  0  0           0  0  0
    2.5250    0.6833    0.0000 C   0  0  0  0  0  0           0  0  0
    3.9625   -1.8042    0.0000 C   0  0  0  0  0  0           0  0  0
    3.2417   -0.5750    0.0000 C   0  0  0  0  0  0           0  0  0
    1.8042    1.9208    0.0000 C   0  0  0  0  0  0           0  0  0
    1.8167   -1.4000    0.0000 N   0  0  0  0  0  0           0  0  0
    0.3792    1.0833    0.0000 N   0  0  0  0  0  0           0  0  0
    3.2375    1.1000    0.0000 C   0  0  0  0  0  0           0  0  0
    4.6750   -1.3875    0.0000 C   0  0  0  0  0  0           0  0  0
   -0.7833   -1.8292    0.0000 C   0  0  3  0  0  0           0  0  0
   -1.0833   -1.4625    0.0000 C   0  0  3  0  0  0           0  0  0
    0.3917   -0.5792    0.0000 C   0  0  0  0  0  0           0  0  0
   -0.3000   -1.7542    0.0000 C   0  0  0  0  0  0           0  0  0
   -0.7833   -0.7917    0.0000 C   0  0  0  0  0  0           0  0  0
   -1.0833   -0.5625    0.0000 C   0  0  0  0  0  0           0  0  0
    0.0375   -2.1125    0.0000 C   0  0  0  0  0  0           0  0  0
    1.1042   -0.1500    0.0000 O   0  0  0  0  0  0           0  0  0
    2.5292   -2.6375    0.0000 O   0  0  0  0  0  0           0  0  0
    1.1042   -1.8125    0.0000 C   0  0  0  0  0  0           0  0  0
   -0.3333    0.6625    0.0000 C   0  0  0  0  0  0           0  0  0
   -1.4250   -2.1125    0.0000 C   0  0  0  0  0  0           0  0  0
    4.6667   -0.5625    0.0000 C   0  0  0  0  0  0           0  0  0
    3.2292    1.9250    0.0000 C   0  0  0  0  0  0           0  0  0
    2.5292   -0.1417    0.0000 Cl  0  0  0  0  0  0           0  0  0
    3.9542   -2.6292    0.0000 Cl  0  0  0  0  0  0           0  0  0
    2.5167    2.3333    0.0000 C   0  0  0  0  0  0           0  0  0
    3.9500   -0.1542    0.0000 C   0  0  0  0  0  0           0  0  0
    5.3792   -0.1417    0.0000 Cl  0  0  0  0  0  0           0  0  0
    3.9417    2.3458    0.0000 Cl  0  0  0  0  0  0           0  0  0
  2  5  1  0     0  0
  3 17  1  0     0  0
  4 24  1  0     0  0
  5 12  1  0     0  0
  6  1  1  0     0  0
  7  2  2  0     0  0
  8  1  2  0     0  0
  9  1  1  0     0  0
 10  2  1  0     0  0
 11  6  1  0     0  0
 12 25  1  0     0  0
 13  7  1  0     0  0
 14  8  1  0     0  0
 15 21  1  0     0  0
 16 18  1  0     0  0
 17  4  1  0     0  0
 18  4  1  0     0  0
 19 15  1  0     0  0
 20 16  1  0     0  0
 21  4  1  0     0  0
 22  5  2  0     0  0
 23  6  2  0     0  0
 24 11  1  0     0  0
 25  3  1  0     0  0
 26 15  1  0     0  0
 27 32  1  0     0  0
 28 31  1  0     0  0
 29  7  1  0     0  0
 30  8  1  0     0  0
 31 10  2  0     0  0
 32  9  2  0     0  0
 33 27  1  0     0  0
 34 28  1  0     0  0
 27 14  2  0     0  0
 16 26  1  0     0  0
  3 19  1  0     0  0
  3 20  1  0     0  0
 28 13  2  0     0  0
M  END