
  SciTegic05281317142D

 33 36  0  0  0  0            999 V2000
    1.4624   -5.1227    0.0000 C   0  0
    1.1007   -3.6669    0.0000 C   0  0
    2.1852   -2.6281    0.0000 C   0  0
    3.6221   -3.0405    0.0000 C   0  0
    3.9838   -4.4963    0.0000 C   0  0
    2.9039   -5.5373    0.0000 C   0  0
    1.7138   -1.2033    0.0000 N   0  0
    2.5889    0.0182    0.0000 N   0  0
    1.7138    1.2033    0.0000 C   0  0
    0.2917   -0.7475    0.0000 C   0  0
    0.2917    0.7475    0.0000 C   0  0
   -1.0028    1.5132    0.0000 C   0  0
   -2.3155    0.7475    0.0000 C   0  0
   -2.3155   -0.7475    0.0000 C   0  0
   -1.0028   -1.5132    0.0000 C   0  0
   -0.9991    2.7132    0.0000 O   0  0
   -2.2896   -1.9472    0.0000 C   0  0
   -3.3388   -0.1208    0.0000 C   0  0
    5.4270   -4.9082    0.0000 N   0  0
    6.5060   -3.8650    0.0000 C   0  0  2  0  0  0
    7.9490   -4.2745    0.0000 C   0  0
    9.0253   -3.2297    0.0000 C   0  0
    8.6586   -1.7752    0.0000 C   0  0  2  0  0  0
    7.2156   -1.3656    0.0000 C   0  0
    6.1393   -2.4104    0.0000 C   0  0
    9.5196   -0.9394    0.0000 O   0  0
    3.2628   -6.9946    0.0000 C   0  0
    2.3977   -7.8263    0.0000 O   0  0
    4.4155   -7.3284    0.0000 N   0  0
    2.1783    2.6281    0.0000 C   0  0
    3.3521    2.8771    0.0000 F   0  0
    1.3759    3.5204    0.0000 F   0  0
    2.5497    3.7691    0.0000 F   0  0
  3  4  2  0
 12 16  2  0
 14 17  1  0
  8  9  2  0
 14 18  1  0
  9 11  1  0
  5 19  1  0
 10  7  1  0
 20 19  1  1
 20 21  1  0
  3  7  1  0
 10 11  2  0
  4  5  1  0
  2  3  1  0
  5  6  2  0
 20 25  1  0
 21 22  1  0
 22 23  1  0
 23 24  1  0
 24 25  1  0
  6  1  1  0
 23 26  1  6
  7  8  1  0
  6 27  1  0
  1  2  2  0
 27 28  2  0
 10 15  1  0
 27 29  1  0
 11 12  1  0
  9 30  1  0
 12 13  1  0
 30 31  1  0
 13 14  1  0
 30 32  1  0
 14 15  1  0
 30 33  1  0
M  END