
          11280715542D 1   1.00000     0.00000     0

 48 53  0     1  0            999 V2000
    7.4679   -3.8672    0.0000 C   0  0  0  0  0  0           0  0  0
    7.4653   -4.6918    0.0000 C   0  0  3  0  0  0           0  0  0
    7.4600   -5.5159    0.0000 C   0  0  0  0  0  0           0  0  0
    8.2899   -4.6958    0.0000 C   0  0  0  0  0  0           0  0  0
    6.6407   -4.6883    0.0000 C   0  0  0  0  0  0           0  0  0
    6.7413   -5.9215    0.0000 C   0  0  0  0  0  0           0  0  0
    6.7356   -6.7449    0.0000 C   0  0  0  0  0  0           0  0  0
    7.4471   -7.1624    0.0000 C   0  0  0  0  0  0           0  0  0
    8.1660   -6.7505    0.0000 C   0  0  0  0  0  0           0  0  0
    8.1682   -5.9285    0.0000 C   0  0  0  0  0  0           0  0  0
    6.2349   -3.9704    0.0000 C   0  0  0  0  0  0           0  0  0
    5.4111   -3.9665    0.0000 C   0  0  0  0  0  0           0  0  0
    4.9949   -4.6794    0.0000 C   0  0  0  0  0  0           0  0  0
    5.4086   -5.3976    0.0000 C   0  0  0  0  0  0           0  0  0
    6.2311   -5.3980    0.0000 C   0  0  0  0  0  0           0  0  0
    8.6957   -5.4145    0.0000 C   0  0  0  0  0  0           0  0  0
    9.5196   -5.4188    0.0000 C   0  0  0  0  0  0           0  0  0
    9.9362   -4.7062    0.0000 C   0  0  0  0  0  0           0  0  0
    9.5229   -3.9877    0.0000 C   0  0  0  0  0  0           0  0  0
    8.7004   -3.9869    0.0000 C   0  0  0  0  0  0           0  0  0
   10.7608   -4.7091    0.0000 F   0  0  0  0  0  0           0  0  0
    7.4429   -7.9870    0.0000 F   0  0  0  0  0  0           0  0  0
    4.1703   -4.6770    0.0000 F   0  0  0  0  0  0           0  0  0
    8.8491   -2.1475    0.0000 C   0  0  2  0  0  0           0  0  0
    8.5936   -1.3661    0.0000 C   0  0  0  0  0  0           0  0  0
    7.7690   -1.3661    0.0000 C   0  0  2  0  0  0           0  0  0
    7.5175   -2.1475    0.0000 C   0  0  0  0  0  0           0  0  0
    8.1812   -2.6341    0.0000 N   0  0  3  0  0  0           0  0  0
    8.1812   -3.4548    0.0000 C   0  0  0  0  0  0           0  0  0
    9.5788   -1.7155    0.0000 C   0  0  0  0  0  0           0  0  0
   10.3184   -2.1318    0.0000 N   0  0  3  0  0  0           0  0  0
    9.5695   -0.8668    0.0000 O   0  0  0  0  0  0           0  0  0
   10.4158   -2.9712    0.0000 C   0  0  0  0  0  0           0  0  0
   11.2478   -3.1385    0.0000 C   0  0  0  0  0  0           0  0  0
   11.6641   -2.3990    0.0000 C   0  0  0  0  0  0           0  0  0
   11.0893   -1.7746    0.0000 C   0  0  2  0  0  0           0  0  0
   11.6845   -1.1710    0.0000 C   0  0  0  0  0  0           0  0  0
   12.5057   -1.3849    0.0000 N   0  0  0  0  0  0           0  0  0
   11.4591   -0.3528    0.0000 O   0  0  0  0  0  0           0  0  0
    7.2691   -0.6803    0.0000 O   0  0  0  0  0  0           0  0  0
   13.1015   -0.7806    0.0000 C   0  0  0  0  0  0           0  0  0
   13.9229   -0.9945    0.0000 C   0  0  3  0  0  0           0  0  0
   14.1459   -1.8148    0.0000 C   0  0  0  0  0  0           0  0  0
   14.9631   -2.0297    0.0000 C   0  0  0  0  0  0           0  0  0
   15.5624   -1.4283    0.0000 N   0  0  0  0  0  0           0  0  0
   15.3386   -0.6086    0.0000 C   0  0  0  0  0  0           0  0  0
   14.5157   -0.3904    0.0000 C   0  0  0  0  0  0           0  0  0
    9.0040   -3.4526    0.0000 O   0  0  0  0  0  0           0  0  0
 11 12  1  0     0  0
  1  2  1  0     0  0
 12 13  2  0     0  0
  6  7  1  0     0  0
 13 14  1  0     0  0
  2  4  1  0     0  0
 14 15  2  0     0  0
 15  5  1  0     0  0
  7  8  2  0     0  0
  4 16  2  0     0  0
 16 17  1  0     0  0
  8  9  1  0     0  0
 17 18  2  0     0  0
  2  5  1  0     0  0
 18 19  1  0     0  0
  9 10  2  0     0  0
 19 20  2  0     0  0
 20  4  1  0     0  0
 10  3  1  0     0  0
 18 21  1  0     0  0
  2  3  1  0     0  0
  8 22  1  0     0  0
  5 11  2  0     0  0
 13 23  1  0     0  0
 24 30  1  1     0  0
 30 31  1  0     0  0
 30 32  2  0     0  0
 31 33  1  0     0  0
 24 25  1  0     0  0
 33 34  1  0     0  0
 34 35  1  0     0  0
 35 36  1  0     0  0
 36 31  1  0     0  0
 25 26  1  0     0  0
 26 27  1  0     0  0
 36 37  1  1     0  0
 27 28  1  0     0  0
 37 38  1  0     0  0
 28 24  1  0     0  0
 37 39  2  0     0  0
 28 29  1  0     0  0
 26 40  1  6     0  0
 29  1  1  0     0  0
 38 41  1  0     0  0
 41 42  1  0     0  0
 42 43  1  0     0  0
 42 47  1  0     0  0
 43 44  1  0     0  0
 44 45  1  0     0  0
 45 46  1  0     0  0
 46 47  1  0     0  0
  3  6  2  0     0  0
 29 48  2  0     0  0
M  END