
  Mrv0541 04051115152D          

 32 34  0  0  0  0            999 V2000
   -1.3560    2.0413    0.0000 C   0  0  0  0  0  0  0  0  0  0  0  0
   -2.0705    1.6288    0.0000 C   0  0  2  0  0  0  0  0  0  0  0  0
   -1.3560    2.8663    0.0000 C   0  0  0  0  0  0  0  0  0  0  0  0
   -0.6416    1.6288    0.0000 C   0  0  0  0  0  0  0  0  0  0  0  0
   -2.0705    0.8038    0.0000 N   0  0  0  0  0  0  0  0  0  0  0  0
   -2.7850    2.0413    0.0000 C   0  0  0  0  0  0  0  0  0  0  0  0
   -2.0705    3.2788    0.0000 C   0  0  0  0  0  0  0  0  0  0  0  0
   -0.6416    3.2788    0.0000 C   0  0  0  0  0  0  0  0  0  0  0  0
    0.0729    2.0413    0.0000 C   0  0  0  0  0  0  0  0  0  0  0  0
   -1.3560    0.3913    0.0000 C   0  0  0  0  0  0  0  0  0  0  0  0
   -2.7850    2.8663    0.0000 C   0  0  0  0  0  0  0  0  0  0  0  0
    0.0729    2.8663    0.0000 C   0  0  0  0  0  0  0  0  0  0  0  0
   -1.3560   -0.4337    0.0000 C   0  0  1  0  0  0  0  0  0  0  0  0
   -0.6416    0.8038    0.0000 O   0  0  0  0  0  0  0  0  0  0  0  0
   -0.6886   -0.9187    0.0000 N   0  0  0  0  0  0  0  0  0  0  0  0
   -2.0235   -0.9187    0.0000 C   0  0  0  0  0  0  0  0  0  0  0  0
    0.0960   -0.6637    0.0000 C   0  0  0  0  0  0  0  0  0  0  0  0
   -0.9435   -1.7033    0.0000 C   0  0  0  0  0  0  0  0  0  0  0  0
   -1.7685   -1.7033    0.0000 C   0  0  0  0  0  0  0  0  0  0  0  0
    0.7091   -1.2158    0.0000 C   0  0  1  0  0  0  0  0  0  0  0  0
    0.2676    0.1432    0.0000 O   0  0  0  0  0  0  0  0  0  0  0  0
    1.4938   -0.9608    0.0000 N   0  0  0  0  0  0  0  0  0  0  0  0
    0.5376   -2.0227    0.0000 C   0  0  0  0  0  0  0  0  0  0  0  0
    2.1068   -1.5129    0.0000 C   0  0  0  0  0  0  0  0  0  0  0  0
    0.3661   -2.8297    0.0000 C   0  0  0  0  0  0  0  0  0  0  0  0
    1.3446   -2.1943    0.0000 C   0  0  0  0  0  0  0  0  0  0  0  0
   -0.2694   -1.8512    0.0000 C   0  0  0  0  0  0  0  0  0  0  0  0
    2.8915   -1.2579    0.0000 C   0  0  1  0  0  0  0  0  0  0  0  0
    1.9353   -2.3198    0.0000 O   0  0  0  0  0  0  0  0  0  0  0  0
    3.5046   -1.8099    0.0000 N   0  0  0  0  0  0  0  0  0  0  0  0
    3.0630   -0.4509    0.0000 C   0  0  0  0  0  0  0  0  0  0  0  0
    4.2892   -1.5550    0.0000 C   0  0  0  0  0  0  0  0  0  0  0  0
  1  2  1  0  0  0  0
  1  3  2  0  0  0  0
  1  4  1  0  0  0  0
  2  5  1  6  0  0  0
  2  6  1  0  0  0  0
  3  7  1  0  0  0  0
  3  8  1  0  0  0  0
  4  9  2  0  0  0  0
 10  5  1  0  0  0  0
 11  6  1  0  0  0  0
 11  7  1  0  0  0  0
 12  8  2  0  0  0  0
 12  9  1  0  0  0  0
 13 10  1  1  0  0  0
 10 14  2  0  0  0  0
 13 15  1  0  0  0  0
 13 16  1  0  0  0  0
 17 15  1  0  0  0  0
 18 15  1  0  0  0  0
 16 19  1  0  0  0  0
 17 20  1  0  0  0  0
 17 21  2  0  0  0  0
 18 19  1  0  0  0  0
 20 22  1  1  0  0  0
 20 23  1  0  0  0  0
 24 22  1  0  0  0  0
 23 25  1  0  0  0  0
 23 26  1  0  0  0  0
 23 27  1  0  0  0  0
 24 28  1  0  0  0  0
 24 29  2  0  0  0  0
 28 30  1  0  0  0  0
 28 31  1  6  0  0  0
 32 30  1  0  0  0  0
M  END