
          11280715132D 1   1.00000     0.00000     0

 63 68  0     1  0            999 V2000
   15.5042   -2.3042    0.0000 O   0  0  0  0  0  0           0  0  0
    0.3542   -7.3875    0.0000 O   0  0  0  0  0  0           0  0  0
   14.7792   -2.6875    0.0000 C   0  0  2  0  0  0           0  0  0
   15.5375   -1.4792    0.0000 C   0  0  2  0  0  0           0  0  0
   -0.3625   -6.9750    0.0000 C   0  0  2  0  0  0           0  0  0
   14.7542   -3.5125    0.0000 C   0  0  0  0  0  0           0  0  0
    1.0667   -6.9750    0.0000 C   0  0  1  0  0  0           0  0  0
   14.8417   -1.0375    0.0000 O   0  0  0  0  0  0           0  0  0
   -0.3625   -6.1500    0.0000 O   0  0  0  0  0  0           0  0  0
   19.1667    0.4708    0.0000 N   0  0  0  0  0  0           0  0  0
   -3.9333   -9.0375    0.0000 N   0  0  0  0  0  0           0  0  0
   14.0792   -2.2500    0.0000 C   0  0  1  0  0  0           0  0  0
   -3.2208   -8.6292    0.0000 C   0  0  0  0  0  0           0  0  0
   18.4542    0.0500    0.0000 C   0  0  0  0  0  0           0  0  0
    1.0667   -6.1500    0.0000 C   0  0  1  0  0  0           0  0  0
    1.7792   -7.3875    0.0000 C   0  0  0  0  0  0           0  0  0
   16.2667   -1.1000    0.0000 C   0  0  0  0  0  0           0  0  0
   -1.0750   -7.3875    0.0000 C   0  0  0  0  0  0           0  0  0
   15.4542   -3.9500    0.0000 C   0  0  0  0  0  0           0  0  0
   14.1167   -1.4250    0.0000 C   0  0  0  0  0  0           0  0  0
    0.3500   -5.7375    0.0000 C   0  0  0  0  0  0           0  0  0
   11.0750   -4.5042    0.0000 C   0  0  0  0  0  0           0  0  0
    5.3542   -6.1500    0.0000 C   0  0  0  0  0  0           0  0  0
    2.4875   -8.6250    0.0000 N   0  0  0  0  0  0           0  0  0
    5.3542   -6.9750    0.0000 O   0  0  0  0  0  0           0  0  0
   11.7750   -4.9500    0.0000 O   0  0  0  0  0  0           0  0  0
   16.3042   -0.2750    0.0000 C   0  0  0  0  0  0           0  0  0
   -1.0750   -8.2167    0.0000 C   0  0  0  0  0  0           0  0  0
   16.9667   -1.5417    0.0000 C   0  0  0  0  0  0           0  0  0
   -1.7875   -6.9750    0.0000 C   0  0  0  0  0  0           0  0  0
    2.5000   -6.1500    0.0000 C   0  0  0  0  0  0           0  0  0
   12.5917   -2.1000    0.0000 C   0  0  0  0  0  0           0  0  0
    3.2042   -6.1792    0.0000 C   0  0  0  0  0  0           0  0  0
   11.8625   -2.4792    0.0000 C   0  0  0  0  0  0           0  0  0
   -2.5000   -8.2167    0.0000 C   0  0  0  0  0  0           0  0  0
   17.7292   -0.3292    0.0000 C   0  0  0  0  0  0           0  0  0
   -2.5000   -7.3917    0.0000 C   0  0  0  0  0  0           0  0  0
   17.7000   -1.1542    0.0000 C   0  0  0  0  0  0           0  0  0
   -1.7875   -8.6292    0.0000 C   0  0  0  0  0  0           0  0  0
   17.0292    0.1083    0.0000 C   0  0  0  0  0  0           0  0  0
    1.7750   -8.2125    0.0000 C   0  0  0  0  0  0           0  0  0
    6.0667   -5.7375    0.0000 O   0  0  0  0  0  0           0  0  0
   10.3500   -4.9000    0.0000 O   0  0  0  0  0  0           0  0  0
   16.1792   -3.5625    0.0000 O   0  0  0  0  0  0           0  0  0
   14.0292   -3.8917    0.0000 C   0  0  0  0  0  0           0  0  0
   13.3167   -2.5542    0.0000 C   0  0  0  0  0  0           0  0  0
    1.7792   -5.7375    0.0000 C   0  0  0  0  0  0           0  0  0
    4.6375   -5.7375    0.0000 C   0  0  0  0  0  0           0  0  0
   11.1042   -3.6917    0.0000 C   0  0  0  0  0  0           0  0  0
    2.4875   -6.9750    0.0000 C   0  0  0  0  0  0           0  0  0
    3.2042   -8.2125    0.0000 C   0  0  0  0  0  0           0  0  0
   11.8375   -3.3042    0.0000 C   0  0  0  0  0  0           0  0  0
    3.7667   -5.6167    0.0000 C   0  0  0  0  0  0           0  0  0
   15.4250   -4.7750    0.0000 C   0  0  0  0  0  0           0  0  0
    6.7875   -6.1500    0.0000 C   0  0  0  0  0  0           0  0  0
   10.3500   -5.7292    0.0000 C   0  0  0  0  0  0           0  0  0
    9.6375   -6.1417    0.0000 C   0  0  0  0  0  0           0  0  0
    7.4917   -5.7375    0.0000 C   0  0  0  0  0  0           0  0  0
    3.2000   -7.3875    0.0000 C   0  0  0  0  0  0           0  0  0
    8.2125   -6.1500    0.0000 C   0  0  0  0  0  0           0  0  0
    8.9250   -5.7375    0.0000 C   0  0  0  0  0  0           0  0  0
   13.9917   -4.7125    0.0000 C   0  0  0  0  0  0           0  0  0
   14.6917   -5.1542    0.0000 C   0  0  0  0  0  0           0  0  0
  2  7  1  0     0  0
  3  1  1  0     0  0
  4  1  1  0     0  0
  5  9  1  0     0  0
  3  6  1  6     0  0
  7 15  1  0     0  0
  8  4  1  0     0  0
  9 21  1  0     0  0
 10 14  3  0     0  0
 11 13  3  0     0  0
 12  3  1  0     0  0
 13 35  1  0     0  0
 14 36  1  0     0  0
 15 47  1  1     0  0
  7 16  1  1     0  0
  4 17  1  6     0  0
  5 18  1  1     0  0
 19  6  2  0     0  0
 20  8  1  0     0  0
 21 15  1  0     0  0
 22 49  1  0     0  0
 23 42  1  0     0  0
 24 41  1  0     0  0
 25 23  2  0     0  0
 26 22  2  0     0  0
 27 17  2  0     0  0
 28 18  1  0     0  0
 29 17  1  0     0  0
 30 18  2  0     0  0
 31 33  2  0     0  0
 32 46  1  0     0  0
 33 53  1  0     0  0
 34 32  2  0     0  0
 35 37  2  0     0  0
 36 38  1  0     0  0
 37 30  1  0     0  0
 38 29  2  0     0  0
 39 28  2  0     0  0
 40 27  1  0     0  0
 41 16  2  0     0  0
 42 55  1  0     0  0
 43 22  1  0     0  0
 44 19  1  0     0  0
 45  6  1  0     0  0
 12 46  1  6     0  0
 47 31  1  0     0  0
 48 23  1  0     0  0
 49 52  1  0     0  0
 50 16  1  0     0  0
 51 59  1  0     0  0
 52 34  1  0     0  0
 53 48  1  0     0  0
 54 19  1  0     0  0
 55 58  1  0     0  0
 56 43  1  0     0  0
 57 56  1  0     0  0
 58 60  1  0     0  0
 59 50  2  0     0  0
 60 61  1  0     0  0
 61 57  1  0     0  0
 62 45  2  0     0  0
 63 62  1  0     0  0
 12 20  1  0     0  0
 40 36  2  0     0  0
 54 63  2  0     0  0
  5  2  1  0     0  0
 24 51  2  0     0  0
 35 39  1  0     0  0
M  END