
  SciTegic10301317112D

 27 27  0  0  0  0            999 V2000
    3.3569   -5.7870    0.0000 S   0  0
   11.7660   -8.4341    0.0000 C   0  0  1  0  0  0
   12.1794   -9.1481    0.0000 C   0  0
    6.6555   -5.7744    0.0000 C   0  0
   10.9393   -8.4341    0.0000 N   0  0
    4.1837   -5.7870    0.0000 C   0  0
   10.4508   -7.7703    0.0000 C   0  0
    7.0688   -6.4884    0.0000 N   0  0
    3.3486   -6.6137    0.0000 O   0  0
    3.3569   -4.9603    0.0000 O   0  0
    8.3172   -7.1941    0.0000 C   0  0
    5.8288   -5.7787    0.0000 C   0  0
    2.5302   -5.7787    0.0000 N   0  0
    9.1439   -7.1899    0.0000 N   0  0
   11.7786   -9.8621    0.0000 O   0  0
    7.0646   -5.0521    0.0000 O   0  0
   10.7890   -7.0145    0.0000 O   0  0
    7.9081   -7.9081    0.0000 O   0  0
    4.5845   -5.0730    0.0000 C   0  0
    4.5970   -6.5009    0.0000 C   0  0
    5.4154   -6.4926    0.0000 C   0  0
    5.4029   -5.0647    0.0000 C   0  0
    7.8955   -6.4801    0.0000 C   0  0
    9.6324   -7.8580    0.0000 C   0  0
   13.0061   -9.1356    0.0000 O   0  0
   12.1752   -7.7160    0.0000 C   0  0
   13.0019   -7.7076    0.0000 O   0  0
  2  5  1  0
  3  2  1  0
  4 12  1  0
  5  7  1  0
  6  1  1  0
  7 24  1  0
  8  4  1  0
  9  1  2  0
 10  1  2  0
 11 23  1  0
 12 21  2  0
 13  1  1  0
 14 11  1  0
 15  3  2  0
 16  4  2  0
 17  7  2  0
 18 11  2  0
 19  6  1  0
 20  6  2  0
 21 20  1  0
 22 19  2  0
 23  8  1  0
 24 14  1  0
 25  3  1  0
  2 26  1  1
 27 26  1  0
 22 12  1  0
M  END