
          11280715192D 1   1.00000     0.00000     0

 48 51  0     1  0            999 V2000
    0.4542   -5.5917    0.0000 C   0  0  1  0  0  0           0  0  0
    1.1667   -6.0000    0.0000 C   0  0  1  0  0  0           0  0  0
   -0.2708   -6.0000    0.0000 C   0  0  2  0  0  0           0  0  0
    1.1667   -6.8167    0.0000 C   0  0  2  0  0  0           0  0  0
   -0.2708   -6.8167    0.0000 C   0  0  1  0  0  0           0  0  0
    0.4542   -4.7542    0.0000 C   0  0  0  0  0  0           0  0  0
    0.4542   -7.2375    0.0000 C   0  0  2  0  0  0           0  0  0
    1.8792   -5.5917    0.0000 O   0  0  0  0  0  0           0  0  0
    1.8792   -4.7542    0.0000 C   0  0  2  0  0  0           0  0  0
    1.8792   -7.2375    0.0000 O   0  0  0  0  0  0           0  0  0
    2.5917   -6.8167    0.0000 C   0  0  0  0  0  0           0  0  0
   -0.9875   -7.2375    0.0000 C   0  0  3  0  0  0           0  0  0
    1.1667   -4.3417    0.0000 C   0  0  0  0  0  0           0  0  0
   -0.9875   -5.5917    0.0000 C   0  0  2  0  0  0           0  0  0
    9.0292   -7.3042    0.0000 C   0  0  0  0  0  0           0  0  0
   -0.2708   -4.3417    0.0000 O   0  0  0  0  0  0           0  0  0
    0.4917   -6.3750    0.0000 O   0  0  0  0  0  0           0  0  0
    2.6250   -5.2042    0.0000 C   0  0  0  0  0  0           0  0  0
    2.5917   -5.9792    0.0000 O   0  0  0  0  0  0           0  0  0
   -1.7083   -6.8167    0.0000 C   0  0  0  0  0  0           0  0  0
    9.0250   -8.1292    0.0000 O   0  0  0  0  0  0           0  0  0
   -1.7083   -6.0000    0.0000 C   0  0  0  0  0  0           0  0  0
    1.1667   -5.2167    0.0000 C   0  0  0  0  0  0           0  0  0
    3.3167   -7.2417    0.0000 N   0  0  0  0  0  0           0  0  0
    0.4542   -8.0750    0.0000 O   0  0  0  0  0  0           0  0  0
   -0.2708   -5.1667    0.0000 C   0  0  0  0  0  0           0  0  0
    3.4167   -4.8292    0.0000 C   0  0  0  0  0  0           0  0  0
    8.3250   -6.8875    0.0000 N   0  0  0  0  0  0           0  0  0
    9.7542   -6.9042    0.0000 C   0  0  0  0  0  0           0  0  0
   12.6167   -6.1125    0.0000 C   0  0  0  0  0  0           0  0  0
   11.1792   -6.9167    0.0000 C   0  0  0  0  0  0           0  0  0
   -0.9875   -4.7542    0.0000 O   0  0  0  0  0  0           0  0  0
   10.4542   -7.3250    0.0000 C   0  0  0  0  0  0           0  0  0
   12.6042   -6.9375    0.0000 C   0  0  0  0  0  0           0  0  0
   11.9000   -5.6917    0.0000 C   0  0  0  0  0  0           0  0  0
   11.8875   -7.3417    0.0000 C   0  0  0  0  0  0           0  0  0
   11.1875   -6.0917    0.0000 C   0  0  0  0  0  0           0  0  0
   13.3292   -5.7042    0.0000 O   0  0  0  0  0  0           0  0  0
    2.6042   -4.3292    0.0000 C   0  0  0  0  0  0           0  0  0
   -0.9875   -8.0750    0.0000 C   0  0  0  0  0  0           0  0  0
   -1.6083   -7.6917    0.0000 C   0  0  0  0  0  0           0  0  0
    4.0375   -6.8417    0.0000 C   0  0  0  0  0  0           0  0  0
    7.6042   -7.2917    0.0000 C   0  0  0  0  0  0           0  0  0
    6.8917   -6.8667    0.0000 C   0  0  0  0  0  0           0  0  0
    4.7417   -7.2625    0.0000 C   0  0  0  0  0  0           0  0  0
    5.4667   -6.8542    0.0000 C   0  0  0  0  0  0           0  0  0
    6.1750   -7.2792    0.0000 C   0  0  0  0  0  0           0  0  0
   -0.2708   -7.6292    0.0000 H   0  0  0  0  0  0           0  0  0
  2  1  1  0     0  0
  3  1  1  0     0  0
  4  2  1  0     0  0
  5  3  1  0     0  0
  6  1  1  0     0  0
  7  5  1  0     0  0
  8  2  1  0     0  0
  9 13  1  0     0  0
  4 10  1  1     0  0
 11 10  1  0     0  0
 12  5  1  0     0  0
 13  6  1  0     0  0
 14  3  1  0     0  0
 15 28  1  0     0  0
 16  6  2  0     0  0
  1 17  1  6     0  0
  9 18  1  6     0  0
 19 11  2  0     0  0
 20 22  1  0     0  0
 21 15  2  0     0  0
 22 14  1  0     0  0
  2 23  1  1     0  0
 24 11  1  0     0  0
  7 25  1  1     0  0
  3 26  1  1     0  0
 27 18  2  0     0  0
 28 43  1  0     0  0
 29 15  1  0     0  0
 30 35  1  0     0  0
 31 33  1  0     0  0
 14 32  1  6     0  0
 33 29  1  0     0  0
 34 36  1  0     0  0
 35 37  2  0     0  0
 36 31  2  0     0  0
 37 31  1  0     0  0
 38 30  1  0     0  0
  9 39  1  1     0  0
 12 40  1  0     0  0
 12 41  1  0     0  0
 42 24  1  0     0  0
 43 44  1  0     0  0
 44 47  1  0     0  0
 45 42  1  0     0  0
 46 45  1  0     0  0
 47 46  1  0     0  0
  5 48  1  6     0  0
  9  8  1  0     0  0
  7  4  1  0     0  0
 20 12  1  0     0  0
 30 34  2  0     0  0
M  END