
  SciTegic02011310442D

 19 20  0  0  0  0            999 V2000
    8.9816  -13.1786    0.0000 C   0  0
    8.9804  -14.0059    0.0000 C   0  0
    9.6952  -14.4188    0.0000 C   0  0
   10.4116  -14.0054    0.0000 N   0  0
   10.4087  -13.1750    0.0000 C   0  0
    9.6934  -12.7658    0.0000 C   0  0
    9.6950  -15.2438    0.0000 C   0  0
    9.6871  -16.0661    0.0000 C   0  0
    9.6792  -16.8909    0.0000 C   0  0
    8.9650  -17.2967    0.0000 C   0  0
    8.9552  -18.1180    0.0000 C   0  0
    9.6638  -18.5412    0.0000 C   0  0
   10.3840  -18.1368    0.0000 C   0  0
   10.3955  -17.3093    0.0000 C   0  0
   11.0930  -18.5585    0.0000 N   0  0
    9.6528  -19.3661    0.0000 F   0  0
   11.8128  -18.1553    0.0000 O   0  0
   12.5217  -18.5770    0.0000 C   0  0
   13.2415  -18.1738    0.0000 C   0  0
  1  2  2  0
  2  3  1  0
  3  4  2  0
  4  5  1  0
  5  6  2  0
  6  1  1  0
  3  7  1  0
  7  8  3  0
  8  9  1  0
  9 10  1  0
  9 14  2  0
 10 11  1  0
 11 12  1  0
 12 13  1  0
 13 14  1  0
 13 15  2  0
 12 16  1  0
 15 17  1  0
 17 18  1  0
 18 19  1  0
M  ISO  1  16  18
M  END