
  CDK    9/16/09,9:51

 22 24  0  0  0  0  0  0  0  0999 V2000
   -2.6687   -5.7859    0.0000 C   0  0  0  0  0  0  0  0  0  0  0  0
   -2.6687   -6.6143    0.0000 N   0  0  0  0  0  0  0  0  0  0  0  0
   -1.9550   -7.0263    0.0000 N   0  0  0  0  0  0  0  0  0  0  0  0
   -1.2370   -6.6143    0.0000 C   0  0  0  0  0  0  0  0  0  0  0  0
   -1.9550   -5.3693    0.0000 C   0  0  0  0  0  0  0  0  0  0  0  0
   -1.2378   -5.7802    0.0000 C   0  0  0  0  0  0  0  0  0  0  0  0
   -0.6254   -5.2250    0.0000 C   0  0  0  0  0  0  0  0  0  0  0  0
   -0.9642   -4.4709    0.0000 S   0  0  0  0  0  0  0  0  0  0  0  0
   -1.7860   -4.5602    0.0000 C   0  0  0  0  0  0  0  0  0  0  0  0
   -0.5238   -7.0270    0.0000 O   0  0  0  0  0  0  0  0  0  0  0  0
    0.1812   -5.3935    0.0000 N   0  0  0  0  0  0  0  0  0  0  0  0
   -3.3832   -5.3756    0.0000 C   0  0  0  0  0  0  0  0  0  0  0  0
   -3.3852   -4.5516    0.0000 O   0  0  0  0  0  0  0  0  0  0  0  0
   -4.0957   -5.7893    0.0000 O   0  0  0  0  0  0  0  0  0  0  0  0
   -4.8102   -5.3790    0.0000 C   0  0  0  0  0  0  0  0  0  0  0  0
   -5.5228   -5.7927    0.0000 C   0  0  0  0  0  0  0  0  0  0  0  0
   -1.9582   -7.8467    0.0000 C   0  0  0  0  0  0  0  0  0  0  0  0
   -2.6739   -8.2570    0.0000 C   0  0  0  0  0  0  0  0  0  0  0  0
   -2.6755   -9.0802    0.0000 C   0  0  0  0  0  0  0  0  0  0  0  0
   -1.9620   -9.4940    0.0000 C   0  0  0  0  0  0  0  0  0  0  0  0
   -1.2455   -9.0787    0.0000 C   0  0  0  0  0  0  0  0  0  0  0  0
   -1.2474   -8.2568    0.0000 C   0  0  0  0  0  0  0  0  0  0  0  0
  5  6  1  0  0  0  0 
  7 11  1  0  0  0  0 
  1 12  1  0  0  0  0 
  1  2  2  0  0  0  0 
 12 13  2  0  0  0  0 
  1  5  1  0  0  0  0 
 12 14  1  0  0  0  0 
  2  3  1  0  0  0  0 
 14 15  1  0  0  0  0 
  3  4  1  0  0  0  0 
 15 16  1  0  0  0  0 
  6  7  2  0  0  0  0 
  7  8  1  0  0  0  0 
 17 18  2  0  0  0  0 
  8  9  1  0  0  0  0 
 18 19  1  0  0  0  0 
  9  5  2  0  0  0  0 
 19 20  2  0  0  0  0 
  4  6  1  0  0  0  0 
 20 21  1  0  0  0  0 
  4 10  2  0  0  0  0 
 21 22  2  0  0  0  0 
 22 17  1  0  0  0  0 
  3 17  1  0  0  0  0 
M  END