
  SciTegic02011310402D

228227  0  0  0  0            999 V2000
    7.8125   -9.9417    0.0000 N   0  0
    8.5270   -9.5292    0.0000 C   0  0
    7.0980   -9.5292    0.0000 C   0  0
    7.8125  -10.7667    0.0000 C   0  0
    8.5270  -11.1792    0.0000 C   0  0
    8.5270  -12.0042    0.0000 N   0  0
    9.2414  -12.4167    0.0000 C   0  0
    7.8125  -12.4167    0.0000 C   0  0
    9.2414  -13.2417    0.0000 C   0  0
    9.9559  -13.6542    0.0000 C   0  0
    9.9559  -14.4792    0.0000 N   0  0
   10.6704  -13.2417    0.0000 O   0  0
   10.6704  -14.8917    0.0000 C   0  0
   10.6704  -15.7167    0.0000 C   0  0
   11.3849  -16.1292    0.0000 N   0  0
   11.3849  -16.9542    0.0000 C   0  0
   12.0993  -15.7167    0.0000 C   0  0
   12.8138  -16.1292    0.0000 C   0  0
   13.5283  -15.7167    0.0000 C   0  0
   14.2427  -16.1292    0.0000 N   0  0
   13.5283  -14.8917    0.0000 O   0  0
   14.9572  -15.7167    0.0000 C   0  0
   15.6717  -16.1292    0.0000 C   0  0
   16.3862  -15.7167    0.0000 N   0  0
   17.1006  -16.1292    0.0000 C   0  0
   17.8151  -15.7167    0.0000 C   0  0
   18.5296  -16.1292    0.0000 C   0  0
   19.2440  -15.7167    0.0000 N   0  0
   18.5296  -16.9542    0.0000 O   0  0
   19.9585  -16.1292    0.0000 C   0  0
   20.6730  -15.7167    0.0000 C   0  0
   21.3874  -16.1292    0.0000 N   0  0
   16.3862  -14.8917    0.0000 C   0  0
   17.1006  -14.4792    0.0000 C   0  0
   17.1006  -13.6542    0.0000 C   0  0
   17.8151  -13.2417    0.0000 N   0  0
   16.3861  -13.2417    0.0000 O   0  0
   18.5296  -13.6542    0.0000 C   0  0
   19.2440  -13.2417    0.0000 C   0  0
   19.9585  -13.6542    0.0000 N   0  0
   12.0993  -17.3667    0.0000 C   0  0
   12.0993  -18.1917    0.0000 C   0  0
   12.8138  -18.6042    0.0000 N   0  0
   11.3849  -18.6042    0.0000 O   0  0
   12.8138  -19.4292    0.0000 C   0  0
   13.5283  -19.8417    0.0000 C   0  0
   13.5283  -20.6667    0.0000 N   0  0
   14.2427  -21.0792    0.0000 C   0  0
   12.8138  -21.0792    0.0000 C   0  0
   14.2427  -21.9042    0.0000 C   0  0
   14.9572  -22.3167    0.0000 C   0  0
   14.9572  -23.1417    0.0000 N   0  0
   15.6717  -21.9042    0.0000 O   0  0
   15.6717  -23.5542    0.0000 C   0  0
   15.6717  -24.3792    0.0000 C   0  0
   16.3861  -24.7917    0.0000 N   0  0
   12.8138  -21.9042    0.0000 C   0  0
   12.0993  -22.3167    0.0000 C   0  0
   12.0993  -23.1417    0.0000 N   0  0
   11.3849  -21.9042    0.0000 O   0  0
   11.3849  -23.5542    0.0000 C   0  0
   11.3849  -24.3792    0.0000 C   0  0
   10.6704  -24.7917    0.0000 N   0  0
    7.8125  -13.2417    0.0000 C   0  0
    7.0980  -13.6542    0.0000 C   0  0
    7.0980  -14.4792    0.0000 N   0  0
    6.3836  -13.2417    0.0000 O   0  0
    6.3836  -14.8917    0.0000 C   0  0
    6.3836  -15.7167    0.0000 C   0  0
    5.6691  -16.1292    0.0000 N   0  0
    5.6691  -16.9542    0.0000 C   0  0
    4.9546  -17.3667    0.0000 C   0  0
    4.9546  -18.1917    0.0000 C   0  0
    4.2401  -18.6042    0.0000 N   0  0
    5.6691  -18.6042    0.0000 O   0  0
    4.2401  -19.4292    0.0000 C   0  0
    3.5257  -19.8417    0.0000 C   0  0
    3.5257  -20.6667    0.0000 N   0  0
    2.8112  -21.0792    0.0000 C   0  0
    4.2401  -21.0792    0.0000 C   0  0
    4.2401  -21.9042    0.0000 C   0  0
    4.9546  -22.3167    0.0000 C   0  0
    4.9546  -23.1417    0.0000 N   0  0
    5.6691  -21.9042    0.0000 O   0  0
    5.6691  -23.5542    0.0000 C   0  0
    5.6691  -24.3792    0.0000 C   0  0
    6.3836  -24.7917    0.0000 N   0  0
    2.8112  -21.9042    0.0000 C   0  0
    2.0967  -22.3167    0.0000 C   0  0
    2.0967  -23.1417    0.0000 N   0  0
    1.3823  -21.9042    0.0000 O   0  0
    1.3823  -23.5542    0.0000 C   0  0
    1.3823  -24.3792    0.0000 C   0  0
    0.6678  -24.7917    0.0000 N   0  0
    4.9546  -15.7167    0.0000 C   0  0
    4.2401  -16.1292    0.0000 C   0  0
    3.5257  -15.7167    0.0000 C   0  0
    2.8112  -16.1292    0.0000 N   0  0
    3.5257  -14.8917    0.0000 O   0  0
    2.0967  -15.7167    0.0000 C   0  0
    1.3823  -16.1292    0.0000 C   0  0
    0.6678  -15.7167    0.0000 N   0  0
   -0.0467  -16.1292    0.0000 C   0  0
    0.6678  -14.8917    0.0000 C   0  0
   -0.0467  -14.4792    0.0000 C   0  0
   -0.0467  -13.6542    0.0000 C   0  0
   -0.7612  -13.2417    0.0000 N   0  0
    0.6678  -13.2417    0.0000 O   0  0
   -0.7612  -12.4167    0.0000 C   0  0
   -1.4910  -11.9993    0.0000 C   0  0
   -1.4939  -11.1743    0.0000 N   0  0
   -0.7612  -15.7167    0.0000 C   0  0
   -1.4756  -16.1292    0.0000 C   0  0
   -2.1901  -15.7167    0.0000 N   0  0
   -1.4756  -16.9542    0.0000 O   0  0
   -2.9046  -16.1292    0.0000 C   0  0
   -3.6190  -15.7167    0.0000 C   0  0
   -4.3335  -16.1292    0.0000 N   0  0
    8.5270   -8.7042    0.0000 C   0  0
    9.2414   -8.2917    0.0000 C   0  0
    9.2414   -7.4667    0.0000 N   0  0
    9.9559   -8.7042    0.0000 O   0  0
    9.9559   -7.0542    0.0000 C   0  0
    9.9559   -6.2292    0.0000 C   0  0
   10.6704   -5.8167    0.0000 N   0  0
   10.6704   -4.9917    0.0000 C   0  0
   11.3849   -6.2292    0.0000 C   0  0
   12.0993   -5.8167    0.0000 C   0  0
   12.8138   -6.2292    0.0000 C   0  0
   13.5283   -5.8167    0.0000 N   0  0
   12.8138   -7.0542    0.0000 O   0  0
   14.2427   -6.2292    0.0000 C   0  0
   14.9572   -5.8167    0.0000 C   0  0
   15.6717   -6.2292    0.0000 N   0  0
   16.3862   -5.8167    0.0000 C   0  0
   17.1006   -6.2292    0.0000 C   0  0
   17.8151   -5.8167    0.0000 C   0  0
   18.5296   -6.2292    0.0000 N   0  0
   17.8151   -4.9917    0.0000 O   0  0
   19.2440   -5.8167    0.0000 C   0  0
   19.9585   -6.2292    0.0000 C   0  0
   20.6730   -5.8167    0.0000 N   0  0
   15.6717   -7.0542    0.0000 C   0  0
   16.3862   -7.4667    0.0000 C   0  0
   16.3862   -8.2917    0.0000 C   0  0
   17.1006   -8.7042    0.0000 N   0  0
   15.6717   -8.7042    0.0000 O   0  0
   17.1006   -9.5292    0.0000 C   0  0
   17.8151   -9.9417    0.0000 C   0  0
   17.8151  -10.7667    0.0000 N   0  0
   11.3849   -4.5792    0.0000 C   0  0
   11.3849   -3.7542    0.0000 C   0  0
   12.0993   -3.3417    0.0000 N   0  0
   10.6704   -3.3417    0.0000 O   0  0
   12.0993   -2.5167    0.0000 C   0  0
   12.8138   -2.1042    0.0000 C   0  0
   12.8138   -1.2792    0.0000 N   0  0
   13.5283   -0.8667    0.0000 C   0  0
   12.0993   -0.8667    0.0000 C   0  0
   13.5283   -0.0417    0.0000 C   0  0
   14.2427    0.3708    0.0000 C   0  0
   14.2427    1.1958    0.0000 N   0  0
   14.9572   -0.0417    0.0000 O   0  0
   14.9572    1.6083    0.0000 C   0  0
   14.9572    2.4333    0.0000 C   0  0
   15.6717    2.8458    0.0000 N   0  0
   12.0993   -0.0417    0.0000 C   0  0
   11.3848    0.3708    0.0000 C   0  0
   11.3848    1.1958    0.0000 N   0  0
   10.6704   -0.0417    0.0000 O   0  0
   10.6704    1.6083    0.0000 C   0  0
   10.6704    2.4333    0.0000 C   0  0
    9.9559    2.8458    0.0000 N   0  0
    7.0980   -8.7042    0.0000 C   0  0
    6.3836   -8.2917    0.0000 C   0  0
    6.3836   -7.4667    0.0000 N   0  0
    5.6691   -8.7042    0.0000 O   0  0
    5.6691   -7.0542    0.0000 C   0  0
    5.6691   -6.2292    0.0000 C   0  0
    4.9546   -5.8167    0.0000 N   0  0
    4.9546   -4.9917    0.0000 C   0  0
    4.2401   -6.2292    0.0000 C   0  0
    3.5257   -5.8167    0.0000 C   0  0
    2.8112   -6.2292    0.0000 C   0  0
    2.0967   -5.8167    0.0000 N   0  0
    2.8112   -7.0542    0.0000 O   0  0
    1.3823   -6.2292    0.0000 C   0  0
    0.6678   -5.8167    0.0000 C   0  0
   -0.0467   -6.2292    0.0000 N   0  0
   -0.7612   -5.8167    0.0000 C   0  0
   -0.0467   -7.0542    0.0000 C   0  0
   -0.7612   -7.4667    0.0000 C   0  0
   -0.7612   -8.2917    0.0000 C   0  0
   -1.4756   -8.7042    0.0000 N   0  0
   -0.0467   -8.7042    0.0000 O   0  0
   -2.1901   -8.2917    0.0000 C   0  0
   -2.9046   -8.7042    0.0000 C   0  0
   -3.6190   -8.2917    0.0000 N   0  0
   -1.4756   -6.2292    0.0000 C   0  0
   -2.1901   -5.8167    0.0000 C   0  0
   -2.9046   -6.2292    0.0000 N   0  0
   -2.1901   -4.9917    0.0000 O   0  0
   -3.6190   -5.8167    0.0000 C   0  0
   -4.3335   -6.2292    0.0000 C   0  0
   -5.0480   -5.8167    0.0000 N   0  0
    4.2401   -4.5792    0.0000 C   0  0
    4.2401   -3.7542    0.0000 C   0  0
    3.5257   -3.3417    0.0000 N   0  0
    4.9546   -3.3417    0.0000 O   0  0
    3.5257   -2.5167    0.0000 C   0  0
    2.8112   -2.1042    0.0000 C   0  0
    2.8112   -1.2792    0.0000 N   0  0
    2.0967   -0.8667    0.0000 C   0  0
    3.5257   -0.8667    0.0000 C   0  0
    3.5257   -0.0417    0.0000 C   0  0
    2.0967   -0.0417    0.0000 C   0  0
    4.2401    0.3708    0.0000 C   0  0
    4.2401    1.1958    0.0000 N   0  0
    4.9546   -0.0417    0.0000 O   0  0
    4.9546    1.6083    0.0000 C   0  0
    4.9546    2.4333    0.0000 C   0  0
    5.6691    2.8458    0.0000 N   0  0
    1.3823    0.3708    0.0000 C   0  0
    1.3823    1.1958    0.0000 N   0  0
    0.6678   -0.0417    0.0000 O   0  0
    0.6678    1.6083    0.0000 C   0  0
    0.6678    2.4333    0.0000 C   0  0
   -0.0467    2.8458    0.0000 N   0  0
 27 29  2  0
113115  2  0
 57 58  1  0
114116  1  0
 14 15  1  0
116117  1  0
 58 59  1  0
117118  1  0
 28 30  1  0
  2119  1  0
 58 60  2  0
119120  1  0
  6  8  1  0
120121  1  0
 59 61  1  0
120122  2  0
 30 31  1  0
121123  1  0
 61 62  1  0
123124  1  0
 15 16  1  0
124125  1  0
 62 63  1  0
125126  1  0
 31 32  1  0
125127  1  0
  8 64  1  0
127128  1  0
128129  1  0
 64 65  1  0
129130  1  0
 24 33  1  0
129131  2  0
 65 66  1  0
130132  1  0
 15 17  1  0
132133  1  0
 65 67  2  0
133134  1  0
 33 34  1  0
134135  1  0
 66 68  1  0
135136  1  0
  7  9  1  0
136137  1  0
 68 69  1  0
137138  1  0
 34 35  1  0
137139  2  0
 69 70  1  0
138140  1  0
 17 18  1  0
140141  1  0
 70 71  1  0
141142  1  0
 35 36  1  0
134143  1  0
 71 72  1  0
143144  1  0
  4  5  1  0
144145  1  0
 72 73  1  0
145146  1  0
 35 37  2  0
145147  2  0
 73 74  1  0
146148  1  0
 18 19  1  0
148149  1  0
 73 75  2  0
149150  1  0
 36 38  1  0
126151  1  0
 74 76  1  0
151152  1  0
  9 10  1  0
152153  1  0
 76 77  1  0
152154  2  0
 38 39  1  0
153155  1  0
 77 78  1  0
155156  1  0
 19 20  1  0
156157  1  0
 78 79  1  0
157158  1  0
 39 40  1  0
157159  1  0
 78 80  1  0
158160  1  0
  1  3  1  0
160161  1  0
 80 81  1  0
161162  1  0
 16 41  1  0
161163  2  0
 81 82  1  0
162164  1  0
 19 21  2  0
164165  1  0
 82 83  1  0
165166  1  0
 41 42  1  0
159167  1  0
 82 84  2  0
167168  1  0
 10 11  1  0
168169  1  0
 83 85  1  0
168170  2  0
 42 43  1  0
169171  1  0
 85 86  1  0
171172  1  0
 20 22  1  0
172173  1  0
 86 87  1  0
  3174  1  0
 42 44  2  0
174175  1  0
 79 88  1  0
175176  1  0
  5  6  1  0
175177  2  0
 88 89  1  0
176178  1  0
 43 45  1  0
178179  1  0
 89 90  1  0
179180  1  0
 22 23  1  0
180181  1  0
 89 91  2  0
180182  1  0
 45 46  1  0
182183  1  0
 90 92  1  0
183184  1  0
 10 12  2  0
184185  1  0
 92 93  1  0
184186  2  0
 46 47  1  0
185187  1  0
 93 94  1  0
187188  1  0
 23 24  1  0
188189  1  0
 70 95  1  0
189190  1  0
 47 48  1  0
189191  1  0
 95 96  1  0
191192  1  0
  1  2  1  0
192193  1  0
 96 97  1  0
193194  1  0
 47 49  1  0
193195  2  0
 97 98  1  0
194196  1  0
 24 25  1  0
196197  1  0
 97 99  2  0
197198  1  0
 48 50  1  0
190199  1  0
 98100  1  0
199200  1  0
 11 13  1  0
200201  1  0
100101  1  0
200202  2  0
 50 51  1  0
201203  1  0
101102  1  0
203204  1  0
 25 26  1  0
204205  1  0
102103  1  0
181206  1  0
 51 52  1  0
206207  1  0
102104  1  0
207208  1  0
  6  7  1  0
207209  2  0
104105  1  0
208210  1  0
 51 53  2  0
210211  1  0
105106  1  0
211212  1  0
 26 27  1  0
212213  1  0
106107  1  0
212214  1  0
 52 54  1  0
214215  1  0
106108  2  0
213216  1  0
 13 14  1  0
215217  1  0
107109  1  0
217218  1  0
 54 55  1  0
217219  2  0
109110  1  0
218220  1  0
 27 28  1  0
220221  1  0
110111  1  0
221222  1  0
 55 56  1  0
216223  1  0
103112  1  0
223224  1  0
  1  4  1  0
223225  2  0
112113  1  0
224226  1  0
 49 57  1  0
226227  1  0
113114  1  0
227228  1  0
M  END