
  SciTegic05221516342D

 27 30  0  0  0  0            999 V2000
   27.8344  -12.6865    0.0000 C   0  0
   28.5435  -13.0951    0.0000 C   0  0
   27.8344  -11.8693    0.0000 N   0  0
   29.2526  -12.6865    0.0000 N   0  0
   29.2526  -11.8693    0.0000 C   0  0
   28.5435  -11.4607    0.0000 C   0  0
   27.0613  -12.9411    0.0000 N   0  0
   26.5771  -12.2779    0.0000 C   0  0
   27.0613  -11.6187    0.0000 C   0  0
   26.8067  -10.8415    0.0000 N   0  0
   25.7599  -12.2779    0.0000 C   0  0
   25.3513  -12.9869    0.0000 C   0  0
   24.5341  -12.9869    0.0000 C   0  0
   24.1255  -12.2779    0.0000 C   0  0
   24.5341  -11.5688    0.0000 C   0  0
   25.3513  -11.5688    0.0000 C   0  0
   22.0509  -12.6865    0.0000 O   0  0
   22.0509  -11.8693    0.0000 N   0  0
   22.8281  -11.6187    0.0000 C   0  0
   23.3083  -12.2779    0.0000 C   0  0
   22.8281  -12.9411    0.0000 C   0  0
   23.0828  -13.7184    0.0000 C   0  0
   23.0828  -10.8415    0.0000 C   0  0
   27.3545  -10.2350    0.0000 C   0  0
   27.3545   -9.4178    0.0000 C   0  0
   27.9023   -9.6286    0.0000 C   0  0
   28.1419  -10.4441    0.0000 C   0  0
  1  2  1  0
  1  3  1  0
  2  4  2  0
  4  5  1  0
  5  6  2  0
  3  6  1  0
  7  8  1  0
  8  9  2  0
  3  9  1  0
  1  7  2  0
  9 10  1  0
 11 12  1  0
 12 13  2  0
 13 14  1  0
 14 15  2  0
 15 16  1  0
 11 16  2  0
 17 18  1  0
 18 19  2  0
 19 20  1  0
 20 21  2  0
 17 21  1  0
 21 22  1  0
 19 23  1  0
 14 20  1  0
  8 11  1  0
 24 25  1  0
 24 27  1  0
 24 26  1  0
 10 24  1  0
M  END