
  SciTegic02231516322D

 26 25  0  0  0  0            999 V2000
   14.0028   -9.3501    0.0000 C   0  0
   14.0017  -10.1774    0.0000 C   0  0
   14.7165  -10.5903    0.0000 C   0  0
   15.4330  -10.1769    0.0000 C   0  0
   15.4301   -9.3464    0.0000 C   0  0
   14.7147   -8.9373    0.0000 C   0  0
   16.1481  -10.5883    0.0000 O   0  0
   16.1430   -8.9312    0.0000 O   0  0
   16.8590   -9.3410    0.0000 C   0  0
   17.5720   -8.9259    0.0000 C   0  0
   18.2879   -9.3356    0.0000 C   0  0
   17.5688   -8.1008    0.0000 O   0  0
   16.8619  -10.1747    0.0000 C   0  0
   17.5770  -10.5861    0.0000 C   0  0
   17.5783  -11.4111    0.0000 O   0  0
   18.2911  -10.1606    0.0000 C   0  0
   19.0009   -8.9204    0.0000 N   0  0
   19.0112  -10.5633    0.0000 N   0  0
   19.0225  -11.3882    0.0000 C   0  0
   19.7425  -11.7909    0.0000 C   0  0
   18.3138  -11.8105    0.0000 C   0  0
   19.7170   -9.3303    0.0000 C   0  0
   20.4298   -8.9150    0.0000 C   0  0
   19.7200  -10.1552    0.0000 C   0  0
   13.2869  -10.5893    0.0000 C   0  0
   22.0702  -11.0818    0.0000 Cl  0  0
  1  2  2  0
  2  3  1  0
  3  4  2  0
  4  5  1  0
  5  6  2  0
  6  1  1  0
  4  7  1  0
  5  8  1  0
  8  9  1  0
  9 10  1  0
 10 11  1  0
 10 12  1  0
  7 13  1  0
 13 14  1  0
 14 16  1  0
 14 15  1  0
 11 17  1  0
 16 18  1  0
 18 19  1  0
 19 20  1  0
 19 21  1  0
 17 22  1  0
 22 23  1  0
 22 24  1  0
  2 25  1  0
M  END