
  SciTegic04091415032D

 38 41  0  0  0  0            999 V2000
    4.9097  -23.7347    0.0000 C   0  0
    4.9086  -24.5624    0.0000 C   0  0
    5.6243  -24.9776    0.0000 C   0  0
    5.6226  -23.3237    0.0000 C   0  0
    6.3348  -23.7310    0.0000 C   0  0
    6.3355  -24.5583    0.0000 C   0  0
    7.0518  -24.9715    0.0000 N   0  0
    7.7677  -24.5545    0.0000 C   0  0
    7.7630  -23.7241    0.0000 C   0  0
    7.0461  -23.3187    0.0000 C   0  0
    4.1983  -23.3199    0.0000 C   0  0
    7.0418  -22.4932    0.0000 C   0  0
    7.7550  -22.0748    0.0000 O   0  0
    6.3242  -22.0823    0.0000 O   0  0
    8.4847  -24.9665    0.0000 C   0  0
    8.4879  -25.7919    0.0000 N   0  0
    9.1986  -24.5489    0.0000 O   0  0
    9.2049  -26.1999    0.0000 C   0  0  2  0  0  0
    9.2081  -27.0253    0.0000 C   0  0
    9.9187  -25.7864    0.0000 C   0  0
   10.6358  -26.1943    0.0000 C   0  0
    9.9251  -27.4374    0.0000 O   0  0
    8.4943  -27.4429    0.0000 O   0  0
    9.9283  -28.2628    0.0000 C   0  0
   10.6358  -27.0168    0.0000 C   0  0
   11.3519  -27.4287    0.0000 C   0  0
   12.0626  -27.0111    0.0000 C   0  0
   12.0568  -26.1815    0.0000 C   0  0
   11.3442  -25.7774    0.0000 C   0  0
   12.7802  -27.4222    0.0000 O   0  0
    3.4868  -23.7247    0.0000 C   0  0
    2.7730  -23.3113    0.0000 C   0  0
    2.7810  -22.4888    0.0000 C   0  0
    2.0680  -22.0714    0.0000 C   0  0
    1.3500  -22.4836    0.0000 C   0  0
    1.3495  -23.3132    0.0000 C   0  0
    2.0632  -23.7228    0.0000 C   0  0
    0.6428  -22.0642    0.0000 Cl  0  0
  1  2  2  0
  2  3  1  0
  3  6  2  0
  5  4  2  0
  4  1  1  0
  5  6  1  0
  6  7  1  0
  7  8  2  0
  8  9  1  0
  9 10  2  0
 10  5  1  0
  1 11  1  0
 10 12  1  0
 12 13  2  0
 12 14  1  0
  8 15  1  0
 15 16  1  0
 15 17  2  0
 16 18  1  0
 18 19  1  1
 18 20  1  0
 20 21  1  0
 19 22  1  0
 19 23  2  0
 22 24  1  0
 21 25  2  0
 25 26  1  0
 26 27  2  0
 27 28  1  0
 28 29  2  0
 29 21  1  0
 27 30  1  0
 31 11  2  0
 31 32  1  0
 32 33  2  0
 33 34  1  0
 34 35  2  0
 35 36  1  0
 36 37  2  0
 37 32  1  0
 35 38  1  0
M  END