
  SciTegic12231509382D

 21 23  0  0  0  0            999 V2000
    1.7138   -1.2033    0.0000 C   0  0
    2.1852   -2.6281    0.0000 C   0  0
    0.2917    0.7475    0.0000 C   0  0
    1.2071   -3.7498    0.0000 N   0  0
    0.2917   -0.7475    0.0000 C   0  0
    1.7138    1.2033    0.0000 N   0  0
    3.5643   -3.1717    0.0000 C   0  0
    2.5889    0.0182    0.0000 C   0  0
    3.4539   -4.6676    0.0000 C   0  0
    1.9971   -5.0249    0.0000 C   0  0
   -1.0028    1.5132    0.0000 C   0  0
   -2.3155    0.7475    0.0000 N   0  0
   -1.0028   -1.5132    0.0000 N   0  0
   -2.3155   -0.7475    0.0000 C   0  0
    4.5805   -2.5334    0.0000 O   0  0
   -0.9991    2.7132    0.0000 N   0  0
    4.3702   -5.4425    0.0000 O   0  0
    1.4277   -6.4107    0.0000 C   0  0
   -0.0596   -6.6118    0.0000 S   0  0
   -0.6301   -7.9999    0.0000 C   0  0
   -1.8193   -8.1607    0.0000 C   0  0
  1  2  1  0
  2  4  1  0
  1  5  1  0
  3  5  2  0
  3  6  1  0
  2  7  1  0
  1  8  2  0
  6  8  1  0
  7  9  1  0
  4 10  1  0
  9 10  1  0
  3 11  1  0
 11 12  2  0
  5 13  1  0
 12 14  1  0
 13 14  2  0
  7 15  1  0
 11 16  1  0
  9 17  1  0
 10 18  1  0
 18 19  1  0
 19 20  1  0
 20 21  1  0
M  END