
  SciTegic01161211252D

 40 41  0  0  0  0            999 V2000
    5.2608  -14.0675    0.0000 Na  0  3
    0.8664  -13.7363    0.0000 C   0  0  1  0  0  0
    0.8664  -14.5645    0.0000 C   0  0  2  0  0  0
    1.5777  -14.9744    0.0000 C   0  0  2  0  0  0
    2.2932  -14.5645    0.0000 C   0  0
    2.2932  -13.7363    0.0000 C   0  0  2  0  0  0
    1.5777  -13.3179    0.0000 O   0  0
    3.0046  -14.1525    0.0000 O   0  0
    2.6982  -13.0220    0.0000 C   0  0
    3.5265  -13.0107    0.0000 O   0  0
    2.2806  -12.3085    0.0000 O   0  5
    0.1495  -13.3274    0.0000 C   0  0  1  0  0  0
   -0.5679  -13.7426    0.0000 C   0  0  2  0  0  0
   -1.9951  -14.5778    0.0000 C   0  0
   -2.7125  -14.9930    0.0000 C   0  0
   -1.9987  -13.7496    0.0000 O   0  0
   -3.4243  -14.5785    0.0000 C   0  0
   -4.1409  -14.9927    0.0000 C   0  0
   -4.1380  -15.8223    0.0000 C   0  0
   -3.4135  -16.2308    0.0000 C   0  0
   -2.7054  -15.8131    0.0000 C   0  0
   -0.5679  -14.5677    0.0000 C   0  0
    0.1533  -15.8012    0.0000 C   0  0
   -0.5609  -16.2147    0.0000 O   0  0
    0.8734  -16.2116    0.0000 C   0  0
    0.8451  -12.9125    0.0000 H   0  0
    2.9999  -14.9765    0.0000 C   0  0
    3.7112  -15.3927    0.0000 C   0  0
    3.7019  -16.2155    0.0000 C   0  0
    4.4123  -16.6316    0.0000 C   0  0
    5.1293  -16.2236    0.0000 C   0  0
    5.1315  -15.3953    0.0000 C   0  0
    4.4204  -14.9829    0.0000 C   0  0
   -4.8488  -16.2391    0.0000 Cl  0  0
    5.8412  -16.6388    0.0000 F   0  0
    0.1492  -12.4973    0.0000 O   0  0
   -1.2825  -13.3283    0.0000 O   0  0
   -1.2786  -14.9867    0.0000 N   0  0
    1.5811  -15.7966    0.0000 O   0  0
    0.1515  -14.9762    0.0000 N   0  0
 12 13  1  0
 13 22  1  0
 14 15  1  0
 14 16  2  0
 15 17  2  0
 17 18  1  0
 18 19  2  0
 19 20  1  0
 20 21  2  0
 21 15  1  0
 23 24  2  0
 23 25  1  0
  2 26  1  1
  8 27  1  0
 27 28  1  0
  2  3  1  0
 28 29  2  0
  2  7  1  0
 29 30  1  0
  3  4  1  0
 30 31  2  0
  4  5  1  0
 31 32  1  0
  5  6  1  0
 32 33  2  0
 33 28  1  0
  6  7  1  0
 19 34  1  0
  6  8  1  0
 31 35  1  0
  6  9  1  1
  9 10  2  0
  9 11  1  0
  2 12  1  0
 13 37  1  1
 22 38  1  0
 38 14  1  0
 12 36  1  6
  4 39  1  6
  3 40  1  1
 40 23  1  0
M  CHG  2   1   1  11  -1
M  END