
  SciTegic04091415032D

 38 41  0  0  0  0            999 V2000
   11.3072  -10.7184    0.0000 C   0  0
   11.3060  -11.5420    0.0000 C   0  0
   12.0182  -11.9551    0.0000 C   0  0
   12.0164  -10.3095    0.0000 C   0  0
   12.7250  -10.7148    0.0000 C   0  0
   12.7258  -11.5379    0.0000 C   0  0
   13.4385  -11.9491    0.0000 N   0  0
   14.1509  -11.5342    0.0000 C   0  0
   14.1461  -10.7079    0.0000 C   0  0
   13.4329  -10.3045    0.0000 C   0  0
   10.5993  -10.3057    0.0000 C   0  0
   13.4286   -9.4832    0.0000 C   0  0
   14.1382   -9.0668    0.0000 O   0  0
   12.7146   -9.0743    0.0000 O   0  0
   14.8643  -11.9441    0.0000 C   0  0
   14.8675  -12.7654    0.0000 N   0  0
   15.5745  -11.5287    0.0000 O   0  0
   15.5809  -13.1713    0.0000 C   0  0  2  0  0  0
   15.5840  -13.9926    0.0000 C   0  0
   16.2911  -12.7599    0.0000 C   0  0
   17.0045  -13.1658    0.0000 C   0  0
   16.2975  -14.4026    0.0000 O   0  0
   14.8738  -14.4081    0.0000 O   0  0
   16.3006  -15.2239    0.0000 C   0  0
   17.0046  -13.9841    0.0000 C   0  0
   17.7172  -14.3940    0.0000 C   0  0
   18.4243  -13.9785    0.0000 C   0  0
   18.4185  -13.1530    0.0000 C   0  0
   17.7094  -12.7509    0.0000 C   0  0
   19.1382  -14.3875    0.0000 O   0  0
    9.8914  -10.7085    0.0000 C   0  0
    9.1811  -10.2972    0.0000 C   0  0
    9.1891   -9.4788    0.0000 C   0  0
    8.4796   -9.0635    0.0000 C   0  0
    7.7653   -9.4736    0.0000 C   0  0
    7.7648  -10.2991    0.0000 C   0  0
    8.4748  -10.7066    0.0000 C   0  0
    7.0615   -9.0563    0.0000 Cl  0  0
  1  2  2  0
  2  3  1  0
  3  6  2  0
  5  4  2  0
  4  1  1  0
  5  6  1  0
  6  7  1  0
  7  8  2  0
  8  9  1  0
  9 10  2  0
 10  5  1  0
  1 11  1  0
 10 12  1  0
 12 13  2  0
 12 14  1  0
  8 15  1  0
 15 16  1  0
 15 17  2  0
 16 18  1  0
 18 19  1  1
 18 20  1  0
 20 21  1  0
 19 22  1  0
 19 23  2  0
 22 24  1  0
 21 25  2  0
 25 26  1  0
 26 27  2  0
 27 28  1  0
 28 29  2  0
 29 21  1  0
 27 30  1  0
 31 11  1  0
 31 32  1  0
 32 33  2  0
 33 34  1  0
 34 35  2  0
 35 36  1  0
 36 37  2  0
 37 32  1  0
 35 38  1  0
M  END