
          11280715182D 1   1.00000     0.00000     0

 25 27  0     0  0            999 V2000
    3.6292   -6.0167    0.0000 C   0  0  0  0  0  0           0  0  0
    3.6292   -6.8375    0.0000 C   0  0  0  0  0  0           0  0  0
    4.3375   -5.6042    0.0000 C   0  0  0  0  0  0           0  0  0
    5.0500   -6.0125    0.0000 C   0  0  0  0  0  0           0  0  0
    4.3417   -7.2500    0.0000 C   0  0  0  0  0  0           0  0  0
    2.9167   -5.6000    0.0000 C   0  0  3  0  0  0           0  0  0
    2.9167   -7.2500    0.0000 C   0  0  3  0  0  0           0  0  0
    8.6125   -7.2292    0.0000 C   0  0  0  0  0  0           0  0  0
    5.0500   -6.8292    0.0000 C   0  0  0  0  0  0           0  0  0
    5.7542   -5.5917    0.0000 O   0  0  0  0  0  0           0  0  0
    7.8917   -6.8250    0.0000 C   0  0  0  0  0  0           0  0  0
    2.2042   -6.8417    0.0000 C   0  0  0  0  0  0           0  0  0
    2.2042   -6.0167    0.0000 C   0  0  0  0  0  0           0  0  0
    8.6125   -8.0542    0.0000 O   0  0  0  0  0  0           0  0  0
    7.1792   -7.2375    0.0000 C   0  0  0  0  0  0           0  0  0
    7.8875   -6.0000    0.0000 C   0  0  0  0  0  0           0  0  0
    6.4750   -6.0042    0.0000 C   0  0  0  0  0  0           0  0  0
    9.3250   -6.8167    0.0000 O   0  0  0  0  0  0           0  0  0
    7.1792   -5.5917    0.0000 C   0  0  0  0  0  0           0  0  0
    6.4750   -6.8292    0.0000 C   0  0  0  0  0  0           0  0  0
    3.6292   -5.1792    0.0000 C   0  0  0  0  0  0           0  0  0
    2.1917   -5.1875    0.0000 C   0  0  0  0  0  0           0  0  0
    2.1917   -7.6542    0.0000 C   0  0  0  0  0  0           0  0  0
    3.6292   -7.6625    0.0000 C   0  0  0  0  0  0           0  0  0
    5.7625   -7.2417    0.0000 C   0  0  0  0  0  0           0  0  0
  2  1  2  0     0  0
  3  1  1  0     0  0
  4  3  2  0     0  0
  5  2  1  0     0  0
  6  1  1  0     0  0
  7  2  1  0     0  0
  8 11  1  0     0  0
  9  4  1  0     0  0
 10  4  1  0     0  0
 11 15  2  0     0  0
 12 13  1  0     0  0
 13  6  1  0     0  0
 14  8  2  0     0  0
 15 20  1  0     0  0
 16 19  2  0     0  0
 17 10  1  0     0  0
 18  8  1  0     0  0
 19 17  1  0     0  0
 20 17  2  0     0  0
 21  6  1  0     0  0
 22  6  1  0     0  0
 23  7  1  0     0  0
 24  7  1  0     0  0
 25  9  1  0     0  0
 12  7  1  0     0  0
  5  9  2  0     0  0
 16 11  1  0     0  0
M  END