
          11280715342D 1   1.00000     0.00000     0

 17 17  0     0  0            999 V2000
    2.2167   -8.6500    0.0000 C   0  0  3  0  0  0           0  0  0
    2.9292   -8.2375    0.0000 C   0  0  0  0  0  0           0  0  0
    5.7875   -9.0625    0.0000 C   0  0  0  0  0  0           0  0  0
    5.0667   -8.6500    0.0000 C   0  0  0  0  0  0           0  0  0
    3.6417   -8.6500    0.0000 N   0  0  3  0  0  0           0  0  0
    7.2167   -9.0625    0.0000 N   0  0  3  0  0  0           0  0  0
    2.9292   -7.4125    0.0000 O   0  0  0  0  0  0           0  0  0
    1.5667   -9.0250    0.0000 F   0  0  0  0  0  0           0  0  0
    1.4042   -8.3417    0.0000 F   0  0  0  0  0  0           0  0  0
    2.0792   -9.5000    0.0000 F   0  0  0  0  0  0           0  0  0
    6.5000   -9.4750    0.0000 C   0  0  0  0  0  0           0  0  0
    4.3542   -8.2375    0.0000 C   0  0  0  0  0  0           0  0  0
    7.9667   -9.3917    0.0000 C   0  0  0  0  0  0           0  0  0
    7.3042   -8.2417    0.0000 C   0  0  0  0  0  0           0  0  0
    3.6417   -9.4750    0.0000 C   0  0  0  0  0  0           0  0  0
    8.5167   -8.7667    0.0000 C   0  0  0  0  0  0           0  0  0
    8.1042   -8.0667    0.0000 C   0  0  0  0  0  0           0  0  0
  2  1  1  0     0  0
  3  4  3  0     0  0
  4 12  1  0     0  0
  5  2  1  0     0  0
  6 11  1  0     0  0
  7  2  2  0     0  0
  8  1  1  0     0  0
  9  1  1  0     0  0
 10  1  1  0     0  0
 11  3  1  0     0  0
 12  5  1  0     0  0
 13  6  1  0     0  0
 14  6  1  0     0  0
 15  5  1  0     0  0
 16 13  1  0     0  0
 17 14  1  0     0  0
 16 17  1  0     0  0
M  END