
          11280715332D 1   1.00000     0.00000     0

 35 39  0     0  0            999 V2000
    4.1042   -3.1167    0.0000 N   0  0  3  0  0  0           0  0  0
    5.5250   -3.1250    0.0000 C   0  0  3  0  0  0           0  0  0
    4.0917   -2.2917    0.0000 C   0  0  0  0  0  0           0  0  0
    8.6667   -2.1042    0.0000 C   0  0  3  0  0  0           0  0  0
    7.6625   -2.6917    0.0000 N   0  0  3  0  0  0           0  0  0
    9.3792   -1.6875    0.0000 N   0  0  3  0  0  0           0  0  0
    4.8167   -3.5292    0.0000 C   0  0  0  0  0  0           0  0  0
    5.5167   -3.9500    0.0000 C   0  0  0  0  0  0           0  0  0
    8.4625   -2.9042    0.0000 C   0  0  0  0  0  0           0  0  0
    7.8667   -1.9000    0.0000 C   0  0  0  0  0  0           0  0  0
    6.2167   -5.1875    0.0000 C   0  0  0  0  0  0           0  0  0
    6.2250   -4.3625    0.0000 C   0  0  0  0  0  0           0  0  0
    3.3917   -3.5292    0.0000 C   0  0  0  0  0  0           0  0  0
    5.5000   -5.5917    0.0000 C   0  0  0  0  0  0           0  0  0
    5.5292   -2.2917    0.0000 C   0  0  0  0  0  0           0  0  0
    4.8167   -1.8792    0.0000 C   0  0  0  0  0  0           0  0  0
    3.3875   -1.8750    0.0000 O   0  0  0  0  0  0           0  0  0
    6.2375   -2.7042    0.0000 C   0  0  0  0  0  0           0  0  0
    4.8000   -4.3500    0.0000 C   0  0  0  0  0  0           0  0  0
    4.7917   -5.1750    0.0000 C   0  0  0  0  0  0           0  0  0
    6.9542   -3.1125    0.0000 C   0  0  0  0  0  0           0  0  0
   10.9542   -1.2125    0.0000 O   0  0  0  0  0  0           0  0  0
    2.6750   -3.1167    0.0000 C   0  0  0  0  0  0           0  0  0
    6.9292   -5.6042    0.0000 Cl  0  0  0  0  0  0           0  0  0
    5.4917   -6.4167    0.0000 Cl  0  0  0  0  0  0           0  0  0
    1.2417   -2.2917    0.0000 C   0  0  0  0  0  0           0  0  0
    1.9542   -3.5292    0.0000 C   0  0  0  0  0  0           0  0  0
    2.6750   -2.2917    0.0000 C   0  0  0  0  0  0           0  0  0
    1.2417   -3.1167    0.0000 C   0  0  0  0  0  0           0  0  0
    1.9542   -1.8792    0.0000 C   0  0  0  0  0  0           0  0  0
    9.5667   -0.8875    0.0000 C   0  0  0  0  0  0           0  0  0
    9.9750   -2.2542    0.0000 C   0  0  0  0  0  0           0  0  0
   10.3542   -0.6500    0.0000 C   0  0  0  0  0  0           0  0  0
   10.7667   -2.0167    0.0000 C   0  0  0  0  0  0           0  0  0
    0.5292   -1.8792    0.0000 C   0  0  0  0  0  0           0  0  0
  2  7  1  0     0  0
  3  1  1  0     0  0
  4 10  1  0     0  0
  5 21  1  0     0  0
  6  4  1  0     0  0
  7  1  1  0     0  0
  8  2  1  0     0  0
  9  5  1  0     0  0
 10  5  1  0     0  0
 11 12  2  0     0  0
 12  8  1  0     0  0
 13  1  1  0     0  0
 14 20  2  0     0  0
 15  2  1  0     0  0
 16  3  1  0     0  0
 17  3  2  0     0  0
 18  2  1  0     0  0
 19  8  2  0     0  0
 20 19  1  0     0  0
 21 18  1  0     0  0
 22 34  1  0     0  0
 23 13  1  0     0  0
 24 11  1  0     0  0
 25 14  1  0     0  0
 26 30  1  0     0  0
 27 23  2  0     0  0
 28 23  1  0     0  0
 29 27  1  0     0  0
 30 28  2  0     0  0
 31  6  1  0     0  0
 32  6  1  0     0  0
 33 31  1  0     0  0
 34 32  1  0     0  0
 35 26  1  0     0  0
 15 16  1  0     0  0
 26 29  2  0     0  0
  9  4  1  0     0  0
 11 14  1  0     0  0
 22 33  1  0     0  0
M  END