
  SciTegic09081514162D

 23 25  0  0  0  0            999 V2000
   -2.3155    0.7475    0.0000 C   0  0
   -2.3155   -0.7475    0.0000 C   0  0
   -1.0028   -1.5132    0.0000 C   0  0
   -1.0028    1.5132    0.0000 C   0  0
    0.2917    0.7475    0.0000 C   0  0
    0.2917   -0.7475    0.0000 C   0  0
    1.7138   -1.2033    0.0000 N   0  0
    2.5889    0.0182    0.0000 C   0  0
    1.7138    1.2033    0.0000 C   0  0
    2.1812    2.6271    0.0000 C   0  0
    3.6500    2.9355    0.0000 C   0  0  1  0  0  0
    4.1182    4.3614    0.0000 C   0  0
    4.4505    2.0415    0.0000 N   0  0
    3.3178    5.2555    0.0000 O   0  0
    5.5870    4.6698    0.0000 O   0  0
    6.0553    6.0958    0.0000 C   0  0
    7.5241    6.4042    0.0000 C   0  0
    7.9923    7.8301    0.0000 C   0  0
    9.4598    8.1405    0.0000 C   0  0
    9.9249    9.5665    0.0000 C   0  0
    8.9224   10.6823    0.0000 C   0  0
    7.4549   10.3721    0.0000 C   0  0
    6.9898    8.9460    0.0000 C   0  0
  1  2  2  0
  2  3  1  0
  3  6  2  0
  5  4  2  0
  4  1  1  0
  5  6  1  0
  6  7  1  0
  7  8  1  0
  8  9  2  0
  9  5  1  0
  9 10  1  0
 11 10  1  1
 11 12  1  0
 11 13  1  0
 12 14  2  0
 12 15  1  0
 15 16  1  0
 16 17  1  0
 17 18  1  0
 18 19  2  0
 19 20  1  0
 20 21  2  0
 21 22  1  0
 22 23  2  0
 23 18  1  0
M  END