
          02060813482D 1   1.00000     0.00000     0

 41 44  0     0  0            999 V2000
   -4.3598  -21.8375    0.0000 C   0  0  0  0  0  0           0  0  0
   -4.3609  -22.6648    0.0000 C   0  0  0  0  0  0           0  0  0
   -3.6461  -23.0777    0.0000 C   0  0  0  0  0  0           0  0  0
   -2.9297  -22.6644    0.0000 C   0  0  0  0  0  0           0  0  0
   -2.9325  -21.8338    0.0000 C   0  0  0  0  0  0           0  0  0
   -3.6479  -21.4247    0.0000 C   0  0  0  0  0  0           0  0  0
   -5.0757  -23.0768    0.0000 Cl  0  0  0  0  0  0           0  0  0
   -3.6504  -20.5997    0.0000 C   0  0  0  0  0  0           0  0  0
   -2.9371  -20.1851    0.0000 N   0  0  3  0  0  0           0  0  0
   -2.9396  -19.3601    0.0000 C   0  0  0  0  0  0           0  0  0
   -2.2264  -18.9454    0.0000 C   0  0  3  0  0  0           0  0  0
   -3.6553  -18.9497    0.0000 O   0  0  0  0  0  0           0  0  0
   -2.2196  -21.4186    0.0000 O   0  0  0  0  0  0           0  0  0
   -2.2145  -23.0757    0.0000 C   0  0  0  0  0  0           0  0  0
   -2.2181  -23.9011    0.0000 C   0  0  0  0  0  0           0  0  0
   -1.5039  -24.3124    0.0000 C   0  0  0  0  0  0           0  0  0
   -0.7891  -23.8987    0.0000 C   0  0  0  0  0  0           0  0  0
   -0.7930  -23.0694    0.0000 C   0  0  0  0  0  0           0  0  0
   -1.5079  -22.6619    0.0000 N   0  0  0  0  0  0           0  0  0
   -0.0807  -22.6533    0.0000 O   0  0  0  0  0  0           0  0  0
   -0.0734  -24.3091    0.0000 C   0  0  0  0  0  0           0  0  0
    0.6375  -24.7208    0.0000 N   0  0  0  0  0  0           0  0  0
   -1.5030  -25.1374    0.0000 C   0  0  0  0  0  0           0  0  0
   -2.2164  -25.5457    0.0000 C   0  0  0  0  0  0           0  0  0
   -2.2159  -26.3700    0.0000 C   0  0  0  0  0  0           0  0  0
   -1.5004  -26.7825    0.0000 C   0  0  0  0  0  0           0  0  0
   -0.7840  -26.3648    0.0000 C   0  0  0  0  0  0           0  0  0
   -0.7881  -25.5419    0.0000 C   0  0  0  0  0  0           0  0  0
   -2.9303  -25.1321    0.0000 Cl  0  0  0  0  0  0           0  0  0
   -0.0677  -26.7740    0.0000 C   0  0  3  0  0  0           0  0  0
    0.6417  -27.1833    0.0000 F   0  0  0  0  0  0           0  0  0
    0.3431  -26.0585    0.0000 F   0  0  0  0  0  0           0  0  0
   -0.4732  -27.4925    0.0000 F   0  0  0  0  0  0           0  0  0
   -2.2214  -20.5954    0.0000 C   0  0  0  0  0  0           0  0  0
   -1.5137  -19.3546    0.0000 C   0  0  0  0  0  0           0  0  0
   -0.8025  -18.9435    0.0000 C   0  0  0  0  0  0           0  0  0
   -0.8007  -18.1182    0.0000 C   0  0  3  0  0  0           0  0  0
   -1.5163  -17.7056    0.0000 C   0  0  0  0  0  0           0  0  0
   -2.2336  -18.1184    0.0000 C   0  0  0  0  0  0           0  0  0
   -0.0859  -17.7062    0.0000 O   0  0  0  0  0  0           0  0  0
    0.6282  -18.1193    0.0000 C   0  0  0  0  0  0           0  0  0
 18 20  2  0     0  0
  9 10  1  0     0  0
 17 21  1  0     0  0
  2  3  1  0     0  0
 21 22  3  0     0  0
 10 11  1  0     0  0
 16 23  1  0     0  0
  5  6  2  0     0  0
 23 24  2  0     0  0
 10 12  2  0     0  0
 24 25  1  0     0  0
  6  1  1  0     0  0
 25 26  2  0     0  0
  5 13  1  0     0  0
 26 27  1  0     0  0
  1  2  2  0     0  0
 27 28  2  0     0  0
 28 23  1  0     0  0
  4 14  1  0     0  0
 24 29  1  0     0  0
  2  7  1  0     0  0
 27 30  1  0     0  0
 14 15  2  0     0  0
 30 31  1  0     0  0
  3  4  2  0     0  0
 30 32  1  0     0  0
 15 16  1  0     0  0
 30 33  1  0     0  0
  6  8  1  0     0  0
  9 34  1  0     0  0
 11 35  1  0     0  0
 16 17  2  0     0  0
 17 18  1  0     0  0
  8  9  1  0     0  0
 18 19  1  0     0  0
 11 39  1  0     0  0
 35 36  1  0     0  0
 36 37  1  0     0  0
 37 38  1  0     0  0
 38 39  1  0     0  0
 19 14  1  0     0  0
 37 40  1  0     0  0
  4  5  1  0     0  0
 40 41  1  0     0  0
M  END