
  SciTegic11201309402D

 35 38  0  0  0  0            999 V2000
   11.0417  -12.5917    0.0000 C   0  0
   11.0417  -13.4167    0.0000 C   0  0
   11.7537  -13.8250    0.0000 C   0  0  1  0  0  0
   11.7537  -12.1750    0.0000 C   0  0
   12.4657  -12.5917    0.0000 C   0  0  1  0  0  0
   12.4622  -13.4167    0.0000 C   0  0  1  0  0  0
   13.1710  -13.8299    0.0000 C   0  0  2  0  0  0
   13.8878  -13.4227    0.0000 C   0  0
   13.1663  -14.6549    0.0000 O   0  0
   11.3333  -14.5375    0.0000 C   0  0
   12.1583  -14.5375    0.0000 C   0  0  2  0  0  0
   11.5974  -12.9145    0.0000 H   0  0
   13.1780  -12.1799    0.0000 C   0  0  2  0  0  0
   13.8937  -12.5986    0.0000 C   0  0  2  0  0  0
   14.6074   -9.6914    0.0000 C   0  0
   13.8927  -10.1104    0.0000 C   0  0
   13.9015  -10.9432    0.0000 C   0  0
   13.1788  -11.3530    0.0000 C   0  0
   14.0457  -11.6828    0.0000 H   0  0
   13.1749   -9.7038    0.0000 C   0  0
   13.1682   -8.8788    0.0000 C   0  0
   12.4504   -8.4721    0.0000 C   0  0  1  0  0  0
   12.3598   -7.6551    0.0000 O   0  0
   11.5514   -7.4951    0.0000 C   0  0
   11.1447   -8.2106    0.0000 C   0  0
   11.7018   -8.8146    0.0000 C   0  0
   11.2098   -6.7377    0.0000 O   0  0
   12.4583  -11.7667    0.0000 C   0  0
   11.5392   -9.6234    0.0000 C   0  0
   11.7027  -15.2253    0.0000 O   0  0
   12.0705  -15.9637    0.0000 C   0  0
   11.6149  -16.6515    0.0000 C   0  0
   14.6042  -13.0083    0.0000 O   0  0
   14.3000  -11.8792    0.0000 C   0  0
   14.0338  -14.3354    0.0000 H   0  0
  7  8  1  0
 13 18  1  0
 15 16  1  0
 16 17  1  0
 17 18  1  0
  8 14  1  0
 13 19  1  6
  3  6  1  0
 16 20  2  0
  7  9  1  0
 20 21  1  0
  5  4  1  0
 22 21  1  6
 22 23  1  0
  3 10  1  1
  5  6  1  0
  3 11  1  0
  9 11  1  0
 23 24  1  0
 24 25  1  0
 25 26  2  0
 26 22  1  0
 24 27  2  0
  6 12  1  6
  5 28  1  1
 13 14  1  0
 26 29  1  0
  1  2  1  0
 11 30  1  6
  1  4  1  0
 30 31  1  0
  2  3  1  0
 31 32  1  0
  5 13  1  0
 14 33  1  6
  6  7  1  0
 14 34  1  0
  7 35  1  1
M  END