
  CDK    12/20/10,14:45

 44 45  0  0  0  0  0  0  0  0999 V2000
   14.6792   -7.5625    0.0000 C   0  0  0  0  0  0  0  0  0  0  0  0
   14.6792   -6.7375    0.0000 C   0  0  0  0  0  0  0  0  0  0  0  0
   16.1000   -7.5625    0.0000 C   0  0  0  0  0  0  0  0  0  0  0  0
   15.3875   -7.9667    0.0000 C   0  0  0  0  0  0  0  0  0  0  0  0
   15.3875   -6.3167    0.0000 C   0  0  0  0  0  0  0  0  0  0  0  0
   16.1000   -6.7375    0.0000 C   0  0  0  0  0  0  0  0  0  0  0  0
   23.9500   -8.0000    0.0000 C   0  0  0  0  0  0  0  0  0  0  0  0
   24.6667   -7.5958    0.0000 C   0  0  0  0  0  0  0  0  0  0  0  0
   24.6708   -6.7667    0.0000 C   0  0  0  0  0  0  0  0  0  0  0  0
   23.2375   -7.5875    0.0000 C   0  0  0  0  0  0  0  0  0  0  0  0
   23.9583   -6.3500    0.0000 C   0  0  0  0  0  0  0  0  0  0  0  0
   23.2458   -6.7583    0.0000 C   0  0  0  0  0  0  0  0  0  0  0  0
   16.8125   -8.8000    0.0000 P   0  0  0  0  0  0  0  0  0  0  0  0
   13.9583   -5.5000    0.0000 P   0  0  0  0  0  0  0  0  0  0  0  0
   13.2500   -7.5625    0.0000 P   0  0  0  0  0  0  0  0  0  0  0  0
   13.9625   -7.9750    0.0000 O   0  0  0  0  0  0  0  0  0  0  0  0
   13.9625   -6.3250    0.0000 O   0  0  0  0  0  0  0  0  0  0  0  0
   16.8167   -7.9750    0.0000 O   0  0  0  0  0  0  0  0  0  0  0  0
   19.6750   -6.3333    0.0000 C   0  0  0  0  0  0  0  0  0  0  0  0
   14.6708   -5.0875    0.0000 O   0  0  0  0  0  0  0  0  0  0  0  0
   16.1000   -9.2125    0.0000 O   0  0  0  0  0  0  0  0  0  0  0  0
   12.5333   -7.9750    0.0000 O   0  0  0  0  0  0  0  0  0  0  0  0
   19.6792   -5.5083    0.0000 O   0  0  0  0  0  0  0  0  0  0  0  0
   20.3875   -6.7500    0.0000 N   0  0  0  0  0  0  0  0  0  0  0  0
   18.9583   -6.7458    0.0000 N   0  0  0  0  0  0  0  0  0  0  0  0
   17.2375   -9.5083    0.0000 O   0  0  0  0  0  0  0  0  0  0  0  0
   13.6667   -6.8500    0.0000 O   0  0  0  0  0  0  0  0  0  0  0  0
   13.1333   -5.5000    0.0000 O   0  0  0  0  0  0  0  0  0  0  0  0
   17.6417   -8.7875    0.0000 O   0  0  0  0  0  0  0  0  0  0  0  0
   13.5458   -4.7833    0.0000 O   0  0  0  0  0  0  0  0  0  0  0  0
   12.8417   -6.8458    0.0000 O   0  0  0  0  0  0  0  0  0  0  0  0
   15.3875   -8.7917    0.0000 O   0  0  0  0  0  0  0  0  0  0  0  0
   15.3875   -5.4917    0.0000 O   0  0  0  0  0  0  0  0  0  0  0  0
   22.5208   -7.9958    0.0000 O   0  0  0  0  0  0  0  0  0  0  0  0
   23.9417   -8.8250    0.0000 O   0  0  0  0  0  0  0  0  0  0  0  0
   25.3792   -8.0125    0.0000 O   0  0  0  0  0  0  0  0  0  0  0  0
   25.3875   -6.3625    0.0000 O   0  0  0  0  0  0  0  0  0  0  0  0
   23.9625   -5.5250    0.0000 O   0  0  0  0  0  0  0  0  0  0  0  0
   16.8167   -6.3250    0.0000 O   0  0  0  0  0  0  0  0  0  0  0  0
   22.5333   -6.3417    0.0000 O   0  0  0  0  0  0  0  0  0  0  0  0
   18.2458   -6.3292    0.0000 C   0  0  0  0  0  0  0  0  0  0  0  0
   21.1042   -6.3375    0.0000 C   0  0  0  0  0  0  0  0  0  0  0  0
   17.5292   -6.7417    0.0000 C   0  0  0  0  0  0  0  0  0  0  0  0
   21.8167   -6.7542    0.0000 C   0  0  0  0  0  0  0  0  0  0  0  0
  2  1  1  0  0  0  0 
  3  4  1  0  0  0  0 
  4  1  1  0  0  0  0 
  5  2  1  0  0  0  0 
  6  3  1  0  0  0  0 
  7 10  1  0  0  0  0 
  8  9  1  0  0  0  0 
  9 11  1  0  0  0  0 
 10 12  1  0  0  0  0 
 11 12  1  0  0  0  0 
 12 40  1  1  0  0  0 
 13 18  1  0  0  0  0 
 14 17  1  0  0  0  0 
 15 16  1  0  0  0  0 
  1 16  1  1  0  0  0 
  2 17  1  6  0  0  0 
  3 18  1  1  0  0  0 
 19 25  1  0  0  0  0 
 20 14  2  0  0  0  0 
 21 13  2  0  0  0  0 
 22 15  2  0  0  0  0 
 23 19  2  0  0  0  0 
 24 19  1  0  0  0  0 
 25 41  1  0  0  0  0 
 26 13  1  0  0  0  0 
 27 15  1  0  0  0  0 
 28 14  1  0  0  0  0 
 29 13  1  0  0  0  0 
 30 14  1  0  0  0  0 
 31 15  1  0  0  0  0 
  4 32  1  6  0  0  0 
  5 33  1  1  0  0  0 
 10 34  1  1  0  0  0 
  7 35  1  6  0  0  0 
  8 36  1  1  0  0  0 
  9 37  1  6  0  0  0 
 11 38  1  1  0  0  0 
  6 39  1  1  0  0  0 
 40 44  1  0  0  0  0 
 41 43  1  0  0  0  0 
 42 24  1  0  0  0  0 
 43 39  1  0  0  0  0 
 44 42  1  0  0  0  0 
  5  6  1  0  0  0  0 
  8  7  1  0  0  0  0 
M  END