
  SciTegic10311316212D

 12 13  0  0  0  0            999 V2000
   22.8029   -8.7386    0.0000 C   0  0
   23.5290   -9.1391    0.0000 O   0  0
   23.4941   -7.4853    0.0000 N   0  0
   22.7817   -7.9096    0.0000 C   0  0
   24.2202   -7.8857    0.0000 C   0  0
   24.2299   -8.7106    0.0000 C   0  0
   24.9452   -9.1124    0.0000 C   0  0
   25.6555   -8.6938    0.0000 C   0  0
   25.6456   -7.8689    0.0000 C   0  0
   24.9257   -7.4625    0.0000 C   0  0
   22.0557   -7.5092    0.0000 O   0  0
   22.0943   -9.1692    0.0000 C   0  0
  1  2  1  0
  1  4  1  0
  2  6  1  0
  5  3  1  0
  3  4  1  0
  5  6  1  0
  5 10  2  0
  6  7  2  0
  7  8  1  0
  8  9  2  0
  9 10  1  0
  4 11  2  0
  1 12  1  0
M  END