
          11280715062D 1   1.00000     0.00000     0

 16 16  0     0  0            999 V2000
   -0.2583   -2.5542    0.0000 N   0  0  0  0  0  0           0  0  0
    5.4542   -2.5542    0.0000 C   0  0  0  0  0  0           0  0  0
   -0.5375   -1.2417    0.0000 N   0  0  0  0  0  0           0  0  0
   -0.8750   -2.0000    0.0000 C   0  0  0  0  0  0           0  0  0
    0.4542   -2.1417    0.0000 C   0  0  0  0  0  0           0  0  0
    5.4542   -3.3792    0.0000 S   0  0  0  0  0  0           0  0  0
    0.2792   -1.3292    0.0000 C   0  0  0  0  0  0           0  0  0
    6.1667   -2.1417    0.0000 N   0  0  0  0  0  0           0  0  0
    4.7417   -2.1417    0.0000 N   0  0  0  0  0  0           0  0  0
    1.1667   -2.5542    0.0000 C   0  0  0  0  0  0           0  0  0
    6.8792   -2.5542    0.0000 C   0  0  0  0  0  0           0  0  0
    4.0250   -2.5542    0.0000 C   0  0  0  0  0  0           0  0  0
    1.8792   -2.1417    0.0000 C   0  0  0  0  0  0           0  0  0
    3.3125   -2.1417    0.0000 C   0  0  0  0  0  0           0  0  0
    2.6000   -2.5542    0.0000 C   0  0  0  0  0  0           0  0  0
    7.6000   -2.1417    0.0000 C   0  0  0  0  0  0           0  0  0
  2  9  1  0     0  0
  3  4  1  0     0  0
  4  1  2  0     0  0
  5  1  1  0     0  0
  6  2  1  0     0  0
  7  5  2  0     0  0
  8  2  2  0     0  0
  9 12  1  0     0  0
 10  5  1  0     0  0
 11  8  1  0     0  0
 12 14  1  0     0  0
 13 10  1  0     0  0
 14 15  1  0     0  0
 15 13  1  0     0  0
 16 11  1  0     0  0
  7  3  1  0     0  0
M  END