
  SciTegic12121611282D

 49 51  0  0  0  0            999 V2000
    1.2990   -0.7500    0.0000 C   0  0
    1.2990    0.7500    0.0000 C   0  0
    0.0000    1.5000    0.0000 C   0  0
   -1.2990    0.7500    0.0000 C   0  0
   -1.2990   -0.7500    0.0000 C   0  0
    0.0000   -1.5000    0.0000 C   0  0
   -2.5972   -1.5031    0.0000 C   0  0
   -2.5951   -3.0039    0.0000 C   0  0
   -3.8982   -0.7550    0.0000 C   0  0
   -5.1971   -1.5054    0.0000 C   0  0
   -6.4964   -0.7559    0.0000 C   0  0
   -6.4970    0.7441    0.0000 C   0  0
   -5.1983    1.4946    0.0000 C   0  0
   -3.8989    0.7451    0.0000 C   0  0
   -1.5548   -3.6021    0.0000 O   0  0
   -3.8933   -3.7570    0.0000 N   0  0
   -3.8911   -5.2579    0.0000 C   0  0  1  0  0  0
   -5.1894   -6.0109    0.0000 C   0  0
   -5.1872   -7.5117    0.0000 N   0  0
   -6.2296   -5.4127    0.0000 O   0  0
   -6.4854   -8.2648    0.0000 C   0  0
   -6.4833   -9.7657    0.0000 C   0  0
   -7.7797  -10.5203    0.0000 C   0  0
   -7.7745  -12.0202    0.0000 C   0  0
   -6.4729  -12.7657    0.0000 C   0  0
   -5.1764  -12.0112    0.0000 C   0  0
   -5.1816  -10.5113    0.0000 C   0  0
   -2.5915   -6.0086    0.0000 C   0  0
   -2.5910   -7.5095    0.0000 C   0  0
   -1.2915   -8.2603    0.0000 C   0  0
   -6.4687  -13.9657    0.0000 O   0  0
   -1.2910   -9.7611    0.0000 N   0  0
    0.0086  -10.5119    0.0000 C   0  0
    0.0091  -12.0127    0.0000 N   0  0
    1.0478   -9.9118    0.0000 N   0  0
   -1.2899  -12.7644    0.0000 C   0  0
   -1.2894  -14.2652    0.0000 N   0  0
   -2.3296  -12.1651    0.0000 O   0  0
   -2.5884  -15.0169    0.0000 C   0  0
   -2.5879  -16.5177    0.0000 C   0  0
   -3.8869  -17.2694    0.0000 C   0  0
   -3.8864  -18.7702    0.0000 C   0  0
   -5.1854  -19.5219    0.0000 N   0  0
   -5.1849  -21.0227    0.0000 C   0  0
   -6.4839  -21.7744    0.0000 C   0  0
   -4.1453  -21.6220    0.0000 O   0  0
   -6.4834  -23.2752    0.0000 C   0  0
   -7.3489  -23.7761    0.0000 H   0  0
   -7.3503  -21.2750    0.0000 H   0  0
  1  2  2  0
  2  3  1  0
  3  4  2  0
  4  5  1  0
  5  6  2  0
  6  1  1  0
  5  7  1  0
  7  8  1  0
  7  9  1  0
  9 10  2  0
 10 11  1  0
 11 12  2  0
 12 13  1  0
 13 14  2  0
 14  9  1  0
  8 15  2  0
  8 16  1  0
 16 17  1  0
 17 18  1  0
 18 19  1  0
 18 20  2  0
 19 21  1  0
 21 22  1  0
 22 23  2  0
 23 24  1  0
 24 25  2  0
 25 26  1  0
 26 27  2  0
 27 22  1  0
 17 28  1  6
 28 29  1  0
 29 30  1  0
 25 31  1  0
 30 32  1  0
 32 33  1  0
 33 34  2  0
 33 35  1  0
 34 36  1  0
 36 37  1  0
 36 38  2  0
 37 39  1  0
 39 40  1  0
 40 41  1  0
 41 42  1  0
 42 43  1  0
 43 44  1  0
 44 45  1  0
 44 46  2  0
 45 47  1  0
 47 48  1  0
 45 49  1  0
M  END