
          11280715342D 1   1.00000     0.00000     0

 34 37  0     1  0            999 V2000
    6.3792   -2.0875    0.0000 C   0  0  3  0  0  0           0  0  0
    1.3875   -3.3292    0.0000 P   0  0  3  0  0  0           0  0  0
    6.8000   -0.8167    0.0000 C   0  0  0  0  0  0           0  0  0
    5.9667   -0.8125    0.0000 C   0  0  0  0  0  0           0  0  0
    7.0500   -1.6000    0.0000 C   0  0  0  0  0  0           0  0  0
    5.7167   -1.6000    0.0000 C   0  0  0  0  0  0           0  0  0
    5.6667   -4.1500    0.0000 C   0  0  0  0  0  0           0  0  0
    4.9542   -4.5625    0.0000 N   0  0  0  0  0  0           0  0  0
    4.9542   -5.3875    0.0000 C   0  0  1  0  0  0           0  0  0
    5.6667   -5.8000    0.0000 C   0  0  0  0  0  0           0  0  0
    6.3792   -2.9125    0.0000 C   0  0  0  0  0  0           0  0  0
    1.3875   -4.1542    0.0000 O   0  0  0  0  0  0           0  0  0
    0.5625   -3.3292    0.0000 O   0  0  0  0  0  0           0  0  0
    5.6667   -3.3250    0.0000 O   0  0  0  0  0  0           0  0  0
    4.2417   -5.8000    0.0000 C   0  0  0  0  0  0           0  0  0
    6.3875   -4.5625    0.0000 O   0  0  0  0  0  0           0  0  0
    5.6750   -6.6250    0.0000 O   0  0  0  0  0  0           0  0  0
    2.2125   -3.3292    0.0000 O   0  0  0  0  0  0           0  0  0
    1.3792   -2.5042    0.0000 O   0  0  0  0  0  0           0  0  0
    2.1042   -4.5667    0.0000 C   0  0  0  0  0  0           0  0  0
    3.5292   -5.3875    0.0000 C   0  0  0  0  0  0           0  0  0
    6.3875   -5.3875    0.0000 O   0  0  0  0  0  0           0  0  0
    2.8167   -5.8042    0.0000 C   0  0  0  0  0  0           0  0  0
    3.5292   -4.5667    0.0000 C   0  0  0  0  0  0           0  0  0
    2.8167   -4.1542    0.0000 C   0  0  0  0  0  0           0  0  0
    2.1042   -5.3917    0.0000 C   0  0  0  0  0  0           0  0  0
    7.3417   -0.2042    0.0000 C   0  0  0  0  0  0           0  0  0
    5.4250   -0.2000    0.0000 C   0  0  0  0  0  0           0  0  0
    4.9000   -1.7667    0.0000 C   0  0  0  0  0  0           0  0  0
    7.8500   -1.7667    0.0000 C   0  0  0  0  0  0           0  0  0
    8.4042   -1.1625    0.0000 C   0  0  0  0  0  0           0  0  0
    8.1500   -0.3792    0.0000 C   0  0  0  0  0  0           0  0  0
    4.6167   -0.3667    0.0000 C   0  0  0  0  0  0           0  0  0
    4.3542   -1.1500    0.0000 C   0  0  0  0  0  0           0  0  0
  2 12  1  0     0  0
  3  5  2  0     0  0
  4  6  1  0     0  0
  5  1  1  0     0  0
  6  1  1  0     0  0
  7 14  1  0     0  0
  8  7  1  0     0  0
  9  8  1  1     0  0
 10  9  1  0     0  0
 11  1  1  0     0  0
 12 20  1  0     0  0
 13  2  2  0     0  0
 14 11  1  0     0  0
 15  9  1  0     0  0
 16  7  2  0     0  0
 17 10  2  0     0  0
 18  2  1  0     0  0
 19  2  1  0     0  0
 20 25  2  0     0  0
 21 15  1  0     0  0
 22 10  1  0     0  0
 23 21  1  0     0  0
 24 21  2  0     0  0
 25 24  1  0     0  0
 26 23  2  0     0  0
 27  3  1  0     0  0
 28  4  2  0     0  0
 29  6  2  0     0  0
 30  5  1  0     0  0
 31 30  2  0     0  0
 32 31  1  0     0  0
 33 34  2  0     0  0
 34 29  1  0     0  0
  3  4  1  0     0  0
 28 33  1  0     0  0
 32 27  2  0     0  0
 26 20  1  0     0  0
M  END