
  SciTegic01161211252D

 22 24  0  0  0  0            999 V2000
    0.0792    0.7208    0.0000 C   0  0
    0.0750    1.3250    0.0000 C   0  0
   -0.4500    1.6250    0.0000 C   0  0
   -0.9708    1.3208    0.0000 C   0  0
   -0.4500    0.4125    0.0000 C   0  0
   -0.9708    0.7208    0.0000 C   0  0
    0.5542    0.3458    0.0000 C   0  0  2  0  0  0
    1.4125    1.0375    0.0000 N   0  0
    0.4292   -0.2417    0.0000 C   0  0
   -0.4583    2.2250    0.0000 Cl  0  0
    0.8750   -0.6417    0.0000 C   0  0
   -0.1458   -0.4250    0.0000 C   0  0
   -1.4958    1.6208    0.0000 O   0  0
    1.1542    0.4833    0.0000 C   0  0
   -1.4958    0.4125    0.0000 O   0  0
    0.1750   -1.4125    0.0000 C   0  0
   -0.2708   -1.0042    0.0000 C   0  0
    0.7500   -1.2292    0.0000 C   0  0
    0.5500    1.7125    0.0000 C   0  0
    1.1417    1.5875    0.0000 C   0  0
    0.1667   -2.0042    0.0000 O   0  0
    1.0667    0.0458    0.0000 H   0  0
  2  1  1  0
  3  2  2  0
  4  6  2  0
  5  1  2  0
  6  5  1  0
  7  1  1  0
  8 14  1  0
  7  9  1  1
 10  3  1  0
 11  9  1  0
 12  9  2  0
 13  4  1  0
 14  7  1  0
 15  6  1  0
 16 17  2  0
 17 12  1  0
 18 11  2  0
 19  2  1  0
 20 19  1  0
 21 16  1  0
  7 22  1  6
  3  4  1  0
 20  8  1  0
 18 16  1  0
M  END