
          11280715372D 1   1.00000     0.00000     0

 26 29  0     0  0            999 V2000
   -0.5250   -0.9417    0.0000 C   0  0  0  0  0  0           0  0  0
   -1.0458   -1.2417    0.0000 C   0  0  0  0  0  0           0  0  0
   -0.0125   -1.2417    0.0000 C   0  0  0  0  0  0           0  0  0
   -0.5250   -0.3417    0.0000 C   0  0  0  0  0  0           0  0  0
   -1.5708   -0.9417    0.0000 C   0  0  0  0  0  0           0  0  0
    0.5125   -0.9417    0.0000 C   0  0  0  0  0  0           0  0  0
    0.5125   -0.3417    0.0000 C   0  0  0  0  0  0           0  0  0
   -0.0125   -0.0417    0.0000 O   0  0  0  0  0  0           0  0  0
   -1.5708   -0.3417    0.0000 C   0  0  0  0  0  0           0  0  0
   -1.0458   -0.0417    0.0000 C   0  0  0  0  0  0           0  0  0
   -2.1000   -1.2292    0.0000 C   0  0  0  0  0  0           0  0  0
   -0.0125   -1.8417    0.0000 O   0  0  0  0  0  0           0  0  0
    1.0375   -0.0417    0.0000 C   0  0  0  0  0  0           0  0  0
   -1.0375   -1.8417    0.0000 O   0  0  0  0  0  0           0  0  0
   -2.1083   -0.0542    0.0000 O   0  0  0  0  0  0           0  0  0
   -2.6125   -0.9167    0.0000 C   0  0  0  0  0  0           0  0  0
    1.0375    0.5583    0.0000 C   0  0  0  0  0  0           0  0  0
    1.5542   -0.3417    0.0000 C   0  0  0  0  0  0           0  0  0
   -2.6000   -0.3167    0.0000 C   0  0  0  0  0  0           0  0  0
   -3.1375   -1.2167    0.0000 C   0  0  0  0  0  0           0  0  0
    2.0792   -0.0417    0.0000 C   0  0  0  0  0  0           0  0  0
    1.5542    0.8625    0.0000 C   0  0  0  0  0  0           0  0  0
   -3.6500   -0.9042    0.0000 C   0  0  0  0  0  0           0  0  0
   -3.1125   -0.0167    0.0000 C   0  0  0  0  0  0           0  0  0
    2.0792    0.5583    0.0000 C   0  0  0  0  0  0           0  0  0
   -3.6375   -0.3042    0.0000 C   0  0  0  0  0  0           0  0  0
  2  1  1  0     0  0
  3  1  1  0     0  0
  4  1  2  0     0  0
  5  2  2  0     0  0
  6  3  1  0     0  0
  7  8  1  0     0  0
  8  4  1  0     0  0
  9 10  2  0     0  0
 10  4  1  0     0  0
 11  5  1  0     0  0
 12  3  2  0     0  0
 13  7  1  0     0  0
 14  2  1  0     0  0
 15  9  1  0     0  0
 16 11  1  0     0  0
 17 13  1  0     0  0
 18 13  2  0     0  0
 19 16  2  0     0  0
 20 16  1  0     0  0
 21 18  1  0     0  0
 22 17  2  0     0  0
 23 20  2  0     0  0
 24 19  1  0     0  0
 25 21  2  0     0  0
 26 23  1  0     0  0
  9  5  1  0     0  0
  7  6  2  0     0  0
 22 25  1  0     0  0
 26 24  2  0     0  0
M  END