
  SciTegic12231509382D

 17 18  0  0  0  0            999 V2000
    1.7996  -21.1098    0.0000 N   0  0
    1.7983  -21.9374    0.0000 C   0  0
    2.5113  -22.3503    0.0000 C   0  0
    3.2306  -21.9369    0.0000 C   0  0
    3.2274  -21.1059    0.0000 C   0  0
    2.5093  -20.6971    0.0000 C   0  0
    2.5054  -19.8722    0.0000 N   0  0
    3.9398  -20.6899    0.0000 C   0  0
    4.6563  -21.0988    0.0000 N   0  3
    4.7487  -21.9141    0.0000 C   0  0
    5.5565  -22.0816    0.0000 C   0  0
    5.9655  -21.3651    0.0000 S   0  0
    5.4103  -20.7549    0.0000 C   0  0
    5.8957  -22.8336    0.0000 C   0  0
    5.4142  -23.5034    0.0000 C   0  0
    5.7534  -24.2554    0.0000 O   0  0
    1.0833  -22.3489    0.0000 C   0  0
  3  4  2  0
  8  9  1  0
  9 10  1  0
  1  2  2  0
  4  5  1  0
  5  6  2  0
 10 11  2  0
 11 12  1  0
 12 13  1  0
 13  9  2  0
  6  1  1  0
 11 14  1  0
  2  3  1  0
 14 15  1  0
  6  7  1  0
 15 16  1  0
  2 17  1  0
  5  8  1  0
M  CHG  1   9   1
M  END