
  SciTegic06051315212D

 38 42  0  0  0  0            999 V2000
    2.3783  -13.1245    0.0000 O   0  0
    3.7696  -12.2344    0.0000 O   0  0
    5.2365  -12.9948    0.0000 O   0  0
    5.3099  -14.6420    0.0000 O   0  0
    3.1495  -14.3300    0.0000 O   0  0
    4.7079  -15.7769    0.0000 O   0  0
    3.1100  -13.5059    0.0000 C   0  0  2  0  0  0
    3.8056  -13.0609    0.0000 C   0  0  1  0  0  0
    4.5409  -13.4399    0.0000 C   0  0  2  0  0  0
    4.5769  -14.2663    0.0000 C   0  0  1  0  0  0
    3.8812  -14.7113    0.0000 C   0  0  1  0  0  0
    3.9185  -15.5320    0.0000 C   0  0
    2.3624  -12.3013    0.0000 C   0  0  2  0  0  0
    3.0649  -11.8801    0.0000 O   0  0
    3.0490  -11.0570    0.0000 C   0  0
    2.3305  -10.6550    0.0000 C   0  0
    1.6440  -11.9076    0.0000 C   0  0  1  0  0  0
    1.6234  -11.0800    0.0000 C   0  0  2  0  0  0
    0.8300  -10.8438    0.0000 C   0  0  2  0  0  0
    1.5995  -10.2532    0.0000 H   0  0
    1.6558  -12.7308    0.0000 H   0  0
    0.5582  -10.0666    0.0000 O   0  0
    2.4026  -13.9266    0.0000 H   0  0
    1.0954   -9.4426    0.0000 C   0  0
    0.8236   -8.6655    0.0000 O   0  0
    1.9021   -9.5936    0.0000 C   0  0
    2.1730  -10.3722    0.0000 C   0  0
    2.9811  -10.5256    0.0000 C   0  0
    3.5192   -9.9014    0.0000 C   0  0
    3.2436   -9.1210    0.0000 C   0  0
    2.4360   -8.9712    0.0000 C   0  0
    4.3283  -10.0535    0.0000 O   0  0
    0.8607  -12.1794    0.0000 C   0  0  2  0  0  0
    0.3563  -11.5219    0.0000 C   0  0  1  0  0  0
    0.0392  -12.2875    0.0000 O   0  0
   -0.1923  -10.9061    0.0000 H   0  0
    1.3148  -12.8661    0.0000 C   0  0
    0.9471  -13.6028    0.0000 O   0  0
  6 12  1  0
 11  5  1  0
  5  7  1  0
  7  8  1  0
  8  9  1  0
  9 10  1  0
 10 11  1  0
 11 12  1  1
  7  1  1  0
  8  2  1  6
  9  3  1  1
 10  4  1  6
 18 16  1  0
 17 13  1  0
 13 14  1  0
 14 15  1  0
 15 16  1  0
 17 18  1  0
 18 19  1  0
 19 34  1  0
 33 17  1  0
 18 20  1  1
 17 21  1  1
 19 22  1  1
 13  1  1  1
  7 23  1  6
 22 24  1  0
 24 25  2  0
 26 27  2  0
 27 28  1  0
 28 29  2  0
 29 30  1  0
 30 31  2  0
 31 26  1  0
 24 26  1  0
 29 32  1  0
 34 33  1  0
 35 34  1  0
 33 35  1  0
 34 36  1  6
 33 37  1  6
 37 38  1  0
M  END