
  SciTegic12191611222D

 27 28  0  0  0  0            999 V2000
    3.1544   -7.4094    0.0000 C   0  0
    2.9122   -6.2341    0.0000 C   0  0
    4.0312   -5.2378    0.0000 C   0  0
    3.8933   -3.7570    0.0000 C   0  0
    5.2447   -3.1359    0.0000 N   0  0
    6.2484   -4.2507    0.0000 C   0  0
    5.4984   -5.5497    0.0000 C   0  0
    6.1050   -6.9197    0.0000 C   0  0
    5.3982   -7.8895    0.0000 O   0  0
    7.2982   -7.0472    0.0000 C   0  0
    7.4419   -4.1252    0.0000 C   0  0
    2.5951   -3.0039    0.0000 C   0  0
    2.5973   -1.5031    0.0000 N   0  0
    1.2990   -0.7500    0.0000 C   0  0
    1.2990    0.7500    0.0000 C   0  0
    0.0000    1.5000    0.0000 C   0  0
   -1.2990    0.7500    0.0000 C   0  0
   -1.2990   -0.7500    0.0000 C   0  0
    0.0000   -1.5000    0.0000 C   0  0
    1.5548   -3.6021    0.0000 O   0  0
   -0.0031    3.0008    0.0000 C   0  0
   -1.3039    3.7494    0.0000 N   0  0
    1.0351    3.6026    0.0000 O   0  0
   -1.3070    5.2502    0.0000 C   0  0
   -2.6039    2.9994    0.0000 C   0  0
   -3.6433    3.5990    0.0000 C   0  0
   -2.3471    5.8487    0.0000 C   0  0
  1  2  1  0
  2  3  1  0
  3  4  2  0
  5  4  1  0
  6  5  1  0
  7  6  2  0
  3  7  1  0
  7  8  1  0
  8  9  2  0
  8 10  1  0
  6 11  1  0
  4 12  1  0
 12 13  1  0
 13 14  1  0
 14 15  2  0
 16 15  1  0
 17 16  2  0
 18 17  1  0
 19 18  2  0
 14 19  1  0
 12 20  2  0
 16 21  1  0
 21 22  1  0
 21 23  2  0
 22 24  1  0
 22 25  1  0
 25 26  1  0
 24 27  1  0
M  END