
  SciTegic12171313032D

 26 26  0  0  0  0            999 V2000
    5.3776  -10.3689    0.0000 C   0  0  1  0  0  0
    4.6679  -10.7903    0.0000 C   0  0
    3.9484  -10.3867    0.0000 O   0  0
    4.6781  -11.6152    0.0000 O   0  0
    6.0972  -10.7724    0.0000 N   0  0
    6.8133  -10.3628    0.0000 C   0  0
    6.8165   -9.5378    0.0000 O   0  0
    7.5261  -10.7781    0.0000 N   0  0
    8.2422  -10.3684    0.0000 C   0  0  2  0  0  0
    8.9550  -10.7838    0.0000 C   0  0
    8.2454   -9.5434    0.0000 C   0  0
    8.9616   -9.1338    0.0000 C   0  0
    8.9648   -8.3088    0.0000 C   0  0
    9.6808   -7.8991    0.0000 O   0  0
    8.2519   -7.8935    0.0000 O   0  0
    8.9517  -11.6087    0.0000 O   0  0
    9.6711  -10.3741    0.0000 O   0  0
    5.3674   -9.5440    0.0000 C   0  0
    4.6478   -9.1404    0.0000 C   0  0
    4.6392   -8.3146    0.0000 C   0  0
    3.9205   -7.9110    0.0000 C   0  0
    3.2102   -8.3324    0.0000 C   0  0
    3.2232   -9.1616    0.0000 C   0  0
    3.9424   -9.5614    0.0000 C   0  0
    2.5154   -9.5854    0.0000 I   0  0
    2.4902   -7.9298    0.0000 O   0  0
  1  2  1  6
  2  3  2  0
  2  4  1  0
  1  5  1  0
  5  6  1  0
  6  7  2  0
  6  8  1  0
  8  9  1  0
  9 10  1  1
  9 11  1  0
 11 12  1  0
 12 13  1  0
 13 14  2  0
 13 15  1  0
 10 16  1  0
 10 17  2  0
  1 18  1  0
 18 19  1  0
 19 20  2  0
 20 21  1  0
 21 22  2  0
 22 23  1  0
 23 24  2  0
 24 19  1  0
 23 25  1  0
 22 26  1  0
M  ISO  1  25 125
M  END