
  CDK    12/20/10,14:45

 77 78  0  0  0  0  0  0  0  0999 V2000
   -3.4333  -10.0750    0.0000 C   0  0  0  0  0  0  0  0  0  0  0  0
   20.8375  -10.1542    0.0000 C   0  0  0  0  0  0  0  0  0  0  0  0
   20.1167  -10.5625    0.0000 C   0  0  0  0  0  0  0  0  0  0  0  0
   -3.4333   -9.2500    0.0000 C   0  0  0  0  0  0  0  0  0  0  0  0
   -2.0083  -10.0750    0.0000 C   0  0  0  0  0  0  0  0  0  0  0  0
   20.1292   -8.9083    0.0000 C   0  0  0  0  0  0  0  0  0  0  0  0
   20.8417   -9.3292    0.0000 C   0  0  0  0  0  0  0  0  0  0  0  0
   -2.7208  -10.4833    0.0000 C   0  0  0  0  0  0  0  0  0  0  0  0
   -2.7208   -8.8333    0.0000 C   0  0  0  0  0  0  0  0  0  0  0  0
   19.4083  -10.1458    0.0000 C   0  0  0  0  0  0  0  0  0  0  0  0
   19.4167   -9.3167    0.0000 C   0  0  0  0  0  0  0  0  0  0  0  0
   -2.0083   -9.2500    0.0000 C   0  0  0  0  0  0  0  0  0  0  0  0
   -4.1500   -8.0125    0.0000 P   0  0  0  0  0  0  0  0  0  0  0  0
   -4.8583  -10.0750    0.0000 P   0  0  0  0  0  0  0  0  0  0  0  0
   20.8500   -7.6750    0.0000 P   0  0  0  0  0  0  0  0  0  0  0  0
   19.3958  -11.7958    0.0000 P   0  0  0  0  0  0  0  0  0  0  0  0
   -1.2958  -11.3125    0.0000 P   0  0  0  0  0  0  0  0  0  0  0  0
   22.2667  -10.1625    0.0000 P   0  0  0  0  0  0  0  0  0  0  0  0
   -4.1500   -8.8375    0.0000 O   0  0  0  0  0  0  0  0  0  0  0  0
   20.1125  -11.3875    0.0000 O   0  0  0  0  0  0  0  0  0  0  0  0
   -4.1458  -10.4875    0.0000 O   0  0  0  0  0  0  0  0  0  0  0  0
   20.1333   -8.0833    0.0000 O   0  0  0  0  0  0  0  0  0  0  0  0
   -1.2958  -10.4875    0.0000 O   0  0  0  0  0  0  0  0  0  0  0  0
   21.5500  -10.5708    0.0000 O   0  0  0  0  0  0  0  0  0  0  0  0
   15.8458   -8.8917    0.0000 C   0  0  0  0  0  0  0  0  0  0  0  0
    1.5625   -8.8500    0.0000 C   0  0  0  0  0  0  0  0  0  0  0  0
   -3.4375   -7.6000    0.0000 O   0  0  0  0  0  0  0  0  0  0  0  0
   21.5625   -8.0917    0.0000 O   0  0  0  0  0  0  0  0  0  0  0  0
   -2.0125  -11.7250    0.0000 O   0  0  0  0  0  0  0  0  0  0  0  0
   18.6833  -11.3750    0.0000 O   0  0  0  0  0  0  0  0  0  0  0  0
   -5.5708  -10.4875    0.0000 O   0  0  0  0  0  0  0  0  0  0  0  0
   15.8500   -8.0667    0.0000 O   0  0  0  0  0  0  0  0  0  0  0  0
    1.5625   -8.0250    0.0000 O   0  0  0  0  0  0  0  0  0  0  0  0
   21.2583   -6.9583    0.0000 O   0  0  0  0  0  0  0  0  0  0  0  0
   18.9833  -12.5083    0.0000 O   0  0  0  0  0  0  0  0  0  0  0  0
   19.8083  -12.5083    0.0000 O   0  0  0  0  0  0  0  0  0  0  0  0
   -0.4708  -11.3375    0.0000 O   0  0  0  0  0  0  0  0  0  0  0  0
   -4.5625   -7.2958    0.0000 O   0  0  0  0  0  0  0  0  0  0  0  0
   -5.2667   -9.3583    0.0000 O   0  0  0  0  0  0  0  0  0  0  0  0
   -0.9042  -12.0375    0.0000 O   0  0  0  0  0  0  0  0  0  0  0  0
   -4.4417   -9.3625    0.0000 O   0  0  0  0  0  0  0  0  0  0  0  0
   20.4333   -6.9625    0.0000 O   0  0  0  0  0  0  0  0  0  0  0  0
   -4.9750   -8.0125    0.0000 O   0  0  0  0  0  0  0  0  0  0  0  0
   21.5583   -8.9208    0.0000 O   0  0  0  0  0  0  0  0  0  0  0  0
   -2.7208  -11.3083    0.0000 O   0  0  0  0  0  0  0  0  0  0  0  0
    0.8458   -9.2583    0.0000 N   0  0  0  0  0  0  0  0  0  0  0  0
   16.5583   -9.3042    0.0000 N   0  0  0  0  0  0  0  0  0  0  0  0
   18.6917  -10.5542    0.0000 O   0  0  0  0  0  0  0  0  0  0  0  0
   -2.7208   -8.0083    0.0000 O   0  0  0  0  0  0  0  0  0  0  0  0
   -1.2958   -8.8417    0.0000 O   0  0  0  0  0  0  0  0  0  0  0  0
   18.7042   -8.9000    0.0000 O   0  0  0  0  0  0  0  0  0  0  0  0
   21.8875   -9.4333    0.0000 O   0  0  0  0  0  0  0  0  0  0  0  0
   22.9792  -10.5833    0.0000 O   0  0  0  0  0  0  0  0  0  0  0  0
   22.7125   -9.4708    0.0000 O   0  0  0  0  0  0  0  0  0  0  0  0
    2.2750   -9.2625    0.0000 O   0  0  0  0  0  0  0  0  0  0  0  0
   15.1292   -9.3000    0.0000 O   0  0  0  0  0  0  0  0  0  0  0  0
   12.9875   -8.8833    0.0000 O   0  0  0  0  0  0  0  0  0  0  0  0
    4.4125   -8.8583    0.0000 O   0  0  0  0  0  0  0  0  0  0  0  0
    6.5583   -9.2750    0.0000 O   0  0  0  0  0  0  0  0  0  0  0  0
    8.7000   -8.8708    0.0000 O   0  0  0  0  0  0  0  0  0  0  0  0
   10.8417   -9.2875    0.0000 O   0  0  0  0  0  0  0  0  0  0  0  0
    0.1333   -8.8458    0.0000 C   0  0  0  0  0  0  0  0  0  0  0  0
   17.2750   -8.8958    0.0000 C   0  0  0  0  0  0  0  0  0  0  0  0
   -0.5833   -9.2542    0.0000 C   0  0  0  0  0  0  0  0  0  0  0  0
   17.9875   -9.3083    0.0000 C   0  0  0  0  0  0  0  0  0  0  0  0
   14.4167   -8.8875    0.0000 C   0  0  0  0  0  0  0  0  0  0  0  0
    2.9875   -8.8542    0.0000 C   0  0  0  0  0  0  0  0  0  0  0  0
    5.1292   -9.2708    0.0000 C   0  0  0  0  0  0  0  0  0  0  0  0
    9.4167   -9.2833    0.0000 C   0  0  0  0  0  0  0  0  0  0  0  0
   10.1292   -8.8750    0.0000 C   0  0  0  0  0  0  0  0  0  0  0  0
    5.8417   -8.8625    0.0000 C   0  0  0  0  0  0  0  0  0  0  0  0
   11.5583   -8.8792    0.0000 C   0  0  0  0  0  0  0  0  0  0  0  0
   12.2708   -9.2917    0.0000 C   0  0  0  0  0  0  0  0  0  0  0  0
    3.7000   -9.2667    0.0000 C   0  0  0  0  0  0  0  0  0  0  0  0
   13.7000   -9.2958    0.0000 C   0  0  0  0  0  0  0  0  0  0  0  0
    7.2708   -8.8667    0.0000 C   0  0  0  0  0  0  0  0  0  0  0  0
    7.9875   -9.2792    0.0000 C   0  0  0  0  0  0  0  0  0  0  0  0
  2  7  1  0  0  0  0 
  3 10  1  0  0  0  0 
  4  1  1  0  0  0  0 
  5  8  1  0  0  0  0 
  6 11  1  0  0  0  0 
  7  6  1  0  0  0  0 
  8  1  1  0  0  0  0 
  9  4  1  0  0  0  0 
 10 11  1  0  0  0  0 
 11 51  1  1  0  0  0 
 12  9  1  0  0  0  0 
 13 19  1  0  0  0  0 
 14 21  1  0  0  0  0 
 15 22  1  0  0  0  0 
 16 20  1  0  0  0  0 
 17 23  1  0  0  0  0 
 18 24  1  0  0  0  0 
  4 19  1  6  0  0  0 
  3 20  1  6  0  0  0 
  1 21  1  1  0  0  0 
  6 22  1  1  0  0  0 
  5 23  1  1  0  0  0 
  2 24  1  1  0  0  0 
 25 56  1  0  0  0  0 
 26 46  1  0  0  0  0 
 27 13  2  0  0  0  0 
 28 15  2  0  0  0  0 
 29 17  2  0  0  0  0 
 30 16  2  0  0  0  0 
 31 14  2  0  0  0  0 
 32 25  2  0  0  0  0 
 33 26  2  0  0  0  0 
 34 15  1  0  0  0  0 
 35 16  1  0  0  0  0 
 36 16  1  0  0  0  0 
 37 17  1  0  0  0  0 
 38 13  1  0  0  0  0 
 39 14  1  0  0  0  0 
 40 17  1  0  0  0  0 
 41 14  1  0  0  0  0 
 42 15  1  0  0  0  0 
 43 13  1  0  0  0  0 
  7 44  1  6  0  0  0 
  8 45  1  6  0  0  0 
 46 62  1  0  0  0  0 
 47 25  1  0  0  0  0 
 10 48  1  1  0  0  0 
  9 49  1  1  0  0  0 
 12 50  1  1  0  0  0 
 51 65  1  0  0  0  0 
 52 18  1  0  0  0  0 
 53 18  1  0  0  0  0 
 54 18  1  0  0  0  0 
 55 26  1  0  0  0  0 
 56 66  1  0  0  0  0 
 57 73  1  0  0  0  0 
 58 74  1  0  0  0  0 
 59 71  1  0  0  0  0 
 60 77  1  0  0  0  0 
 61 70  1  0  0  0  0 
 62 64  1  0  0  0  0 
 63 47  1  0  0  0  0 
 64 50  1  0  0  0  0 
 65 63  1  0  0  0  0 
 66 75  1  0  0  0  0 
 67 55  1  0  0  0  0 
 68 58  1  0  0  0  0 
 69 60  1  0  0  0  0 
 70 69  1  0  0  0  0 
 71 68  1  0  0  0  0 
 72 61  1  0  0  0  0 
 73 72  1  0  0  0  0 
 74 67  1  0  0  0  0 
 75 57  1  0  0  0  0 
 76 59  1  0  0  0  0 
 77 76  1  0  0  0  0 
 12  5  1  0  0  0  0 
  2  3  1  0  0  0  0 
M  END