
          05080814032D 1   1.00000     0.00000     0

 30 33  0     0  0            999 V2000
   -4.8056  -16.1250    0.0000 C   0  0  0  0  0  0           0  0  0
   -4.8068  -16.9523    0.0000 C   0  0  0  0  0  0           0  0  0
   -4.0919  -17.3652    0.0000 C   0  0  0  0  0  0           0  0  0
   -4.0937  -15.7122    0.0000 C   0  0  0  0  0  0           0  0  0
   -3.3784  -16.1213    0.0000 C   0  0  0  0  0  0           0  0  0
   -3.3781  -16.9478    0.0000 C   0  0  0  0  0  0           0  0  0
   -2.5920  -17.2029    0.0000 N   0  0  3  0  0  0           0  0  0
   -2.1064  -16.5341    0.0000 C   0  0  0  0  0  0           0  0  0
   -2.5924  -15.8658    0.0000 N   0  0  0  0  0  0           0  0  0
   -4.0901  -18.1924    0.0000 C   0  0  0  0  0  0           0  0  0
   -4.8035  -18.6068    0.0000 O   0  0  0  0  0  0           0  0  0
   -3.3745  -18.6030    0.0000 O   0  0  0  0  0  0           0  0  0
   -2.3368  -17.9875    0.0000 C   0  0  0  0  0  0           0  0  0
   -1.5298  -18.1588    0.0000 C   0  0  0  0  0  0           0  0  0
   -1.2765  -18.9446    0.0000 C   0  0  0  0  0  0           0  0  0
   -0.4703  -19.1161    0.0000 C   0  0  0  0  0  0           0  0  0
    0.0825  -18.5025    0.0000 C   0  0  0  0  0  0           0  0  0
   -0.1765  -17.7147    0.0000 C   0  0  0  0  0  0           0  0  0
   -0.9821  -17.5469    0.0000 C   0  0  0  0  0  0           0  0  0
    0.8897  -18.6727    0.0000 N   0  0  3  0  0  0           0  0  0
    1.2273  -19.4227    0.0000 C   0  0  0  0  0  0           0  0  0
    2.0477  -19.3351    0.0000 C   0  0  0  0  0  0           0  0  0
    2.2179  -18.5278    0.0000 C   0  0  0  0  0  0           0  0  0
    1.5028  -18.1166    0.0000 C   0  0  0  0  0  0           0  0  0
    1.4155  -17.3007    0.0000 C   0  0  0  0  0  0           0  0  0
   -1.2814  -16.5338    0.0000 C   0  0  0  0  0  0           0  0  0
   -0.8691  -15.8192    0.0000 C   0  0  0  0  0  0           0  0  0
   -1.2819  -15.1049    0.0000 C   0  0  0  0  0  0           0  0  0
    2.0772  -16.8160    0.0000 O   0  0  0  0  0  0           0  0  0
    0.6640  -16.9671    0.0000 O   0  0  0  0  0  0           0  0  0
  1  2  2  0     0  0
 14 15  2  0     0  0
  5  4  2  0     0  0
 15 16  1  0     0  0
  6  7  1  0     0  0
 16 17  2  0     0  0
  7  8  1  0     0  0
 17 18  1  0     0  0
  8  9  2  0     0  0
 18 19  2  0     0  0
 19 14  1  0     0  0
  9  5  1  0     0  0
 17 20  1  0     0  0
 20 21  1  0     0  0
  4  1  1  0     0  0
  5  6  1  0     0  0
 10 11  1  0     0  0
 21 22  2  0     0  0
 22 23  1  0     0  0
 23 24  2  0     0  0
 24 20  1  0     0  0
 10 12  2  0     0  0
 24 25  1  0     0  0
  3 10  1  0     0  0
  8 26  1  0     0  0
  2  3  1  0     0  0
 26 27  1  0     0  0
  7 13  1  0     0  0
 27 28  1  0     0  0
  3  6  2  0     0  0
 13 14  1  0     0  0
 25 29  1  0     0  0
 25 30  2  0     0  0
M  END