
  SciTegic11111309142D

 48 52  0  0  1  0            999 V2000
   -1.2746    1.9249    0.0000 C   0  0
   -0.3658   -5.0917    0.0000 C   0  0
    0.4212   -5.3430    0.0000 C   0  0
    0.9032   -4.6742    0.0000 C   0  0
    0.4175   -4.0118    0.0000 C   0  0
   -0.3658   -4.2664    0.0000 C   0  0
   -2.3973   -0.8310    0.0000 O   0  0
   -2.8826   -1.4991    0.0000 C   0  0
   -2.5798   -2.2673    0.0000 C   0  0
   -3.0817   -2.8796    0.0000 C   0  0
   -2.8009   -3.6139    0.0000 C   0  0
   -2.0236   -3.7177    0.0000 C   0  0
   -1.5616   -3.0832    0.0000 C   0  0
   -1.8843   -2.3603    0.0000 C   0  0
   -3.8968   -2.7473    0.0000 Cl  0  0
   -1.3899   -1.6990    0.0000 Cl  0  0
   -0.7404   -3.1695    0.0000 S   0  0
   -0.6541   -2.3483    0.0000 O   0  0
   -0.8267   -3.9907    0.0000 O   0  0
    1.1326   -3.5990    0.0000 C   0  0
    1.8470   -4.0114    0.0000 N   0  0
    1.1326   -2.7725    0.0000 O   0  0
    1.8470   -4.8388    0.0000 C   0  0
    2.5574   -5.2490    0.0000 C   0  0
    3.2684   -4.8385    0.0000 N   0  0
    3.2684   -4.0161    0.0000 C   0  0
    2.5576   -3.6012    0.0000 C   0  0
    3.9800   -5.2493    0.0000 C   0  0
    3.9800   -6.0707    0.0000 O   0  0
    4.6989   -4.8343    0.0000 C   0  0  2  0  0  0
    5.4100   -5.2449    0.0000 C   0  0
    6.1291   -4.8296    0.0000 C   0  0
    6.8402   -5.2403    0.0000 C   0  0
    7.5593   -4.8250    0.0000 C   0  0
   -2.7341   -0.0745    0.0000 C   0  0
   -3.4058    1.4343    0.0000 C   0  0
   -3.8930    0.7592    0.0000 C   0  0
   -3.5540    0.0058    0.0000 C   0  0
   -2.5812    1.3472    0.0000 C   0  0
   -2.2489    0.5899    0.0000 C   0  0
   -1.4288    0.5003    0.0000 N   0  0
   -0.9400    1.1670    0.0000 C   0  0
   -2.0964    2.0116    0.0000 C   0  0
   -0.1165    1.0784    0.0000 C   0  0
   -2.4325    2.7686    0.0000 C   0  0
    8.2766   -5.2392    0.0000 N   0  0
    4.6988   -4.0060    0.0000 N   0  0
    0.0797   -3.2591    0.0000 N   0  0
 10 15  1  0
 14 16  1  0
 13 17  1  0
 17 18  2  0
 17 19  2  0
  5 20  1  0
 20 21  1  0
 20 22  2  0
 21 23  1  0
 21 27  1  0
 23 24  1  0
 24 25  1  0
 25 26  1  0
 26 27  1  0
 25 28  1  0
 28 29  2  0
 28 30  1  0
 30 31  1  0
 31 32  1  0
 32 33  1  0
 33 34  1  0
  7 35  1  0
 35 40  2  0
  2  3  1  0
 39 36  2  0
  3  4  1  0
 36 37  1  0
  4  5  1  0
 37 38  2  0
 38 35  1  0
  5  6  1  0
  6  2  1  0
 39 40  1  0
  7  8  1  0
 40 41  1  0
  8  9  1  0
 41 42  2  0
 42  1  1  0
  9 10  2  0
  1 43  2  0
 43 39  1  0
 10 11  1  0
 42 44  1  0
 11 12  2  0
 43 45  1  0
 12 13  1  0
 34 46  1  0
 13 14  2  0
 30 47  1  1
 14  9  1  0
 17 48  1  0
 48  5  1  0
M  END