
  SciTegic09261414462D

 16 17  0  0  0  0            999 V2000
   26.5676   -2.0675    0.0000 N   0  0
   26.5524   -2.8936    0.0000 C   0  0
   25.8302   -3.2946    0.0000 N   0  0
   25.8172   -4.1171    0.0000 C   0  0
   26.5243   -4.5420    0.0000 C   0  0
   27.2445   -4.1445    0.0000 C   0  0
   27.2596   -3.3185    0.0000 N   0  0
   27.9515   -4.5694    0.0000 N   0  0
   28.0207   -5.3873    0.0000 C   0  0
   28.8271   -5.5768    0.0000 C   0  0  1  0  0  0
   29.2520   -4.8696    0.0000 C   0  0
   28.7083   -4.2430    0.0000 C   0  0
   29.1478   -6.3349    0.0000 N   0  0
   29.9683   -6.4341    0.0000 C   0  0
   25.0949   -4.5183    0.0000 C   0  0
   24.3874   -4.0939    0.0000 C   0  0
  2  3  1  0
  3  4  2  0
  4  5  1  0
  5  6  2  0
  6  7  1  0
  2  7  2  0
  1  2  1  0
  8  9  1  0
  9 10  1  0
 10 11  1  0
 11 12  1  0
  8 12  1  0
 13 14  1  0
 10 13  1  1
  6  8  1  0
  4 15  1  0
 15 16  1  0
M  END