
  SciTegic12011114592D

 38 42  0  0  0  0            999 V2000
   19.3413  -10.2205    0.0000 N   0  0
   20.0564   -9.8108    0.0000 C   0  0
   20.0593   -8.9849    0.0000 N   0  0
   19.3410   -8.5705    0.0000 C   0  0
   19.3405   -7.7455    0.0000 N   0  0
   20.0551   -7.3324    0.0000 C   0  0
   20.7695  -10.2257    0.0000 S   0  0
   21.4854   -9.8157    0.0000 C   0  0
   22.1942  -10.2337    0.0000 C   0  0
   22.9096   -9.8243    0.0000 C   0  0
   22.9129   -8.9985    0.0000 C   0  0
   22.1948   -8.5837    0.0000 C   0  0
   21.4823   -8.9954    0.0000 C   0  0
   23.6282   -8.5875    0.0000 N   0  0
   20.8409   -7.5806    0.0000 C   0  0
   21.3199   -6.9089    0.0000 C   0  0
   20.8292   -6.2457    0.0000 N   0  0
   20.0468   -6.5075    0.0000 N   0  0
   22.1449   -6.9017    0.0000 C   0  0
   17.8545   -8.7313    0.0000 C   0  0
   17.3734   -9.3925    0.0000 C   0  0
   17.8536  -10.0542    0.0000 C   0  0
   18.6314   -9.8021    0.0000 N   0  0
   18.6320   -8.9844    0.0000 C   0  0
   24.3418   -9.0014    0.0000 C   0  0
   25.0571   -8.5904    0.0000 C   0  0
   25.7707   -9.0049    0.0000 N   0  0
   24.3401   -9.8264    0.0000 O   0  0
   25.7621   -9.8253    0.0000 C   0  0
   26.5439  -10.0887    0.0000 C   0  0  1  0  0  0
   27.0360   -9.4265    0.0000 C   0  0  2  0  0  0
   26.5583   -8.7540    0.0000 C   0  0
   27.8610   -9.4354    0.0000 O   0  0
   26.7903  -10.8761    0.0000 O   0  0
   27.5954  -11.0563    0.0000 C   0  0
   27.8418  -11.8437    0.0000 C   0  0
   28.6468  -12.0239    0.0000 O   0  0
   28.8933  -12.8113    0.0000 C   0  0
 16 17  1  0
 18  6  2  0
  3  4  2  0
 16 19  1  0
 23 24  1  0
  8  9  2  0
  4 24  1  0
 21 22  2  0
  9 10  1  0
  1  2  2  0
 10 11  2  0
 20 21  1  0
 22 23  1  0
 24 20  2  0
  4  5  1  0
 14 25  1  0
 11 12  1  0
 25 26  1  0
 23  1  1  0
 26 27  1  0
 12 13  2  0
 25 28  2  0
 27 29  1  0
 13  8  1  0
  5  6  1  0
 11 14  1  0
 17 18  1  0
 29 30  1  0
 30 31  1  0
 31 32  1  0
 32 27  1  0
  2  3  1  0
 31 33  1  6
 15 16  2  0
 30 34  1  1
  2  7  1  0
 34 35  1  0
 35 36  1  0
  7  8  1  0
 36 37  1  0
  6 15  1  0
 37 38  1  0
M  END