
  SciTegic01231714202D

 28 30  0  0  0  0            999 V2000
   -2.3155    0.7475    0.0000 C   0  0
   -2.3155   -0.7475    0.0000 C   0  0
   -1.0028   -1.5132    0.0000 C   0  0
   -1.0028    1.5132    0.0000 C   0  0
    0.2917    0.7475    0.0000 C   0  0
    0.2917   -0.7475    0.0000 C   0  0
    1.7138   -1.2033    0.0000 N   0  0
    2.5889    0.0182    0.0000 C   0  0
    1.7138    1.2033    0.0000 O   0  0
    4.0872    0.0382    0.0000 S   0  0
    4.8208    1.3475    0.0000 C   0  0
    6.3215    1.3677    0.0000 C   0  0
    7.0552    2.6770    0.0000 N   0  0
    6.9352    0.3365    0.0000 O   0  0
    8.5559    2.6972    0.0000 N   0  0
    9.2896    4.0065    0.0000 C   0  0
   10.7903    4.0267    0.0000 C   0  0
   11.5552    2.7363    0.0000 C   0  0
   13.0551    2.7534    0.0000 C   0  0
   13.7902    4.0610    0.0000 C   0  0
   13.0254    5.3514    0.0000 C   0  0
   11.5255    5.3342    0.0000 C   0  0
   10.9136    6.3665    0.0000 O   0  0
   15.2909    4.0812    0.0000 N   0  0
   16.0245    5.3905    0.0000 C   0  0
   16.0610    2.7930    0.0000 C   0  0
   17.2609    2.8106    0.0000 C   0  0
   17.2244    5.4067    0.0000 C   0  0
  1  2  2  0
  2  3  1  0
  3  6  2  0
  5  4  2  0
  4  1  2  0
  5  6  1  0
  6  7  1  0
  7  8  2  0
  8  9  1  0
  9  5  1  0
  8 10  1  0
 10 11  1  0
 11 12  1  0
 12 13  1  0
 12 14  2  0
 13 15  1  0
 15 16  2  0
 16 17  1  0
 17 18  2  0
 18 19  1  0
 19 20  2  0
 20 21  1  0
 21 22  2  0
 22 17  1  0
 22 23  1  0
 20 24  1  0
 24 25  1  0
 24 26  1  0
 26 27  1  0
 25 28  1  0
M  END