
  SciTegic01161211212D

 13 12  0  0  0  0            999 V2000
   -3.3208   -2.0792    0.0000 P   0  0
    0.9667   -2.0792    0.0000 P   0  0
   -4.0333   -2.4917    0.0000 O   0  0
   -2.7333   -1.4917    0.0000 O   0  0
    1.6792   -2.4917    0.0000 O   0  0
    1.5542   -1.4917    0.0000 O   0  0
    0.2542   -2.4917    0.0000 C   0  0
   -2.6000   -2.4917    0.0000 C   0  0
    0.9667   -1.2542    0.0000 O   0  0
   -3.3208   -1.2542    0.0000 O   0  0
   -1.8875   -2.0792    0.0000 C   0  0
   -0.4583   -2.0792    0.0000 C   0  0
   -1.1750   -2.4917    0.0000 O   0  0
  2  7  1  0
  3  1  1  0
  4  1  1  0
  5  2  1  0
  6  2  1  0
  7 12  1  0
  8  1  1  0
  9  2  2  0
 10  1  2  0
 11  8  1  0
 12 13  1  0
 13 11  1  0
M  END