
          11290714372D 1   1.00000     0.00000     0

 27 29  0     1  0            999 V2000
    4.3299   -4.7098    0.0000 C   0  0  0  0  0  0           0  0  0
    3.5889   -4.3471    0.0000 C   0  0  0  0  0  0           0  0  0
    3.0135   -4.9384    0.0000 C   0  0  0  0  0  0           0  0  0
    3.4006   -5.6699    0.0000 N   0  3  3  0  0  0           0  0  0
    4.2119   -5.5251    0.0000 C   0  0  2  0  0  0           0  0  0
    5.0371   -5.5025    0.0000 C   0  0  1  0  0  0           0  0  0
    5.5433   -6.1604    0.0000 C   0  0  0  0  0  0           0  0  0
    6.3211   -5.8838    0.0000 S   0  0  0  0  0  0           0  0  0
    6.2985   -5.0585    0.0000 C   0  0  1  0  0  0           0  0  0
    5.5066   -4.8252    0.0000 O   0  0  0  0  0  0           0  0  0
    4.8063   -4.7043    0.0000 H   0  0  0  0  0  0           0  0  0
    6.3386   -4.2345    0.0000 C   0  0  0  0  0  0           0  0  0
    7.0739   -3.8606    0.0000 C   0  0  0  0  0  0           0  0  0
    7.1143   -3.0374    0.0000 C   0  0  0  0  0  0           0  0  0
    6.4202   -2.5898    0.0000 C   0  0  0  0  0  0           0  0  0
    5.6840   -2.9714    0.0000 C   0  0  0  0  0  0           0  0  0
    5.6472   -3.7935    0.0000 C   0  0  0  0  0  0           0  0  0
    7.0846   -5.3087    0.0000 C   0  0  3  0  0  0           0  0  0
    7.2578   -6.1159    0.0000 C   0  0  0  0  0  0           0  0  0
    8.0399   -6.3669    0.0000 C   0  0  0  0  0  0           0  0  0
    8.6528   -5.8141    0.0000 C   0  0  0  0  0  0           0  0  0
    8.4781   -5.0068    0.0000 C   0  0  0  0  0  0           0  0  0
    7.6906   -4.7523    0.0000 C   0  0  0  0  0  0           0  0  0
    2.5750   -5.6667    0.0000 C   0  0  0  0  0  0           0  0  0
    3.3958   -6.4917    0.0000 C   0  0  0  0  0  0           0  0  0
    4.2042   -6.3500    0.0000 H   0  0  0  0  0  0           0  0  0
    5.8583   -6.8667    0.0000 I   0  5  0  0  0  0           0  0  0
  1  2  1  0     0  0
 12 13  2  0     0  0
  5  6  1  0     0  0
 13 14  1  0     0  0
  6  7  1  0     0  0
 14 15  2  0     0  0
 15 16  1  0     0  0
 16 17  2  0     0  0
 17 12  1  0     0  0
  2  3  1  0     0  0
  9 18  1  6     0  0
 18 19  1  0     0  0
  3  4  1  0     0  0
  7  8  1  0     0  0
  8  9  1  0     0  0
  9 10  1  0     0  0
 10  6  1  0     0  0
 18 23  1  0     0  0
 19 20  1  0     0  0
 20 21  1  0     0  0
 21 22  1  0     0  0
 22 23  1  0     0  0
  4  5  1  0     0  0
  4 24  1  0     0  0
  6 11  1  1     0  0
  4 25  1  0     0  0
  5  1  1  0     0  0
  5 26  1  6     0  0
  9 12  1  0     0  0
M  CHG  2   4   1  27  -1
M  END