
          11280715062D 1   1.00000     0.00000     0

 19 20  0     0  0            999 V2000
    5.6667   -2.5250    0.0000 C   0  0  0  0  0  0           0  0  0
    1.4125   -3.3417    0.0000 N   0  0  0  0  0  0           0  0  0
    0.1292   -2.9750    0.0000 N   0  0  0  0  0  0           0  0  0
    0.6292   -3.6250    0.0000 C   0  0  0  0  0  0           0  0  0
    1.3875   -2.5250    0.0000 C   0  0  0  0  0  0           0  0  0
    6.3875   -2.1125    0.0000 N   0  0  0  0  0  0           0  0  0
    5.6667   -3.3500    0.0000 S   0  0  0  0  0  0           0  0  0
    0.5917   -2.2917    0.0000 C   0  0  0  0  0  0           0  0  0
    4.9542   -2.1125    0.0000 N   0  0  0  0  0  0           0  0  0
    7.1000   -2.5250    0.0000 C   0  0  0  0  0  0           0  0  0
    2.1000   -2.1125    0.0000 C   0  0  0  0  0  0           0  0  0
    4.2417   -2.5250    0.0000 C   0  0  0  0  0  0           0  0  0
    7.0917   -3.3417    0.0000 C   0  0  0  0  0  0           0  0  0
    7.8042   -2.1042    0.0000 C   0  0  0  0  0  0           0  0  0
    2.8167   -2.5250    0.0000 C   0  0  0  0  0  0           0  0  0
    3.5292   -2.1125    0.0000 C   0  0  0  0  0  0           0  0  0
    8.5250   -2.5167    0.0000 C   0  0  0  0  0  0           0  0  0
    7.8042   -3.7542    0.0000 C   0  0  0  0  0  0           0  0  0
    8.5250   -3.3417    0.0000 C   0  0  0  0  0  0           0  0  0
  2  5  1  0     0  0
  3  8  1  0     0  0
  4  2  2  0     0  0
  5 11  1  0     0  0
  6  1  1  0     0  0
  7  1  2  0     0  0
  8  5  2  0     0  0
  9  1  1  0     0  0
 10  6  1  0     0  0
 11 15  1  0     0  0
 12  9  1  0     0  0
 13 10  2  0     0  0
 14 10  1  0     0  0
 15 16  1  0     0  0
 16 12  1  0     0  0
 17 14  2  0     0  0
 18 13  1  0     0  0
 19 17  1  0     0  0
 18 19  2  0     0  0
  3  4  1  0     0  0
M  END