
          11280714512D 1   1.00000     0.00000     0

 24 25  0     0  0            999 V2000
    5.3917   -4.4125    0.0000 C   0  0  0  0  0  0           0  0  0
    5.3917   -3.5875    0.0000 C   0  0  0  0  0  0           0  0  0
    1.1042   -1.9542    0.0000 O   0  0  0  0  0  0           0  0  0
    4.6792   -3.1792    0.0000 C   0  0  0  0  0  0           0  0  0
    0.3917   -2.3667    0.0000 C   0  0  0  0  0  0           0  0  0
    6.1125   -4.8250    0.0000 O   0  0  0  0  0  0           0  0  0
    3.9625   -1.9417    0.0000 N   0  0  0  0  0  0           0  0  0
    0.3917   -3.2000    0.0000 C   0  0  0  0  0  0           0  0  0
    4.6792   -2.3542    0.0000 C   0  0  0  0  0  0           0  0  0
    2.5292   -1.9500    0.0000 C   0  0  3  0  0  0           0  0  0
    1.8167   -2.3625    0.0000 C   0  0  0  0  0  0           0  0  0
    3.2500   -2.3542    0.0000 C   0  0  0  0  0  0           0  0  0
    4.6792   -4.8292    0.0000 O   0  0  0  0  0  0           0  0  0
    2.5292   -1.1250    0.0000 O   0  0  0  0  0  0           0  0  0
    6.1042   -3.1667    0.0000 C   0  0  0  0  0  0           0  0  0
    6.1000   -2.3417    0.0000 C   0  0  0  0  0  0           0  0  0
   -0.3250   -1.9542    0.0000 C   0  0  0  0  0  0           0  0  0
    1.1042   -3.6125    0.0000 C   0  0  0  0  0  0           0  0  0
    5.3792   -1.9375    0.0000 C   0  0  0  0  0  0           0  0  0
   -0.3250   -3.6125    0.0000 C   0  0  0  0  0  0           0  0  0
    3.9667   -4.4167    0.0000 C   0  0  0  0  0  0           0  0  0
    3.2542   -4.8292    0.0000 C   0  0  0  0  0  0           0  0  0
   -1.0375   -2.3750    0.0000 C   0  0  0  0  0  0           0  0  0
   -1.0375   -3.2000    0.0000 C   0  0  0  0  0  0           0  0  0
  2  1  1  0     0  0
  3 11  1  0     0  0
  4  2  1  0     0  0
  5  3  1  0     0  0
  6  1  2  0     0  0
  7  9  1  0     0  0
  8  5  1  0     0  0
  9  4  2  0     0  0
 10 12  1  0     0  0
 11 10  1  0     0  0
 12  7  1  0     0  0
 13  1  1  0     0  0
 14 10  1  0     0  0
 15  2  2  0     0  0
 16 15  1  0     0  0
 17  5  2  0     0  0
 18  8  1  0     0  0
 19 16  2  0     0  0
 20  8  2  0     0  0
 21 13  1  0     0  0
 22 21  1  0     0  0
 23 17  1  0     0  0
 24 23  2  0     0  0
 19  9  1  0     0  0
 24 20  1  0     0  0
M  END