
  SciTegic02271515152D

 53 56  0  0  0  0            999 V2000
    2.6332  -13.1576    0.0000 C   0  0  2  0  0  0
    3.3409  -12.7490    0.0000 C   0  0
    1.9255  -12.7490    0.0000 C   0  0
    2.6332  -13.9748    0.0000 N   0  0
    1.9255  -14.3834    0.0000 C   0  0
    1.9255  -15.2006    0.0000 C   0  0  2  0  0  0
    1.2178  -13.9748    0.0000 O   0  0
    1.2178  -15.6092    0.0000 C   0  0
    2.6332  -15.6092    0.0000 N   0  0
    2.6332  -16.4264    0.0000 C   0  0
    3.3409  -15.2006    0.0000 C   0  0
    4.0486  -15.6092    0.0000 C   0  0  2  0  0  0
    3.3409  -14.3834    0.0000 O   0  0
    4.0486  -13.1576    0.0000 O   0  0
    3.3409  -11.9318    0.0000 N   0  0
    4.1385  -16.4216    0.0000 C   0  0
    4.9379  -16.5915    0.0000 C   0  0
    5.3465  -15.8838    0.0000 C   0  0
    4.7996  -15.2766    0.0000 N   0  0
    4.0012  -11.4464    0.0000 C   0  0  1  0  0  0
    3.7487  -10.6692    0.0000 C   0  0
    2.9315  -10.6692    0.0000 C   0  0
    2.6791  -11.4464    0.0000 C   0  0
    4.7791  -11.6968    0.0000 C   0  0
    4.9512  -12.4957    0.0000 O   0  0
    5.3849  -11.1483    0.0000 O   0  0
    4.9703  -14.4774    0.0000 C   0  0
    5.7477  -14.2256    0.0000 C   0  0  2  0  0  0
    4.3635  -13.9300    0.0000 O   0  0
    5.7291  -12.7460    0.0000 C   0  0
    6.4117  -14.7019    0.0000 N   0  0
    7.1196  -14.2937    0.0000 C   0  0
    7.8271  -14.7027    0.0000 C   0  0  2  0  0  0
    7.1201  -13.4765    0.0000 O   0  0
    8.5350  -14.2946    0.0000 C   0  0
    8.5355  -13.4774    0.0000 C   0  0
    9.2436  -13.0710    0.0000 C   0  0
    9.2444  -12.2546    0.0000 C   0  0
    8.5364  -11.8447    0.0000 C   0  0
    7.8261  -12.2573    0.0000 C   0  0
    7.8288  -13.0723    0.0000 C   0  0
    7.8266  -15.5199    0.0000 N   0  0
    8.5340  -15.9289    0.0000 C   0  0
    8.5335  -16.7461    0.0000 O   0  0
    9.2420  -15.5208    0.0000 C   0  0
    9.9494  -15.9298    0.0000 C   0  0
   10.6574  -15.5216    0.0000 C   0  0
   11.3649  -15.9307    0.0000 C   0  0
   12.0728  -15.5225    0.0000 C   0  0
    4.5771  -10.8629    0.0000 H   0  0
    3.8301  -16.3934    0.0000 H   0  0
   12.7803  -15.9315    0.0000 C   0  0
   13.4882  -15.5234    0.0000 C   0  0
  1  2  1  0
  1  3  1  1
  1  4  1  0
  4  5  1  0
  5  6  1  0
  5  7  2  0
  6  8  1  1
  6  9  1  0
  9 10  1  0
  9 11  1  0
 12 11  1  0
 11 13  2  0
  2 14  2  0
  2 15  1  0
 12 16  1  0
 16 17  1  0
 17 18  1  0
 18 19  1  0
 19 12  1  0
 15 20  1  0
 20 21  1  0
 21 22  1  0
 22 23  1  0
 23 15  1  0
 20 24  1  0
 24 25  1  0
 24 26  2  0
 19 27  1  0
 27 28  1  0
 27 29  2  0
 25 30  1  0
 28 30  1  0
 28 31  1  6
 31 32  1  0
 32 33  1  0
 32 34  2  0
 33 35  1  6
 35 36  1  0
 36 37  2  0
 37 38  1  0
 38 39  2  0
 39 40  1  0
 40 41  2  0
 41 36  1  0
 33 42  1  0
 42 43  1  0
 43 44  2  0
 43 45  1  0
 45 46  2  0
 46 47  1  0
 47 48  2  0
 48 49  1  0
 20 50  1  6
 12 51  1  6
 49 52  2  0
 52 53  1  0
M  END