
  SciTegic06051313552D

 39 43  0  0  0  0            999 V2000
   11.1186  -14.5863    0.0000 C   0  0
   11.1174  -15.4136    0.0000 C   0  0
   11.8322  -15.8265    0.0000 C   0  0
   11.8304  -14.1736    0.0000 C   0  0
   13.3369  -14.3242    0.0000 C   0  0
   12.5457  -14.5827    0.0000 C   0  0
   12.5482  -15.4158    0.0000 C   0  0
   13.3421  -15.6694    0.0000 N   0  0
   13.8273  -14.9923    0.0000 N   0  0
   13.6014  -16.4526    0.0000 C   0  0
   13.1791  -17.1602    0.0000 C   0  0
   12.3566  -17.1456    0.0000 C   0  0
   11.9336  -17.8530    0.0000 C   0  0
   12.3356  -18.5744    0.0000 C   0  0
   13.1647  -18.5840    0.0000 C   0  0
   13.5839  -17.8759    0.0000 C   0  0
   13.5691  -19.3030    0.0000 C   0  0
   13.1486  -20.0127    0.0000 N   0  0
   13.5530  -20.7317    0.0000 C   0  0
   13.7625  -13.6176    0.0000 N   0  0
   14.5874  -13.6329    0.0000 S   0  0
   15.0786  -14.2955    0.0000 C   0  0
   14.5596  -12.8014    0.0000 O   0  0
   15.3762  -13.3875    0.0000 O   0  0
   14.8312  -15.0845    0.0000 C   0  0
   15.5038  -15.5638    0.0000 C   0  0
   16.1667  -15.0709    0.0000 C   0  0
   15.9016  -14.2887    0.0000 S   0  0
   16.9543  -15.3165    0.0000 Cl  0  0
   11.8236  -13.3529    0.0000 O   0  0
   11.1059  -12.9462    0.0000 C   0  0
   14.3780  -20.7410    0.0000 O   0  0
   13.1326  -21.4415    0.0000 C   0  0
   12.3084  -21.4299    0.0000 C   0  0
   11.8880  -22.1355    0.0000 O   0  0
   12.2889  -22.8570    0.0000 C   0  0
   13.1147  -22.8682    0.0000 C   0  0
   13.5396  -22.1581    0.0000 N   0  0
   14.3646  -22.1675    0.0000 C   0  0
  1  2  2  0
  2  3  1  0
  3  7  2  0
  6  4  2  0
  4  1  1  0
  6  7  1  0
  5  6  1  0
  7  8  1  0
  8  9  1  0
  9  5  2  0
  8 10  1  0
 10 11  1  0
 11 12  2  0
 12 13  1  0
 13 14  2  0
 14 15  1  0
 15 16  2  0
 16 11  1  0
 15 17  1  0
 17 18  1  0
 18 19  1  0
  5 20  1  0
 20 21  1  0
 21 22  1  0
 21 23  2  0
 21 24  2  0
 25 26  1  0
 22 25  2  0
 26 27  2  0
 27 28  1  0
 28 22  1  0
 27 29  1  0
  4 30  1  0
 30 31  1  0
 19 32  2  0
 33 19  1  0
 33 34  1  0
 33 38  1  0
 34 35  1  0
 35 36  1  0
 36 37  1  0
 37 38  1  0
 38 39  1  0
M  END