
  SciTegic10011413212D

 59 58  0  0  0  0            999 V2000
    4.9543  -10.2543    0.0000 O   0  0
    5.7793  -10.2543    0.0000 S   0  0
    5.3668   -9.5398    0.0000 O   0  0
    6.5001  -11.4918    0.0000 C   0  0  2  0  0  0
    6.5001  -12.3169    0.0000 C   0  0  2  0  0  0
    7.2122  -12.7252    0.0000 C   0  0  1  0  0  0
    7.9241  -12.3169    0.0000 C   0  0  2  0  0  0
    7.9241  -11.4918    0.0000 C   0  0  2  0  0  0
    7.2122  -11.0752    0.0000 O   0  0
    8.6398  -11.0815    0.0000 O   0  0
    9.3531  -11.4960    0.0000 C   0  0
   10.0688  -11.0856    0.0000 C   0  0
   10.7821  -11.5002    0.0000 C   0  0
   11.4978  -11.0898    0.0000 O   0  0
   10.0712  -10.2606    0.0000 O   0  0
    8.6380  -12.7304    0.0000 O   0  0
    5.7863  -12.7304    0.0000 O   0  0
    5.7844  -11.0815    0.0000 C   0  0
    7.2122  -13.5502    0.0000 O   0  0
    6.4953   -9.8418    0.0000 O   0  5
   10.7869   -9.8502    0.0000 C   0  0
   10.7893   -9.0252    0.0000 O   0  0
   11.5002  -10.2648    0.0000 C   0  0
   12.2111  -11.5044    0.0000 C   0  0
   12.9267  -11.0940    0.0000 C   0  0
   12.2086  -12.3294    0.0000 O   0  0
   13.6400  -11.5086    0.0000 C   0  0
   14.3557  -11.0982    0.0000 C   0  0
   15.0690  -11.5127    0.0000 C   0  0
   15.7846  -11.1024    0.0000 C   0  0
   16.4979  -11.5170    0.0000 C   0  0
   17.2136  -11.1066    0.0000 C   0  0
   17.9268  -11.5211    0.0000 C   0  0
   18.6425  -11.1107    0.0000 C   0  0
   19.3558  -11.5254    0.0000 C   0  0
   20.0715  -11.1150    0.0000 C   0  0
   20.7847  -11.5295    0.0000 C   0  0
   21.5004  -11.1191    0.0000 C   0  0
   22.2137  -11.5337    0.0000 C   0  0
   22.9294  -11.1232    0.0000 C   0  0
   23.6427  -11.5379    0.0000 C   0  0
   24.3584  -11.1275    0.0000 C   0  0
   12.2159   -9.8544    0.0000 C   0  0
   12.9292  -10.2690    0.0000 C   0  0
   13.6449   -9.8586    0.0000 C   0  0
   14.3581  -10.2732    0.0000 C   0  0
   15.0738   -9.8628    0.0000 C   0  0
   15.7871  -10.2773    0.0000 C   0  0
   16.5027   -9.8669    0.0000 C   0  0
   17.2160  -10.2816    0.0000 C   0  0
   17.9317   -9.8711    0.0000 C   0  0
   18.6450  -10.2857    0.0000 C   0  0
   19.3606   -9.8753    0.0000 C   0  0
   20.0739  -10.2899    0.0000 C   0  0
   20.7896   -9.8795    0.0000 C   0  0
   21.5028  -10.2941    0.0000 C   0  0
   22.2185   -9.8837    0.0000 C   0  0
   22.9318  -10.2983    0.0000 C   0  0
    7.4043   -9.3084    0.0000 Na  0  3
  2  1  2  0
  3  2  2  0
  4  5  1  0
  4  9  1  0
  5  6  1  0
  6  7  1  0
  7  8  1  0
  8  9  1  0
  8 10  1  6
 10 11  1  0
 11 12  1  0
 12 13  1  0
 13 14  1  0
 12 15  1  0
  7 16  1  6
  5 17  1  6
  4 18  1  1
 18  2  1  0
  6 19  1  1
  2 20  1  0
 15 21  1  0
 21 22  2  0
 21 23  1  0
 14 24  1  0
 24 25  1  0
 24 26  2  0
 25 27  1  0
 27 28  1  0
 28 29  1  0
 29 30  1  0
 30 31  1  0
 31 32  1  0
 32 33  1  0
 33 34  1  0
 34 35  1  0
 35 36  1  0
 36 37  1  0
 37 38  1  0
 38 39  1  0
 39 40  1  0
 40 41  1  0
 41 42  1  0
 23 43  1  0
 43 44  1  0
 44 45  1  0
 45 46  1  0
 46 47  1  0
 47 48  1  0
 48 49  1  0
 49 50  1  0
 50 51  1  0
 51 52  1  0
 52 53  1  0
 53 54  1  0
 54 55  1  0
 55 56  1  0
 56 57  1  0
 57 58  1  0
M  CHG  2  20  -1  59   1
M  END