
  CDK    6/4/10,11:42

 26 29  0  0  0  0  0  0  0  0999 V2000
    3.5176  -12.2883    0.0000 C   0  0  0  0  0  0  0  0  0  0  0  0
    3.5031  -13.1160    0.0000 C   0  0  0  0  0  0  0  0  0  0  0  0
    4.2154  -13.5398    0.0000 C   0  0  0  0  0  0  0  0  0  0  0  0
    4.9345  -13.1382    0.0000 C   0  0  0  0  0  0  0  0  0  0  0  0
    4.9489  -12.3104    0.0000 C   0  0  0  0  0  0  0  0  0  0  0  0
    4.2405  -11.8855    0.0000 C   0  0  0  0  0  0  0  0  0  0  0  0
    5.7190  -13.4025    0.0000 N   0  0  0  0  0  0  0  0  0  0  0  0
    6.2157  -12.7413    0.0000 C   0  0  0  0  0  0  0  0  0  0  0  0
    5.7413  -12.0677    0.0000 C   0  0  0  0  0  0  0  0  0  0  0  0
    7.0402  -12.6699    0.0000 C   0  0  0  0  0  0  0  0  0  0  0  0
    7.3877  -11.9171    0.0000 N   0  0  0  0  0  0  0  0  0  0  0  0
    6.9120  -11.2396    0.0000 C   0  0  0  0  0  0  0  0  0  0  0  0
    6.0887  -11.3149    0.0000 C   0  0  0  0  0  0  0  0  0  0  0  0
    4.2000  -14.3445    0.0000 N   0  0  0  0  0  0  0  0  0  0  0  0
    3.4984  -14.7381    0.0000 C   0  0  0  0  0  0  0  0  0  0  0  0
    2.8032  -14.3254    0.0000 O   0  0  0  0  0  0  0  0  0  0  0  0
    3.4829  -15.5430    0.0000 C   0  0  0  0  0  0  0  0  0  0  0  0
    2.7813  -15.9366    0.0000 C   0  0  0  0  0  0  0  0  0  0  0  0
    2.7670  -16.7454    0.0000 C   0  0  0  0  0  0  0  0  0  0  0  0
    3.4583  -17.1593    0.0000 C   0  0  0  0  0  0  0  0  0  0  0  0
    4.1638  -16.7645    0.0000 N   0  0  0  0  0  0  0  0  0  0  0  0
    4.1754  -15.9609    0.0000 C   0  0  0  0  0  0  0  0  0  0  0  0
    4.8810  -15.5661    0.0000 C   0  0  0  0  0  0  0  0  0  0  0  0
    2.8224  -11.8755    0.0000 Cl  0  0  0  0  0  0  0  0  0  0  0  0
    2.7963  -13.5069    0.0000 O   0  0  0  0  0  0  0  0  0  0  0  0
    2.1050  -13.0929    0.0000 C   0  0  0  0  0  0  0  0  0  0  0  0
  1  2  2  0  0  0  0 
  2  3  1  0  0  0  0 
  3  4  2  0  0  0  0 
  4  5  1  0  0  0  0 
  5  6  2  0  0  0  0 
  6  1  1  0  0  0  0 
  4  7  1  0  0  0  0 
  7  8  1  0  0  0  0 
  8  9  2  0  0  0  0 
  9  5  1  0  0  0  0 
  8 10  1  0  0  0  0 
 10 11  2  0  0  0  0 
 11 12  1  0  0  0  0 
 12 13  2  0  0  0  0 
 13  9  1  0  0  0  0 
  3 14  1  0  0  0  0 
 14 15  1  0  0  0  0 
 15 16  2  0  0  0  0 
 15 17  1  0  0  0  0 
 17 18  2  0  0  0  0 
 18 19  1  0  0  0  0 
 19 20  2  0  0  0  0 
 20 21  1  0  0  0  0 
 21 22  2  0  0  0  0 
 22 17  1  0  0  0  0 
 22 23  1  0  0  0  0 
  1 24  1  0  0  0  0 
  2 25  1  0  0  0  0 
 25 26  1  0  0  0  0 
M  END