
  SciTegic02011310462D

 17 17  0  0  0  0            999 V2000
   12.8234   -7.8915    0.0000 C   0  0
   12.8222   -8.7189    0.0000 C   0  0
   13.5371   -9.1317    0.0000 C   0  0
   14.2535   -8.7184    0.0000 C   0  0
   14.2506   -7.8879    0.0000 C   0  0
   13.5353   -7.4788    0.0000 C   0  0
   14.9686   -9.1298    0.0000 N   0  0
   12.1075   -9.1308    0.0000 C   0  0
   11.3933   -8.7177    0.0000 O   0  0
   12.1068   -9.9558    0.0000 N   0  0
   15.6825   -8.7162    0.0000 C   0  0
   16.3975   -9.1276    0.0000 C   0  0
   15.6811   -7.8912    0.0000 O   0  0
   17.1114   -8.7140    0.0000 C   0  0
   17.1100   -7.8890    0.0000 C   0  0
   17.8239   -7.4754    0.0000 O   0  0
   16.3950   -7.4776    0.0000 O   0  0
  1  2  2  0
  2  3  1  0
  3  4  2  0
  4  5  1  0
  5  6  2  0
  6  1  1  0
  4  7  1  0
  2  8  1  0
  8  9  2  0
  8 10  1  0
  7 11  1  0
 11 12  1  0
 11 13  2  0
 12 14  2  0
 14 15  1  0
 15 16  1  0
 15 17  2  0
M  END