
  SciTegic01161211212D

 13 13  0  0  0  0            999 V2000
   -4.7764   -8.7083    0.0000 C   0  0
   -4.7776   -9.5357    0.0000 C   0  0
   -4.0628   -9.9485    0.0000 C   0  0
   -3.3463   -9.5352    0.0000 C   0  0
   -3.3492   -8.7047    0.0000 C   0  0
   -4.0646   -8.2955    0.0000 C   0  0
   -4.0670   -7.4705    0.0000 S   0  0
   -3.3538   -7.0559    0.0000 N   0  0
   -4.8708   -7.6792    0.0000 O   0  0
   -4.4875   -6.7500    0.0000 O   0  0
   -4.0630  -10.7735    0.0000 C   0  0
   -4.7775  -11.1859    0.0000 C   0  0
   -4.7778  -12.0109    0.0000 O   0  0
  1  2  2  0
  6  7  1  0
  3  4  2  0
  7  8  1  0
  7  9  2  0
  4  5  1  0
  7 10  2  0
  2  3  1  0
  3 11  1  0
  5  6  2  0
 11 12  1  0
  6  1  1  0
 12 13  1  0
M  END