
  SciTegic03161210572D

 22 25  0  0  0  0            999 V2000
   -1.0128  -19.4735    0.0000 N   0  0
   -0.2963  -19.0602    0.0000 C   0  0
   -0.2992  -18.2297    0.0000 N   0  0
   -1.0146  -17.8205    0.0000 C   0  0
   -1.0186  -17.0012    0.0000 N   0  0
   -0.3036  -16.5878    0.0000 C   0  0
   -0.3041  -15.7664    0.0000 C   0  0
   -1.0179  -15.3522    0.0000 N   0  0
   -1.7330  -15.7656    0.0000 C   0  0
   -1.7342  -16.5932    0.0000 C   0  0
   -1.7276  -19.0607    0.0000 C   0  0
   -1.7253  -18.2351    0.0000 C   0  0
   -2.4380  -17.8221    0.0000 C   0  0
   -3.1534  -18.2336    0.0000 C   0  0
   -3.1517  -19.0623    0.0000 C   0  0
   -2.4385  -19.4715    0.0000 C   0  0
    0.4188  -19.4716    0.0000 N   0  0
   -3.8651  -19.4764    0.0000 C   0  0
   -4.6458  -19.2147    0.0000 O   0  0
   -5.1382  -19.8766    0.0000 C   0  0
   -4.6608  -20.5495    0.0000 C   0  0
   -3.8734  -20.3033    0.0000 C   0  0
  4  5  1  0
  5  6  1  0
  1  2  2  0
 11 12  1  0
 11  1  1  0
 12 13  2  0
  2  3  1  0
 13 14  1  0
 14 15  2  0
  3  4  2  0
 15 16  1  0
 16 11  2  0
  4 12  1  0
  2 17  1  0
  5 10  1  0
 15 18  1  0
 18 19  1  0
  6  7  1  0
  7  8  1  0
  8  9  1  0
  9 10  1  0
 19 20  1  0
 20 21  2  0
 21 22  1  0
 22 18  2  0
M  END