
          11280714562D 1   1.00000     0.00000     0

 21 23  0     0  0            999 V2000
    3.3875   -1.5500    0.0000 C   0  0  3  0  0  0           0  0  0
    2.6667   -1.1417    0.0000 C   0  0  0  0  0  0           0  0  0
    4.1000   -1.1375    0.0000 C   0  0  0  0  0  0           0  0  0
   -0.1875   -2.8000    0.0000 N   0  0  3  0  0  0           0  0  0
   -1.4958   -3.0792    0.0000 N   0  0  0  0  0  0           0  0  0
   -0.9458   -2.4667    0.0000 C   0  0  0  0  0  0           0  0  0
    0.5292   -2.3875    0.0000 C   0  0  0  0  0  0           0  0  0
    1.9542   -1.5542    0.0000 C   0  0  0  0  0  0           0  0  0
    4.0917   -0.3125    0.0000 S   0  0  0  0  0  0           0  0  0
   -0.2750   -3.6167    0.0000 C   0  0  0  0  0  0           0  0  0
   -1.0833   -3.7917    0.0000 C   0  0  0  0  0  0           0  0  0
    2.6667   -0.3167    0.0000 O   0  0  0  0  0  0           0  0  0
    0.5292   -1.5625    0.0000 C   0  0  0  0  0  0           0  0  0
    1.2417   -2.8000    0.0000 C   0  0  0  0  0  0           0  0  0
    1.2417   -1.1417    0.0000 C   0  0  0  0  0  0           0  0  0
    1.9542   -2.3875    0.0000 C   0  0  0  0  0  0           0  0  0
    4.8167   -1.5417    0.0000 N   0  0  0  0  0  0           0  0  0
    2.8625   -2.1875    0.0000 C   0  0  0  0  0  0           0  0  0
    4.0167   -2.0750    0.0000 C   0  0  0  0  0  0           0  0  0
    3.4917   -2.7125    0.0000 C   0  0  0  0  0  0           0  0  0
    5.5292   -1.1292    0.0000 C   0  0  0  0  0  0           0  0  0
  2  1  1  0     0  0
  3  1  1  0     0  0
  4  7  1  0     0  0
  5  6  2  0     0  0
  6  4  1  0     0  0
  7 14  1  0     0  0
  8  2  1  0     0  0
  9  3  1  0     0  0
 10  4  1  0     0  0
 11 10  2  0     0  0
 12  2  2  0     0  0
 13 15  1  0     0  0
 14 16  2  0     0  0
 15  8  2  0     0  0
 16  8  1  0     0  0
 17  3  2  0     0  0
 18  1  1  0     0  0
 19  1  1  0     0  0
 20 19  1  0     0  0
 21 17  1  0     0  0
 18 20  1  0     0  0
  7 13  2  0     0  0
 11  5  1  0     0  0
M  END