
          11280715322D 1   1.00000     0.00000     0

 17 18  0     0  0            999 V2000
    3.5125   -6.4917    0.0000 C   0  0  0  0  0  0           0  0  0
    2.8000   -6.9042    0.0000 C   0  0  0  0  0  0           0  0  0
    3.5125   -5.6542    0.0000 C   0  0  0  0  0  0           0  0  0
    2.0792   -6.4917    0.0000 C   0  0  0  0  0  0           0  0  0
    2.8000   -5.2500    0.0000 C   0  0  0  0  0  0           0  0  0
    2.0792   -5.6542    0.0000 C   0  0  0  0  0  0           0  0  0
    4.2250   -6.9042    0.0000 C   0  0  3  0  0  0           0  0  0
    4.9417   -6.4917    0.0000 N   0  0  0  0  0  0           0  0  0
    4.9292   -8.1417    0.0000 N   0  0  0  0  0  0           0  0  0
    4.2167   -7.7292    0.0000 C   0  0  0  0  0  0           0  0  0
    1.3667   -6.9042    0.0000 O   0  0  0  0  0  0           0  0  0
    1.3667   -5.2500    0.0000 O   0  0  0  0  0  0           0  0  0
    4.9417   -5.6542    0.0000 C   0  0  0  0  0  0           0  0  0
    4.2250   -5.2500    0.0000 C   0  0  0  0  0  0           0  0  0
    4.9292   -8.9667    0.0000 C   0  0  3  0  0  0           0  0  0
    4.2167   -9.3792    0.0000 C   0  0  0  0  0  0           0  0  0
    5.6417   -9.3792    0.0000 C   0  0  0  0  0  0           0  0  0
  2  1  1  0     0  0
  3  1  2  0     0  0
  4  2  2  0     0  0
  5  3  1  0     0  0
  6  5  2  0     0  0
  7  1  1  0     0  0
  8  7  1  0     0  0
  9 10  1  0     0  0
 10  7  1  0     0  0
 11  4  1  0     0  0
 12  6  1  0     0  0
 13  8  1  0     0  0
 14  3  1  0     0  0
 15  9  1  0     0  0
 16 15  1  0     0  0
 17 15  1  0     0  0
 13 14  1  0     0  0
  6  4  1  0     0  0
M  END