
          11280714462D 1   1.00000     0.00000     0

 26 29  0     1  0            999 V2000
    3.3375   -3.3375    0.0000 C   0  0  0  0  0  0           0  0  0
    4.9042   -1.8250    0.0000 C   0  0  2  0  0  0           0  0  0
    3.8542   -2.4292    0.0000 C   0  0  1  0  0  0           0  0  0
    4.3875   -2.7375    0.0000 C   0  0  2  0  0  0           0  0  0
    3.3375   -2.7375    0.0000 C   0  0  1  0  0  0           0  0  0
    4.9042   -2.4292    0.0000 C   0  0  2  0  0  0           0  0  0
    2.8167   -3.6417    0.0000 C   0  0  0  0  0  0           0  0  0
    3.8542   -1.8250    0.0000 C   0  0  0  0  0  0           0  0  0
    4.3875   -3.3375    0.0000 C   0  0  0  0  0  0           0  0  0
    2.8167   -2.4292    0.0000 C   0  0  0  0  0  0           0  0  0
    4.9042   -1.2167    0.0000 C   0  0  0  0  0  0           0  0  0
    4.3875   -1.5167    0.0000 C   0  0  0  0  0  0           0  0  0
    3.8542   -3.6417    0.0000 C   0  0  0  0  0  0           0  0  0
    2.2792   -3.3375    0.0000 C   0  0  0  0  0  0           0  0  0
    1.7542   -3.6542    0.0000 O   0  0  0  0  0  0           0  0  0
    5.4875   -1.0542    0.0000 C   0  0  0  0  0  0           0  0  0
    5.6375   -0.4750    0.0000 O   0  0  0  0  0  0           0  0  0
    2.2792   -2.7375    0.0000 C   0  0  0  0  0  0           0  0  0
    5.4875   -1.6375    0.0000 C   0  0  0  0  0  0           0  0  0
    5.4875   -2.6125    0.0000 C   0  0  0  0  0  0           0  0  0
    5.8417   -2.1292    0.0000 C   0  0  0  0  0  0           0  0  0
    5.9125   -1.4792    0.0000 C   0  0  0  0  0  0           0  0  0
    4.9042   -2.9792    0.0000 H   0  0  0  0  0  0           0  0  0
    3.3375   -2.1292    0.0000 H   0  0  0  0  0  0           0  0  0
    3.8542   -3.0000    0.0000 H   0  0  0  0  0  0           0  0  0
    4.3875   -2.1875    0.0000 H   0  0  0  0  0  0           0  0  0
  2  6  1  0     0  0
  3  5  1  0     0  0
  4  9  1  0     0  0
  5  1  1  0     0  0
  6  4  1  0     0  0
  7  1  2  0     0  0
  8  3  1  0     0  0
  9 13  1  0     0  0
 10  5  1  0     0  0
  2 11  1  1     0  0
 12  8  1  0     0  0
 13  1  1  0     0  0
 14  7  1  0     0  0
 15 14  2  0     0  0
 11 16  1  0     0  0
 17 16  2  0     0  0
 18 14  1  0     0  0
 19  2  1  0     0  0
 20  6  1  0     0  0
 21 20  1  0     0  0
 22 16  1  0     0  0
  6 23  1  6     0  0
  5 24  1  1     0  0
  3 25  1  6     0  0
  4 26  1  1     0  0
  3  4  1  0     0  0
 10 18  1  0     0  0
  2 12  1  0     0  0
 19 21  1  0     0  0
M  END