
          11280715362D 1   1.00000     0.00000     0

 28 30  0     0  0            999 V2000
    3.9250   -6.7792    0.0000 C   0  0  0  0  0  0           0  0  0
    3.4042   -6.4792    0.0000 C   0  0  3  0  0  0           0  0  0
    3.9250   -7.3792    0.0000 C   0  0  0  0  0  0           0  0  0
    3.4042   -7.6792    0.0000 O   0  0  0  0  0  0           0  0  0
    2.8792   -7.3875    0.0000 C   0  0  3  0  0  0           0  0  0
    2.8792   -6.7792    0.0000 C   0  0  3  0  0  0           0  0  0
    9.1167   -7.3542    0.0000 N   0  3  0  0  0  0           0  0  0
    4.4417   -6.4792    0.0000 C   0  0  0  0  0  0           0  0  0
    2.3542   -6.4792    0.0000 C   0  0  0  0  0  0           0  0  0
    3.4042   -5.8750    0.0000 C   0  0  0  0  0  0           0  0  0
    2.3542   -5.8750    0.0000 C   0  0  0  0  0  0           0  0  0
    2.8917   -5.5750    0.0000 C   0  0  0  0  0  0           0  0  0
    4.4417   -7.6792    0.0000 C   0  0  0  0  0  0           0  0  0
    9.6375   -7.6500    0.0000 O   0  5  0  0  0  0           0  0  0
    4.9667   -6.7792    0.0000 C   0  0  0  0  0  0           0  0  0
    9.1042   -6.7542    0.0000 O   0  0  0  0  0  0           0  0  0
    4.9667   -7.3792    0.0000 C   0  0  0  0  0  0           0  0  0
    6.0042   -7.3750    0.0000 C   0  0  0  0  0  0           0  0  0
    6.5250   -7.6667    0.0000 C   0  0  0  0  0  0           0  0  0
    4.4292   -5.8792    0.0000 O   0  0  0  0  0  0           0  0  0
    8.6000   -7.6625    0.0000 C   0  0  0  0  0  0           0  0  0
    2.6792   -7.9542    0.0000 C   0  0  0  0  0  0           0  0  0
    2.3167   -7.1875    0.0000 C   0  0  0  0  0  0           0  0  0
    5.4875   -7.6750    0.0000 C   0  0  0  0  0  0           0  0  0
    2.9042   -4.9750    0.0000 C   0  0  0  0  0  0           0  0  0
    7.0417   -7.3667    0.0000 C   0  0  0  0  0  0           0  0  0
    8.0792   -7.3667    0.0000 C   0  0  0  0  0  0           0  0  0
    7.5625   -7.6667    0.0000 C   0  0  0  0  0  0           0  0  0
  2  1  1  0     0  0
  3  1  1  0     0  0
  4  3  1  0     0  0
  5  4  1  0     0  0
  6  2  1  0     0  0
  7 21  1  0     0  0
  8  1  2  0     0  0
  9  6  1  0     0  0
 10  2  1  0     0  0
 11 12  2  0     0  0
 12 10  1  0     0  0
 13  3  2  0     0  0
 14  7  1  0     0  0
 15  8  1  0     0  0
 16  7  2  0     0  0
 17 15  2  0     0  0
 18 24  1  0     0  0
 19 18  2  0     0  0
 20  8  1  0     0  0
 21 27  1  0     0  0
 22  5  1  0     0  0
 23  5  1  0     0  0
 24 17  1  0     0  0
 25 12  1  0     0  0
 26 19  1  0     0  0
 27 28  1  0     0  0
 28 26  1  0     0  0
  5  6  1  0     0  0
 17 13  1  0     0  0
 11  9  1  0     0  0
M  CHG  2   7   1  14  -1
M  END