
          11280714532D 1   1.00000     0.00000     0

 32 35  0     0  0            999 V2000
    9.4292   -4.9125    0.0000 C   0  0  0  0  0  0           0  0  0
    8.7125   -4.4875    0.0000 C   0  0  0  0  0  0           0  0  0
    9.4292   -5.7417    0.0000 C   0  0  0  0  0  0           0  0  0
   10.1417   -4.5000    0.0000 N   0  3  0  0  0  0           0  0  0
    7.9917   -4.9125    0.0000 C   0  0  0  0  0  0           0  0  0
    8.7042   -6.1542    0.0000 O   0  0  0  0  0  0           0  0  0
    7.9875   -5.7417    0.0000 C   0  0  0  0  0  0           0  0  0
    2.2792   -4.9250    0.0000 N   0  0  3  0  0  0           0  0  0
    7.2750   -6.1500    0.0000 C   0  0  0  0  0  0           0  0  0
    7.2750   -4.5000    0.0000 C   0  0  0  0  0  0           0  0  0
    3.7042   -5.7375    0.0000 N   0  0  3  0  0  0           0  0  0
   10.8625   -4.9125    0.0000 O   0  5  0  0  0  0           0  0  0
   10.1417   -6.1625    0.0000 O   0  0  0  0  0  0           0  0  0
   10.1417   -3.6750    0.0000 O   0  0  0  0  0  0           0  0  0
    8.7125   -3.6625    0.0000 O   0  0  0  0  0  0           0  0  0
    1.5625   -4.5042    0.0000 C   0  0  0  0  0  0           0  0  0
    6.5625   -5.7375    0.0000 C   0  0  0  0  0  0           0  0  0
    2.2875   -5.7500    0.0000 C   0  0  0  0  0  0           0  0  0
    2.9917   -4.5042    0.0000 C   0  0  0  0  0  0           0  0  0
    3.0000   -6.1542    0.0000 C   0  0  0  0  0  0           0  0  0
    3.7125   -4.9167    0.0000 C   0  0  0  0  0  0           0  0  0
    6.5625   -4.9125    0.0000 C   0  0  0  0  0  0           0  0  0
    0.8500   -4.9250    0.0000 C   0  0  0  0  0  0           0  0  0
   -0.5750   -5.7625    0.0000 C   0  0  0  0  0  0           0  0  0
   -1.2875   -6.1750    0.0000 Cl  0  0  0  0  0  0           0  0  0
    0.1417   -6.1667    0.0000 C   0  0  0  0  0  0           0  0  0
   -0.5750   -4.9292    0.0000 C   0  0  0  0  0  0           0  0  0
    0.8542   -5.7500    0.0000 C   0  0  0  0  0  0           0  0  0
    0.1375   -4.5167    0.0000 C   0  0  0  0  0  0           0  0  0
    5.8500   -6.1500    0.0000 O   0  0  0  0  0  0           0  0  0
    4.4167   -6.1500    0.0000 C   0  0  0  0  0  0           0  0  0
    5.1375   -5.7375    0.0000 C   0  0  0  0  0  0           0  0  0
  2  1  2  0     0  0
  3  1  1  0     0  0
  4  1  1  0     0  0
  5  2  1  0     0  0
  6  3  1  0     0  0
  7  6  1  0     0  0
  8 19  1  0     0  0
  9  7  2  0     0  0
 10  5  2  0     0  0
 11 31  1  0     0  0
 12  4  1  0     0  0
 13  3  2  0     0  0
 14  4  2  0     0  0
 15  2  1  0     0  0
 16  8  1  0     0  0
 17  9  1  0     0  0
 18 20  1  0     0  0
 19 21  1  0     0  0
 20 11  1  0     0  0
 21 11  1  0     0  0
 22 10  1  0     0  0
 23 16  1  0     0  0
 24 27  1  0     0  0
 25 24  1  0     0  0
 26 28  1  0     0  0
 27 29  2  0     0  0
 28 23  2  0     0  0
 29 23  1  0     0  0
 30 17  1  0     0  0
 31 32  1  0     0  0
 32 30  1  0     0  0
  5  7  1  0     0  0
 22 17  2  0     0  0
 18  8  1  0     0  0
 26 24  2  0     0  0
M  CHG  2   4   1  12  -1
M  END