
  SciTegic10041313202D

 31 33  0  0  1  0            999 V2000
    4.2125   -3.0750    0.0000 C   0  0
    6.3542   -3.5000    0.0000 C   0  0
    4.9250   -3.4917    0.0000 N   0  0
    3.4917   -3.4792    0.0000 C   0  0
    5.6417   -3.0792    0.0000 C   0  0  1  0  0  0
    7.0667   -3.0917    0.0000 N   0  0
    9.3204   -2.6119    0.0000 N   0  0
    8.4917   -3.0917    0.0000 C   0  0
    2.8375   -2.9917    0.0000 O   0  0
    4.2042   -2.2500    0.0000 O   0  0
    3.2375   -4.2542    0.0000 C   0  0
    6.3500   -4.3167    0.0000 O   0  0
    5.6417   -2.2542    0.0000 C   0  0
    7.7792   -3.5042    0.0000 C   0  0  2  0  0  0
    2.1667   -3.4667    0.0000 C   0  0
    2.4167   -4.2542    0.0000 C   0  0
    8.4917   -4.7417    0.0000 O   0  0
    6.0542   -1.5375    0.0000 C   0  0
    9.9250   -4.7417    0.0000 C   0  0
    7.7792   -4.3292    0.0000 C   0  0
    9.2125   -4.3292    0.0000 C   0  0
    9.9250   -5.5667    0.0000 C   0  0
   10.6375   -4.3167    0.0000 C   0  0
    6.8792   -1.5292    0.0000 C   0  0
    5.6292   -0.8250    0.0000 C   0  0
   11.3500   -4.7292    0.0000 C   0  0
   10.6375   -5.9792    0.0000 C   0  0
    6.0417   -0.1042    0.0000 C   0  0
    7.2792   -0.8167    0.0000 C   0  0
    6.8667   -0.0917    0.0000 C   0  0
   11.3542   -5.5625    0.0000 C   0  0
  2  5  1  0
  3  1  1  0
  4  1  1  0
  5  3  1  0
  6  2  1  0
  7  8  3  0
  8 14  1  0
  9  4  1  0
 10  1  2  0
 11  4  2  0
 12  2  2  0
  5 13  1  1
 14  6  1  0
 15  9  1  0
 16 11  1  0
 17 20  1  0
 18 13  1  0
 19 21  1  0
 14 20  1  6
 21 17  1  0
 22 19  2  0
 23 19  1  0
 24 18  1  0
 25 18  1  0
 26 23  2  0
 27 22  1  0
 28 25  1  0
 29 24  1  0
 30 28  1  0
 31 26  1  0
 15 16  2  0
 29 30  1  0
 27 31  2  0
M  END