
  SciTegic01111613442D

 12 13  0  0  1  0            999 V2000
    1.2121    3.8625    0.0000 N   0  0
    1.2990   -0.7500    0.0000 N   0  0
    0.0000    3.0008    0.0000 C   0  0  2  0  0  0
    0.0000    1.5000    0.0000 C   0  0
   -1.2149    3.8587    0.0000 C   0  0
    0.7463    5.2884    0.0000 C   0  0
    1.2990    0.7500    0.0000 C   0  0
   -1.2990    0.7500    0.0000 C   0  0
   -0.7537    5.2860    0.0000 C   0  0
   -1.2990   -0.7500    0.0000 C   0  0
    2.3518    3.4868    0.0000 C   0  0
    0.0000   -1.5000    0.0000 C   0  0
  1  3  1  0
  1  6  1  0
  1 11  1  0
  2  7  1  0
  2 12  2  0
  3  4  1  6
  3  5  1  0
  4  7  2  0
  4  8  1  0
  5  9  1  0
  6  9  1  0
  8 10  2  0
 10 12  1  0
M  END