
  Mrv0541 09091309582D          

 47 51  0  0  0  0            999 V2000
   -0.7021   -8.3675    0.0000 N   0  0  0  0  0  0  0  0  0  0  0  0
   -0.7021   -9.1971    0.0000 C   0  0  0  0  0  0  0  0  0  0  0  0
    0.0124   -9.6096    0.0000 N   0  0  0  0  0  0  0  0  0  0  0  0
    0.0124   -7.9504    0.0000 C   0  0  0  0  0  0  0  0  0  0  0  0
    0.7314   -8.3675    0.0000 C   0  0  0  0  0  0  0  0  0  0  0  0
    0.7314   -9.1981    0.0000 C   0  0  0  0  0  0  0  0  0  0  0  0
    2.0097   -8.7829    0.0000 C   0  0  0  0  0  0  0  0  0  0  0  0
    1.5214   -8.1110    0.0000 N   0  0  0  0  0  0  0  0  0  0  0  0
    0.0112   -7.1254    0.0000 O   0  0  0  0  0  0  0  0  0  0  0  0
   -1.4176   -7.9568    0.0000 C   0  0  0  0  0  0  0  0  0  0  0  0
   -1.4166   -9.6096    0.0000 O   0  0  0  0  0  0  0  0  0  0  0  0
    0.0108  -10.4346    0.0000 C   0  0  0  0  0  0  0  0  0  0  0  0
    2.8347   -8.7829    0.0000 C   0  0  0  0  0  0  0  0  0  0  0  0
   -2.1310   -8.3709    0.0000 C   0  0  0  0  0  0  0  0  0  0  0  0
   -0.7044  -10.8457    0.0000 C   0  0  0  0  0  0  0  0  0  0  0  0
    3.3201   -9.4462    0.0000 N   0  0  0  0  0  0  0  0  0  0  0  0
    4.1048   -9.1912    0.0000 N   0  0  0  0  0  0  0  0  0  0  0  0
    4.1048   -8.3662    0.0000 C   0  0  0  0  0  0  0  0  0  0  0  0
    3.3201   -8.1113    0.0000 C   0  0  0  0  0  0  0  0  0  0  0  0
    3.0666  -10.2312    0.0000 C   0  0  0  0  0  0  0  0  0  0  0  0
    4.7721   -7.8812    0.0000 O   0  0  0  0  0  0  0  0  0  0  0  0
    5.5259   -8.2167    0.0000 C   0  0  0  0  0  0  0  0  0  0  0  0
    6.1932   -7.7317    0.0000 C   0  0  0  0  0  0  0  0  0  0  0  0
    6.9469   -8.0672    0.0000 N   0  0  0  0  0  0  0  0  0  0  0  0
    6.1070   -6.9112    0.0000 O   0  0  0  0  0  0  0  0  0  0  0  0
    7.6465   -7.6305    0.0000 C   0  0  0  0  0  0  0  0  0  0  0  0
    8.3711   -8.0215    0.0000 C   0  0  0  0  0  0  0  0  0  0  0  0
    8.3090   -6.3726    0.0000 C   0  0  0  0  0  0  0  0  0  0  0  0
    7.6127   -6.8112    0.0000 C   0  0  0  0  0  0  0  0  0  0  0  0
    9.0422   -6.7598    0.0000 C   0  0  0  0  0  0  0  0  0  0  0  0
    9.0704   -7.5821    0.0000 C   0  0  0  0  0  0  0  0  0  0  0  0
    9.8611   -7.8095    0.0000 O   0  0  0  0  0  0  0  0  0  0  0  0
   10.3216   -7.1277    0.0000 C   0  0  0  0  0  0  0  0  0  0  0  0
    9.8155   -6.4791    0.0000 O   0  0  0  0  0  0  0  0  0  0  0  0
    1.5213   -9.4548    0.0000 N   0  0  0  0  0  0  0  0  0  0  0  0
   -1.4250  -11.2500    0.0000 C   0  0  0  0  0  0  0  0  0  0  0  0
   -2.8500   -8.7792    0.0000 C   0  0  0  0  0  0  0  0  0  0  0  0
   -1.7202   -9.0864    0.0000 H   0  0  0  0  0  0  0  0  0  0  0  0
   -2.5401   -7.6545    0.0000 H   0  0  0  0  0  0  0  0  0  0  0  0
   -3.5667   -9.1875    0.0000 H   0  0  0  0  0  0  0  0  0  0  0  0
   -3.2579   -8.0621    0.0000 H   0  0  0  0  0  0  0  0  0  0  0  0
   -2.4438   -9.4973    0.0000 H   0  0  0  0  0  0  0  0  0  0  0  0
   -2.1417  -11.6583    0.0000 H   0  0  0  0  0  0  0  0  0  0  0  0
   -1.8310  -10.5318    0.0000 H   0  0  0  0  0  0  0  0  0  0  0  0
   -1.0202  -11.9689    0.0000 H   0  0  0  0  0  0  0  0  0  0  0  0
   -0.2970  -11.5631    0.0000 H   0  0  0  0  0  0  0  0  0  0  0  0
   -1.1106  -10.1276    0.0000 H   0  0  0  0  0  0  0  0  0  0  0  0
  1 10  1  0  0  0  0
 18 21  1  0  0  0  0
 21 22  1  0  0  0  0
  2 11  2  0  0  0  0
 22 23  1  0  0  0  0
  1  2  1  0  0  0  0
 23 24  1  0  0  0  0
  3 12  1  0  0  0  0
 23 25  2  0  0  0  0
  1  4  1  0  0  0  0
 24 26  1  0  0  0  0
  7 13  1  0  0  0  0
 26 27  2  0  0  0  0
 27 31  1  0  0  0  0
  2  3  1  0  0  0  0
 30 28  1  0  0  0  0
 10 14  1  0  0  0  0
 28 29  2  0  0  0  0
 29 26  1  0  0  0  0
 30 31  2  0  0  0  0
  3  6  1  0  0  0  0
  6 35  1  0  0  0  0
 12 15  1  0  0  0  0
 35  7  2  0  0  0  0
 31 32  1  0  0  0  0
 32 33  1  0  0  0  0
 33 34  1  0  0  0  0
 34 30  1  0  0  0  0
 15 36  1  0  0  0  0
 13 16  1  0  0  0  0
 14 37  1  0  0  0  0
  7  8  1  0  0  0  0
 14 38  1  0  0  0  0
  8  5  1  0  0  0  0
 14 39  1  0  0  0  0
  5  4  1  0  0  0  0
 37 40  1  0  0  0  0
  4  9  2  0  0  0  0
 37 41  1  0  0  0  0
 16 17  1  0  0  0  0
 37 42  1  0  0  0  0
 17 18  2  0  0  0  0
 36 43  1  0  0  0  0
 18 19  1  0  0  0  0
 36 44  1  0  0  0  0
 19 13  2  0  0  0  0
 36 45  1  0  0  0  0
  5  6  2  0  0  0  0
 15 46  1  0  0  0  0
 16 20  1  0  0  0  0
 15 47  1  0  0  0  0
M  ISO  8  38   3  39   3  40   3  41   3  42   3  43   3  44   3  45   3
M  ISO  2  46   3  47   3
M  END