
  SciTegic04201611242D

 21 23  0  0  0  0            999 V2000
    1.2990   -0.7500    0.0000 C   0  0
    1.2990    0.7500    0.0000 C   0  0
    0.0000    1.5000    0.0000 C   0  0
   -1.2990    0.7500    0.0000 C   0  0
   -1.2990   -0.7500    0.0000 C   0  0
    0.0000   -1.5000    0.0000 C   0  0
    0.0000    2.7000    0.0000 O   0  0
   -2.6003    1.4977    0.0000 C   0  0
   -3.8990    0.7455    0.0000 N   0  0
   -5.2003    1.4932    0.0000 C   0  0
   -5.2004    2.9933    0.0000 N   0  0
   -6.4995    3.7432    0.0000 C   0  0
   -7.7985    2.9932    0.0000 C   0  0
   -7.7985    1.4932    0.0000 C   0  0
   -6.4994    0.7432    0.0000 C   0  0
   -6.4994   -0.7575    0.0000 C   0  0
   -5.2015   -1.5097    0.0000 N   0  0
   -5.2039   -3.0097    0.0000 C   0  0
   -6.5041   -3.7576    0.0000 C   0  0
   -7.8020   -3.0056    0.0000 C   0  0
   -7.7996   -1.5056    0.0000 N   0  0
  1  2  2  0
  2  3  1  0
  3  4  2  0
  4  5  1  0
  5  6  2  0
  6  1  1  0
  3  7  1  0
  4  8  1  0
  8  9  1  0
  9 10  1  0
 10 11  2  0
 11 12  1  0
 12 13  2  0
 13 14  1  0
 14 15  2  0
 15 10  1  0
 16 17  2  0
 17 18  1  0
 18 19  2  0
 19 20  1  0
 20 21  2  0
 21 16  1  0
 15 16  1  0
M  END