
  SciTegic11201309402D

 80 82  0  0  1  0            999 V2000
   -0.3299    1.1890    0.0000 C   0  0
   -1.0516   -2.5935    0.0000 N   0  0
   -0.3024   -3.0059    0.0000 C   0  0  2  0  0  0
   -1.0630    0.7652    0.0000 N   0  0
   -2.5201   -1.7596    0.0000 N   0  0
   -2.5248   -0.0710    0.0000 N   0  0
   -1.7779   -3.0288    0.0000 C   0  0
   -2.5248    0.7537    0.0000 C   0  0
   -0.2864   -3.8307    0.0000 C   0  0
   -3.2556   -1.3403    0.0000 C   0  0
    0.4055   -0.0596    0.0000 N   0  0
   -2.5133   -2.6164    0.0000 C   0  0  2  0  0  0
    0.3941    0.7652    0.0000 C   0  0  1  0  0  0
   -1.7985    1.1822    0.0000 C   0  0  2  0  0  0
    1.1203   -0.4880    0.0000 C   0  0
   -0.9943   -4.2591    0.0000 N   0  0
   -3.2213   -3.0403    0.0000 C   0  0
   -3.2625   -0.4949    0.0000 C   0  0  2  0  0  0
   -1.6840   -5.5100    0.0000 C   0  0
   -3.0975   -6.3670    0.0000 C   0  0
   -3.7345  -10.0922    0.0000 C   0  0
    1.1089   -1.2967    0.0000 C   0  0
    1.1432   -2.9899    0.0000 S   0  0
   -1.6679   -6.3348    0.0000 N   0  0
    1.8695   -2.5568    0.0000 S   0  0
   -3.2098   -3.8650    0.0000 C   0  0
   -3.8009   -6.7930    0.0000 N   0  0
    1.8581   -1.7091    0.0000 C   0  0
   -0.9783   -5.0839    0.0000 C   0  0
   -2.3735   -6.7632    0.0000 C   0  0  1  0  0  0
   -5.2306   -6.8251    0.0000 C   0  0
   -5.4046   -0.0917    0.0000 C   0  0
   -4.3003  -10.4336    0.0000 N   0  0
   -0.3299    1.8489    0.0000 O   0  0
    0.4170   -2.5774    0.0000 C   0  0
   -3.0975    1.0814    0.0000 O   0  0
   -1.7687   -3.6887    0.0000 O   0  0
   -3.8238   -1.6748    0.0000 O   0  0
    0.2910   -4.1491    0.0000 O   0  0
   -1.8100    2.0093    0.0000 C   0  0
    1.6977   -0.1673    0.0000 O   0  0
   -3.1113   -5.7071    0.0000 O   0  0
   -2.2612   -5.1917    0.0000 O   0  0
   -3.7734   -4.2041    0.0000 O   0  0
   -5.9752   -0.4239    0.0000 O   0  0
   -5.8079   -6.5067    0.0000 O   0  0
   -3.9750   -0.0848    0.0000 C   0  0
   -3.7504   -9.2675    0.0000 N   0  0
   -4.5249   -6.3967    0.0000 C   0  0
   -3.1594  -10.4106    0.0000 N   0  0
    1.1111    1.1753    0.0000 C   0  0  2  0  0  0
   -2.6324   -4.1858    0.0000 N   0  0
   -4.6899   -0.5018    0.0000 C   0  0
   -5.4092    0.5682    0.0000 N   0  0
   -5.2145   -7.4850    0.0000 N   0  0
   -2.5293    2.4102    0.0000 C   0  0
   -1.5717   -3.9406    0.0000 C   0  0
    2.6004   -2.1216    0.0000 C   0  0
    1.8466   -0.8614    0.0000 C   0  0
   -2.3575   -7.5881    0.0000 C   0  0
   -3.0472   -8.8390    0.0000 C   0  0
    1.8237    0.7629    0.0000 C   0  0
    1.1111    1.8352    0.0000 C   0  0
   -3.2373    1.9910    0.0000 C   0  0
   -2.5408    3.2350    0.0000 C   0  0
   -3.0632   -8.0142    0.0000 C   0  0
    2.3964    1.0905    0.0000 C   0  0
    3.3312   -1.6931    0.0000 C   0  0
    2.5774   -0.4216    0.0000 C   0  0
   -3.9544    2.3918    0.0000 C   0  0
   -3.2602    3.6383    0.0000 C   0  0
    3.3198   -0.8408    0.0000 C   0  0
   -3.9658    3.2167    0.0000 C   0  0
    0.5498   -3.2832    0.0000 H   0  0
   -3.3638   -2.4457    0.0000 H   0  0
    0.5304    1.5509    0.0000 H   0  0
   -1.2674    2.0279    0.0000 H   0  0
   -3.1282    0.2530    0.0000 H   0  0
   -2.7003   -5.9784    0.0000 H   0  0
    1.7293    1.8255    0.0000 H   0  0
  2  3  1  0
  3 35  1  0
  4  1  1  0
  5 10  1  0
  6  8  1  0
  7 12  1  0
  8 14  1  0
  3  9  1  0
 10 18  1  0
 11 13  1  0
 12  5  1  0
 13  1  1  0
 14  4  1  0
 15 11  1  0
 16  9  1  0
 12 17  1  0
 18  6  1  0
 19 29  1  0
 20 30  1  0
 21 48  2  0
 22 15  1  0
 23 25  1  0
 24 19  1  0
 25 28  1  0
 26 17  1  0
 27 20  1  0
 28 22  1  0
 29 16  1  0
 30 24  1  0
 31 49  1  0
 32 53  1  0
 33 21  1  0
 34  1  2  0
 35 23  1  0
 36  8  2  0
 37  7  2  0
 38 10  2  0
 39  9  2  0
 14 40  1  0
 41 15  2  0
 42 20  2  0
 43 19  2  0
 44 26  2  0
 45 32  2  0
 46 31  2  0
 18 47  1  0
 48 61  1  0
 49 27  1  0
 50 21  1  0
 13 51  1  0
 52 26  1  0
 53 47  1  0
 54 32  1  0
 55 31  1  0
 56 40  1  0
 57 16  1  0
 58 28  1  0
 59 28  1  0
 60 30  1  0
 61 66  1  0
 62 51  1  0
 51 63  1  0
 64 56  1  0
 65 56  2  0
 66 60  1  0
 67 62  1  0
 68 58  1  0
 69 59  1  0
 70 64  2  0
 71 65  1  0
 72 69  1  0
 73 70  1  0
 73 71  2  0
 72 68  1  0
  7  2  1  0
  3 74  1  6
 12 75  1  1
 13 76  1  1
 14 77  1  1
 18 78  1  1
 30 79  1  6
 51 80  1  6
M  END