
  SciTegic12231509382D

 46 51  0  0  0  0            999 V2000
   -3.6933    5.6655    0.0000 C   0  0
   -2.5691    6.6598    0.0000 C   0  0
   -1.1476    6.1806    0.0000 C   0  0
   -0.0219    7.1720    0.0000 C   0  0
   -0.3177    8.6426    0.0000 C   0  0
   -1.7391    9.1218    0.0000 C   0  0
   -2.8647    8.1304    0.0000 C   0  0
    0.8107    9.6322    0.0000 O   0  0
    2.2322    9.1508    0.0000 C   0  0
    3.3605   10.1404    0.0000 C   0  0
    4.7820    9.6590    0.0000 C   0  0
    5.9103   10.6486    0.0000 N   0  0
    7.3044   10.0755    0.0000 C   0  0
    8.6225   10.7915    0.0000 C   0  0
    5.5180   12.1040    0.0000 C   0  0
    6.3949   13.3210    0.0000 C   0  0
    7.8931   13.3942    0.0000 C   0  0
    8.8845   12.2685    0.0000 C   0  0
   -6.5644   -1.3610    0.0000 C   0  0
   -7.5644   -0.2430    0.0000 C   0  0
   -6.8101    1.0536    0.0000 C   0  0
   -5.3439    0.7368    0.0000 N   0  0
   -5.2109   -0.7445    0.0000 C   0  0  1  0  0  0
    2.6095    3.7310    0.0000 C   0  0
    2.6174    5.2309    0.0000 C   0  0
    1.3222    5.9877    0.0000 C   0  0
    0.0193    5.2445    0.0000 C   0  0
    0.0114    3.7445    0.0000 C   0  0
    1.3066    2.9877    0.0000 C   0  0
   -1.2907    2.9981    0.0000 C   0  0
   -1.2964    1.4973    0.0000 C   0  0
   -2.6111    0.7486    0.0000 N   0  0
   -2.6111   -0.7486    0.0000 N   0  0
   -1.2964   -1.4973    0.0000 C   0  0
   -1.2928   -2.6973    0.0000 O   0  0
    0.0000    0.7486    0.0000 C   0  0
    0.0000   -0.7486    0.0000 C   0  0
    1.2964   -1.4973    0.0000 C   0  0
    2.5929   -0.7486    0.0000 C   0  0
    2.5929    0.7486    0.0000 C   0  0
    1.2964    1.4973    0.0000 C   0  0
   -3.9122   -1.4966    0.0000 C   0  0
    3.6597    5.8255    0.0000 Cl  0  0
   -4.2217    1.7294    0.0000 C   0  0
   -4.5196    3.2003    0.0000 C   0  0
   -3.3954    4.1946    0.0000 C   0  0
 22 23  1  0
 23 19  1  0
  5  6  1  0
 11 12  1  0
 24 25  2  0
  1  2  1  0
 25 26  1  0
  6  7  2  0
 26 27  2  0
  7  2  1  0
 27 28  1  0
  3  4  1  0
 28 29  2  0
 29 24  1  0
  5  8  1  0
 28 30  1  0
 30 31  1  0
 12 13  1  0
 31 32  2  0
 13 14  1  0
 32 33  1  0
 12 15  1  0
 33 34  1  0
 34 37  1  0
 36 31  1  0
 16 17  1  0
 34 35  2  0
 17 18  1  0
 18 14  1  0
 36 37  2  0
 15 16  1  0
 37 38  1  0
 19 20  1  0
 38 39  2  0
  8  9  1  0
 39 40  1  0
  4  5  2  0
 40 41  2  0
 41 36  1  0
  9 10  1  0
 33 42  1  0
  2  3  2  0
 25 43  1  0
 23 42  1  1
 10 11  1  0
 22 44  1  0
 20 21  1  0
 44 45  1  0
 21 22  1  0
 45 46  1  0
 46  1  1  0
M  END