
          11280715252D 1   1.00000     0.00000     0

 47 49  0     1  0            999 V2000
    5.4917   -2.0042    0.0000 P   0  0  3  0  0  0           0  0  0
    6.1750   -2.0042    0.0000 N   0  0  3  0  0  0           0  0  0
    6.8167   -2.5167    0.0000 C   0  0  3  0  0  0           0  0  0
    6.7750   -3.3375    0.0000 C   0  0  0  0  0  0           0  0  0
   11.9000   -5.0042    0.0000 N   0  3  0  0  0  0           0  0  0
    8.6792   -3.7667    0.0000 C   0  0  0  0  0  0           0  0  0
    7.4667   -3.7792    0.0000 N   0  0  0  0  0  0           0  0  0
    4.3042   -1.8542    0.0000 N   0  0  0  0  0  0           0  0  0
    4.8792   -2.3042    0.0000 C   0  0  0  0  0  0           0  0  0
    3.6417   -2.2042    0.0000 C   0  0  0  0  0  0           0  0  0
    8.0625   -3.3500    0.0000 C   0  0  1  0  0  0           0  0  0
    9.3417   -3.4167    0.0000 N   0  0  0  0  0  0           0  0  0
    2.4292   -2.2167    0.0000 N   0  0  0  0  0  0           0  0  0
   11.2542   -4.6125    0.0000 C   0  0  0  0  0  0           0  0  0
    2.0167   -2.9375    0.0000 C   0  0  0  0  0  0           0  0  0
   11.8750   -5.7625    0.0000 O   0  5  0  0  0  0           0  0  0
    5.4875   -1.3167    0.0000 O   0  0  0  0  0  0           0  0  0
    3.0167   -1.7875    0.0000 C   0  0  1  0  0  0           0  0  0
   12.5625   -4.6542    0.0000 O   0  0  0  0  0  0           0  0  0
   -0.1625   -2.8167    0.0000 C   0  0  0  0  0  0           0  0  0
    6.0417   -3.7125    0.0000 O   0  0  0  0  0  0           0  0  0
    8.6875   -4.5250    0.0000 O   0  0  0  0  0  0           0  0  0
    8.0625   -2.5917    0.0000 C   0  0  0  0  0  0           0  0  0
    3.6417   -2.9542    0.0000 O   0  0  0  0  0  0           0  0  0
    2.6250   -3.5042    0.0000 O   0  0  0  0  0  0           0  0  0
   -0.7708   -2.2542    0.0000 O   0  0  0  0  0  0           0  0  0
    5.4875   -2.6917    0.0000 O   0  0  0  0  0  0           0  0  0
   11.2792   -3.8542    0.0000 C   0  0  0  0  0  0           0  0  0
   10.5917   -4.9625    0.0000 C   0  0  0  0  0  0           0  0  0
    9.9875   -3.8167    0.0000 C   0  0  0  0  0  0           0  0  0
    6.4667   -1.2417    0.0000 C   0  0  0  0  0  0           0  0  0
    1.2292   -3.1625    0.0000 C   0  0  0  0  0  0           0  0  0
    0.6167   -2.5917    0.0000 C   0  0  0  0  0  0           0  0  0
    7.5125   -2.0667    0.0000 C   0  0  0  0  0  0           0  0  0
   -0.3583   -3.6042    0.0000 O   0  0  0  0  0  0           0  0  0
   10.6417   -3.4625    0.0000 C   0  0  0  0  0  0           0  0  0
    9.9542   -4.5667    0.0000 C   0  0  0  0  0  0           0  0  0
    8.7125   -2.2167    0.0000 C   0  0  0  0  0  0           0  0  0
    7.3000   -1.2917    0.0000 C   0  0  0  0  0  0           0  0  0
    3.0167   -1.0292    0.0000 C   0  0  0  0  0  0           0  0  0
    4.8875   -3.0292    0.0000 C   0  0  0  0  0  0           0  0  0
    9.3542   -2.5917    0.0000 C   0  0  0  0  0  0           0  0  0
    8.7125   -1.4667    0.0000 C   0  0  0  0  0  0           0  0  0
    4.8792   -3.7125    0.0000 C   0  0  0  0  0  0           0  0  0
   10.0042   -2.2167    0.0000 C   0  0  0  0  0  0           0  0  0
    9.3542   -1.0917    0.0000 C   0  0  0  0  0  0           0  0  0
   10.0042   -1.4667    0.0000 C   0  0  0  0  0  0           0  0  0
  2  1  1  0     0  0
  3  2  1  0     0  0
  4  3  1  0     0  0
  5 14  1  0     0  0
  6 11  1  0     0  0
  7  4  1  0     0  0
  8  9  1  0     0  0
  9  1  1  0     0  0
 10  8  1  0     0  0
 11  7  1  0     0  0
 12  6  1  0     0  0
 13 18  1  0     0  0
 14 29  2  0     0  0
 15 13  1  0     0  0
 16  5  1  0     0  0
 17  1  2  0     0  0
 18 10  1  0     0  0
 19  5  2  0     0  0
 20 33  1  0     0  0
 21  4  2  0     0  0
 22  6  2  0     0  0
 11 23  1  1     0  0
 24 10  2  0     0  0
 25 15  2  0     0  0
 26 20  2  0     0  0
 27  1  1  0     0  0
 28 36  2  0     0  0
 29 37  1  0     0  0
 30 12  1  0     0  0
 31  2  1  0     0  0
 32 15  1  0     0  0
 33 32  1  0     0  0
 34  3  1  0     0  0
 35 20  1  0     0  0
 36 30  1  0     0  0
 37 30  2  0     0  0
 38 23  1  0     0  0
 39 31  1  0     0  0
 18 40  1  1     0  0
 41 27  1  0     0  0
 42 38  1  0     0  0
 43 38  2  0     0  0
 44 41  1  0     0  0
 45 42  2  0     0  0
 46 43  1  0     0  0
 47 46  2  0     0  0
 39 34  1  0     0  0
 47 45  1  0     0  0
 14 28  1  0     0  0
M  CHG  2   5   1  16  -1
M  END