
  SciTegic12121615192D

157164  0  0  0  0            999 V2000
   -5.9223    2.8372    0.0000 C   0  0
   -5.1689    4.1343    0.0000 C   0  0  1  0  0  0
   -4.9262    6.1428    0.0000 O   0  0
   -4.1458    5.2313    0.0000 C   0  0
   -5.9720    4.7302    0.0000 N   0  0
   -2.9043    6.0730    0.0000 N   0  0
   -1.5066    6.6174    0.0000 C   0  0  2  0  0  0
   -0.0645    8.0365    0.0000 O   0  0
   -0.0228    6.8372    0.0000 C   0  0
   -2.3732    7.8568    0.0000 C   0  0
   -3.8684    7.7278    0.0000 C   0  0
   -4.5561    8.7113    0.0000 O   0  0
   -4.3766    6.6407    0.0000 N   0  0
    1.4728    6.7212    0.0000 N   0  0
    2.9127    6.2957    0.0000 C   0  0  2  0  0  0
    1.7491    7.9466    0.0000 O   0  0
    1.4912    6.7746    0.0000 C   0  0
    4.1980    5.5223    0.0000 C   0  0
    0.0000    6.9368    0.0000 N   0  0
   -1.4912    6.7746    0.0000 C   0  0  2  0  0  0
   -3.4166    7.3847    0.0000 O   0  0
   -2.9127    6.2957    0.0000 C   0  0
   -1.2887    8.2734    0.0000 C   0  0
    0.0995    8.8438    0.0000 C   0  0
    0.3005   10.3311    0.0000 C   0  0
    1.6887   10.9015    0.0000 C   0  0
    1.8495   12.0907    0.0000 N   0  0
   -4.1980    5.5223    0.0000 N   0  0
   -5.2870    4.4908    0.0000 C   0  0  1  0  0  0
   -7.1890    3.8113    0.0000 O   0  0
   -5.4666    3.5070    0.0000 C   0  0
   -6.1288    3.2492    0.0000 C   0  0
   -6.6840    1.8558    0.0000 N   0  0
   -6.9266    0.3755    0.0000 C   0  0  2  0  0  0
   -8.0296   -1.3164    0.0000 O   0  0
   -6.8454   -1.1223    0.0000 C   0  0
   -8.4195    0.1763    0.0000 C   0  0
   -8.0122    2.5690    0.0000 C   0  0
   -9.0850    1.5206    0.0000 C   0  0
   -6.4441   -2.5676    0.0000 N   0  0
   -5.7415   -3.8929    0.0000 C   0  0  2  0  0  0
   -5.5957   -5.9073    0.0000 O   0  0
   -4.7704   -5.0361    0.0000 C   0  0
   -6.6299   -5.1168    0.0000 C   0  0
   -6.0196   -6.4880    0.0000 C   0  0
   -6.9012   -7.7026    0.0000 C   0  0
   -6.4133   -8.7989    0.0000 O   0  0
   -3.5763   -5.9439    0.0000 N   0  0
   -2.2149   -6.5737    0.0000 C   0  0  2  0  0  0
   -0.8797   -8.0891    0.0000 O   0  0
   -0.7500   -6.8961    0.0000 C   0  0
   -1.1885   -7.5983    0.0000 C   0  0  2  0  0  0
   -0.0119   -7.3621    0.0000 O   0  0
   -1.5718   -8.7354    0.0000 C   0  0
    0.7500   -6.8961    0.0000 N   0  0
    2.2149   -6.5737    0.0000 C   0  0  2  0  0  0
    4.1950   -6.9721    0.0000 O   0  0
    3.5763   -5.9438    0.0000 C   0  0
    2.6951   -8.0078    0.0000 C   0  0
    4.6439   -9.7294    0.0000 C   0  0
    4.1656   -8.3077    0.0000 C   0  0
    5.1579   -7.1827    0.0000 C   0  0
    6.6282   -7.4794    0.0000 C   0  0
    7.1065   -8.9011    0.0000 C   0  0
    6.1143  -10.0261    0.0000 C   0  0
    4.7704   -5.0361    0.0000 N   0  0
    5.7415   -3.8928    0.0000 C   0  0  2  0  0  0
    7.5589   -3.0117    0.0000 O   0  0
    6.4441   -2.5676    0.0000 C   0  0
    6.9916   -4.7440    0.0000 C   0  0
    6.8814   -6.2407    0.0000 C   0  0
    7.8733   -6.9161    0.0000 C   0  0
    5.8007   -6.7624    0.0000 C   0  0
    6.8454   -1.1222    0.0000 N   0  0
    6.9266    0.3756    0.0000 C   0  0  2  0  0  0
    7.9658   -1.3542    0.0000 O   0  0
    6.7890   -1.1196    0.0000 C   0  0
    6.6840    1.8558    0.0000 C   0  0
    6.3432   -2.5518    0.0000 N   0  0
    5.5898   -3.8489    0.0000 C   0  0  2  0  0  0
    5.3471   -5.8575    0.0000 O   0  0
    4.5667   -4.9459    0.0000 C   0  0
    6.8060   -4.7477    0.0000 C   0  0
    9.3900   -5.0390    0.0000 C   0  0
    8.1823   -4.1493    0.0000 C   0  0
    8.3492   -2.6585    0.0000 C   0  0
    9.7236   -2.0576    0.0000 C   0  0
   10.9312   -2.9474    0.0000 C   0  0
   10.7644   -4.4381    0.0000 C   0  0
   12.0307   -2.4667    0.0000 O   0  0
    3.3252   -5.7877    0.0000 N   0  0
    1.9275   -6.3321    0.0000 C   0  0  2  0  0  0
    0.4854   -7.7511    0.0000 O   0  0
    0.4437   -6.5518    0.0000 C   0  0
   -1.9113  -11.1683    0.0000 N   0  0
   -2.5123  -12.5435    0.0000 C   0  0
   -3.7049  -12.6768    0.0000 N   0  0
   -1.8010  -13.5099    0.0000 N   0  0
   -1.0519   -6.4359    0.0000 N   0  0
   -2.4841   -5.9900    0.0000 C   0  0  2  0  0  0
   -4.4962   -6.2004    0.0000 O   0  0
   -3.7812   -5.2367    0.0000 C   0  0
   -3.0897   -7.3757    0.0000 C   0  0
   -2.2000   -8.5844    0.0000 C   0  0
   -2.8010   -9.9596    0.0000 C   0  0
   -4.8781   -4.2136    0.0000 N   0  0
   -5.7199   -2.9721    0.0000 C   0  0  2  0  0  0
   -7.1017   -4.6718    0.0000 O   0  0
   -7.0601   -3.6727    0.0000 C   0  0
   -6.2643   -1.5744    0.0000 C   0  0
   -6.4841   -0.0905    0.0000 S   0  0
   -8.3277   -2.8692    0.0000 N   0  0
   -9.6578   -3.5645    0.0000 C   0  0  2  0  0  0
  -10.8756   -1.5621    0.0000 O   0  0
  -10.9255   -2.7611    0.0000 C   0  0
   -9.7233   -5.0639    0.0000 C   0  0
  -11.0542   -5.7577    0.0000 C   0  0
  -11.1066   -6.9566    0.0000 C   0  0
  -12.0664   -5.1132    0.0000 C   0  0
  -12.2555   -3.4563    0.0000 N   0  0
  -13.5232   -2.6529    0.0000 C   0  0  2  0  0  0
  -14.9032   -4.5471    0.0000 O   0  0
  -14.8533   -3.3482    0.0000 C   0  0
  -13.4638   -1.1532    0.0000 C   0  0
  -14.7324   -0.3512    0.0000 C   0  0
  -14.6731    1.1484    0.0000 C   0  0
  -15.6873    1.7897    0.0000 O   0  0
  -13.6107    1.7065    0.0000 N   0  0
  -16.1209   -2.5447    0.0000 N   0  0
  -17.4510   -3.2400    0.0000 C   0  0  2  0  0  0
  -18.5806   -5.2942    0.0000 O   0  0
  -17.5165   -4.7394    0.0000 C   0  0
  -18.7187   -2.4366    0.0000 C   0  0
  -20.2455   -4.6061    0.0000 N   0  0
  -21.7240   -4.8592    0.0000 C   0  0
  -22.4216   -3.5313    0.0000 N   0  0
  -21.3743   -2.4575    0.0000 C   0  0
  -20.0487   -3.1319    0.0000 C   0  0
  -16.5043   -5.3839    0.0000 N   0  0
    2.3179   -7.7930    0.0000 C   0  0
    1.2567   -8.8543    0.0000 C   0  0
   -0.2116   -8.6041    0.0000 C   0  0
   -0.8789   -9.9175    0.0000 N   0  0
    1.5023  -10.3147    0.0000 C   0  0
    0.1658  -10.9846    0.0000 C   0  0
    0.0612  -12.4850    0.0000 C   0  0
    1.3340  -13.3154    0.0000 C   0  0
    2.6705  -12.6455    0.0000 C   0  0
    2.7669  -11.1288    0.0000 C   0  0
   -6.3681    1.4050    0.0000 S   0  0
    6.1287    3.2493    0.0000 S   0  0
   -8.0946   -7.5774    0.0000 O   0  0
    5.2870    4.4908    0.0000 S   0  0
    6.8537   -0.6218    0.0000 H   0  0
   -3.2059   -6.7078    0.0000 H   0  0
   -7.5647   -0.3945    0.0000 H   0  0
    1.9592    6.5971    0.0000 H   0  0
  4  6  1  0
  9 14  1  0
 17 19  1  0
 22 28  1  0
 32 33  1  0
 36 40  1  0
 43 48  1  0
 51 55  1  0
 58 66  1  0
 69 74  1  0
 77 79  1  0
 82 91  1  0
 94 99  1  0
102106  1  0
109112  1  0
115120  1  0
123129  1  0
132139  1  0
  2  1  1  0
  2  4  1  0
  4  3  2  0
  2  5  1  6
  7  6  1  0
  7  9  1  0
  9  8  2  0
  7 10  1  1
 10 11  1  0
 11 12  2  0
 11 13  1  0
 15 14  1  0
 15 17  1  0
 17 16  2  0
 15 18  1  0
 20 19  1  0
 20 22  1  0
 22 21  2  0
 20 23  1  6
 23 24  1  0
 24 25  1  0
 25 26  1  0
 26 27  1  0
 28 29  1  0
 29 32  1  0
 32 30  2  0
 29 31  1  6
 33 34  1  0
 34 36  1  0
 36 35  2  0
 34 37  1  0
 38 39  1  0
 39 37  1  0
 38 33  1  0
 40 41  1  0
 41 43  1  0
 43 42  2  0
 41 44  1  6
 44 45  1  0
 45 46  1  0
 46 47  2  0
 49 48  1  0
 49 51  1  0
 51 50  2  0
 49 52  1  0
 52 53  1  6
 52 54  1  0
 55 56  1  0
 56 58  1  0
 58 57  2  0
 56 59  1  6
 59 61  1  0
 60 61  2  0
 61 62  1  0
 62 63  2  0
 63 64  1  0
 64 65  2  0
 65 60  1  0
 66 67  1  0
 67 69  1  0
 69 68  2  0
 67 70  1  6
 70 71  1  0
 71 72  1  0
 71 73  1  0
 74 75  1  0
 75 77  1  0
 77 76  2  0
 75 78  1  0
 79 80  1  0
 80 82  1  0
 82 81  2  0
 80 83  1  1
 83 85  1  0
 84 85  2  0
 85 86  1  0
 86 87  2  0
 87 88  1  0
 88 89  2  0
 89 84  1  0
 88 90  1  0
 91 92  1  0
 92 94  1  0
 94 93  2  0
 95 96  1  0
 96 97  1  0
 96 98  2  0
 99100  1  0
100102  1  0
102101  2  0
100103  1  1
103104  1  0
104105  1  0
105 95  1  0
106107  1  0
107109  1  6
109108  2  0
107110  1  0
110111  1  0
113112  1  1
113115  1  0
115114  2  0
113116  1  0
116117  1  0
117118  1  0
117119  1  0
121120  1  6
121123  1  0
123122  2  0
121124  1  0
124125  1  0
125126  1  0
126127  2  0
126128  1  0
130129  1  6
130132  1  0
132131  2  0
130133  1  0
133138  1  0
134135  1  0
135136  2  0
136137  1  0
137138  2  0
138134  1  0
 92140  1  1
140141  1  0
141142  2  0
142143  1  0
143145  1  0
144141  1  0
144145  2  0
145146  1  0
146147  2  0
147148  1  0
148149  2  0
149144  1  0
  1150  1  0
150111  1  0
 78151  1  0
 46152  1  0
 18153  1  0
153151  1  0
 75154  1  1
 49155  1  1
 34156  1  1
 15157  1  1
M  END