
  SciTegic04071410272D

 31 33  0  0  0  0            999 V2000
   18.8207    0.3110    0.0000 C   0  0  1  0  0  0
   19.9062   -0.4991    0.0000 C   0  0  2  0  0  0
   19.3816   -0.0667    0.0000 C   0  0
   18.3953   -0.0667    0.0000 C   0  0  1  0  0  0
   18.2555    0.7584    0.0000 N   0  3
   19.7636    0.3292    0.0000 C   0  0
   17.8673   -0.7873    0.0000 C   0  0
   18.4993   -0.4057    0.0000 C   0  0
   20.3210   -1.2132    0.0000 C   0  0
   21.1460   -1.2113    0.0000 C   0  0
   21.5608   -1.9254    0.0000 C   0  0
   21.3560   -0.4083    0.0000 C   0  0
   21.5667    0.3940    0.0000 N   0  0
   21.9400   -0.9923    0.0000 C   0  0
   21.1481   -2.6375    0.0000 C   0  0
   21.5622   -3.3511    0.0000 C   0  0
   22.3880   -3.3496    0.0000 C   0  0
   22.7993   -2.6286    0.0000 C   0  0
   22.3829   -1.9185    0.0000 C   0  0
   22.5252   -1.5726    0.0000 C   0  0
   23.3185   -1.3541    0.0000 C   0  0
   23.5262   -0.5561    0.0000 C   0  0
   22.9349    0.0225    0.0000 C   0  0
   22.1438   -0.1990    0.0000 C   0  0
   17.4542    0.9756    0.0000 C   0  0
   18.6632    1.4756    0.0000 C   0  0
   18.2459    2.1879    0.0000 C   0  0
   18.6535    2.9051    0.0000 C   0  0
   20.1894    1.4714    0.0000 Br  0  5
   17.5925    0.1232    0.0000 H   0  0
   19.0842    1.0928    0.0000 H   0  0
  5  1  1  0
 10 14  1  0
  1  6  1  0
 11 15  2  0
  6  2  1  0
 15 16  1  0
  4  7  1  0
 16 17  2  0
  1  8  1  0
 17 18  1  0
  7  8  1  0
 18 19  2  0
 19 11  1  0
 14 20  2  0
  2  9  1  6
 20 21  1  0
 21 22  2  0
  9 10  1  0
 22 23  1  0
  2  3  1  0
 23 24  2  0
 24 14  1  0
 10 11  1  0
  5 25  1  0
  3  4  1  0
  5 26  1  0
 10 12  1  0
 26 27  1  0
  4  5  1  0
 27 28  1  0
 12 13  3  0
  4 30  1  1
  1 31  1  6
M  CHG  2   5   1  29  -1
M  END