
  SciTegic05171617282D

 37 40  0  0  0  0            999 V2000
   -2.6135    7.1986    0.0000 C   0  0
   -2.6101    5.9986    0.0000 N   0  0
   -1.3089    5.2523    0.0000 C   0  0
   -1.3046    3.7523    0.0000 C   0  0
   -2.6015    2.9986    0.0000 N   0  0
   -2.6003    1.4977    0.0000 C   0  0
   -3.8990    0.7455    0.0000 C   0  0
   -5.2007    1.4909    0.0000 C   0  0
   -6.4972    0.7364    0.0000 C   0  0
   -6.4920   -0.7636    0.0000 C   0  0
   -7.7876   -1.5212    0.0000 N   0  0
   -7.7802   -3.0220    0.0000 C   0  0
   -9.0740   -3.7810    0.0000 N   0  0
   -9.0636   -5.2810    0.0000 C   0  0
   -7.7594   -6.0220    0.0000 C   0  0
   -6.4656   -5.2630    0.0000 C   0  0
   -5.1592   -6.0017    0.0000 C   0  0
   -3.8657   -5.2405    0.0000 C   0  0
   -2.5593   -5.9792    0.0000 C   0  0
   -2.5488   -7.4793    0.0000 C   0  0
   -1.2446   -8.2202    0.0000 C   0  0
    0.0492   -7.4612    0.0000 C   0  0
    0.0388   -5.9612    0.0000 C   0  0
   -1.2654   -5.2203    0.0000 C   0  0
   -1.2727   -3.7195    0.0000 C   0  0
    0.0229   -2.9619    0.0000 C   0  0
    1.0652   -3.5566    0.0000 N   0  0
    0.0171   -1.7619    0.0000 O   0  0
   -6.4760   -3.7631    0.0000 N   0  0
   -7.7491   -7.5228    0.0000 C   0  0
   -8.7837   -8.1306    0.0000 F   0  0
   -6.7055   -8.1152    0.0000 F   0  0
   -7.7402   -8.7228    0.0000 F   0  0
   -5.1903   -1.5091    0.0000 C   0  0
   -3.8939   -0.7546    0.0000 C   0  0
   -3.9027    3.7449    0.0000 C   0  0
   -3.9070    5.2449    0.0000 C   0  0
  1  2  1  0
  2  3  1  0
  3  4  1  0
  4  5  1  0
  5  6  1  0
  6  7  1  0
  7  8  2  0
  8  9  1  0
  9 10  2  0
 10 11  1  0
 11 12  1  0
 12 13  2  0
 13 14  1  0
 14 15  2  0
 15 16  1  0
 16 17  1  0
 17 18  1  0
 18 19  1  0
 19 20  2  0
 20 21  1  0
 21 22  2  0
 22 23  1  0
 23 24  2  0
 19 24  1  0
 24 25  1  0
 25 26  1  0
 26 27  1  0
 26 28  2  0
 16 29  2  0
 12 29  1  0
 15 30  1  0
 30 31  1  0
 30 32  1  0
 30 33  1  0
 10 34  1  0
 34 35  2  0
  7 35  1  0
  5 36  1  0
 36 37  1  0
  2 37  1  0
M  END