
          11280715202D 1   1.00000     0.00000     0

 26 25  0     0  0            999 V2000
    4.4417    0.6583    0.0000 N   0  0  3  0  0  0           0  0  0
   10.8750    0.2708    0.0000 N   0  0  3  0  0  0           0  0  0
   -0.5583    0.2333    0.0000 N   0  0  0  0  0  0           0  0  0
   15.8750    0.7083    0.0000 N   0  0  0  0  0  0           0  0  0
   10.1542    0.6833    0.0000 C   0  0  0  0  0  0           0  0  0
    3.7292    0.2458    0.0000 C   0  0  0  0  0  0           0  0  0
   11.5875    0.6875    0.0000 C   0  0  0  0  0  0           0  0  0
    5.1542    0.2500    0.0000 C   0  0  0  0  0  0           0  0  0
   10.8792   -0.5542    0.0000 C   0  0  0  0  0  0           0  0  0
    4.4417    1.4833    0.0000 C   0  0  0  0  0  0           0  0  0
   15.1625    0.2875    0.0000 C   0  0  0  0  0  0           0  0  0
    0.1542    0.6458    0.0000 C   0  0  0  0  0  0           0  0  0
    3.0167    0.6583    0.0000 C   0  0  0  0  0  0           0  0  0
   12.3042    0.2750    0.0000 C   0  0  0  0  0  0           0  0  0
    5.8750    0.6625    0.0000 C   0  0  0  0  0  0           0  0  0
    9.4417    0.2708    0.0000 C   0  0  0  0  0  0           0  0  0
    0.8750    0.2333    0.0000 C   0  0  0  0  0  0           0  0  0
   14.4417    0.6958    0.0000 C   0  0  0  0  0  0           0  0  0
    7.3000    0.6708    0.0000 C   0  0  0  0  0  0           0  0  0
    8.0167    0.2583    0.0000 C   0  0  0  0  0  0           0  0  0
    8.7292    0.6750    0.0000 C   0  0  0  0  0  0           0  0  0
   13.0167    0.6958    0.0000 C   0  0  0  0  0  0           0  0  0
   13.7292    0.2833    0.0000 C   0  0  0  0  0  0           0  0  0
    1.5875    0.6500    0.0000 C   0  0  0  0  0  0           0  0  0
    2.3042    0.2375    0.0000 C   0  0  0  0  0  0           0  0  0
    6.5875    0.2583    0.0000 C   0  0  0  0  0  0           0  0  0
  2  5  1  0     0  0
  3 12  1  0     0  0
  4 11  1  0     0  0
  5 16  1  0     0  0
  6  1  1  0     0  0
  7  2  1  0     0  0
  8  1  1  0     0  0
  9  2  1  0     0  0
 10  1  1  0     0  0
 11 18  1  0     0  0
 12 17  1  0     0  0
 13  6  1  0     0  0
 14  7  1  0     0  0
 15  8  1  0     0  0
 16 21  1  0     0  0
 17 24  1  0     0  0
 18 23  1  0     0  0
 19 26  1  0     0  0
 20 19  1  0     0  0
 21 20  1  0     0  0
 22 14  1  0     0  0
 23 22  1  0     0  0
 24 25  1  0     0  0
 25 13  1  0     0  0
 26 15  1  0     0  0
M  END