
  SciTegic12131016252D

 24 26  0  0  0  0            999 V2000
    8.1000   -0.4667    0.0000 C   0  0  2  0  0  0
    8.9250   -0.4667    0.0000 C   0  0  1  0  0  0
    9.1818    0.3174    0.0000 C   0  0  1  0  0  0
    8.5125    0.8042    0.0000 O   0  0
    7.8474    0.3174    0.0000 C   0  0  2  0  0  0
    7.0627    0.5720    0.0000 C   0  0
    9.9667    0.5713    0.0000 N   0  0
   11.0474    1.3541    0.0000 N   0  0
   10.2224    1.3552    0.0000 C   0  0
   11.3012    0.5691    0.0000 C   0  0
   10.6318    0.0871    0.0000 C   0  0
   10.7153   -0.7318    0.0000 N   0  0
   11.4677   -1.0696    0.0000 C   0  0
   12.1373   -0.5824    0.0000 N   0  0
   12.0504    0.2347    0.0000 C   0  0
   11.5529   -1.8902    0.0000 N   0  0
   12.7178    0.7197    0.0000 O   0  0
    6.8908    1.3789    0.0000 O   0  0
    6.0625    1.3833    0.0000 P   0  0
    6.0583    2.2083    0.0000 O   0  0
    5.2375    1.3875    0.0000 O   0  0
    6.0583    0.5583    0.0000 O   0  0
    7.6142   -1.1335    0.0000 O   0  0
    9.4091   -1.1347    0.0000 O   0  0
  1  2  1  0
 11 12  1  0
  5  6  1  1
 12 13  2  0
 13 14  1  0
  3  7  1  1
 14 15  1  0
 15 10  1  0
  7 11  1  0
 13 16  1  0
  2  3  1  0
 15 17  2  0
  3  4  1  0
  6 18  1  0
 10  8  1  0
 18 19  1  0
  8  9  2  0
 19 20  2  0
  9  7  1  0
 19 21  1  0
  4  5  1  0
 19 22  1  0
  5  1  1  0
  1 23  1  1
 10 11  2  0
  2 24  1  1
M  END