
  SciTegic07101214422D

 22 24  0  0  0  0            999 V2000
   -1.0348  -19.8541    0.0000 C   0  0
   -1.0359  -20.6815    0.0000 C   0  0
   -0.3211  -21.0944    0.0000 N   0  0
    0.3953  -20.6810    0.0000 C   0  0
    0.3925  -19.8505    0.0000 N   0  0
   -0.3229  -19.4414    0.0000 N   0  0
    1.1105  -21.0924    0.0000 N   0  0
   -1.7493  -19.4418    0.0000 C   0  0
   -1.7507  -21.0934    0.0000 C   0  0
   -1.7461  -18.6159    0.0000 C   0  0
   -2.4598  -18.2036    0.0000 C   0  0
   -3.1752  -18.6163    0.0000 N   0  0
   -3.1723  -19.4456    0.0000 C   0  0
   -2.4580  -19.8541    0.0000 C   0  0
   -2.4632  -20.6789    0.0000 C   0  0
   -3.1775  -21.0902    0.0000 C   0  0
   -3.1786  -21.9160    0.0000 C   0  0
   -2.4595  -22.3290    0.0000 C   0  0
   -1.7481  -21.9153    0.0000 C   0  0
   -2.4596  -17.3786    0.0000 C   0  0
   -3.8852  -19.8608    0.0000 C   0  0
   -3.8915  -20.6768    0.0000 F   0  0
 10 11  1  0
  5  6  2  0
 11 12  2  0
  6  1  1  0
 12 13  1  0
  1  2  2  0
 13 14  2  0
 14  8  1  0
  4  7  1  0
  9 15  2  0
  3  4  2  0
 15 16  1  0
  1  8  1  0
 16 17  2  0
 17 18  1  0
  2  9  1  0
 18 19  2  0
 19  9  1  0
  4  5  1  0
 11 20  1  0
  8 10  2  0
 13 21  1  0
  2  3  1  0
 16 22  1  0
M  END