
  CDK    9/16/09,10:4

 21 23  0  0  0  0  0  0  0  0999 V2000
   -1.1820  -11.6872    0.0000 C   0  0  0  0  0  0  0  0  0  0  0  0
   -0.4684  -11.2752    0.0000 N   0  0  0  0  0  0  0  0  0  0  0  0
   -1.8957  -11.2752    0.0000 N   0  0  0  0  0  0  0  0  0  0  0  0
   -1.1820  -12.5113    0.0000 S   0  0  0  0  0  0  0  0  0  0  0  0
   -2.6095  -11.6872    0.0000 C   0  0  0  0  0  0  0  0  0  0  0  0
   -3.3226  -11.2721    0.0000 C   0  0  0  0  0  0  0  0  0  0  0  0
   -4.0358  -11.6835    0.0000 C   0  0  0  0  0  0  0  0  0  0  0  0
   -4.0362  -12.5085    0.0000 C   0  0  0  0  0  0  0  0  0  0  0  0
   -3.3175  -12.9203    0.0000 C   0  0  0  0  0  0  0  0  0  0  0  0
   -2.6073  -12.5066    0.0000 C   0  0  0  0  0  0  0  0  0  0  0  0
    0.2453  -11.6872    0.0000 C   0  0  0  0  0  0  0  0  0  0  0  0
    0.2428  -12.5124    0.0000 C   0  0  0  0  0  0  0  0  0  0  0  0
    0.9557  -12.9244    0.0000 C   0  0  0  0  0  0  0  0  0  0  0  0
    0.9543  -11.2757    0.0000 C   0  0  0  0  0  0  0  0  0  0  0  0
    1.6677  -11.6840    0.0000 C   0  0  0  0  0  0  0  0  0  0  0  0
    1.6713  -12.5109    0.0000 C   0  0  0  0  0  0  0  0  0  0  0  0
    2.4588  -12.7629    0.0000 C   0  0  0  0  0  0  0  0  0  0  0  0
    2.9420  -12.0917    0.0000 O   0  0  0  0  0  0  0  0  0  0  0  0
    2.4529  -11.4250    0.0000 C   0  0  0  0  0  0  0  0  0  0  0  0
    2.7041  -10.6401    0.0000 O   0  0  0  0  0  0  0  0  0  0  0  0
   -4.7493  -12.9214    0.0000 Cl  0  0  0  0  0  0  0  0  0  0  0  0
  1  3  1  0  0  0  0 
  2 11  1  0  0  0  0 
  5  6  2  0  0  0  0 
 11 12  2  0  0  0  0 
  1  2  1  0  0  0  0 
 12 13  1  0  0  0  0 
 13 16  2  0  0  0  0 
  6  7  1  0  0  0  0 
 15 14  2  0  0  0  0 
 14 11  1  0  0  0  0 
 15 16  1  0  0  0  0 
  1  4  2  0  0  0  0 
  7  8  2  0  0  0  0 
  8  9  1  0  0  0  0 
  3  5  1  0  0  0  0 
 16 17  1  0  0  0  0 
 17 18  1  0  0  0  0 
 18 19  1  0  0  0  0 
 19 15  1  0  0  0  0 
  9 10  2  0  0  0  0 
 19 20  2  0  0  0  0 
 10  5  1  0  0  0  0 
  8 21  1  0  0  0  0 
M  END