
          11280714542D 1   1.00000     0.00000     0

 23 21  0     0  0            999 V2000
    5.8375   -2.7417    0.0000 C   0  0  0  0  0  0           0  0  0
    6.3542   -2.4417    0.0000 C   0  0  0  0  0  0           0  0  0
   -0.0333   -1.2042    0.0000 C   0  0  0  0  0  0           0  0  0
    0.5667   -1.2125    0.0000 N   0  0  0  0  0  0           0  0  0
    6.3542   -1.8417    0.0000 O   0  0  0  0  0  0           0  0  0
    5.3167   -2.4417    0.0000 O   0  0  0  0  0  0           0  0  0
    3.1667   -0.9125    0.0000 N   0  0  0  0  0  0           0  0  0
    1.0875   -0.9125    0.0000 O   0  0  0  0  0  0           0  0  0
   -0.3250   -0.6792    0.0000 C   0  0  3  0  0  0           0  0  0
   -0.3333   -1.7250    0.0000 C   0  0  3  0  0  0           0  0  0
    2.1292   -0.9125    0.0000 C   0  0  3  0  0  0           0  0  0
    5.8375   -3.3417    0.0000 O   0  0  0  0  0  0           0  0  0
    6.8750   -2.7417    0.0000 O   0  0  0  0  0  0           0  0  0
    1.6042   -1.2125    0.0000 C   0  0  0  0  0  0           0  0  0
    2.6500   -1.2125    0.0000 C   0  0  0  0  0  0           0  0  0
    2.1292   -0.3125    0.0000 O   0  0  0  0  0  0           0  0  0
    3.6875   -1.2125    0.0000 C   0  0  3  0  0  0           0  0  0
   -0.0375   -2.2417    0.0000 C   0  0  0  0  0  0           0  0  0
   -0.0208   -0.1667    0.0000 C   0  0  0  0  0  0           0  0  0
   -0.9375   -1.7167    0.0000 C   0  0  0  0  0  0           0  0  0
   -0.9250   -0.6750    0.0000 C   0  0  0  0  0  0           0  0  0
    3.7500   -1.8042    0.0000 C   0  0  0  0  0  0           0  0  0
    4.2292   -0.9667    0.0000 C   0  0  0  0  0  0           0  0  0
  2  1  1  0     0  0
  4  3  2  0     0  0
  5  2  2  0     0  0
  6  1  2  0     0  0
  7 15  1  0     0  0
  8  4  1  0     0  0
  9  3  1  0     0  0
 10  3  1  0     0  0
 11 14  1  0     0  0
 12  1  1  0     0  0
 13  2  1  0     0  0
 14  8  1  0     0  0
 15 11  1  0     0  0
 16 11  1  0     0  0
 17  7  1  0     0  0
 18 10  1  0     0  0
 19  9  1  0     0  0
 20 10  1  0     0  0
 21  9  1  0     0  0
 22 17  1  0     0  0
 23 17  1  0     0  0
M  END