
          11280714482D 1   1.00000     0.00000     0

 50 55  0     0  0            999 V2000
    5.9792    0.4208    0.0000 C   0  0  0  0  0  0           0  0  0
    6.6917    1.6583    0.0000 C   0  0  0  0  0  0           0  0  0
    6.6917    0.8333    0.0000 C   0  0  0  0  0  0           0  0  0
    5.9792   -0.4042    0.0000 C   0  0  0  0  0  0           0  0  0
    5.9792    2.0708    0.0000 O   0  0  0  0  0  0           0  0  0
    5.2625    1.6583    0.0000 C   0  0  0  0  0  0           0  0  0
    5.2625    0.8333    0.0000 C   0  0  0  0  0  0           0  0  0
    6.6917   -0.8167    0.0000 C   0  0  0  0  0  0           0  0  0
    7.4042    2.0708    0.0000 C   0  0  0  0  0  0           0  0  0
    7.4042    0.4208    0.0000 C   0  0  0  0  0  0           0  0  0
    5.2625   -0.8167    0.0000 C   0  0  0  0  0  0           0  0  0
    7.5167   -0.8167    0.0000 C   0  0  0  0  0  0           0  0  0
   -0.4708   -1.6542    0.0000 N   0  0  3  0  0  0           0  0  0
    4.5417   -2.0667    0.0000 C   0  0  0  0  0  0           0  0  0
    5.2625   -1.6500    0.0000 C   0  0  0  0  0  0           0  0  0
   -1.1875   -2.0667    0.0000 C   0  0  0  0  0  0           0  0  0
    4.5500    2.0708    0.0000 C   0  0  0  0  0  0           0  0  0
    8.1167    0.8333    0.0000 C   0  0  0  0  0  0           0  0  0
    8.1167    1.6583    0.0000 C   0  0  0  0  0  0           0  0  0
    6.6917   -1.6500    0.0000 C   0  0  0  0  0  0           0  0  0
    4.5500    0.4208    0.0000 C   0  0  0  0  0  0           0  0  0
   -1.1875   -2.8917    0.0000 N   0  0  0  0  0  0           0  0  0
   -0.4708   -0.8250    0.0000 C   0  0  0  0  0  0           0  0  0
    5.9792   -2.0625    0.0000 C   0  0  0  0  0  0           0  0  0
    7.9250   -0.1042    0.0000 O   0  0  0  0  0  0           0  0  0
    4.5417   -2.8917    0.0000 O   0  0  0  0  0  0           0  0  0
    0.2417   -2.0667    0.0000 C   0  0  0  0  0  0           0  0  0
    3.8167   -1.6542    0.0000 N   0  0  0  0  0  0           0  0  0
    8.8417    2.0708    0.0000 O   0  0  0  0  0  0           0  0  0
    3.8292    1.6583    0.0000 C   0  0  0  0  0  0           0  0  0
   -1.1833   -0.4125    0.0000 C   0  0  0  0  0  0           0  0  0
    1.6750   -2.0667    0.0000 N   0  0  3  0  0  0           0  0  0
    3.8292    0.8333    0.0000 C   0  0  0  0  0  0           0  0  0
    7.9292   -1.5292    0.0000 O   0  0  0  0  0  0           0  0  0
    0.9625   -1.6542    0.0000 C   0  0  0  0  0  0           0  0  0
   -2.6083    0.4333    0.0000 C   0  0  0  0  0  0           0  0  0
   -1.1708    0.4125    0.0000 C   0  0  0  0  0  0           0  0  0
   -1.9125   -0.8125    0.0000 C   0  0  0  0  0  0           0  0  0
   -1.8833    0.8375    0.0000 C   0  0  0  0  0  0           0  0  0
   -2.6208   -0.3917    0.0000 C   0  0  0  0  0  0           0  0  0
    3.1042   -2.0667    0.0000 C   0  0  0  0  0  0           0  0  0
    3.1125    2.0708    0.0000 O   0  0  0  0  0  0           0  0  0
   -3.3208    0.8583    0.0000 O   0  0  0  0  0  0           0  0  0
   -1.9083   -1.6542    0.0000 C   0  0  0  0  0  0           0  0  0
   -1.9083   -3.3042    0.0000 C   0  0  0  0  0  0           0  0  0
    2.3917   -1.6542    0.0000 C   0  0  0  0  0  0           0  0  0
    1.6667   -2.8917    0.0000 C   0  0  0  0  0  0           0  0  0
   -4.0458    0.4583    0.0000 C   0  0  0  0  0  0           0  0  0
   -2.6208   -2.0667    0.0000 C   0  0  0  0  0  0           0  0  0
   -2.6208   -2.8917    0.0000 C   0  0  0  0  0  0           0  0  0
  2  3  1  0     0  0
  3  1  2  0     0  0
  4  1  1  0     0  0
  5  6  1  0     0  0
  6  7  2  0     0  0
  7  1  1  0     0  0
  8  4  2  0     0  0
  9  2  2  0     0  0
 10  3  1  0     0  0
 11  4  1  0     0  0
 12  8  1  0     0  0
 13 27  1  0     0  0
 14 15  1  0     0  0
 15 11  2  0     0  0
 16 13  1  0     0  0
 17  6  1  0     0  0
 18 10  2  0     0  0
 19 18  1  0     0  0
 20  8  1  0     0  0
 21  7  1  0     0  0
 22 16  2  0     0  0
 23 13  1  0     0  0
 24 15  1  0     0  0
 25 12  2  0     0  0
 26 14  2  0     0  0
 27 35  1  0     0  0
 28 14  1  0     0  0
 29 19  2  0     0  0
 30 33  1  0     0  0
 31 23  1  0     0  0
 32 46  1  0     0  0
 33 21  2  0     0  0
 34 12  1  0     0  0
 35 32  1  0     0  0
 36 40  2  0     0  0
 37 31  1  0     0  0
 38 31  2  0     0  0
 39 37  2  0     0  0
 40 38  1  0     0  0
 41 28  1  0     0  0
 42 30  1  0     0  0
 43 36  1  0     0  0
 44 16  1  0     0  0
 45 22  1  0     0  0
 46 41  1  0     0  0
 47 32  1  0     0  0
 48 43  1  0     0  0
 49 44  2  0     0  0
 50 49  1  0     0  0
  2  5  1  0     0  0
 17 30  2  0     0  0
 24 20  2  0     0  0
 19  9  1  0     0  0
 36 39  1  0     0  0
 45 50  2  0     0  0
M  END