
  SciTegic10191216022D

 28 32  0  0  0  0            999 V2000
   14.4761  -10.0374    0.0000 C   0  0
   15.1173   -9.3538    0.0000 C   0  0
   15.2805   -9.8124    0.0000 C   0  0
   15.8287   -9.6164    0.0000 C   0  0
   16.0332  -10.1152    0.0000 C   0  0
   16.5765   -9.4309    0.0000 C   0  0
   15.2737   -8.9641    0.0000 C   0  0
   15.8344   -8.3020    0.0000 C   0  0
   15.1128   -8.5584    0.0000 C   0  0
   16.5823   -8.6120    0.0000 C   0  0
   15.8292   -7.4750    0.0000 C   0  0
   16.5410   -7.0580    0.0000 N   0  0
   17.2581   -7.4660    0.0000 C   0  0
   17.9699   -7.0489    0.0000 C   0  0
   17.2633   -8.2909    0.0000 O   0  0
   18.6843   -7.4575    0.0000 C   0  0
   19.3957   -7.0412    0.0000 C   0  0
   19.3909   -6.2154    0.0000 C   0  0
   18.6688   -5.8076    0.0000 C   0  0
   17.9604   -6.2262    0.0000 C   0  0
   18.6884   -8.2825    0.0000 Cl  0  0
   18.6607   -4.9826    0.0000 C   0  0
   19.3710   -4.5631    0.0000 C   0  0
   20.0927   -4.9729    0.0000 C   0  0
   20.8010   -4.5569    0.0000 N   0  0
   20.7971   -3.7315    0.0000 C   0  0
   20.0787   -3.3239    0.0000 C   0  0
   19.3642   -3.7416    0.0000 C   0  0
 12 13  1  0
  2  4  1  0
 13 14  1  0
  3  5  1  0
 13 15  2  0
  4  6  1  0
 14 16  2  0
  5  6  1  0
 16 17  1  0
  7  8  1  0
 17 18  2  0
  3  7  1  0
 18 19  1  0
  2  9  1  0
 19 20  2  0
 20 14  1  0
  6 10  1  0
 16 21  1  0
 10  8  1  0
 19 22  1  0
  8  9  1  0
 23 22  1  0
 23 24  1  0
  8 11  1  0
  1  2  1  0
 11 12  1  0
  1  3  1  0
 23 28  1  0
 24 25  1  0
 25 26  1  0
 26 27  1  0
 27 28  1  0
M  END