
  SciTegic09081514182D

 94100  0  0  0  0            999 V2000
   -5.2200   14.9946    0.0000 C   0  0
   -6.2577   14.3920    0.0000 O   0  0
   -3.9186   14.2470    0.0000 C   0  0
   -3.9144   12.7462    0.0000 C   0  0
   -2.6130   11.9986    0.0000 C   0  0
   -2.6088   10.4978    0.0000 C   0  0
   -1.3075    9.7502    0.0000 C   0  0
   -1.3033    8.2493    0.0000 N   0  0
   -0.0019    7.5017    0.0000 C   0  0
    1.0358    8.1043    0.0000 O   0  0
    0.0023    6.0009    0.0000 C   0  0
    1.3019    5.2519    0.0000 C   0  0
    1.3030    3.7519    0.0000 C   0  0
    0.0046    3.0009    0.0000 C   0  0
   -1.2951    3.7499    0.0000 C   0  0
   -1.2962    5.2499    0.0000 C   0  0
    0.0000    1.5002    0.0000 C   0  0
    0.0000   -1.5002    0.0000 O   0  0
   -1.2989   -0.7501    0.0000 C   0  0
   -1.2989    0.7501    0.0000 C   0  0
   -2.5978    1.5002    0.0000 C   0  0
   -3.8968    0.7501    0.0000 C   0  0
   -3.8968   -0.7501    0.0000 C   0  0
   -2.5978   -1.5002    0.0000 C   0  0
    1.2806    0.7501    0.0000 C   0  0
    1.2806   -0.7501    0.0000 C   0  0
    2.5978   -1.5002    0.0000 C   0  0
    3.8968   -0.7501    0.0000 C   0  0
    3.8968    0.7501    0.0000 C   0  0
    2.5978    1.5002    0.0000 C   0  0
    2.6048    3.0051    0.0000 C   0  0
    3.6428    3.6073    0.0000 O   0  0
    2.6073    2.0051    0.0000 O   0  0
    4.9360   -1.3500    0.0000 O   0  0
   -5.2242   16.4954    0.0000 N   0  0
  -22.9483   48.0107    0.0000 C   0  0
  -23.4108   46.5837    0.0000 N   0  0
  -22.1966   45.7248    0.0000 C   0  0
  -20.9837   46.5856    0.0000 N   0  0
  -21.4483   48.0118    0.0000 N   0  0
  -24.8349   46.1105    0.0000 C   0  0
  -25.2503   44.6746    0.0000 C   0  0
  -26.7069   44.3161    0.0000 C   0  0
  -27.7456   45.3982    0.0000 C   0  0
  -27.3279   46.8388    0.0000 N   0  3
  -25.8713   47.1974    0.0000 C   0  0
  -29.2037   45.0424    0.0000 O   0  0
  -30.0335   45.9093    0.0000 C   0  0
  -22.1924   44.2240    0.0000 C   0  0
  -20.8910   43.4764    0.0000 O   0  0
  -20.8868   41.9756    0.0000 C   0  0
  -19.5855   41.2280    0.0000 C   0  0
  -19.5813   39.7272    0.0000 O   0  0
  -18.2799   38.9796    0.0000 C   0  0
  -18.2757   37.4788    0.0000 C   0  0
  -16.9743   36.7312    0.0000 O   0  0
  -16.9701   35.2303    0.0000 C   0  0
  -15.6688   34.4827    0.0000 C   0  0
  -15.6646   32.9819    0.0000 O   0  0
  -23.8313   49.2242    0.0000 N   0  0
  -25.2576   49.5336    0.0000 C   0  0
  -24.9027   50.9910    0.0000 C   0  0
  -23.4453   50.6361    0.0000 C   0  0
  -25.6769   52.2697    0.0000 O   0  0
  -24.9545   53.5852    0.0000 C   0  0
  -25.7296   54.8695    0.0000 C   0  0
  -25.0049   56.1829    0.0000 C   0  0
  -23.5052   56.2120    0.0000 C   0  0
  -22.7301   54.9278    0.0000 C   0  0
  -23.4547   53.6144    0.0000 C   0  0
  -26.9293   54.8462    0.0000 Cl  0  0
  -22.9255   57.2627    0.0000 F   0  0
  -14.3632   32.2343    0.0000 C   0  0
  -14.3590   30.7335    0.0000 C   0  0
  -13.0576   29.9859    0.0000 O   0  0
  -13.0534   28.4851    0.0000 C   0  0
  -11.7520   27.7375    0.0000 C   0  0
  -11.7478   26.2367    0.0000 O   0  0
  -10.4465   25.4891    0.0000 C   0  0
  -10.4423   23.9883    0.0000 C   0  0
   -9.1409   23.2407    0.0000 O   0  0
   -9.1367   21.7398    0.0000 C   0  0
   -7.8353   20.9922    0.0000 C   0  0
   -7.8311   19.4914    0.0000 O   0  0
   -6.5298   18.7438    0.0000 C   0  0
   -6.5256   17.2430    0.0000 C   0  0
   -4.9360   -1.3500    0.0000 O   0  0
    8.9965   29.5878    0.0000 O   0  5
    8.9965   28.3878    0.0000 C   0  0
   10.2965   27.6378    0.0000 C   0  0
    7.9570   27.7882    0.0000 O   0  0
   11.3359   28.2375    0.0000 F   0  0
   11.3356   27.0377    0.0000 F   0  0
   10.2965   26.4378    0.0000 F   0  0
  1  2  2  0
  1  3  1  0
  3  4  1  0
  4  5  1  0
  5  6  1  0
  6  7  1  0
  7  8  1  0
  8  9  1  0
  9 10  2  0
  9 11  1  0
 11 12  2  0
 12 13  1  0
 13 14  2  0
 14 15  1  0
 15 16  2  0
 16 11  1  0
 17 20  1  0
 17 25  2  0
 19 18  1  0
 18 26  1  0
 14 17  1  0
 19 20  2  0
 20 21  1  0
 21 22  2  0
 22 23  1  0
 23 24  2  0
 24 19  1  0
 25 26  1  0
 25 30  1  0
 26 27  2  0
 27 28  1  0
 28 29  1  0
 29 30  2  0
 13 31  1  0
 31 32  2  0
 31 33  1  0
 28 34  2  0
  1 35  1  0
 36 37  1  0
 37 38  1  0
 38 39  2  0
 39 40  1  0
 40 36  2  0
 41 42  2  0
 42 43  1  0
 43 44  2  0
 44 45  1  0
 45 46  2  0
 46 41  1  0
 37 41  1  0
 44 47  1  0
 47 48  1  0
 38 49  1  0
 49 50  1  0
 50 51  1  0
 51 52  1  0
 52 53  1  0
 53 54  1  0
 54 55  1  0
 55 56  1  0
 56 57  1  0
 57 58  1  0
 58 59  1  0
 60 61  1  0
 61 62  1  0
 62 63  1  0
 63 60  1  0
 36 60  1  0
 62 64  1  0
 64 65  1  0
 65 66  2  0
 66 67  1  0
 67 68  2  0
 68 69  1  0
 69 70  2  0
 70 65  1  0
 66 71  1  0
 68 72  1  0
 59 73  1  0
 73 74  1  0
 74 75  1  0
 75 76  1  0
 76 77  1  0
 77 78  1  0
 78 79  1  0
 79 80  1  0
 80 81  1  0
 81 82  1  0
 82 83  1  0
 83 84  1  0
 84 85  1  0
 85 86  1  0
 86 35  1  0
 23 87  1  0
 88 89  1  0
 89 90  1  0
 89 91  2  0
 90 92  1  0
 90 93  1  0
 90 94  1  0
M  CHG  2  45   1  88  -1
M  END