
  CDK    9/16/09,9:46

 26 28  0  0  0  0  0  0  0  0999 V2000
   -0.9973   -9.2737    0.0000 C   0  0  0  0  0  0  0  0  0  0  0  0
   -1.6959   -9.7171    0.0000 C   0  0  0  0  0  0  0  0  0  0  0  0
   -1.6613  -10.5402    0.0000 C   0  0  0  0  0  0  0  0  0  0  0  0
   -0.9262  -10.9249    0.0000 C   0  0  0  0  0  0  0  0  0  0  0  0
   -0.2679   -9.6507    0.0000 C   0  0  0  0  0  0  0  0  0  0  0  0
   -0.2234  -10.4751    0.0000 C   0  0  0  0  0  0  0  0  0  0  0  0
    1.1569   -9.5737    0.0000 N   0  0  0  0  0  0  0  0  0  0  0  0
    0.4198   -9.1977    0.0000 C   0  0  0  0  0  0  0  0  0  0  0  0
    1.2014  -10.3981    0.0000 C   0  0  0  0  0  0  0  0  0  0  0  0
    0.5074  -10.8523    0.0000 N   0  0  0  0  0  0  0  0  0  0  0  0
    0.7248  -11.6528    0.0000 C   0  0  0  0  0  0  0  0  0  0  0  0
    1.5534  -11.6933    0.0000 N   0  0  0  0  0  0  0  0  0  0  0  0
    1.8478  -10.9179    0.0000 C   0  0  0  0  0  0  0  0  0  0  0  0
    0.3742   -8.3740    0.0000 O   0  0  0  0  0  0  0  0  0  0  0  0
    2.6439  -10.7017    0.0000 C   0  0  0  0  0  0  0  0  0  0  0  0
    3.2291  -11.2830    0.0000 O   0  0  0  0  0  0  0  0  0  0  0  0
    2.8546   -9.9042    0.0000 O   0  0  0  0  0  0  0  0  0  0  0  0
    3.6506   -9.6879    0.0000 C   0  0  0  0  0  0  0  0  0  0  0  0
    3.8613   -8.8903    0.0000 C   0  0  0  0  0  0  0  0  0  0  0  0
    1.8485   -9.1239    0.0000 C   0  0  0  0  0  0  0  0  0  0  0  0
   -2.4270   -9.3350    0.0000 C   0  0  0  0  0  0  0  0  0  0  0  0
   -3.1438   -8.9181    0.0000 C   0  0  0  0  0  0  0  0  0  0  0  0
   -3.4215   -7.7120    0.0000 C   0  0  0  0  0  0  0  0  0  0  0  0
   -4.3230   -9.1684    0.0000 C   0  0  0  0  0  0  0  0  0  0  0  0
   -3.8587   -8.5057    0.0000 Si  0  0  0  0  0  0  0  0  0  0  0  0
   -4.5732   -8.0932    0.0000 C   0  0  0  0  0  0  0  0  0  0  0  0
 10 11  1  0  0  0  0 
 11 12  2  0  0  0  0 
 12 13  1  0  0  0  0 
 13  9  2  0  0  0  0 
  1  2  2  0  0  0  0 
  8 14  2  0  0  0  0 
  3  4  2  0  0  0  0 
 13 15  1  0  0  0  0 
  5  8  1  0  0  0  0 
 15 16  2  0  0  0  0 
  6 10  1  0  0  0  0 
 15 17  1  0  0  0  0 
  9  7  1  0  0  0  0 
 17 18  1  0  0  0  0 
  7  8  1  0  0  0  0 
 18 19  1  0  0  0  0 
  9 10  1  0  0  0  0 
  7 20  1  0  0  0  0 
  4  6  1  0  0  0  0 
  2 21  1  0  0  0  0 
  5  1  1  0  0  0  0 
 21 22  3  0  0  0  0 
  5  6  2  0  0  0  0 
 22 25  1  0  0  0  0 
 25 23  1  0  0  0  0 
  2  3  1  0  0  0  0 
 25 24  1  0  0  0  0 
 25 26  1  0  0  0  0 
M  END