
  SciTegic12231509382D

 10 11  0  0  0  0            999 V2000
   -4.6181  -23.7708    0.0000 C   0  0
   -4.6193  -24.5982    0.0000 C   0  0
   -3.9044  -25.0110    0.0000 C   0  0
   -3.1880  -24.5977    0.0000 C   0  0
   -3.1909  -23.7672    0.0000 C   0  0
   -3.9062  -23.3580    0.0000 C   0  0
   -2.4747  -23.3498    0.0000 C   0  0  1  0  0  0
   -1.6497  -23.3467    0.0000 C   0  0  1  0  0  0
   -2.0649  -22.6338    0.0000 C   0  0
   -0.9337  -23.7565    0.0000 N   0  0
  2  3  1  0
  5  6  2  0
  6  1  1  0
  8  7  1  0
  9  8  1  0
  7  9  1  0
  1  2  2  0
  3  4  2  0
  7  5  1  6
  4  5  1  0
  8 10  1  1
M  END