
  SciTegic01161211262D

 17 18  0  0  0  0            999 V2000
   11.7018   -2.8260    0.0000 C   0  0
   11.7004   -3.6502    0.0000 C   0  0
   12.4149   -4.0611    0.0000 C   0  0
   13.1295   -3.6468    0.0000 C   0  0
   13.1250   -2.8177    0.0000 C   0  0
   12.4098   -2.4105    0.0000 C   0  0
   10.9862   -2.4154    0.0000 N   0  0
   10.1612   -1.5904    0.0000 C   0  0
   10.1612   -2.4154    0.0000 C   0  0
   10.9862   -1.5904    0.0000 C   0  0
   11.5696   -1.0071    0.0000 O   0  0
    9.5778   -2.9987    0.0000 O   0  0
   10.1521   -0.7609    0.0000 C   0  0
   10.8619   -0.3404    0.0000 C   0  0
    9.3362   -1.5950    0.0000 C   0  0
    8.9198   -0.8829    0.0000 C   0  0
   13.8455   -4.0568    0.0000 Cl  0  0
  4  5  1  0
  9  7  1  0
  7 10  1  0
 10  8  1  0
  2  3  1  0
 10 11  2  0
  5  6  2  0
  9 12  2  0
  6  1  1  0
  8 13  1  0
  1  2  2  0
 13 14  1  0
  1  7  1  0
  8 15  1  0
  8  9  1  0
 15 16  1  0
  3  4  2  0
  4 17  1  0
M  END