
  SciTegic04091414152D

 33 37  0  0  0  0            999 V2000
   16.6441   -3.4531    0.0000 C   0  0
   15.9276   -3.8549    0.0000 C   0  0  2  0  0  0
   15.9187   -4.6726    0.0000 C   0  0
   16.6437   -5.0688    0.0000 N   0  3
   17.3423   -4.6897    0.0000 C   0  0
   17.3529   -3.8658    0.0000 C   0  0
   16.1174   -4.0793    0.0000 C   0  0
   16.8647   -4.4229    0.0000 C   0  0
   15.2251   -3.4332    0.0000 O   0  0
   13.8719   -2.9848    0.0000 C   0  0
   13.3276   -3.6068    0.0000 C   0  0
   14.4232   -3.6037    0.0000 C   0  0
   13.1142   -2.6593    0.0000 C   0  0
   12.8877   -1.8687    0.0000 C   0  0
   13.3649   -1.2020    0.0000 C   0  0
   14.1830   -1.1680    0.0000 C   0  0
   14.7295   -1.7792    0.0000 C   0  0
   14.5904   -2.5910    0.0000 C   0  0
   12.5098   -3.5368    0.0000 C   0  0
   12.1872   -4.2913    0.0000 C   0  0
   12.8092   -4.8354    0.0000 C   0  0
   13.5135   -4.4146    0.0000 C   0  0
   14.1621   -4.3836    0.0000 O   0  0
   16.5351   -5.8829    0.0000 C   0  0
   17.1864   -6.3860    0.0000 C   0  0
   17.0779   -7.2000    0.0000 O   0  0
   16.3180   -7.5110    0.0000 C   0  0
   16.2095   -8.3251    0.0000 C   0  0
   15.4473   -8.6361    0.0000 C   0  0
   15.3385   -9.4494    0.0000 C   0  0
   15.9861   -9.9493    0.0000 C   0  0
   16.7489   -9.6343    0.0000 C   0  0
   16.8582   -8.8219    0.0000 C   0  0
  1  2  1  0
  1  6  1  0
  2  3  1  0
  3  4  1  0
  4  5  1  0
  5  6  1  0
  1  7  1  0
  4  8  1  0
  7  8  1  0
  2  9  1  6
 11 10  1  0
 10 12  1  0
 13 14  1  0
 14 15  1  0
 15 16  1  0
 13 10  1  0
 16 17  1  0
 10 18  1  0
 17 18  1  0
 11 19  2  0
 19 20  1  0
 20 21  2  0
 21 22  1  0
 22 11  1  0
 12 23  2  0
 12  9  1  0
  4 24  1  0
 24 25  1  0
 25 26  1  0
 26 27  1  0
 27 28  1  0
 28 29  2  0
 29 30  1  0
 30 31  2  0
 31 32  1  0
 32 33  2  0
 33 28  1  0
M  CHG  1   4   1
M  END