
          08180812482D 1   1.00000     0.00000     0

 35 39  0     0  0            999 V2000
   -4.8338  -28.2330    0.0000 N   0  0  3  0  0  0           0  0  0
   -4.8338  -29.0624    0.0000 C   0  0  0  0  0  0           0  0  0
   -4.1196  -29.4748    0.0000 N   0  0  3  0  0  0           0  0  0
   -4.1196  -27.8161    0.0000 C   0  0  0  0  0  0           0  0  0
   -4.1208  -26.9913    0.0000 O   0  0  0  0  0  0           0  0  0
   -5.5481  -29.4748    0.0000 O   0  0  0  0  0  0           0  0  0
   -3.4007  -28.2330    0.0000 C   0  0  0  0  0  0           0  0  0
   -3.3962  -29.0634    0.0000 C   0  0  0  0  0  0           0  0  0
   -2.6050  -29.3156    0.0000 C   0  0  0  0  0  0           0  0  0
   -2.1206  -28.6411    0.0000 C   0  0  0  0  0  0           0  0  0
   -2.6125  -27.9722    0.0000 N   0  0  0  0  0  0           0  0  0
   -5.5491  -27.8224    0.0000 C   0  0  0  0  0  0           0  0  0
   -4.1223  -30.2995    0.0000 C   0  0  0  0  0  0           0  0  0
   -1.2967  -28.6408    0.0000 C   0  0  0  0  0  0           0  0  0
   -0.8856  -29.3561    0.0000 C   0  0  0  0  0  0           0  0  0
   -0.0652  -29.3578    0.0000 C   0  0  0  0  0  0           0  0  0
    0.3505  -28.6458    0.0000 C   0  0  0  0  0  0           0  0  0
   -0.0606  -27.9305    0.0000 C   0  0  0  0  0  0           0  0  0
   -0.8873  -27.9272    0.0000 C   0  0  0  0  0  0           0  0  0
    1.1752  -28.6486    0.0000 O   0  0  0  0  0  0           0  0  0
    1.5900  -27.9358    0.0000 C   0  0  0  0  0  0           0  0  0
    2.4147  -27.9386    0.0000 C   0  0  0  0  0  0           0  0  0
    2.8295  -27.2257    0.0000 N   0  0  3  0  0  0           0  0  0
    2.8246  -28.6542    0.0000 O   0  0  0  0  0  0           0  0  0
    3.6589  -27.2329    0.0000 C   0  0  0  0  0  0           0  0  0
    4.0736  -26.5242    0.0000 C   0  0  0  0  0  0           0  0  0
    3.6673  -25.8062    0.0000 N   0  0  3  0  0  0           0  0  0
    2.8416  -25.8014    0.0000 C   0  0  0  0  0  0           0  0  0
    2.4223  -26.5147    0.0000 C   0  0  0  0  0  0           0  0  0
    4.0847  -25.0949    0.0000 C   0  0  0  0  0  0           0  0  0
    4.9101  -25.1057    0.0000 C   0  0  0  0  0  0           0  0  0
    5.3274  -24.3953    0.0000 C   0  0  0  0  0  0           0  0  0
    4.9202  -23.6772    0.0000 C   0  0  0  0  0  0           0  0  0
    4.0912  -23.6739    0.0000 C   0  0  0  0  0  0           0  0  0
    3.6775  -24.3849    0.0000 C   0  0  0  0  0  0           0  0  0
  7  4  1  0     0  0
 14 19  1  0     0  0
 15 16  1  0     0  0
 16 17  2  0     0  0
 17 18  1  0     0  0
 18 19  2  0     0  0
 17 20  1  0     0  0
  8  9  1  0     0  0
 20 21  1  0     0  0
  9 10  2  0     0  0
 21 22  1  0     0  0
 10 11  1  0     0  0
 22 23  1  0     0  0
 11  7  1  0     0  0
 22 24  2  0     0  0
 23 25  1  0     0  0
  4  5  2  0     0  0
  1 12  1  0     0  0
  1  2  1  0     0  0
  3 13  1  0     0  0
  2  6  2  0     0  0
 23 29  1  0     0  0
 25 26  1  0     0  0
 26 27  1  0     0  0
 27 28  1  0     0  0
 28 29  1  0     0  0
 10 14  1  0     0  0
 27 30  1  0     0  0
 14 15  2  0     0  0
 30 31  2  0     0  0
  7  8  2  0     0  0
 31 32  1  0     0  0
  1  4  1  0     0  0
 32 33  2  0     0  0
  2  3  1  0     0  0
 33 34  1  0     0  0
  3  8  1  0     0  0
 34 35  2  0     0  0
 35 30  1  0     0  0
M  END