
  SciTegic06051313522D

 25 27  0  0  0  0            999 V2000
   28.9233   -7.3203    0.0000 C   0  0
   29.6330   -6.9108    0.0000 C   0  0
   29.6302   -6.0882    0.0000 C   0  0
   28.9216   -5.6829    0.0000 C   0  0
   30.3363   -5.6769    0.0000 N   0  0
   31.0456   -6.0828    0.0000 C   0  0
   28.2153   -6.9113    0.0000 C   0  0
   28.2165   -6.0902    0.0000 C   0  0
   27.4360   -5.8353    0.0000 N   0  0
   26.9523   -6.4989    0.0000 O   0  0
   27.4340   -7.1638    0.0000 N   0  0
   28.9216   -4.8619    0.0000 N   0  3
   28.2130   -4.4549    0.0000 O   0  0
   29.6284   -4.4517    0.0000 O   0  5
   31.7517   -5.6716    0.0000 C   0  0
   32.4594   -6.0809    0.0000 C   0  0
   33.1651   -5.6703    0.0000 C   0  0
   33.1625   -4.8522    0.0000 C   0  0
   32.4482   -4.4465    0.0000 C   0  0
   31.7455   -4.8594    0.0000 C   0  0
   33.8681   -4.4400    0.0000 F   0  0
   32.4605   -6.8981    0.0000 C   0  0
   31.7533   -7.3076    0.0000 F   0  0
   33.1687   -7.3058    0.0000 F   0  0
   32.4524   -7.7138    0.0000 F   0  0
  7  1  1  0
  1  2  2  0
  2  3  1  0
  3  4  2  0
  4  8  1  0
  3  5  1  0
  5  6  1  0
  7  8  1  0
  8  9  2  0
  9 10  1  0
 10 11  1  0
 11  7  2  0
 12 13  2  0
 12 14  1  0
  4 12  1  0
  6 15  1  0
 15 16  2  0
 16 17  1  0
 17 18  2  0
 18 19  1  0
 19 20  2  0
 20 15  1  0
 18 21  1  0
 16 22  1  0
 22 23  1  0
 22 24  1  0
 22 25  1  0
M  CHG  2  12   1  14  -1
M  END