
  SciTegic07291412072D

 54 60  0  0  0  0            999 V2000
   -1.0153   -3.1948    0.0000 N   0  0
    2.4680   -7.5788    0.0000 N   0  0
   -0.2338   -3.4592    0.0000 C   0  0
   -0.5574   -1.8412    0.0000 C   0  0
    1.8146   -6.4148    0.0000 C   0  0
    2.5641   -6.7595    0.0000 C   0  0
    0.2241   -2.1056    0.0000 N   0  0
    0.3859   -2.9146    0.0000 C   0  0  1  0  0  0
   -1.1771   -2.3858    0.0000 C   0  0  2  0  0  0
    1.6590   -7.7406    0.0000 C   0  0
    4.1590   -7.2080    0.0000 C   0  0
    1.2552   -7.0212    0.0000 C   0  0
    3.0540   -5.3256    0.0000 C   0  0
    3.9972   -6.3990    0.0000 C   0  0  1  0  0  0
    3.2157   -6.1346    0.0000 N   0  0
    1.1674   -3.1789    0.0000 C   0  0
    3.0744   -8.1382    0.0000 C   0  0
    4.9405   -7.4723    0.0000 N   0  0
    1.3292   -3.9879    0.0000 C   0  0
    2.2725   -5.0613    0.0000 C   0  0  1  0  0  0
    1.6528   -5.6059    0.0000 C   0  0
    2.1107   -4.2523    0.0000 N   0  0
   -1.7638   -2.8479    0.0000 C   0  0
   -0.7192   -1.0322    0.0000 O   0  0
   -0.0720   -4.2681    0.0000 O   0  0
   -1.9065   -2.0995    0.0000 C   0  0
    5.1023   -8.2813    0.0000 C   0  0
    4.6169   -5.8544    0.0000 C   0  0
    3.5393   -7.7526    0.0000 O   0  0
    3.2352   -4.5208    0.0000 O   0  0
    2.8932   -8.9431    0.0000 O   0  0
    0.7095   -4.5325    0.0000 O   0  0
   -1.6241   -1.8093    0.0000 C   0  0
   -2.6031   -3.2068    0.0000 C   0  0
   -2.7103   -2.4514    0.0000 C   0  0
   -1.8688   -1.2034    0.0000 C   0  0
    5.8838   -8.5457    0.0000 C   0  0
    4.4551   -5.0454    0.0000 C   0  0
    1.2380   -8.4501    0.0000 C   0  0
    5.5602   -6.9277    0.0000 C   0  0
    0.4302   -7.0113    0.0000 C   0  0
    3.8621   -7.8927    0.0000 C   0  0
    6.0456   -9.3547    0.0000 C   0  0
    5.0748   -4.5008    0.0000 C   0  0
    3.6736   -4.7810    0.0000 C   0  0
    6.5035   -8.0011    0.0000 C   0  0
    0.4130   -8.4402    0.0000 C   0  0
    0.0092   -7.7208    0.0000 C   0  0
    4.9130   -3.6918    0.0000 C   0  0
    3.5119   -3.9720    0.0000 C   0  0
    6.8271   -9.6190    0.0000 C   0  0
    7.2850   -8.2654    0.0000 C   0  0
    4.1316   -3.4274    0.0000 C   0  0
    7.4468   -9.0744    0.0000 C   0  0
  2  6  1  0
  3  1  1  0
  9  4  1  1
  5 21  1  0
  6  5  2  0
  7  4  1  0
  8  3  1  0
  9  1  1  0
 10 12  2  0
 11 14  1  0
 12  5  1  0
 13 20  1  0
 14 15  1  0
 15 13  1  0
 16  8  1  0
 17  2  1  0
 18 11  1  0
 19 16  1  0
 20 22  1  0
 20 21  1  1
 22 19  1  0
 23  1  1  0
 24  4  2  0
 25  3  2  0
 26  9  1  0
 27 18  1  0
 14 28  1  1
 29 11  2  0
 30 13  2  0
 31 17  2  0
 32 19  2  0
 33 23  1  0
 34 23  1  0
 35 34  1  0
 36 33  1  0
 37 27  1  0
 38 28  1  0
 39 10  1  0
 40 18  1  0
 41 12  1  0
 42 17  1  0
 43 37  1  0
 44 38  2  0
 45 38  1  0
 46 37  2  0
 47 48  1  0
 48 41  2  0
 49 44  1  0
 50 45  2  0
 51 43  2  0
 52 46  1  0
 53 50  1  0
 54 52  2  0
  8  7  1  1
 35 26  1  0
 36 26  1  0
  2 10  1  0
 47 39  2  0
 53 49  2  0
 51 54  1  0
M  END