
  SciTegic10301317112D

 29 29  0  0  0  0            999 V2000
    1.7542   -2.1125    0.0000 S   0  0
    5.0417   -2.1000    0.0000 C   0  0
   10.1417   -4.7542    0.0000 C   0  0  1  0  0  0
   10.5625   -5.4667    0.0000 C   0  0
    9.3167   -4.7542    0.0000 N   0  0
    2.5750   -2.1125    0.0000 C   0  0
    8.8375   -4.0917    0.0000 C   0  0
    5.4625   -2.8125    0.0000 N   0  0
    1.7500   -2.9375    0.0000 O   0  0
    1.7542   -1.2875    0.0000 O   0  0
    6.7042   -3.5167    0.0000 C   0  0
    4.2167   -2.1042    0.0000 C   0  0
    0.9250   -2.1042    0.0000 N   0  0
    7.5292   -3.5125    0.0000 N   0  0
    5.4542   -1.3792    0.0000 O   0  0
   10.1542   -6.1792    0.0000 O   0  0
   10.5542   -4.0375    0.0000 C   0  0
    9.1667   -3.3375    0.0000 O   0  0
    6.2917   -4.2292    0.0000 O   0  0
    2.9792   -1.4000    0.0000 C   0  0
    2.9917   -2.8250    0.0000 C   0  0
    3.8125   -2.8167    0.0000 C   0  0
    3.8000   -1.3917    0.0000 C   0  0
    6.2875   -2.8042    0.0000 C   0  0
    8.0167   -4.1792    0.0000 C   0  0
   11.3875   -5.4542    0.0000 O   0  0
   11.3792   -4.0292    0.0000 C   0  0
   11.7875   -3.3125    0.0000 C   0  0
   11.7917   -4.7417    0.0000 C   0  0
  2 12  1  0
  3  5  1  0
  4  3  1  0
  5  7  1  0
  6  1  1  0
  7 25  1  0
  8  2  1  0
  9  1  2  0
 10  1  2  0
 11 24  1  0
 12 22  2  0
 13  1  1  0
 14 11  1  0
 15  2  2  0
 16  4  2  0
  3 17  1  1
 18  7  2  0
 19 11  2  0
 20  6  1  0
 21  6  2  0
 22 21  1  0
 23 20  2  0
 24  8  1  0
 25 14  1  0
 26  4  1  0
 27 17  1  0
 28 27  1  0
 29 27  1  0
 12 23  1  0
M  END