
  Mrv0541 05211314572D          

 36 39  0  0  0  0            999 V2000
   -0.2456   -0.4011    0.0000 C   0  0  0  0  0  0  0  0  0  0  0  0
    0.4689    0.0114    0.0000 C   0  0  0  0  0  0  0  0  0  0  0  0
    1.1834   -0.4011    0.0000 C   0  0  0  0  0  0  0  0  0  0  0  0
    1.8979    0.0114    0.0000 N   0  0  0  0  0  0  0  0  0  0  0  0
    1.1834   -1.2261    0.0000 O   0  0  0  0  0  0  0  0  0  0  0  0
    2.6123   -0.4011    0.0000 C   0  0  0  0  0  0  0  0  0  0  0  0
    3.3268    0.0114    0.0000 C   0  0  0  0  0  0  0  0  0  0  0  0
    3.3268    0.8364    0.0000 N   0  0  0  0  0  0  0  0  0  0  0  0
    2.6123    1.2489    0.0000 C   0  0  0  0  0  0  0  0  0  0  0  0
    1.8979    0.8364    0.0000 C   0  0  0  0  0  0  0  0  0  0  0  0
    4.0413    1.2489    0.0000 C   0  0  0  0  0  0  0  0  0  0  0  0
   -0.9600    0.0114    0.0000 N   0  0  0  0  0  0  0  0  0  0  0  0
   -0.9600    0.8364    0.0000 C   0  0  0  0  0  0  0  0  0  0  0  0
   -1.6745   -0.4011    0.0000 C   0  0  0  0  0  0  0  0  0  0  0  0
   -2.3890    0.0114    0.0000 C   0  0  0  0  0  0  0  0  0  0  0  0
   -3.1034   -0.4011    0.0000 C   0  0  0  0  0  0  0  0  0  0  0  0
   -3.9966   -1.3931    0.0000 C   0  0  0  0  0  0  0  0  0  0  0  0
   -3.1897   -1.2215    0.0000 C   0  0  0  0  0  0  0  0  0  0  0  0
   -2.6376   -1.8346    0.0000 C   0  0  0  0  0  0  0  0  0  0  0  0
   -2.8926   -2.6193    0.0000 C   0  0  0  0  0  0  0  0  0  0  0  0
   -3.6995   -2.7908    0.0000 C   0  0  0  0  0  0  0  0  0  0  0  0
   -4.2516   -2.1777    0.0000 C   0  0  0  0  0  0  0  0  0  0  0  0
   -3.8571   -0.0655    0.0000 C   0  0  0  0  0  0  0  0  0  0  0  0
   -4.4091   -0.6786    0.0000 C   0  0  0  0  0  0  0  0  0  0  0  0
   -5.2161   -0.5071    0.0000 C   0  0  0  0  0  0  0  0  0  0  0  0
   -5.4711    0.2776    0.0000 C   0  0  0  0  0  0  0  0  0  0  0  0
   -4.9190    0.8907    0.0000 C   0  0  0  0  0  0  0  0  0  0  0  0
   -4.1120    0.7191    0.0000 C   0  0  0  0  0  0  0  0  0  0  0  0
    4.0413    2.0739    0.0000 C   0  0  0  0  0  0  0  0  0  0  0  0
    4.7557    2.4864    0.0000 C   0  0  0  0  0  0  0  0  0  0  0  0
    5.4702    2.0739    0.0000 C   0  0  0  0  0  0  0  0  0  0  0  0
    5.4702    1.2489    0.0000 C   0  0  0  0  0  0  0  0  0  0  0  0
    4.7557    0.8364    0.0000 N   0  0  0  0  0  0  0  0  0  0  0  0
    4.7557    0.0114    0.0000 C   0  0  0  0  0  0  0  0  0  0  0  0
    6.1847    0.8364    0.0000 O   0  0  0  0  0  0  0  0  0  0  0  0
    8.4240    0.0000    0.0000 Cl  0  0  0  0  0  0  0  0  0  0  0  0
 23 16  1  0  0  0  0
 17 18  2  0  0  0  0
  4 10  1  0  0  0  0
  6  7  1  0  0  0  0
  7  8  1  0  0  0  0
  8  9  1  0  0  0  0
  9 10  1  0  0  0  0
  4  6  1  0  0  0  0
 17 22  1  0  0  0  0
 18 19  1  0  0  0  0
 19 20  2  0  0  0  0
 20 21  1  0  0  0  0
 21 22  2  0  0  0  0
 23 24  2  0  0  0  0
  8 11  1  0  0  0  0
  2  3  1  0  0  0  0
  1 12  1  0  0  0  0
  1  2  1  0  0  0  0
 12 13  1  0  0  0  0
  3  4  1  0  0  0  0
 23 28  1  0  0  0  0
 24 25  1  0  0  0  0
 25 26  2  0  0  0  0
 26 27  1  0  0  0  0
 27 28  2  0  0  0  0
 11 29  2  0  0  0  0
 12 14  1  0  0  0  0
 14 15  1  0  0  0  0
  3  5  2  0  0  0  0
 15 16  1  0  0  0  0
 11 33  1  0  0  0  0
 29 30  1  0  0  0  0
 30 31  2  0  0  0  0
 31 32  1  0  0  0  0
 32 33  1  0  0  0  0
 16 18  1  0  0  0  0
 33 34  1  0  0  0  0
 17 24  1  0  0  0  0
 32 35  2  0  0  0  0
M  END