
          11280715242D 1   1.00000     0.00000     0

 46 51  0     0  0            999 V2000
    9.8792   -1.7292    0.0000 N   0  3  0  0  0  0           0  0  0
    0.0000    0.1833    0.0000 C   0  0  0  0  0  0           0  0  0
   -1.4333    1.0000    0.0000 C   0  0  0  0  0  0           0  0  0
    9.3250   -1.1167    0.0000 C   0  0  0  0  0  0           0  0  0
   -1.4250    0.1833    0.0000 C   0  0  0  0  0  0           0  0  0
   -0.7125   -0.2292    0.0000 O   0  0  0  0  0  0           0  0  0
   -0.7250    1.4208    0.0000 C   0  0  0  0  0  0           0  0  0
    9.4667   -2.4417    0.0000 O   0  0  0  0  0  0           0  0  0
   -0.0083    1.0083    0.0000 C   0  0  0  0  0  0           0  0  0
    8.6542   -2.2667    0.0000 N   0  0  0  0  0  0           0  0  0
    0.7125   -0.2167    0.0000 C   0  0  0  0  0  0           0  0  0
    8.5667   -1.4542    0.0000 C   0  0  0  0  0  0           0  0  0
    5.7167   -2.2750    0.0000 N   0  0  3  0  0  0           0  0  0
    0.7167   -1.0500    0.0000 C   0  0  0  0  0  0           0  0  0
    9.4917   -0.3125    0.0000 C   0  0  0  0  0  0           0  0  0
    9.6667    0.4958    0.0000 N   0  0  0  0  0  0           0  0  0
    6.4292   -2.6875    0.0000 C   0  0  0  0  0  0           0  0  0
   10.7000   -1.6417    0.0000 O   0  5  0  0  0  0           0  0  0
    4.2917   -1.4500    0.0000 N   0  0  3  0  0  0           0  0  0
    7.8542   -1.0417    0.0000 C   0  0  0  0  0  0           0  0  0
   -2.1375   -0.2375    0.0000 C   0  0  0  0  0  0           0  0  0
   -0.7333    2.2458    0.0000 O   0  0  0  0  0  0           0  0  0
    7.1417   -1.4500    0.0000 O   0  0  0  0  0  0           0  0  0
    7.1417   -2.2750    0.0000 C   0  0  0  0  0  0           0  0  0
    5.0000   -2.6792    0.0000 C   0  0  0  0  0  0           0  0  0
    5.7167   -1.4417    0.0000 C   0  0  0  0  0  0           0  0  0
    0.0042   -1.4667    0.0000 O   0  0  0  0  0  0           0  0  0
    1.4292   -1.4542    0.0000 N   0  0  0  0  0  0           0  0  0
    4.2917   -2.2750    0.0000 C   0  0  0  0  0  0           0  0  0
    5.0000   -1.0292    0.0000 C   0  0  0  0  0  0           0  0  0
   -2.1500    1.4083    0.0000 C   0  0  0  0  0  0           0  0  0
    1.4250    0.1875    0.0000 C   0  0  0  0  0  0           0  0  0
    0.7042    1.4208    0.0000 C   0  0  0  0  0  0           0  0  0
    3.5792   -1.0375    0.0000 C   0  0  0  0  0  0           0  0  0
    2.8625   -1.4542    0.0000 C   0  0  0  0  0  0           0  0  0
    1.4167    1.0208    0.0000 C   0  0  0  0  0  0           0  0  0
    6.4292   -3.5125    0.0000 C   0  0  0  0  0  0           0  0  0
    2.1500   -1.0417    0.0000 C   0  0  0  0  0  0           0  0  0
   -2.8583    0.1750    0.0000 C   0  0  0  0  0  0           0  0  0
   -2.1375   -1.0667    0.0000 C   0  0  0  0  0  0           0  0  0
    7.8542   -2.6792    0.0000 C   0  0  0  0  0  0           0  0  0
    7.1417   -3.9250    0.0000 C   0  0  0  0  0  0           0  0  0
   -3.5708   -0.2375    0.0000 C   0  0  0  0  0  0           0  0  0
   -2.8583   -1.4792    0.0000 C   0  0  0  0  0  0           0  0  0
    7.8542   -3.5125    0.0000 C   0  0  0  0  0  0           0  0  0
   -3.5708   -1.0667    0.0000 C   0  0  0  0  0  0           0  0  0
  2 11  1  0     0  0
  3  7  1  0     0  0
  4  1  2  0     0  0
  5  6  1  0     0  0
  6  2  1  0     0  0
  7  9  1  0     0  0
  8  1  1  0     0  0
  9  2  2  0     0  0
 10  8  1  0     0  0
 11 14  1  0     0  0
 12  4  1  0     0  0
 13 17  1  0     0  0
 14 28  1  0     0  0
 15  4  1  0     0  0
 16 15  3  0     0  0
 17 24  1  0     0  0
 18  1  1  0     0  0
 19 30  1  0     0  0
 20 12  1  0     0  0
 21  5  1  0     0  0
 22  7  2  0     0  0
 23 20  1  0     0  0
 24 23  1  0     0  0
 25 13  1  0     0  0
 26 13  1  0     0  0
 27 14  2  0     0  0
 28 38  1  0     0  0
 29 25  1  0     0  0
 30 26  1  0     0  0
 31  3  1  0     0  0
 32 11  2  0     0  0
 33 36  2  0     0  0
 34 19  1  0     0  0
 35 34  1  0     0  0
 36 32  1  0     0  0
 37 17  2  0     0  0
 38 35  1  0     0  0
 39 21  2  0     0  0
 40 21  1  0     0  0
 41 24  2  0     0  0
 42 45  2  0     0  0
 43 39  1  0     0  0
 44 40  2  0     0  0
 45 41  1  0     0  0
 46 44  1  0     0  0
 12 10  2  0     0  0
 37 42  1  0     0  0
 19 29  1  0     0  0
 33  9  1  0     0  0
  5  3  2  0     0  0
 43 46  2  0     0  0
M  CHG  2   1   1  18  -1
M  END