
          02060813462D 1   1.00000     0.00000     0

 27 30  0     0  0            999 V2000
   -3.4398   -8.4789    0.0000 C   0  0  0  0  0  0           0  0  0
   -3.9644   -9.1153    0.0000 C   0  0  0  0  0  0           0  0  0
   -3.6768   -9.8889    0.0000 C   0  0  0  0  0  0           0  0  0
   -2.8569  -10.0303    0.0000 C   0  0  0  0  0  0           0  0  0
   -2.3289   -9.3839    0.0000 C   0  0  0  0  0  0           0  0  0
   -2.6277   -8.6102    0.0000 C   0  0  0  0  0  0           0  0  0
   -4.1999  -10.5276    0.0000 N   0  3  0  0  0  0           0  0  0
   -2.5672  -10.7996    0.0000 C   0  0  0  0  0  0           0  0  0
   -3.0886  -11.4398    0.0000 O   0  0  0  0  0  0           0  0  0
   -1.7515  -10.9380    0.0000 N   0  0  0  0  0  0           0  0  0
   -1.2255  -10.2977    0.0000 C   0  0  0  0  0  0           0  0  0
   -0.4102  -10.4363    0.0000 C   0  0  0  0  0  0           0  0  0
    0.1155   -9.7970    0.0000 C   0  0  0  0  0  0           0  0  0
   -0.1786   -9.0221    0.0000 C   0  0  0  0  0  0           0  0  0
   -0.9989   -8.8903    0.0000 C   0  0  0  0  0  0           0  0  0
   -1.5166   -9.5308    0.0000 C   0  0  0  0  0  0           0  0  0
   -3.9138  -11.3060    0.0000 O   0  0  0  0  0  0           0  0  0
   -5.0169  -10.3956    0.0000 O   0  5  0  0  0  0           0  0  0
    0.3465   -8.3859    0.0000 C   0  0  0  0  0  0           0  0  0
    1.1678   -8.4322    0.0000 N   0  0  0  0  0  0           0  0  0
    0.1338   -7.5855    0.0000 C   0  0  0  0  0  0           0  0  0
    0.8300   -7.1365    0.0000 N   0  0  3  0  0  0           0  0  0
    1.4613   -7.6612    0.0000 C   0  0  0  0  0  0           0  0  0
    2.2299   -7.3697    0.0000 C   0  0  0  0  0  0           0  0  0
    2.3638   -6.5583    0.0000 C   0  0  0  0  0  0           0  0  0
    1.7275   -6.0392    0.0000 C   0  0  0  0  0  0           0  0  0
    0.9614   -6.3290    0.0000 C   0  0  0  0  0  0           0  0  0
  1  2  2  0     0  0
 13 14  2  0     0  0
  3  7  1  0     0  0
 14 15  1  0     0  0
  3  4  2  0     0  0
 15 16  2  0     0  0
 16 11  1  0     0  0
  4  8  1  0     0  0
  7 17  2  0     0  0
  7 18  1  0     0  0
  8  9  2  0     0  0
 14 19  1  0     0  0
 19 20  1  0     0  0
  4  5  1  0     0  0
  8 10  1  0     0  0
 20 23  2  0     0  0
 22 21  1  0     0  0
 21 19  2  0     0  0
  2  3  1  0     0  0
 10 11  1  0     0  0
 22 23  1  0     0  0
  5  6  2  0     0  0
 23 24  1  0     0  0
 11 12  2  0     0  0
 24 25  2  0     0  0
  6  1  1  0     0  0
 25 26  1  0     0  0
 12 13  1  0     0  0
 26 27  2  0     0  0
 27 22  1  0     0  0
M  CHG  2   7   1  18  -1
M  END