
  SciTegic12231509382D

 22 25  0  0  0  0            999 V2000
   16.4091    0.7395    0.0000 C   0  0
   16.4080   -0.0855    0.0000 C   0  0
   17.1208   -0.4971    0.0000 C   0  0
   17.8351   -0.0850    0.0000 C   0  0
   17.1189    1.1511    0.0000 C   0  0
   17.8376    0.7444    0.0000 C   0  0
   17.8217    2.3929    0.0000 C   0  0
   17.1079    1.9746    0.0000 C   0  0
   18.5403    1.9862    0.0000 C   0  0  2  0  0  0
   18.5415    1.1589    0.0000 C   0  0  2  0  0  0
   19.9699    1.9882    0.0000 C   0  0
   19.2523    2.4031    0.0000 N   0  0
   19.9711    1.1609    0.0000 C   0  0
   19.2552    0.7497    0.0000 C   0  0
   19.2544   -0.0740    0.0000 C   0  0
   19.9686   -0.4875    0.0000 C   0  0
   20.6852   -0.0712    0.0000 C   0  0
   20.6825    0.7511    0.0000 C   0  0
   17.1206   -1.3197    0.0000 O   0  0
   15.6953   -0.4962    0.0000 O   0  0
   18.5336    2.8126    0.0000 H   0  0
   18.5336    0.3365    0.0000 H   0  0
  5  6  2  0
  9 12  1  0
 10 14  1  0
 13 11  1  0
 11 12  1  0
  2  3  1  0
  1  2  2  0
 13 14  2  0
  3  4  2  0
 14 15  1  0
  5  8  1  0
 15 16  2  0
  6 10  1  0
 16 17  1  0
  9  7  1  0
 17 18  2  0
 18 13  1  0
  7  8  1  0
  3 19  1  0
  9 10  1  0
  2 20  1  0
  4  6  1  0
  9 21  1  6
  5  1  1  0
 10 22  1  1
M  END