
          11280715452D 1   1.00000     0.00000     0

 42 43  0     1  0            999 V2000
   -0.8208    2.5708    0.0000 C   0  0  0  0  0  0           0  0  0
   -0.8958    1.8208    0.0000 N   0  0  3  0  0  0           0  0  0
   -0.4333    0.6958    0.0000 C   0  0  0  0  0  0           0  0  0
   -1.2625    3.6958    0.0000 N   0  0  0  0  0  0           0  0  0
   -1.4458    2.9833    0.0000 C   0  0  1  0  0  0           0  0  0
    0.5917   -0.9167    0.0000 C   0  0  0  0  0  0           0  0  0
   -1.8458    4.1792    0.0000 C   0  0  0  0  0  0           0  0  0
    0.1417    0.2083    0.0000 N   0  0  0  0  0  0           0  0  0
    0.5125   -1.6667    0.0000 N   0  0  0  0  0  0           0  0  0
   -0.2708    1.4333    0.0000 C   0  0  3  0  0  0           0  0  0
   -0.0333   -0.4917    0.0000 C   0  0  1  0  0  0           0  0  0
    1.1292   -2.0542    0.0000 C   0  0  2  0  0  0           0  0  0
    0.9792   -2.7917    0.0000 C   0  0  0  0  0  0           0  0  0
   -0.1208    2.8458    0.0000 O   0  0  0  0  0  0           0  0  0
   -1.1208    0.4083    0.0000 O   0  0  0  0  0  0           0  0  0
    1.2917   -0.6375    0.0000 O   0  0  0  0  0  0           0  0  0
   -2.5333    3.8958    0.0000 O   0  0  0  0  0  0           0  0  0
    1.8292   -1.7667    0.0000 C   0  0  0  0  0  0           0  0  0
   -0.7333   -0.7792    0.0000 C   0  0  0  0  0  0           0  0  0
    0.2792   -3.0667    0.0000 O   0  0  0  0  0  0           0  0  0
   -1.6833    4.9042    0.0000 C   0  0  1  0  0  0           0  0  0
   -2.1458    2.7083    0.0000 C   0  0  3  0  0  0           0  0  0
    2.4250   -2.2292    0.0000 C   0  0  0  0  0  0           0  0  0
    1.2875   -3.5417    0.0000 O   0  0  0  0  0  0           0  0  0
    3.6042   -3.1542    0.0000 C   0  0  0  0  0  0           0  0  0
   -2.3000    5.2917    0.0000 N   0  0  0  0  0  0           0  0  0
   -0.8458   -1.5292    0.0000 C   0  0  0  0  0  0           0  0  0
   -1.5583    1.4958    0.0000 C   0  0  0  0  0  0           0  0  0
    2.3167   -2.9667    0.0000 C   0  0  0  0  0  0           0  0  0
    3.1167   -1.9417    0.0000 C   0  0  0  0  0  0           0  0  0
    2.9125   -3.4292    0.0000 C   0  0  0  0  0  0           0  0  0
    3.7042   -2.4042    0.0000 C   0  0  0  0  0  0           0  0  0
    4.2000   -3.6167    0.0000 O   0  0  0  0  0  0           0  0  0
    0.4000    1.7208    0.0000 C   0  0  0  0  0  0           0  0  0
   -0.9833    5.1917    0.0000 C   0  0  0  0  0  0           0  0  0
   -2.7333    3.1708    0.0000 C   0  0  0  0  0  0           0  0  0
   -2.2458    1.9625    0.0000 C   0  0  0  0  0  0           0  0  0
   -1.5333   -1.8042    0.0000 C   0  0  0  0  0  0           0  0  0
   -0.2500   -1.9792    0.0000 C   0  0  0  0  0  0           0  0  0
   -0.3583   -2.7292    0.0000 C   0  0  0  0  0  0           0  0  0
   -1.6375   -2.5417    0.0000 C   0  0  0  0  0  0           0  0  0
   -1.0500   -3.0042    0.0000 C   0  0  0  0  0  0           0  0  0
  2  1  1  0     0  0
  3 10  1  0     0  0
  4  5  1  0     0  0
  5  1  1  0     0  0
  6 11  1  0     0  0
  7  4  1  0     0  0
  8  3  1  0     0  0
  9  6  1  0     0  0
 10  2  1  0     0  0
 11  8  1  0     0  0
 12  9  1  0     0  0
 13 12  1  0     0  0
 14  1  2  0     0  0
 15  3  2  0     0  0
 16  6  2  0     0  0
 17  7  2  0     0  0
 12 18  1  1     0  0
 11 19  1  6     0  0
 20 13  2  0     0  0
 21  7  1  0     0  0
  5 22  1  6     0  0
 23 18  1  0     0  0
 24 13  1  0     0  0
 25 32  2  0     0  0
 26 21  1  0     0  0
 27 19  1  0     0  0
 28  2  1  0     0  0
 29 23  1  0     0  0
 30 23  2  0     0  0
 31 29  2  0     0  0
 32 30  1  0     0  0
 33 25  1  0     0  0
 34 10  1  0     0  0
 21 35  1  1     0  0
 36 22  1  0     0  0
 37 22  1  0     0  0
 38 27  2  0     0  0
 39 27  1  0     0  0
 40 39  2  0     0  0
 41 38  1  0     0  0
 42 40  1  0     0  0
 41 42  2  0     0  0
 31 25  1  0     0  0
M  END