
  SciTegic05061116452D

 35 39  0  0  0  0            999 V2000
    1.7410  -15.7207    0.0000 N   0  0
    2.4527  -15.3121    0.0000 C   0  0
    2.4527  -14.4870    0.0000 N   0  0
    1.7410  -14.0706    0.0000 C   0  0
    1.0293  -15.3121    0.0000 C   0  0
    1.0293  -14.4824    0.0000 C   0  0
    0.2403  -14.2260    0.0000 N   0  0
   -0.2474  -14.8972    0.0000 C   0  0
    0.2398  -15.5689    0.0000 N   0  0
   -0.1720  -16.2837    0.0000 C   0  0
   -0.9971  -16.2845    0.0000 C   0  0
   -1.4090  -16.9992    0.0000 O   0  0
   -1.4102  -15.5702    0.0000 O   0  0
    1.7429  -13.2457    0.0000 N   0  0
    3.1667  -15.7255    0.0000 N   0  0
    3.8816  -15.3138    0.0000 C   0  0
    4.5956  -15.7271    0.0000 C   0  0
    2.4583  -12.8348    0.0000 C   0  0
    4.5901  -16.5504    0.0000 C   0  0
    5.3031  -16.9637    0.0000 C   0  0
    6.0191  -16.5520    0.0000 C   0  0
    6.0175  -15.7227    0.0000 C   0  0
    5.3037  -15.3132    0.0000 C   0  0
    6.7298  -16.9617    0.0000 C   0  0
    6.7279  -17.7876    0.0000 C   0  0
    7.4384  -18.1999    0.0000 C   0  0
    8.1552  -17.7908    0.0000 C   0  0
    8.1571  -16.9649    0.0000 C   0  0
    7.4421  -16.5480    0.0000 C   0  0
    3.1715  -13.2491    0.0000 C   0  0
    3.1642  -14.0714    0.0000 C   0  0
    3.9453  -14.3372    0.0000 C   0  0
    4.4394  -13.6764    0.0000 C   0  0
    3.9635  -13.0024    0.0000 O   0  0
    1.0295  -12.8314    0.0000 C   0  0
 16 17  1  0
  7  8  2  0
 14 18  1  0
  8  9  1  0
 17 19  2  0
  9  5  1  0
 19 20  1  0
  3  4  2  0
 20 21  2  0
  9 10  1  0
 21 22  1  0
  5  6  2  0
 22 23  2  0
 23 17  1  0
 24 25  1  0
 10 11  1  0
 11 12  1  0
  6  4  1  0
 11 13  2  0
  5  1  1  0
 24 29  1  0
 25 26  1  0
 26 27  1  0
 27 28  1  0
 28 29  1  0
 21 24  1  0
  4 14  1  0
 18 30  1  0
 30 31  2  0
  1  2  2  0
  2 15  1  0
  2  3  1  0
 15 16  1  0
 31 32  1  0
 32 33  2  0
 33 34  1  0
 34 30  1  0
  6  7  1  0
 14 35  1  0
M  END