
          11280714572D 1   1.00000     0.00000     0

 55 60  0     1  0            999 V2000
   20.1167  -10.6875    0.0000 C   0  0  3  0  0  0           0  0  0
    7.8917  -13.4750    0.0000 C   0  0  1  0  0  0           0  0  0
    6.9917  -12.9542    0.0000 C   0  0  1  0  0  0           0  0  0
    8.8000  -11.9125    0.0000 C   0  0  1  0  0  0           0  0  0
   21.2125  -10.6917    0.0000 O   0  0  0  0  0  0           0  0  0
    8.8000  -12.9542    0.0000 C   0  0  2  0  0  0           0  0  0
    6.9917  -11.9125    0.0000 C   0  0  2  0  0  0           0  0  0
   19.2292  -10.1875    0.0000 C   0  0  0  0  0  0           0  0  0
   21.0250  -10.1542    0.0000 C   0  0  0  0  0  0           0  0  0
    7.8917  -11.3792    0.0000 C   0  0  1  0  0  0           0  0  0
   20.1167  -11.7167    0.0000 C   0  0  0  0  0  0           0  0  0
   21.9042  -11.7167    0.0000 C   0  0  0  0  0  0           0  0  0
   19.2292   -9.1417    0.0000 C   0  0  0  0  0  0           0  0  0
   21.0250   -9.1625    0.0000 C   0  0  0  0  0  0           0  0  0
   20.1167   -8.6375    0.0000 O   0  0  0  0  0  0           0  0  0
    5.5542  -14.3792    0.0000 P   0  0  3  0  0  0           0  0  0
    8.6167  -14.9167    0.0000 P   0  0  3  0  0  0           0  0  0
   10.7500  -11.3875    0.0000 P   0  0  3  0  0  0           0  0  0
   21.0000  -12.2292    0.0000 C   0  0  0  0  0  0           0  0  0
    7.8917  -14.5167    0.0000 O   0  0  0  0  0  0           0  0  0
    6.0875  -13.4792    0.0000 O   0  0  0  0  0  0           0  0  0
    9.7042  -11.3917    0.0000 O   0  0  0  0  0  0           0  0  0
   15.4500   -8.6750    0.0000 C   0  0  0  0  0  0           0  0  0
   18.3417   -8.6375    0.0000 C   0  0  0  0  0  0           0  0  0
   21.9042   -8.6542    0.0000 C   0  0  0  0  0  0           0  0  0
   18.3417  -10.6875    0.0000 C   0  0  0  0  0  0           0  0  0
   21.9042  -10.6750    0.0000 C   0  0  0  0  0  0           0  0  0
    4.5125  -14.3750    0.0000 O   0  0  0  0  0  0           0  0  0
    8.9667  -14.1292    0.0000 O   0  0  0  0  0  0           0  0  0
   10.7417  -10.3417    0.0000 O   0  0  0  0  0  0           0  0  0
   22.8042  -12.2500    0.0000 O   0  0  0  0  0  0           0  0  0
   16.4917   -8.6750    0.0000 O   0  0  0  0  0  0           0  0  0
   17.4375   -9.1625    0.0000 C   0  0  0  0  0  0           0  0  0
   14.9292   -7.7667    0.0000 O   0  0  0  0  0  0           0  0  0
   14.9292   -9.5792    0.0000 N   0  0  0  0  0  0           0  0  0
    4.9167  -15.2125    0.0000 O   0  0  0  0  0  0           0  0  0
    9.5667  -15.4750    0.0000 O   0  0  0  0  0  0           0  0  0
    8.2167  -15.9417    0.0000 O   0  0  0  0  0  0           0  0  0
    6.5667  -14.6500    0.0000 O   0  0  0  0  0  0           0  0  0
   10.7417  -12.4292    0.0000 O   0  0  0  0  0  0           0  0  0
    9.7042  -13.4792    0.0000 O   0  0  0  0  0  0           0  0  0
    6.0875  -11.3917    0.0000 O   0  0  0  0  0  0           0  0  0
    7.8917  -10.3375    0.0000 O   0  0  0  0  0  0           0  0  0
   11.7917  -11.3875    0.0000 O   0  0  0  0  0  0           0  0  0
   22.8167   -9.1792    0.0000 C   0  0  0  0  0  0           0  0  0
   17.4375  -10.1542    0.0000 C   0  0  0  0  0  0           0  0  0
   22.8167  -10.1417    0.0000 C   0  0  0  0  0  0           0  0  0
   19.2125  -12.2500    0.0000 C   0  0  0  0  0  0           0  0  0
   23.7667   -8.7292    0.0000 O   0  0  0  0  0  0           0  0  0
   21.0000  -13.2667    0.0000 C   0  0  0  0  0  0           0  0  0
   13.3625  -10.4792    0.0000 C   0  0  0  0  0  0           0  0  0
   13.8792   -9.5792    0.0000 C   0  0  0  0  0  0           0  0  0
   12.3167  -10.4792    0.0000 C   0  0  0  0  0  0           0  0  0
   19.2125  -13.2792    0.0000 C   0  0  0  0  0  0           0  0  0
   20.1167  -13.7667    0.0000 C   0  0  0  0  0  0           0  0  0
  2  6  1  0     0  0
  3  7  1  0     0  0
  4 22  1  1     0  0
  5  1  1  0     0  0
  6  4  1  0     0  0
  7 10  1  0     0  0
  8  1  1  0     0  0
  9  1  1  0     0  0
 10  4  1  0     0  0
 11  1  1  0     0  0
 12  5  1  0     0  0
 13  8  2  0     0  0
 14  9  2  0     0  0
 15 14  1  0     0  0
 16 21  1  0     0  0
 17 20  1  0     0  0
 18 44  1  0     0  0
 19 11  1  0     0  0
  2 20  1  1     0  0
  3 21  1  6     0  0
 22 18  1  0     0  0
 23 32  1  0     0  0
 24 13  1  0     0  0
 25 14  1  0     0  0
 26  8  1  0     0  0
 27  9  1  0     0  0
 28 16  2  0     0  0
 29 17  2  0     0  0
 30 18  2  0     0  0
 31 12  2  0     0  0
 32 33  1  0     0  0
 33 46  1  0     0  0
 34 23  2  0     0  0
 35 23  1  0     0  0
 36 16  1  0     0  0
 37 17  1  0     0  0
 38 17  1  0     0  0
 39 16  1  0     0  0
 40 18  1  0     0  0
  6 41  1  6     0  0
  7 42  1  1     0  0
 10 43  1  1     0  0
 44 53  1  0     0  0
 45 47  1  0     0  0
 46 26  2  0     0  0
 47 27  2  0     0  0
 48 11  2  0     0  0
 49 45  1  0     0  0
 50 19  2  0     0  0
 51 52  1  0     0  0
 52 35  1  0     0  0
 53 51  1  0     0  0
 54 48  1  0     0  0
 55 54  2  0     0  0
 19 12  1  0     0  0
 15 13  1  0     0  0
 55 50  1  0     0  0
 45 25  2  0     0  0
 33 24  2  0     0  0
  2  3  1  0     0  0
M  END