
          11280715222D 1   1.00000     0.00000     0

 34 37  0     1  0            999 V2000
   -0.8500   -0.3125    0.0000 S   0  0  3  0  0  0           0  0  0
   -0.0250   -0.3000    0.0000 N   0  0  3  0  0  0           0  0  0
   -1.2750    0.3958    0.0000 C   0  0  0  0  0  0           0  0  0
    1.2167   -1.0042    0.0000 C   0  0  2  0  0  0           0  0  0
    0.3917   -1.0042    0.0000 C   0  0  0  0  0  0           0  0  0
    0.3917    0.4208    0.0000 C   0  0  0  0  0  0           0  0  0
    1.8042   -1.5792    0.0000 C   0  0  0  0  0  0           0  0  0
    1.2125    0.4208    0.0000 C   0  0  1  0  0  0           0  0  0
   -2.0958    0.3833    0.0000 C   0  0  0  0  0  0           0  0  0
   -0.4833   -1.0417    0.0000 O   0  0  0  0  0  0           0  0  0
   -1.5875   -0.6792    0.0000 O   0  0  0  0  0  0           0  0  0
    5.9292    1.6208    0.0000 C   0  0  0  0  0  0           0  0  0
    1.5917   -2.3792    0.0000 C   0  0  0  0  0  0           0  0  0
    6.3375    2.3333    0.0000 O   0  0  0  0  0  0           0  0  0
    2.5042    0.3750    0.0000 C   0  0  0  0  0  0           0  0  0
   -2.5208    1.0833    0.0000 C   0  0  0  0  0  0           0  0  0
    3.4500    0.3750    0.0000 C   0  0  0  0  0  0           0  0  0
    6.3542    0.9083    0.0000 O   0  0  0  0  0  0           0  0  0
   -0.8708    1.1208    0.0000 C   0  0  0  0  0  0           0  0  0
    1.9167    0.8208    0.0000 C   0  0  0  0  0  0           0  0  0
    0.8000   -2.5917    0.0000 O   0  0  0  0  0  0           0  0  0
    2.5917   -1.3625    0.0000 C   0  0  0  0  0  0           0  0  0
   -2.4958   -0.3292    0.0000 C   0  0  0  0  0  0           0  0  0
   -1.2875    1.8250    0.0000 C   0  0  0  0  0  0           0  0  0
    5.1042    1.6083    0.0000 C   0  0  0  0  0  0           0  0  0
   -2.1125    1.8125    0.0000 C   0  0  0  0  0  0           0  0  0
    3.8917    0.8833    0.0000 C   0  0  0  0  0  0           0  0  0
    2.1792   -2.9625    0.0000 C   0  0  0  0  0  0           0  0  0
   -3.3333    1.0708    0.0000 C   0  0  0  0  0  0           0  0  0
    4.7000    0.8875    0.0000 C   0  0  0  0  0  0           0  0  0
    3.1875   -1.9417    0.0000 C   0  0  0  0  0  0           0  0  0
   -3.3083   -0.3500    0.0000 C   0  0  0  0  0  0           0  0  0
    2.9750   -2.7417    0.0000 C   0  0  0  0  0  0           0  0  0
   -3.7333    0.3583    0.0000 C   0  0  0  0  0  0           0  0  0
  2  1  1  0     0  0
  3  1  1  0     0  0
  4  5  1  0     0  0
  5  2  1  0     0  0
  6  2  1  0     0  0
  4  7  1  1     0  0
  8  6  1  0     0  0
  9  3  1  0     0  0
 10  1  2  0     0  0
 11  1  2  0     0  0
 12 25  1  0     0  0
 13  7  2  0     0  0
 14 12  2  0     0  0
 15 20  1  0     0  0
 16  9  1  0     0  0
 17 15  2  0     0  0
 18 12  1  0     0  0
 19  3  2  0     0  0
  8 20  1  1     0  0
 21 13  1  0     0  0
 22  7  1  0     0  0
 23  9  2  0     0  0
 24 19  1  0     0  0
 25 30  1  0     0  0
 26 24  2  0     0  0
 27 17  1  0     0  0
 28 13  1  0     0  0
 29 16  2  0     0  0
 30 27  1  0     0  0
 31 22  2  0     0  0
 32 23  1  0     0  0
 33 31  1  0     0  0
 34 32  2  0     0  0
  4  8  1  0     0  0
 26 16  1  0     0  0
 29 34  1  0     0  0
 28 33  2  0     0  0
M  END