
  SciTegic05061409512D

 31 34  0  0  0  0            999 V2000
   27.1861   -2.0636    0.0000 C   0  0
   26.3689   -2.0595    0.0000 C   0  0
   25.9590   -2.7612    0.0000 C   0  0
   26.3617   -3.4716    0.0000 C   0  0
   27.1789   -3.4757    0.0000 C   0  0
   27.5934   -2.7695    0.0000 N   0  0
   25.1418   -2.7560    0.0000 C   0  0  2  0  0  0
   24.7378   -2.0457    0.0000 C   0  0
   25.1517   -1.3429    0.0000 C   0  0
   24.7484   -0.6331    0.0000 C   0  0
   23.9303   -0.6274    0.0000 C   0  0
   23.5173   -1.3374    0.0000 C   0  0
   23.9230   -2.0444    0.0000 C   0  0
   28.4105   -2.7725    0.0000 C   0  0
   28.8217   -2.0663    0.0000 C   0  0
   29.6389   -2.0693    0.0000 C   0  0
   30.0501   -1.3631    0.0000 O   0  0
   30.8673   -1.3660    0.0000 C   0  0
   31.2696   -2.0739    0.0000 C   0  0
   32.0861   -2.0772    0.0000 C   0  0
   32.4981   -1.3705    0.0000 C   0  0
   32.0877   -0.6589    0.0000 C   0  0
   31.2726   -0.6591    0.0000 C   0  0
   33.3150   -1.3746    0.0000 C   0  0
   34.1321   -1.3765    0.0000 N   0  0
   24.7312   -3.4589    0.0000 C   0  0
   23.9179   -3.5391    0.0000 C   0  0
   23.7429   -4.3373    0.0000 C   0  0
   24.4480   -4.7505    0.0000 C   0  0
   25.0587   -4.2075    0.0000 C   0  0
   24.3218   -2.7529    0.0000 O   0  0
  1  2  1  0
  1  6  1  0
  2  3  1  0
  3  4  1  0
  4  5  1  0
  5  6  1  0
  3  7  1  0
  7  8  1  0
  8  9  2  0
  9 10  1  0
 10 11  2  0
 11 12  1  0
 12 13  2  0
 13  8  1  0
  6 14  1  0
 14 15  1  0
 15 16  1  0
 16 17  1  0
 17 18  1  0
 18 19  2  0
 19 20  1  0
 20 21  2  0
 21 22  1  0
 22 23  2  0
 23 18  1  0
 24 25  3  0
 21 24  1  0
 26 27  1  0
 27 28  1  0
 28 29  1  0
 29 30  1  0
 30 26  1  0
  7 26  1  0
  7 31  1  6
M  END