
  SciTegic10311316262D

 32 34  0  0  0  0            999 V2000
   14.0819   -4.9624    0.0000 O   0  0
   13.6736   -4.2499    0.0000 S   0  0
   13.2607   -4.9598    0.0000 O   0  0
   14.3930   -3.0124    0.0000 C   0  0
   14.3918   -3.8397    0.0000 C   0  0
   15.1066   -4.2526    0.0000 C   0  0
   15.8231   -3.8392    0.0000 C   0  0
   15.8202   -3.0087    0.0000 C   0  0
   15.1048   -2.5996    0.0000 C   0  0
   12.9629   -3.8386    0.0000 N   0  0
   16.5331   -2.5935    0.0000 N   0  0
   17.2492   -3.0033    0.0000 C   0  0
   17.9621   -2.5881    0.0000 C   0  0
   17.2523   -3.8283    0.0000 O   0  0
   18.6781   -2.9980    0.0000 S   0  0
   19.3910   -2.5828    0.0000 C   0  0
   20.1069   -2.9957    0.0000 N   0  0
   20.8177   -2.5841    0.0000 C   0  0
   20.8188   -1.7587    0.0000 C   0  0
   20.1030   -1.3467    0.0000 C   0  0
   19.3860   -1.7601    0.0000 N   0  0
   20.1027   -0.5197    0.0000 O   0  0
   21.5340   -1.3505    0.0000 C   0  0
   22.2485   -0.9380    0.0000 N   0  0
   21.5305   -2.9957    0.0000 C   0  0
   21.5291   -3.8218    0.0000 C   0  0
   22.2428   -4.2342    0.0000 C   0  0
   22.9582   -3.8217    0.0000 C   0  0
   22.9556   -2.9924    0.0000 C   0  0
   22.2414   -2.5837    0.0000 C   0  0
   23.6732   -4.2332    0.0000 Cl  0  0
   12.9637   -3.0136    0.0000 C   0  0
  2  1  2  0
  3  2  2  0
  4  5  2  0
  5  6  1  0
  6  7  2  0
  7  8  1  0
  8  9  2  0
  9  4  1  0
  5  2  1  0
  2 10  1  0
  8 11  1  0
 11 12  1  0
 12 13  1  0
 12 14  2  0
 13 15  1  0
 15 16  1  0
 16 17  2  0
 16 21  1  0
 17 18  1  0
 18 19  2  0
 19 20  1  0
 20 21  1  0
 20 22  2  0
 23 24  3  0
 19 23  1  0
 25 26  2  0
 26 27  1  0
 27 28  2  0
 28 29  1  0
 29 30  2  0
 30 25  1  0
 18 25  1  0
 28 31  1  0
 10 32  1  0
M  END