
  SciTegic05221516342D

 14 15  0  0  0  0            999 V2000
    4.0916  -13.3000    0.0000 C   0  0
    4.0959  -12.4750    0.0000 C   0  0
    3.3793  -12.8839    0.0000 C   0  0
    3.7817  -11.0235    0.0000 N   0  0
    4.5263  -10.6771    0.0000 C   0  0
    3.5889  -11.8276    0.0000 C   0  0
    4.9237  -12.4846    0.0000 C   0  0
    5.2700  -11.0463    0.0000 C   0  0
    5.4460  -11.8475    0.0000 C   0  0
    6.2623  -11.9276    0.0000 N   0  0
    6.5909  -11.1760    0.0000 C   0  0
    5.9776  -10.6315    0.0000 S   0  0
    7.3967  -10.9991    0.0000 N   0  0
    4.5367   -9.8522    0.0000 O   0  0
  2  1  1  0
  3  2  1  0
  4  5  1  0
  5  8  1  0
  4  6  1  0
  6  2  1  0
  9  7  1  0
  2  7  1  0
  8  9  2  0
  9 10  1  0
 10 11  2  0
 11 12  1  0
 12  8  1  0
 11 13  1  0
  5 14  2  0
M  END