
  SciTegic10261211122D

 23 26  0  0  1  0            999 V2000
    7.3375   -4.3583    0.0000 C   0  0  1  0  0  0
    7.3417   -5.1833    0.0000 C   0  0  2  0  0  0
    6.6292   -5.6000    0.0000 C   0  0  1  0  0  0
    5.9167   -5.1875    0.0000 C   0  0  1  0  0  0
    5.2042   -5.6042    0.0000 C   0  0
    5.2083   -6.4292    0.0000 C   0  0
    8.1208   -4.1000    0.0000 C   0  0
    6.6250   -3.9500    0.0000 C   0  0
    5.9125   -4.3667    0.0000 C   0  0
    8.1292   -5.4333    0.0000 C   0  0
    6.6333   -6.4208    0.0000 C   0  0
    4.4875   -5.1958    0.0000 C   0  0
    5.9208   -6.8375    0.0000 C   0  0
    4.4958   -6.8417    0.0000 C   0  0
    8.6083   -4.7667    0.0000 C   0  0
    8.3750   -3.3167    0.0000 O   0  0
    3.7792   -6.4333    0.0000 C   0  0
    3.7750   -5.6083    0.0000 C   0  0
    7.4208   -3.5417    0.0000 C   0  0
    3.0667   -6.8500    0.0000 O   0  0
    5.9167   -6.0125    0.0000 H   0  0
    6.6292   -4.7750    0.0000 H   0  0
    7.3417   -6.0125    0.0000 H   0  0
  2  1  1  0
  3  2  1  0
  4  9  1  0
  5  4  1  0
  6  5  2  0
  7  1  1  0
  8  1  1  0
  9  8  1  0
  2 10  1  0
  3 11  1  0
 12  5  1  0
 13 11  1  0
 14  6  1  0
 15  7  1  0
 16  7  2  0
 17 18  1  0
 18 12  2  0
  1 19  1  1
 20 17  1  0
  4 21  1  6
  3 22  1  1
  2 23  1  6
 15 10  1  0
  4  3  1  0
 13  6  1  0
 17 14  2  0
M  END