
  SciTegic04151115542D

 24 25  0  0  0  0            999 V2000
   -4.7889  -24.8791    0.0000 C   0  0
   -4.7901  -25.7065    0.0000 C   0  0
   -4.0753  -26.1194    0.0000 C   0  0
   -3.3588  -25.7060    0.0000 C   0  0
   -3.3617  -24.8755    0.0000 C   0  0
   -4.0771  -24.4664    0.0000 C   0  0
   -4.0755  -26.9444    0.0000 F   0  0
   -5.5049  -26.1184    0.0000 Cl  0  0
   -2.6488  -24.4603    0.0000 N   0  0
   -1.9328  -24.8701    0.0000 C   0  0
   -1.2198  -24.4549    0.0000 C   0  0
   -1.9296  -25.6951    0.0000 O   0  0
   -0.5038  -24.8647    0.0000 N   0  0
   -1.2230  -23.6299    0.0000 O   0  0
    0.2091  -24.4495    0.0000 C   0  0
    0.9210  -24.8602    0.0000 C   0  0
    1.6318  -24.4486    0.0000 C   0  0
    1.6330  -23.6232    0.0000 O   0  0
    0.9171  -23.2112    0.0000 C   0  0
    0.2001  -23.6246    0.0000 C   0  0
    2.4250  -24.2292    0.0000 C   0  0
    2.0375  -25.1583    0.0000 C   0  0
    0.5000  -22.4917    0.0000 C   0  0
    1.3250  -22.4917    0.0000 C   0  0
 10 12  2  0
  6  1  1  0
 11 13  1  0
  1  2  2  0
 11 14  2  0
  3  7  1  0
 13 15  1  0
 15 16  1  0
  3  4  2  0
  2  8  1  0
  5  9  1  0
  4  5  1  0
 15 20  1  0
 16 17  1  0
 17 18  1  0
 18 19  1  0
 19 20  1  0
  9 10  1  0
 17 21  1  0
  2  3  1  0
 17 22  1  0
 10 11  1  0
 19 23  1  0
  5  6  2  0
 19 24  1  0
M  END