
  SciTegic09261414462D

 17 18  0  0  0  0            999 V2000
    3.4400  -19.0357    0.0000 N   0  0
    3.4250  -19.8539    0.0000 C   0  0
    2.7095  -20.2513    0.0000 N   0  0
    2.6967  -21.0660    0.0000 C   0  0
    3.3971  -21.4869    0.0000 C   0  0
    4.1104  -21.0931    0.0000 C   0  0
    4.1254  -20.2748    0.0000 N   0  0
    4.8109  -21.5140    0.0000 N   0  0
    4.8794  -22.3242    0.0000 C   0  0
    5.6782  -22.5118    0.0000 C   0  0  1  0  0  0
    6.0991  -21.8114    0.0000 C   0  0
    5.5605  -21.1907    0.0000 C   0  0
    5.9959  -23.2629    0.0000 N   0  0
    1.9812  -21.4633    0.0000 C   0  0
    1.2813  -21.0411    0.0000 C   0  0
    1.9713  -22.2812    0.0000 C   0  0
    1.2712  -21.8661    0.0000 C   0  0
  2  3  1  0
  3  4  2  0
  4  5  1  0
  5  6  2  0
  6  7  1  0
  2  7  2  0
  1  2  1  0
  8  9  1  0
  9 10  1  0
 10 11  1  0
 11 12  1  0
  8 12  1  0
 10 13  1  1
  6  8  1  0
  4 14  1  0
 14 15  1  0
 14 16  1  0
 14 17  1  0
M  END