
  CDK    9/16/09,10:2

 80 85  0  0  0  0  0  0  0  0999 V2000
    3.1028   -5.8255    0.0000 C   0  0  0  0  0  0  0  0  0  0  0  0
    2.3268   -5.5476    0.0000 C   0  0  0  0  0  0  0  0  0  0  0  0
    1.6982   -6.0816    0.0000 C   0  0  0  0  0  0  0  0  0  0  0  0
    1.8387   -6.8926    0.0000 C   0  0  0  0  0  0  0  0  0  0  0  0
    1.2104   -7.4262    0.0000 C   0  0  0  0  0  0  0  0  0  0  0  0
    0.9196   -5.7888    0.0000 O   0  0  0  0  0  0  0  0  0  0  0  0
    0.2855   -6.3268    0.0000 C   0  0  0  0  0  0  0  0  0  0  0  0
    0.4290   -7.1383    0.0000 C   0  0  0  0  0  0  0  0  0  0  0  0
   -0.1992   -7.6694    0.0000 C   0  0  0  0  0  0  0  0  0  0  0  0
   -0.9766   -7.3868    0.0000 C   0  0  0  0  0  0  0  0  0  0  0  0
   -1.1174   -6.5739    0.0000 C   0  0  0  0  0  0  0  0  0  0  0  0
   -0.4839   -6.0458    0.0000 C   0  0  0  0  0  0  0  0  0  0  0  0
    3.7328   -5.2963    0.0000 O   0  0  0  0  0  0  0  0  0  0  0  0
    1.2122   -8.5011    0.0000 C   0  0  0  0  0  0  0  0  0  0  0  0
    1.9327   -8.9156    0.0000 C   0  0  0  0  0  0  0  0  0  0  0  0
    1.2122  -10.1488    0.0000 C   0  0  0  0  0  0  0  0  0  0  0  0
    0.4976   -9.7342    0.0000 C   0  0  0  0  0  0  0  0  0  0  0  0
    0.4966   -8.9110    0.0000 C   0  0  0  0  0  0  0  0  0  0  0  0
    1.2118  -10.9751    0.0000 N   0  0  0  0  0  0  0  0  0  0  0  0
    1.2151  -11.7994    0.0000 C   0  0  0  0  0  0  0  0  0  0  0  0
    1.2147  -12.6258    0.0000 S   0  0  0  0  0  0  0  0  0  0  0  0
    2.6485   -8.5011    0.0000 C   0  0  0  0  0  0  0  0  0  0  0  0
    2.6197   -7.1738    0.0000 C   0  0  0  0  0  0  0  0  0  0  0  0
    2.6452   -7.6751    0.0000 O   0  0  0  0  0  0  0  0  0  0  0  0
    3.2470   -6.6465    0.0000 C   0  0  0  0  0  0  0  0  0  0  0  0
    1.9303   -9.7331    0.0000 C   0  0  0  0  0  0  0  0  0  0  0  0
   -1.8944   -6.2878    0.0000 O   0  0  0  0  0  0  0  0  0  0  0  0
    3.3645   -8.9118    0.0000 N   0  0  0  0  0  0  0  0  0  0  0  0
    4.0782   -8.4972    0.0000 C   0  0  0  0  0  0  0  0  0  0  0  0
    4.7981   -8.8952    0.0000 C   0  0  0  0  0  0  0  0  0  0  0  0
    5.5007   -8.4688    0.0000 C   0  0  0  0  0  0  0  0  0  0  0  0
    5.4849   -7.6432    0.0000 C   0  0  0  0  0  0  0  0  0  0  0  0
    4.7605   -7.2458    0.0000 C   0  0  0  0  0  0  0  0  0  0  0  0
    4.0517   -7.6739    0.0000 C   0  0  0  0  0  0  0  0  0  0  0  0
    8.3417   -5.1552    0.0000 C   0  0  0  0  0  0  0  0  0  0  0  0
    9.7721   -5.1499    0.0000 O   0  0  0  0  0  0  0  0  0  0  0  0
    9.0569   -4.7404    0.0000 C   0  0  0  0  0  0  0  0  0  0  0  0
    7.6251   -4.7450    0.0000 C   0  0  0  0  0  0  0  0  0  0  0  0
    7.6207   -3.9174    0.0000 C   0  0  0  0  0  0  0  0  0  0  0  0
    6.9063   -3.5085    0.0000 C   0  0  0  0  0  0  0  0  0  0  0  0
    6.9018   -2.6855    0.0000 O   0  0  0  0  0  0  0  0  0  0  0  0
    9.7636   -3.5012    0.0000 C   0  0  0  0  0  0  0  0  0  0  0  0
    9.0446   -2.2738    0.0000 O   0  0  0  0  0  0  0  0  0  0  0  0
    9.7591   -2.6818    0.0000 C   0  0  0  0  0  0  0  0  0  0  0  0
   10.4674   -1.4390    0.0000 C   0  0  0  0  0  0  0  0  0  0  0  0
   11.9005   -1.4356    0.0000 O   0  0  0  0  0  0  0  0  0  0  0  0
   11.1835   -1.0206    0.0000 C   0  0  0  0  0  0  0  0  0  0  0  0
    9.7530   -1.0308    0.0000 C   0  0  0  0  0  0  0  0  0  0  0  0
    9.7485   -0.1997    0.0000 C   0  0  0  0  0  0  0  0  0  0  0  0
    9.0343    0.2085    0.0000 C   0  0  0  0  0  0  0  0  0  0  0  0
   10.4647    0.2103    0.0000 C   0  0  0  0  0  0  0  0  0  0  0  0
   11.8930    0.2160    0.0000 C   0  0  0  0  0  0  0  0  0  0  0  0
   11.1705    1.4400    0.0000 O   0  0  0  0  0  0  0  0  0  0  0  0
   11.8885    1.0329    0.0000 C   0  0  0  0  0  0  0  0  0  0  0  0
   12.6100   -0.1906    0.0000 C   0  0  0  0  0  0  0  0  0  0  0  0
    7.6335   -7.2193    0.0000 C   0  0  0  0  0  0  0  0  0  0  0  0
    7.6290   -6.3944    0.0000 C   0  0  0  0  0  0  0  0  0  0  0  0
    6.9120   -5.9840    0.0000 O   0  0  0  0  0  0  0  0  0  0  0  0
    8.3514   -7.6303    0.0000 C   0  0  0  0  0  0  0  0  0  0  0  0
    9.0612   -7.2143    0.0000 C   0  0  0  0  0  0  0  0  0  0  0  0
    9.7759   -7.6321    0.0000 C   0  0  0  0  0  0  0  0  0  0  0  0
   10.4935   -7.2096    0.0000 C   0  0  0  0  0  0  0  0  0  0  0  0
   10.4886   -6.3848    0.0000 C   0  0  0  0  0  0  0  0  0  0  0  0
    9.7653   -5.9764    0.0000 C   0  0  0  0  0  0  0  0  0  0  0  0
    9.0552   -6.3953    0.0000 C   0  0  0  0  0  0  0  0  0  0  0  0
   11.1999   -5.9679    0.0000 O   0  0  0  0  0  0  0  0  0  0  0  0
   11.9172   -6.3786    0.0000 P   0  0  0  0  0  0  0  0  0  0  0  0
   11.5087   -7.0922    0.0000 O   0  0  0  0  0  0  0  0  0  0  0  0
    8.3431   -5.9807    0.0000 N   0  0  0  0  0  0  0  0  0  0  0  0
    6.1927   -3.9218    0.0000 N   0  0  0  0  0  0  0  0  0  0  0  0
    9.0495   -3.9150    0.0000 N   0  0  0  0  0  0  0  0  0  0  0  0
   10.4718   -2.2644    0.0000 N   0  0  0  0  0  0  0  0  0  0  0  0
   11.1789   -0.1952    0.0000 N   0  0  0  0  0  0  0  0  0  0  0  0
   13.3291    0.2264    0.0000 O   0  0  0  0  0  0  0  0  0  0  0  0
   12.6054    1.4544    0.0000 N   0  0  0  0  0  0  0  0  0  0  0  0
    6.9192   -7.6331    0.0000 N   0  0  0  0  0  0  0  0  0  0  0  0
   12.6328   -6.7878    0.0000 O   0  0  0  0  0  0  0  0  0  0  0  0
   12.3301   -5.6568    0.0000 O   0  0  0  0  0  0  0  0  0  0  0  0
    6.2041   -7.2258    0.0000 C   0  0  0  0  0  0  0  0  0  0  0  0
    6.2030   -6.4004    0.0000 O   0  0  0  0  0  0  0  0  0  0  0  0
  9 10  2  0  0  0  0 
 10 11  1  0  0  0  0 
 11 12  2  0  0  0  0 
 12  7  1  0  0  0  0 
  1 13  2  0  0  0  0 
 14 15  2  0  0  0  0 
 15 26  1  0  0  0  0 
 26 16  2  0  0  0  0 
 16 17  1  0  0  0  0 
 17 18  2  0  0  0  0 
 18 14  1  0  0  0  0 
  5 14  1  0  0  0  0 
 16 19  1  0  0  0  0 
 19 20  2  0  0  0  0 
 20 21  2  0  0  0  0 
 15 22  1  0  0  0  0 
 22 24  2  0  0  0  0 
 11 27  1  0  0  0  0 
 22 28  1  0  0  0  0 
 28 29  1  0  0  0  0 
 29 30  1  0  0  0  0 
  1 25  1  0  0  0  0 
 25 23  2  0  0  0  0 
 23  4  1  0  0  0  0 
  3  2  2  0  0  0  0 
  2  1  1  0  0  0  0 
 29 34  2  0  0  0  0 
 30 31  2  0  0  0  0 
 31 32  1  0  0  0  0 
 32 33  2  0  0  0  0 
 33 34  1  0  0  0  0 
  3  4  1  0  0  0  0 
  3  6  1  0  0  0  0 
  4  5  2  0  0  0  0 
  5  8  1  0  0  0  0 
  7  6  1  0  0  0  0 
  7  8  2  0  0  0  0 
  8  9  1  0  0  0  0 
 55 74  1  0  0  0  0 
 71 42  1  0  0  0  0 
 37 71  1  0  0  0  0 
 54 75  1  0  0  0  0 
 76 56  1  0  0  0  0 
 72 45  1  0  0  0  0 
 44 72  1  0  0  0  0 
 67 77  1  0  0  0  0 
 40 70  1  0  0  0  0 
 67 78  1  0  0  0  0 
 73 52  1  0  0  0  0 
 47 73  1  0  0  0  0 
 40 41  2  0  0  0  0 
 42 44  1  0  0  0  0 
 44 43  2  0  0  0  0 
 45 47  1  0  0  0  0 
 47 46  2  0  0  0  0 
 45 48  1  1  0  0  0 
 48 49  1  0  0  0  0 
 49 50  1  0  0  0  0 
 49 51  1  0  0  0  0 
 52 54  1  0  0  0  0 
 54 53  2  0  0  0  0 
 52 55  1  6  0  0  0 
 56 57  1  0  0  0  0 
 57 58  2  0  0  0  0 
 56 59  1  6  0  0  0 
 59 60  1  0  0  0  0 
 60 61  2  0  0  0  0 
 61 62  1  0  0  0  0 
 62 63  2  0  0  0  0 
 63 64  1  0  0  0  0 
 64 65  2  0  0  0  0 
 65 60  1  0  0  0  0 
 63 66  1  0  0  0  0 
 66 67  1  0  0  0  0 
 67 68  2  0  0  0  0 
 35 37  1  0  0  0  0 
 37 36  2  0  0  0  0 
 35 38  1  1  0  0  0 
 38 39  1  0  0  0  0 
 39 40  1  0  0  0  0 
 57 69  1  0  0  0  0 
 79 76  1  0  0  0  0 
 69 35  1  0  0  0  0 
 79 80  2  0  0  0  0 
 32 79  1  0  0  0  0 
M  END