
  SciTegic10311316212D

 25 28  0  0  0  0            999 V2000
   21.1319  -10.4198    0.0000 C   0  0
   21.8547  -10.8191    0.0000 O   0  0
   21.8211   -9.1721    0.0000 N   0  0
   21.1114   -9.5943    0.0000 C   0  0
   22.5439   -9.5714    0.0000 C   0  0
   22.5531  -10.3929    0.0000 C   0  0
   23.2651  -10.7935    0.0000 C   0  0
   23.9726  -10.3771    0.0000 C   0  0
   23.9635   -9.5557    0.0000 C   0  0
   23.2469   -9.1506    0.0000 C   0  0
   20.3886   -9.1949    0.0000 O   0  0
   24.6917  -10.7830    0.0000 C   0  0
   25.4028  -10.3633    0.0000 N   0  0
   26.1182  -10.7696    0.0000 C   0  0
   26.8271  -10.3533    0.0000 C   0  0
   26.8234   -9.5272    0.0000 C   0  0
   26.1043   -9.1190    0.0000 C   0  0
   25.3892   -9.5371    0.0000 C   0  0
   27.5328   -9.1125    0.0000 C   0  0
   28.2506   -9.5228    0.0000 C   0  0
   28.9628   -9.1064    0.0000 C   0  0
   28.9584   -8.2797    0.0000 C   0  0
   28.2358   -7.8713    0.0000 C   0  0
   27.5265   -8.2900    0.0000 C   0  0
   20.4259  -10.8481    0.0000 C   0  0
  1  2  1  0
  1  4  1  0
  2  6  1  0
  5  3  1  0
  3  4  1  0
  5  6  1  0
  5 10  2  0
  6  7  2  0
  7  8  1  0
  8  9  2  0
  9 10  1  0
  4 11  2  0
  8 12  1  0
 12 13  1  0
 13 14  1  0
 13 18  1  0
 14 15  1  0
 15 16  1  0
 16 17  1  0
 17 18  1  0
 19 20  2  0
 20 21  1  0
 21 22  2  0
 22 23  1  0
 23 24  2  0
 24 19  1  0
 16 19  1  0
  1 25  1  0
M  END