
  SciTegic05071317042D

 27 29  0  0  0  0            999 V2000
    7.1086   -3.5718    0.0000 C   0  0
    7.1074   -4.4042    0.0000 C   0  0
    7.8267   -4.8196    0.0000 N   0  0
    8.5474   -4.4037    0.0000 C   0  0
    8.5446   -3.5681    0.0000 C   0  0
    7.8248   -3.1564    0.0000 C   0  0
    9.2619   -3.1504    0.0000 C   0  0
    9.2594   -2.3190    0.0000 O   0  0
    9.6865   -1.6072    0.0000 C   0  0
    7.8223   -2.3264    0.0000 C   0  0
    8.5399   -1.9092    0.0000 F   0  0
    7.1022   -1.9135    0.0000 F   0  0
    7.8144   -1.4924    0.0000 F   0  0
    9.9759   -3.5620    0.0000 C   0  0
    9.9725   -4.3870    0.0000 C   0  0
   10.6849   -4.7994    0.0000 C   0  0
   11.3997   -4.3879    0.0000 C   0  0
    9.2837   -0.8815    0.0000 N   0  0
   10.5165   -1.6212    0.0000 O   0  0
    9.7108   -0.1697    0.0000 C   0  0
    8.4537   -0.8675    0.0000 C   0  0
   10.6848   -3.1511    0.0000 C   0  0
   11.3947   -3.5585    0.0000 C   0  0
   12.1003   -3.1474    0.0000 C   0  0
   12.0973   -2.3292    0.0000 C   0  0
   11.3827   -1.9237    0.0000 C   0  0
   10.6800   -2.3370    0.0000 C   0  0
  1  2  2  0
  2  3  1  0
  3  4  2  0
  4  5  1  0
  5  6  2  0
  6  1  1  0
  5  7  1  0
  7  8  1  0
  8  9  1  0
  6 10  1  0
 10 11  1  0
 10 12  1  0
 10 13  1  0
  7 14  1  0
 14 15  2  0
 15 16  1  0
 16 17  2  0
 17 23  1  0
 22 14  1  0
  9 18  1  0
  9 19  2  0
 18 20  1  0
 18 21  1  0
 22 23  1  0
 23 24  2  0
 24 25  1  0
 25 26  2  0
 26 27  1  0
 27 22  2  0
M  END