
  SciTegic10311316292D

 33 37  0  0  0  0            999 V2000
   32.4699  -24.6614    0.0000 S   0  0
   33.1950  -24.2678    0.0000 O   0  0
   32.4916  -23.8366    0.0000 O   0  0
   24.0849  -24.4302    0.0000 C   0  0
   24.0849  -25.2552    0.0000 C   0  0
   24.7969  -25.6636    0.0000 C   0  0  2  0  0  0
   25.5089  -25.2552    0.0000 C   0  0
   25.5089  -24.4302    0.0000 C   0  0
   24.7969  -24.0136    0.0000 C   0  0  2  0  0  0
   24.7969  -23.1886    0.0000 N   0  0
   25.5114  -22.7761    0.0000 C   0  0
   26.2246  -23.1928    0.0000 N   0  0
   26.9386  -22.7810    0.0000 C   0  0
   26.9391  -21.9551    0.0000 C   0  0
   26.2196  -21.5428    0.0000 C   0  0
   25.5085  -21.9569    0.0000 N   0  0
   27.7173  -23.0531    0.0000 N   0  0
   29.0526  -23.0818    0.0000 C   0  0
   28.3963  -22.5818    0.0000 C   0  0
   28.7797  -23.8604    0.0000 C   0  0
   27.9560  -23.8383    0.0000 C   0  0
   27.5268  -24.5395    0.0000 C   0  0
   27.9201  -25.2633    0.0000 C   0  0
   28.7471  -25.2815    0.0000 C   0  0
   29.1726  -24.5796    0.0000 C   0  0
   24.7969  -26.4886    0.0000 O   0  0
   29.9974  -24.5982    0.0000 N   0  0
   30.3918  -25.3223    0.0000 C   0  0
   31.2129  -25.3428    0.0000 C   0  0
   31.6452  -24.6397    0.0000 C   0  0
   31.2501  -23.9143    0.0000 C   0  0
   30.4228  -23.8920    0.0000 C   0  0
   32.8635  -25.3864    0.0000 C   0  0
  2  1  2  0
  1  3  2  0
  4  5  1  0
  4  9  1  0
  5  6  1  0
  6  7  1  0
  7  8  1  0
  8  9  1  0
  9 10  1  1
 10 11  1  0
 11 12  2  0
 12 13  1  0
 13 14  2  0
 14 15  1  0
 15 16  2  0
 16 11  1  0
 13 17  1  0
 17 21  1  0
 20 18  1  0
 18 19  2  0
 19 17  1  0
 20 21  2  0
 21 22  1  0
 22 23  2  0
 23 24  1  0
 24 25  2  0
 25 20  1  0
  6 26  1  6
 25 27  1  0
 27 28  1  0
 27 32  1  0
 28 29  1  0
 29 30  1  0
 30 31  1  0
 31 32  1  0
 30  1  1  0
  1 33  1  0
M  END