
          11280714492D 1   1.00000     0.00000     0

 23 25  0     0  0            999 V2000
    3.8250   -3.2167    0.0000 C   0  0  0  0  0  0           0  0  0
    4.5417   -2.8042    0.0000 C   0  0  3  0  0  0           0  0  0
    3.8292   -4.0375    0.0000 C   0  0  0  0  0  0           0  0  0
    3.1167   -0.3375    0.0000 N   0  3  0  0  0  0           0  0  0
    5.2542   -3.2125    0.0000 N   0  0  0  0  0  0           0  0  0
    3.8375   -0.7500    0.0000 C   0  0  0  0  0  0           0  0  0
    4.5417   -1.9792    0.0000 C   0  0  0  0  0  0           0  0  0
    5.2542   -4.0417    0.0000 C   0  0  0  0  0  0           0  0  0
    4.5417   -4.4417    0.0000 N   0  0  0  0  0  0           0  0  0
    3.8375   -1.5625    0.0000 C   0  0  0  0  0  0           0  0  0
    3.0417   -2.9667    0.0000 C   0  0  0  0  0  0           0  0  0
    2.5667   -3.6292    0.0000 O   0  0  0  0  0  0           0  0  0
    3.0500   -4.2917    0.0000 C   0  0  0  0  0  0           0  0  0
    3.1125    0.4875    0.0000 O   0  5  0  0  0  0           0  0  0
    2.4042   -0.7500    0.0000 O   0  0  0  0  0  0           0  0  0
    2.7875   -2.1792    0.0000 O   0  0  0  0  0  0           0  0  0
    5.9667   -4.4542    0.0000 S   0  0  0  0  0  0           0  0  0
    3.1167   -1.9750    0.0000 S   0  0  0  0  0  0           0  0  0
    4.5417   -0.3292    0.0000 C   0  0  0  0  0  0           0  0  0
    5.2542   -1.5750    0.0000 C   0  0  0  0  0  0           0  0  0
    5.2542   -0.7500    0.0000 C   0  0  0  0  0  0           0  0  0
    5.9667   -5.2792    0.0000 C   0  0  0  0  0  0           0  0  0
    2.4042   -1.5542    0.0000 C   0  0  0  0  0  0           0  0  0
  2  1  1  0     0  0
  3  1  1  0     0  0
  4  6  1  0     0  0
  5  2  1  0     0  0
  6 10  2  0     0  0
  7  2  1  0     0  0
  8  9  1  0     0  0
  9  3  2  0     0  0
 10  7  1  0     0  0
 11  1  2  0     0  0
 12 11  1  0     0  0
 13  3  1  0     0  0
 14  4  1  0     0  0
 15  4  2  0     0  0
 16 11  1  0     0  0
 17  8  1  0     0  0
 18 10  1  0     0  0
 19 21  2  0     0  0
 20  7  2  0     0  0
 21 20  1  0     0  0
 22 17  1  0     0  0
 23 18  1  0     0  0
 13 12  1  0     0  0
  8  5  2  0     0  0
 19  6  1  0     0  0
M  CHG  2   4   1  14  -1
M  END