
  CDK    6/4/10,11:41

 20 22  0  0  0  0  0  0  0  0999 V2000
    1.9181  -20.3644    0.0000 C   0  0  0  0  0  0  0  0  0  0  0  0
    1.9169  -21.1897    0.0000 C   0  0  0  0  0  0  0  0  0  0  0  0
    2.6273  -21.6025    0.0000 C   0  0  0  0  0  0  0  0  0  0  0  0
    2.6225  -19.9534    0.0000 C   0  0  0  0  0  0  0  0  0  0  0  0
    3.3375  -20.3582    0.0000 C   0  0  0  0  0  0  0  0  0  0  0  0
    3.3441  -21.1833    0.0000 C   0  0  0  0  0  0  0  0  0  0  0  0
    4.1313  -21.4350    0.0000 N   0  0  0  0  0  0  0  0  0  0  0  0
    4.6126  -20.7626    0.0000 C   0  0  0  0  0  0  0  0  0  0  0  0
    4.1205  -20.0982    0.0000 C   0  0  0  0  0  0  0  0  0  0  0  0
    4.1350  -22.2595    0.0000 S   0  0  0  0  0  0  0  0  0  0  0  0
    3.4227  -22.6734    0.0000 C   0  0  0  0  0  0  0  0  0  0  0  0
    4.8686  -21.8789    0.0000 O   0  0  0  0  0  0  0  0  0  0  0  0
    4.2965  -23.0611    0.0000 O   0  0  0  0  0  0  0  0  0  0  0  0
    2.7117  -22.2663    0.0000 C   0  0  0  0  0  0  0  0  0  0  0  0
    1.9999  -22.6794    0.0000 C   0  0  0  0  0  0  0  0  0  0  0  0
    2.0038  -23.5048    0.0000 C   0  0  0  0  0  0  0  0  0  0  0  0
    2.7255  -23.9149    0.0000 C   0  0  0  0  0  0  0  0  0  0  0  0
    3.4301  -23.4953    0.0000 C   0  0  0  0  0  0  0  0  0  0  0  0
    4.3718  -19.3118    0.0000 C   0  0  0  0  0  0  0  0  0  0  0  0
    1.2922  -23.9237    0.0000 N   0  0  0  0  0  0  0  0  0  0  0  0
  4  1  1  0  0  0  0 
  7 10  1  0  0  0  0 
  5  6  1  0  0  0  0 
 10 11  1  0  0  0  0 
 10 12  2  0  0  0  0 
  2  3  1  0  0  0  0 
 10 13  2  0  0  0  0 
  3  6  2  0  0  0  0 
 11 14  2  0  0  0  0 
  1  2  2  0  0  0  0 
 14 15  1  0  0  0  0 
  5  4  2  0  0  0  0 
 15 16  2  0  0  0  0 
  6  7  1  0  0  0  0 
 16 17  1  0  0  0  0 
  7  8  1  0  0  0  0 
 17 18  2  0  0  0  0 
 18 11  1  0  0  0  0 
  8  9  2  0  0  0  0 
  9 19  1  0  0  0  0 
  9  5  1  0  0  0  0 
 16 20  1  0  0  0  0 
M  END