
          11280715412D 1   1.00000     0.00000     0

 19 21  0     0  0            999 V2000
    5.5417   -1.4542    0.0000 C   0  0  0  0  0  0           0  0  0
    4.8167   -1.8667    0.0000 O   0  0  0  0  0  0           0  0  0
    5.5417   -0.6250    0.0000 C   0  0  0  0  0  0           0  0  0
    4.8167   -0.2042    0.0000 O   0  0  0  0  0  0           0  0  0
    6.2542   -1.8750    0.0000 C   0  0  3  0  0  0           0  0  0
    4.1000   -1.4542    0.0000 C   0  0  0  0  0  0           0  0  0
    7.6792   -1.8792    0.0000 N   0  0  3  0  0  0           0  0  0
    4.1042   -0.6250    0.0000 C   0  0  0  0  0  0           0  0  0
    6.9667   -1.4625    0.0000 C   0  0  0  0  0  0           0  0  0
    6.2542   -2.7000    0.0000 O   0  0  0  0  0  0           0  0  0
    7.6750   -2.7042    0.0000 C   0  0  0  0  0  0           0  0  0
    8.3917   -1.4667    0.0000 C   0  0  0  0  0  0           0  0  0
    3.3875   -1.8667    0.0000 C   0  0  0  0  0  0           0  0  0
    3.3875   -0.2125    0.0000 C   0  0  0  0  0  0           0  0  0
    9.1042   -1.8792    0.0000 C   0  0  0  0  0  0           0  0  0
    8.3875   -3.1167    0.0000 C   0  0  0  0  0  0           0  0  0
    2.6750   -1.4542    0.0000 C   0  0  0  0  0  0           0  0  0
    2.6750   -0.6250    0.0000 C   0  0  0  0  0  0           0  0  0
    9.1042   -2.7125    0.0000 C   0  0  0  0  0  0           0  0  0
  2  1  1  0     0  0
  3  1  2  0     0  0
  4  3  1  0     0  0
  5  1  1  0     0  0
  6  2  1  0     0  0
  7  9  1  0     0  0
  8  4  1  0     0  0
  9  5  1  0     0  0
 10  5  1  0     0  0
 11  7  1  0     0  0
 12  7  1  0     0  0
 13  6  2  0     0  0
 14  8  2  0     0  0
 15 12  1  0     0  0
 16 11  1  0     0  0
 17 13  1  0     0  0
 18 14  1  0     0  0
 19 15  1  0     0  0
  6  8  1  0     0  0
 17 18  2  0     0  0
 16 19  1  0     0  0
M  END