
  SciTegic11201309402D

 74 76  0  0  1  0            999 V2000
   -1.9333    1.3917    0.0000 N   0  0
   -4.5917    1.3708    0.0000 C   0  0
   -1.9125   -4.7167    0.0000 N   0  0
   -0.5500   -5.4667    0.0000 C   0  0  1  0  0  0
   -4.5833   -3.2000    0.0000 N   0  0
   -4.5917   -0.1292    0.0000 N   0  0
   -0.6000    2.1625    0.0000 C   0  0
   -3.2333   -5.5083    0.0000 C   0  0
   -0.5208   -6.9667    0.0000 C   0  0
   -5.9208   -2.4375    0.0000 C   0  0
   -3.2708    2.1500    0.0000 C   0  0  2  0  0  0
   -4.5708   -4.7583    0.0000 C   0  0  2  0  0  0
    0.7375   -0.1083    0.0000 N   0  0
    2.0375   -0.8875    0.0000 C   0  0
    0.7167    1.3917    0.0000 C   0  0  1  0  0  0
   -1.8083   -7.7458    0.0000 N   0  0
   -5.8583   -5.5292    0.0000 C   0  0
   -5.9333   -0.9000    0.0000 C   0  0  2  0  0  0
   -3.0625  -10.0208    0.0000 C   0  0
   -5.6333  -11.5792    0.0000 C   0  0
   -6.7917  -18.3542    0.0000 C   0  0
    2.0167   -2.3583    0.0000 C   0  0
    2.0792   -5.4375    0.0000 S   0  0
   -3.0333  -11.5208    0.0000 N   0  0
    3.4000   -4.6500    0.0000 S   0  0
   -5.8375   -7.0292    0.0000 C   0  0
   -6.9125  -12.3542    0.0000 N   0  0
    3.3792   -3.1083    0.0000 C   0  0
   -1.7792   -9.2458    0.0000 C   0  0
   -4.3167  -12.3000    0.0000 C   0  0  1  0  0  0
   -9.5125  -12.4125    0.0000 C   0  0
   -9.8292   -0.1667    0.0000 C   0  0
   -7.8208  -18.9750    0.0000 N   0  0
   -5.6333    1.9667    0.0000 O   0  0
    0.7583   -4.6875    0.0000 C   0  0
   -0.6000    3.3625    0.0000 O   0  0
   -3.2167   -6.7083    0.0000 O   0  0
   -6.9542   -3.0458    0.0000 O   0  0
    0.5292   -7.5458    0.0000 O   0  0
    2.0167    2.1458    0.0000 C   0  0
    3.0875   -0.3042    0.0000 O   0  0
   -5.6583  -10.3792    0.0000 O   0  0
   -4.1125   -9.4417    0.0000 O   0  0
   -6.8625   -7.6458    0.0000 O   0  0
  -10.8667   -0.7708    0.0000 O   0  0
  -10.5625  -11.8333    0.0000 O   0  0
   -7.2292   -0.1542    0.0000 C   0  0
   -6.8208  -16.8542    0.0000 N   0  0
   -8.2292  -11.6333    0.0000 C   0  0
   -5.7458  -18.9333    0.0000 N   0  0
   -3.2833    3.6542    0.0000 C   0  0  2  0  0  0
   -4.7875   -7.6125    0.0000 N   0  0
   -8.5292   -0.9125    0.0000 C   0  0
   -9.8375    1.0333    0.0000 N   0  0
   -9.4833  -13.6125    0.0000 N   0  0
    2.0167    3.6458    0.0000 C   0  0
   -2.8583   -7.1667    0.0000 C   0  0
    4.7292   -3.8583    0.0000 C   0  0
    3.3583   -1.5667    0.0000 C   0  0
   -4.2875  -13.8000    0.0000 C   0  0
   -5.5417  -16.0750    0.0000 C   0  0
   -1.9917    4.4083    0.0000 C   0  0
   -4.3292    4.2375    0.0000 C   0  0
    0.7167    4.3875    0.0000 C   0  0
    3.3125    4.3958    0.0000 C   0  0
   -5.5708  -14.5750    0.0000 C   0  0
   -2.0000    5.6083    0.0000 C   0  0
    6.0583   -3.0792    0.0000 C   0  0
    4.6875   -0.7667    0.0000 C   0  0
    0.7125    5.8875    0.0000 C   0  0
    3.3083    5.8958    0.0000 C   0  0
    6.0375   -1.5292    0.0000 C   0  0
    2.0083    6.6417    0.0000 C   0  0
   -2.4088    2.6570    0.0000 H   0  0
  2 11  1  0
  3  8  1  0
  4 35  1  0
  5 10  1  0
  6  2  1  0
  7  1  1  0
  8 12  1  0
  4  9  1  6
 10 18  1  0
 11  1  1  0
 12  5  1  0
 13 15  1  0
 14 13  1  0
 15  7  1  0
 16  9  1  0
 12 17  1  6
 18  6  1  0
 19 29  1  0
 20 30  1  0
 21 48  2  0
 22 14  1  0
 23 25  1  0
 24 19  1  0
 25 28  1  0
 26 17  1  0
 27 20  1  0
 28 22  1  0
 29 16  1  0
 30 24  1  1
 31 49  1  0
 32 53  1  0
 33 21  1  0
 34  2  2  0
 35 23  1  0
 36  7  2  0
 37  8  2  0
 38 10  2  0
 39  9  2  0
 15 40  1  6
 41 14  2  0
 42 20  2  0
 43 19  2  0
 44 26  2  0
 45 32  2  0
 46 31  2  0
 18 47  1  6
 48 61  1  0
 49 27  1  0
 50 21  1  0
 51 11  1  0
 52 26  1  0
 53 47  1  0
 54 32  1  0
 55 31  1  0
 56 40  1  0
 57 16  1  0
 58 28  1  0
 59 28  1  0
 60 30  1  0
 61 66  1  0
 62 51  1  0
 51 63  1  1
 64 56  1  0
 65 56  2  0
 66 60  1  0
 67 62  1  0
 68 58  1  0
 69 59  1  0
 70 64  2  0
 71 65  1  0
 72 69  1  0
 73 70  1  0
 73 71  2  0
 72 68  1  0
  3  4  1  0
 11 74  1  1
M  END