
  SciTegic02271217242D

 26 28  0  0  0  0            999 V2000
   -2.0292   -4.5667    0.0000 O   0  0
   -1.6125   -5.2833    0.0000 S   0  0
   -1.2002   -4.5642    0.0000 O   0  0
   -3.7514   -5.7041    0.0000 C   0  0
   -3.7526   -6.5315    0.0000 C   0  0
   -3.0378   -6.9444    0.0000 C   0  0
   -2.3213   -6.5310    0.0000 C   0  0
   -2.3242   -5.7005    0.0000 C   0  0
   -3.0396   -5.2914    0.0000 C   0  0
   -0.8953   -5.6951    0.0000 N   0  0
   -0.8921   -6.5201    0.0000 C   0  0
   -1.6042   -6.9321    0.0000 C   0  0
   -1.6014   -7.7563    0.0000 N   0  0
   -0.8849   -8.1670    0.0000 C   0  0
   -0.1696   -7.7474    0.0000 C   0  0
   -0.1759   -6.9245    0.0000 C   0  0
    0.5479   -8.1546    0.0000 C   0  0
    0.5491   -8.9803    0.0000 C   0  0
    1.2657   -9.3875    0.0000 N   0  0
    1.2523   -7.7370    0.0000 C   0  0
    1.9680   -8.1374    0.0000 N   0  0
    1.9766   -8.9690    0.0000 C   0  0
    2.6949   -9.3748    0.0000 N   0  0
   -4.4693   -6.9427    0.0000 N   0  3
   -4.4700   -7.7677    0.0000 O   0  0
   -5.1835   -6.5296    0.0000 O   0  5
 12 13  1  0
  2  1  2  0
 13 14  2  0
  7  8  1  0
 14 15  1  0
  4  5  2  0
 15 16  2  0
 16 11  1  0
  8  9  2  0
 15 17  1  0
  9  4  1  0
 17 18  2  0
  8  2  1  0
 18 19  1  0
 19 22  2  0
  3  2  2  0
 21 20  2  0
 20 17  1  0
 21 22  1  0
  2 10  1  0
  5  6  1  0
 10 11  1  0
 22 23  1  0
 11 12  2  0
  6  7  2  0
 24 25  2  0
 24 26  1  0
  5 24  1  0
M  CHG  2  24   1  26  -1
M  END