
  SciTegic12121614142D

 18 20  0  0  0  0            999 V2000
    0.2917   -0.7475    0.0000 C   0  0
    0.2917    0.7475    0.0000 C   0  0
   -1.0028    1.5132    0.0000 C   0  0
   -2.3155    0.7475    0.0000 C   0  0
   -2.3155   -0.7475    0.0000 C   0  0
   -1.0028   -1.5132    0.0000 N   0  0
    2.5889    0.0182    0.0000 S   0  0
    1.7138    1.2033    0.0000 N   0  0
    1.7138   -1.2033    0.0000 C   0  0
   -4.9669    0.8708    0.0000 C   0  0
   -3.6168    1.4950    0.0000 C   0  0
   -3.7582    2.9755    0.0000 C   0  0
   -5.2262    3.2840    0.0000 C   0  0
   -5.9732    1.9832    0.0000 S   0  0
    2.1855   -2.6254    0.0000 O   0  0
    3.6552   -2.9294    0.0000 C   0  0
    4.0330   -4.0684    0.0000 C   0  0
    4.4530   -2.0330    0.0000 C   0  0
  1  2  1  0
  2  3  1  0
  3  4  2  0
  4  5  1  0
  5  6  2  0
  1  6  1  0
  7  8  1  0
  7  9  1  0
  1  9  2  0
  2  8  2  0
 10 11  2  0
 11 12  1  0
 12 13  2  0
 13 14  1  0
 10 14  1  0
  4 11  1  0
 16 17  1  0
 16 18  1  0
 15 16  1  0
  9 15  1  0
M  END