
          11280715112D 1   1.00000     0.00000     0

 32 35  0     1  0            999 V2000
    3.0917   -5.5125    0.0000 N   0  0  3  0  0  0           0  0  0
    2.3792   -5.0917    0.0000 C   0  0  0  0  0  0           0  0  0
    1.6750   -5.5125    0.0000 C   0  0  2  0  0  0           0  0  0
    3.1000   -6.3292    0.0000 C   0  0  1  0  0  0           0  0  0
    0.9542   -5.1000    0.0000 N   0  0  0  0  0  0           0  0  0
    3.0917   -7.1542    0.0000 C   0  0  0  0  0  0           0  0  0
    0.2417   -5.5167    0.0000 C   0  0  0  0  0  0           0  0  0
    2.3792   -6.7417    0.0000 C   0  0  0  0  0  0           0  0  0
    1.6750   -6.3375    0.0000 C   0  0  0  0  0  0           0  0  0
    1.0875   -6.0917    0.0000 C   0  0  0  0  0  0           0  0  0
    2.3792   -4.2667    0.0000 O   0  0  0  0  0  0           0  0  0
   -0.4708   -5.1042    0.0000 O   0  0  0  0  0  0           0  0  0
    2.3750   -7.5625    0.0000 O   0  0  0  0  0  0           0  0  0
    0.2417   -6.3417    0.0000 O   0  0  0  0  0  0           0  0  0
    3.8750   -5.2542    0.0000 C   0  0  0  0  0  0           0  0  0
    3.8792   -6.5792    0.0000 C   0  0  0  0  0  0           0  0  0
    3.8042   -7.5750    0.0000 O   0  0  0  0  0  0           0  0  0
    1.2917   -6.8917    0.0000 C   0  0  0  0  0  0           0  0  0
   -0.4708   -6.7542    0.0000 C   0  0  0  0  0  0           0  0  0
   -1.1833   -6.3417    0.0000 C   0  0  0  0  0  0           0  0  0
    4.3625   -5.9125    0.0000 C   0  0  0  0  0  0           0  0  0
    3.7917   -8.4000    0.0000 C   0  0  0  0  0  0           0  0  0
    1.9750   -7.3542    0.0000 C   0  0  0  0  0  0           0  0  0
    0.5500   -7.2417    0.0000 C   0  0  0  0  0  0           0  0  0
   -1.1833   -5.5167    0.0000 C   0  0  0  0  0  0           0  0  0
   -1.8958   -6.7542    0.0000 C   0  0  0  0  0  0           0  0  0
    1.9125   -8.1792    0.0000 C   0  0  0  0  0  0           0  0  0
   -1.9083   -5.1042    0.0000 C   0  0  0  0  0  0           0  0  0
   -2.6083   -6.3500    0.0000 C   0  0  0  0  0  0           0  0  0
    0.4792   -8.0667    0.0000 C   0  0  0  0  0  0           0  0  0
    1.1625   -8.5292    0.0000 C   0  0  0  0  0  0           0  0  0
   -2.6125   -5.5167    0.0000 C   0  0  0  0  0  0           0  0  0
  2  1  1  0     0  0
  3  2  1  0     0  0
  4  1  1  0     0  0
  3  5  1  1     0  0
  4  6  1  1     0  0
  7  5  1  0     0  0
  8  4  1  0     0  0
  9  8  1  0     0  0
  3 10  1  6     0  0
 11  2  2  0     0  0
 12  7  2  0     0  0
 13  6  2  0     0  0
 14  7  1  0     0  0
 15  1  1  0     0  0
 16  4  1  0     0  0
 17  6  1  0     0  0
 18 10  1  0     0  0
 19 14  1  0     0  0
 20 19  1  0     0  0
 21 15  1  0     0  0
 22 17  1  0     0  0
 23 18  1  0     0  0
 24 18  2  0     0  0
 25 20  2  0     0  0
 26 20  1  0     0  0
 27 23  2  0     0  0
 28 25  1  0     0  0
 29 26  2  0     0  0
 30 24  1  0     0  0
 31 30  2  0     0  0
 32 29  1  0     0  0
 16 21  1  0     0  0
  3  9  1  0     0  0
 27 31  1  0     0  0
 28 32  2  0     0  0
M  END