
          08180812482D 1   1.00000     0.00000     0

 42 46  0     0  0            999 V2000
    2.7861  -18.2833    0.0000 C   0  0  0  0  0  0           0  0  0
    2.7849  -19.1107    0.0000 C   0  0  0  0  0  0           0  0  0
    3.4997  -19.5235    0.0000 C   0  0  0  0  0  0           0  0  0
    3.4979  -17.8705    0.0000 C   0  0  0  0  0  0           0  0  0
    4.2181  -19.1078    0.0000 C   0  0  0  0  0  0           0  0  0
    4.2133  -18.2797    0.0000 C   0  0  0  0  0  0           0  0  0
    4.8604  -17.7538    0.0000 N   0  0  3  0  0  0           0  0  0
    4.8744  -19.6223    0.0000 N   0  0  3  0  0  0           0  0  0
    5.6726  -17.9280    0.0000 C   0  0  0  0  0  0           0  0  0
    5.6850  -19.4292    0.0000 C   0  0  0  0  0  0           0  0  0
    6.0374  -18.6744    0.0000 N   0  0  3  0  0  0           0  0  0
    6.2063  -20.0687    0.0000 O   0  0  0  0  0  0           0  0  0
    6.1809  -17.2782    0.0000 O   0  0  0  0  0  0           0  0  0
    4.6679  -16.9515    0.0000 C   0  0  0  0  0  0           0  0  0
    5.2664  -16.3837    0.0000 C   0  0  0  0  0  0           0  0  0
    6.0574  -16.6181    0.0000 O   0  0  0  0  0  0           0  0  0
    6.8623  -18.6671    0.0000 C   0  0  0  0  0  0           0  0  0
    7.2684  -17.9490    0.0000 C   0  0  0  0  0  0           0  0  0
    8.0934  -17.9416    0.0000 N   0  0  0  0  0  0           0  0  0
    6.8496  -17.2382    0.0000 O   0  0  0  0  0  0           0  0  0
    8.4995  -17.2235    0.0000 C   0  0  0  0  0  0           0  0  0
    9.3229  -17.2184    0.0000 C   0  0  0  0  0  0           0  0  0
    9.7290  -16.5011    0.0000 C   0  0  0  0  0  0           0  0  0
    9.3100  -15.7894    0.0000 C   0  0  0  0  0  0           0  0  0
    8.4808  -15.7994    0.0000 C   0  0  0  0  0  0           0  0  0
    8.0785  -16.5173    0.0000 C   0  0  0  0  0  0           0  0  0
    4.6986  -20.4283    0.0000 C   0  0  3  0  0  0           0  0  0
    5.0739  -15.5815    0.0000 C   0  0  3  0  0  0           0  0  0
    4.8542  -14.7792    0.0000 C   0  0  0  0  0  0           0  0  0
    5.8729  -15.3762    0.0000 C   0  0  0  0  0  0           0  0  0
    4.2766  -15.7935    0.0000 C   0  0  0  0  0  0           0  0  0
    3.9150  -20.6779    0.0000 C   0  0  0  0  0  0           0  0  0
    3.7380  -21.4800    0.0000 C   0  0  0  0  0  0           0  0  0
    4.3456  -22.0387    0.0000 C   0  0  0  0  0  0           0  0  0
    5.1331  -21.7895    0.0000 C   0  0  0  0  0  0           0  0  0
    5.3130  -20.9817    0.0000 C   0  0  0  0  0  0           0  0  0
   10.5535  -16.4890    0.0000 C   0  0  0  0  0  0           0  0  0
   11.0441  -17.1523    0.0000 N   0  0  0  0  0  0           0  0  0
   11.8265  -16.8908    0.0000 C   0  0  0  0  0  0           0  0  0
   11.8196  -16.0658    0.0000 S   0  0  0  0  0  0           0  0  0
   11.0328  -15.8176    0.0000 C   0  0  0  0  0  0           0  0  0
   12.4981  -17.3701    0.0000 C   0  0  0  0  0  0           0  0  0
  8 10  1  0     0  0
 19 21  1  0     0  0
 21 22  2  0     0  0
  9 11  1  0     0  0
 22 23  1  0     0  0
 10 11  1  0     0  0
 23 24  2  0     0  0
  2  3  1  0     0  0
 24 25  1  0     0  0
 10 12  2  0     0  0
 25 26  2  0     0  0
 26 21  1  0     0  0
  5  6  1  0     0  0
  8 27  1  0     0  0
  9 13  2  0     0  0
 15 28  1  0     0  0
  3  5  2  0     0  0
 28 29  1  0     0  0
  7 14  1  0     0  0
 28 30  1  0     0  0
  6  7  1  0     0  0
 28 31  1  0     0  0
 27 32  1  0     0  0
 14 15  1  0     0  0
  1  2  2  0     0  0
 15 16  2  0     0  0
  5  8  1  0     0  0
 11 17  1  0     0  0
 27 36  1  0     0  0
 32 33  1  0     0  0
 33 34  1  0     0  0
 34 35  1  0     0  0
 35 36  1  0     0  0
 37 38  1  0     0  0
  6  4  2  0     0  0
 17 18  1  0     0  0
  7  9  1  0     0  0
 18 19  1  0     0  0
  4  1  1  0     0  0
 38 39  2  0     0  0
 39 40  1  0     0  0
 40 41  1  0     0  0
 41 37  2  0     0  0
 23 37  1  0     0  0
 18 20  2  0     0  0
 39 42  1  0     0  0
M  END