
          11280714582D 1   1.00000     0.00000     0

 25 28  0     0  0            999 V2000
   -0.7875    0.1500    0.0000 N   0  0  3  0  0  0           0  0  0
    0.4917    0.5708    0.0000 C   0  0  0  0  0  0           0  0  0
   -0.7875    0.9833    0.0000 C   0  0  0  0  0  0           0  0  0
    0.0000   -0.1042    0.0000 C   0  0  0  0  0  0           0  0  0
    0.0000    1.2375    0.0000 C   0  0  0  0  0  0           0  0  0
    1.3167    0.5708    0.0000 C   0  0  0  0  0  0           0  0  0
    6.2625    0.5958    0.0000 N   0  0  3  0  0  0           0  0  0
   -1.5083   -0.2625    0.0000 C   0  0  0  0  0  0           0  0  0
   -1.5083    1.3958    0.0000 C   0  0  0  0  0  0           0  0  0
   -2.2208    0.1500    0.0000 C   0  0  0  0  0  0           0  0  0
   -2.2208    0.9750    0.0000 C   0  0  0  0  0  0           0  0  0
    1.7167    1.2833    0.0000 C   0  0  0  0  0  0           0  0  0
    1.7292   -0.1417    0.0000 C   0  0  0  0  0  0           0  0  0
    2.9625    0.5708    0.0000 C   0  0  0  0  0  0           0  0  0
    2.5500   -0.1417    0.0000 C   0  0  0  0  0  0           0  0  0
    2.5417    1.2875    0.0000 C   0  0  0  0  0  0           0  0  0
    5.4375    0.5875    0.0000 C   0  0  0  0  0  0           0  0  0
    5.0167    1.2958    0.0000 C   0  0  0  0  0  0           0  0  0
    3.7875    0.5750    0.0000 O   0  0  0  0  0  0           0  0  0
    6.6750   -0.1250    0.0000 C   0  0  0  0  0  0           0  0  0
    6.6667    1.3083    0.0000 C   0  0  0  0  0  0           0  0  0
    4.1917    1.2958    0.0000 C   0  0  0  0  0  0           0  0  0
    7.4917    1.3083    0.0000 C   0  0  0  0  0  0           0  0  0
    7.4917   -0.1250    0.0000 C   0  0  0  0  0  0           0  0  0
    7.9042    0.5958    0.0000 C   0  0  0  0  0  0           0  0  0
  2  4  2  0     0  0
  3  1  1  0     0  0
  4  1  1  0     0  0
  5  3  2  0     0  0
  6  2  1  0     0  0
  7 17  1  0     0  0
  8  1  1  0     0  0
  9  3  1  0     0  0
 10  8  2  0     0  0
 11 10  1  0     0  0
 12  6  1  0     0  0
 13  6  2  0     0  0
 14 15  2  0     0  0
 15 13  1  0     0  0
 16 12  2  0     0  0
 17 18  1  0     0  0
 18 22  1  0     0  0
 19 14  1  0     0  0
 20  7  1  0     0  0
 21  7  1  0     0  0
 22 19  1  0     0  0
 23 21  1  0     0  0
 24 20  1  0     0  0
 25 23  1  0     0  0
  2  5  1  0     0  0
  9 11  2  0     0  0
 14 16  1  0     0  0
 24 25  1  0     0  0
M  END