
  SciTegic04091416462D

 16 17  0  0  0  0            999 V2000
   14.4205  -19.4038    0.0000 N   0  0
   13.6503  -19.1216    0.0000 C   0  0
   10.1992  -17.7932    0.0000 C   0  0
   11.6214  -17.7928    0.0000 C   0  0
   13.6844  -18.3016    0.0000 C   0  0
   13.0441  -16.9701    0.0000 O   0  0
   10.2003  -16.9705    0.0000 C   0  0
   14.4704  -18.0778    0.0000 C   0  0
   11.6186  -16.9668    0.0000 C   0  0
   12.3362  -18.2040    0.0000 N   0  0
   10.9095  -18.2059    0.0000 C   0  0
   10.9078  -16.5620    0.0000 N   0  0
   14.9268  -18.7588    0.0000 N   0  0
   13.0448  -17.7910    0.0000 C   0  0
   14.7518  -17.3106    0.0000 C   0  0
   14.6440  -20.1898    0.0000 C   0  0
  7  3  2  0
 14  6  2  0
  9 12  2  0
  3 11  1  0
  4 10  1  0
 13  8  2  0
 14  5  1  0
  4  9  1  0
 11  4  2  0
  1 13  1  0
 10 14  1  0
 12  7  1  0
  2  1  1  0
  5  2  2  0
  8  5  1  0
  8 15  1  0
  1 16  1  0
M  END