
  SciTegic02011310452D

 88 97  0  0  0  0            999 V2000
   18.0306  -16.3924    0.0000 C   0  0
   20.0561  -13.4602    0.0000 C   0  0
   17.9488  -13.9386    0.0000 C   0  0
   19.3624  -13.8887    0.0000 C   0  0
   18.6427  -13.5025    0.0000 C   0  0
   20.0278  -12.6437    0.0000 C   0  0
   18.6941  -15.1468    0.0000 C   0  0
   19.3963  -14.7120    0.0000 O   0  0
   17.3060  -16.0046    0.0000 C   0  0
   18.0558  -17.2114    0.0000 O   0  0
   18.6163  -12.6922    0.0000 C   0  0
   19.3035  -12.2595    0.0000 C   0  0
   20.7259  -12.2107    0.0000 O   0  0
   17.9777  -14.7588    0.0000 C   0  0
   18.7211  -15.9611    0.0000 C   0  0
   17.2806  -15.1859    0.0000 C   0  0
    4.5501  -12.5546    0.0000 C   0  0
   11.6337  -16.2812    0.0000 C   0  0
   12.3540  -13.4110    0.0000 C   0  0
   15.1535  -12.2279    0.0000 N   0  0
    8.8086  -13.8106    0.0000 C   0  0
    7.4911   -8.6298    0.0000 C   0  0
    4.9445  -11.1677    0.0000 C   0  0
   13.1436   -7.6596    0.0000 C   0  0
   11.7848   -5.1598    0.0000 O   0  0
   10.2223  -13.8100    0.0000 O   0  0
   10.3837   -5.9646    0.0000 N   0  0
   14.4982  -10.1594    0.0000 C   0  0
   15.1754  -11.4073    0.0000 C   0  0
   11.0856   -4.7285    0.0000 C   0  0
    9.5096  -15.0414    0.0000 N   0  0
    4.3454  -11.7476    0.0000 C   0  0
   10.2200  -14.6309    0.0000 C   0  0
    5.3465  -12.7801    0.0000 C   0  0
   17.2532  -13.5128    0.0000 C   0  0
   16.5694  -12.2643    0.0000 C   0  0
    7.4303  -12.1892    0.0000 C   0  0
    8.8014  -14.6268    0.0000 C   0  0
   11.6355  -14.6363    0.0000 C   0  0
    5.8470   -8.6360    0.0000 O   0  0
    6.6726  -13.3937    0.0000 C   0  0
    6.2526  -10.7536    0.0000 C   0  0
    8.3120   -8.6265    0.0000 C   0  0
    8.7218   -7.9147    0.0000 N   0  0
   11.7629   -5.9804    0.0000 C   0  0
   10.8232   -7.2155    0.0000 N   0  0
   15.8966  -11.0180    0.0000 S   0  0
   10.9276  -13.4105    0.0000 C   0  0
    5.9369  -12.2059    0.0000 C   0  0
   11.6410  -13.8155    0.0000 C   0  0
    7.0855   -9.3458    0.0000 C   0  0
   14.4762  -10.9800    0.0000 N   0  0
    7.3844  -13.8050    0.0000 C   0  0
   12.3557  -12.5907    0.0000 C   0  0
    6.6805  -12.5554    0.0000 N   0  0
   10.9283  -15.0454    0.0000 C   0  0
   12.3526  -15.8725    0.0000 C   0  0
   10.0070   -7.2367    0.0000 C   0  0
    5.8498  -10.0609    0.0000 N   0  0
    9.5427   -7.9118    0.0000 C   0  0
   17.2726  -12.6878    0.0000 C   0  0
    7.0822  -10.7477    0.0000 C   0  0
    6.2568   -9.3489    0.0000 C   0  0
   10.3834   -5.1438    0.0000 C   0  0
   15.8528  -12.6592    0.0000 C   0  0
    8.0902  -15.0406    0.0000 C   0  0
    9.7326   -6.4617    0.0000 C   0  0
    7.6044  -11.3808    0.0000 C   0  0
   16.5270  -13.9062    0.0000 C   0  0
    5.9596  -13.7993    0.0000 O   0  0
   10.9254  -15.8719    0.0000 C   0  0
   11.6425  -12.1763    0.0000 C   0  0
   12.4403   -7.2283    0.0000 O   0  0
    7.3825  -14.6266    0.0000 C   0  0
   13.1217   -8.4803    0.0000 C   0  0
    8.7272   -9.3395    0.0000 O   0  0
    8.1033  -13.3988    0.0000 C   0  0
   12.4621   -6.4077    0.0000 C   0  0
   11.0588   -6.4290    0.0000 N   0  0
    5.7406  -11.4007    0.0000 C   0  0
   15.8287  -13.4791    0.0000 C   0  0
   13.8208   -8.9074    0.0000 O   0  0
   10.9263  -12.5955    0.0000 C   0  0
   13.7989   -9.7281    0.0000 C   0  0
   12.3515  -15.0491    0.0000 C   0  0
   16.5056  -14.7231    0.0000 C   0  0
   15.7875  -15.1130    0.0000 O   0  0
   16.5007  -15.5390    0.0000 O   0  0
  3 14  2  0
  9  1  1  0
  4  2  2  0
 12 11  1  0
  5  4  1  0
  5  3  1  0
  1 10  2  0
 14 16  1  0
 15  7  2  0
  2  6  1  0
  7 14  1  0
  7  8  1  0
  6 13  1  0
 11  5  2  0
  8  4  1  0
  1 15  1  0
 16  9  2  0
  6 12  2  0
 43 76  2  0
 37 68  1  0
 64 30  1  0
 73 24  1  0
 69 35  2  0
 59 63  1  0
 56 39  2  0
 75 82  1  0
 55 37  1  0
 33 26  2  0
 67 58  2  0
 56 33  1  0
 54 72  2  0
 49 80  2  0
 53 41  1  0
 25 45  1  0
 17 34  2  0
 42 59  1  0
 43 44  1  0
 30 25  1  0
 34 49  1  0
 46 79  2  0
 65 81  2  0
 80 23  1  0
 38 66  2  0
 79 27  1  0
 84 28  1  0
 42 62  1  0
 57 18  1  0
 21 38  1  0
 29 47  2  0
 41 55  1  0
 22 43  1  0
 39 85  1  0
 32 17  1  0
 83 48  2  0
 71 56  1  0
 49 55  1  0
 39 50  1  0
 44 60  1  0
 52 29  1  0
 33 31  1  0
 81 69  1  0
 27 67  1  0
 58 46  1  0
 19 54  1  0
 63 51  1  0
 80 42  1  0
 78 73  1  0
 60 58  1  0
 50 19  2  0
 31 38  1  0
 28 52  1  0
 53 77  1  0
 45 78  1  0
 41 70  2  0
 36 65  1  0
 48 50  1  0
 63 40  2  0
 77 21  2  0
 74 53  2  0
 85 57  2  0
 66 74  1  0
 51 22  1  0
 29 20  1  0
 24 75  1  0
 35 61  1  0
 23 32  2  0
 72 83  1  0
 20 65  1  0
 18 71  2  0
 68 62  1  0
 82 84  1  0
 27 64  1  0
 61 36  2  0
 35  3  1  0
 69 86  1  0
 86 87  2  0
 86 88  1  0
M  END