
          11280715102D 1   1.00000     0.00000     0

 24 26  0     0  0            999 V2000
    0.6667    2.2208    0.0000 N   0  0  0  0  0  0           0  0  0
    0.8292    1.4083    0.0000 C   0  0  0  0  0  0           0  0  0
    1.9875    2.0708    0.0000 C   0  0  3  0  0  0           0  0  0
    1.3792    2.6208    0.0000 O   0  0  0  0  0  0           0  0  0
    1.6542    1.3125    0.0000 C   0  0  0  0  0  0           0  0  0
    0.1167    0.9875    0.0000 C   0  0  0  0  0  0           0  0  0
    2.8000    2.2583    0.0000 C   0  0  0  0  0  0           0  0  0
    0.1167    0.1583    0.0000 C   0  0  0  0  0  0           0  0  0
    0.8292   -0.2542    0.0000 O   0  0  0  0  0  0           0  0  0
    3.0500    3.0500    0.0000 O   0  0  0  0  0  0           0  0  0
    0.8292   -1.0792    0.0000 C   0  0  0  0  0  0           0  0  0
    3.3625    1.6458    0.0000 O   0  0  0  0  0  0           0  0  0
   -1.3208   -2.3250    0.0000 C   0  0  0  0  0  0           0  0  0
    0.1042   -1.5000    0.0000 C   0  0  0  0  0  0           0  0  0
   -2.0458   -2.7417    0.0000 Br  0  0  0  0  0  0           0  0  0
   -0.6083   -2.7375    0.0000 C   0  0  0  0  0  0           0  0  0
   -1.3208   -1.5000    0.0000 C   0  0  0  0  0  0           0  0  0
    0.1042   -2.3250    0.0000 C   0  0  0  0  0  0           0  0  0
   -0.6083   -1.0875    0.0000 C   0  0  0  0  0  0           0  0  0
   -0.6083    1.4000    0.0000 C   0  0  0  0  0  0           0  0  0
   -0.6000   -0.2542    0.0000 C   0  0  0  0  0  0           0  0  0
    4.1667    1.8333    0.0000 C   0  0  0  0  0  0           0  0  0
   -1.3208    0.9875    0.0000 C   0  0  0  0  0  0           0  0  0
   -1.3208    0.1583    0.0000 C   0  0  0  0  0  0           0  0  0
  2  1  2  0     0  0
  3  4  1  0     0  0
  4  1  1  0     0  0
  5  2  1  0     0  0
  6  2  1  0     0  0
  7  3  1  0     0  0
  8  6  1  0     0  0
  9  8  1  0     0  0
 10  7  2  0     0  0
 11  9  1  0     0  0
 12  7  1  0     0  0
 13 17  2  0     0  0
 14 11  1  0     0  0
 15 13  1  0     0  0
 16 18  2  0     0  0
 17 19  1  0     0  0
 18 14  1  0     0  0
 19 14  2  0     0  0
 20  6  2  0     0  0
 21  8  2  0     0  0
 22 12  1  0     0  0
 23 20  1  0     0  0
 24 23  2  0     0  0
  3  5  1  0     0  0
 21 24  1  0     0  0
 13 16  1  0     0  0
M  END