
          11280715502D 1   1.00000     0.00000     0

 29 32  0     0  0            999 V2000
    1.8219    1.4701    0.0000 C   0  0  0  0  0  0           0  0  0
   -0.3215    0.2326    0.0000 C   0  0  3  0  0  0           0  0  0
    0.3944   -0.1799    0.0000 C   0  0  0  0  0  0           0  0  0
    1.1061    0.2326    0.0000 C   0  0  0  0  0  0           0  0  0
    1.1061    1.0576    0.0000 N   0  0  3  0  0  0           0  0  0
    0.3944    1.4701    0.0000 C   0  0  0  0  0  0           0  0  0
   -0.3215    1.0576    0.0000 C   0  0  0  0  0  0           0  0  0
   -1.0374   -0.1799    0.0000 C   0  0  0  0  0  0           0  0  0
   -1.7491    0.2326    0.0000 C   0  0  0  0  0  0           0  0  0
   -1.8381    1.0507    0.0000 C   0  0  0  0  0  0           0  0  0
   -2.6441    1.2231    0.0000 N   0  0  0  0  0  0           0  0  0
   -3.0566    0.5114    0.0000 C   0  0  0  0  0  0           0  0  0
   -2.5035   -0.1050    0.0000 N   0  0  0  0  0  0           0  0  0
    2.5361    1.0570    0.0000 C   0  0  0  0  0  0           0  0  0
    3.2458    1.4750    0.0000 C   0  0  0  0  0  0           0  0  0
    3.9638    1.0687    0.0000 O   0  0  0  0  0  0           0  0  0
    4.6747    1.4874    0.0000 C   0  0  0  0  0  0           0  0  0
    5.3923    1.0784    0.0000 C   0  0  0  0  0  0           0  0  0
    6.1027    1.4964    0.0000 C   0  0  0  0  0  0           0  0  0
    6.0960    2.3223    0.0000 C   0  0  0  0  0  0           0  0  0
    5.3730    2.7284    0.0000 N   0  0  0  0  0  0           0  0  0
    4.6656    2.3080    0.0000 C   0  0  0  0  0  0           0  0  0
    6.8063    2.7419    0.0000 C   0  0  0  0  0  0           0  0  0
    7.5249    2.3365    0.0000 N   0  0  3  0  0  0           0  0  0
    7.5267    1.5071    0.0000 C   0  0  0  0  0  0           0  0  0
    8.2412    1.1018    0.0000 C   0  0  0  0  0  0           0  0  0
    8.9540    1.5179    0.0000 C   0  0  0  0  0  0           0  0  0
    8.9477    2.3438    0.0000 C   0  0  0  0  0  0           0  0  0
    8.2287    2.7536    0.0000 C   0  0  0  0  0  0           0  0  0
  1 14  1  0     0  0
  4  5  1  0     0  0
 14 15  1  0     0  0
  5  6  1  0     0  0
 15 16  1  0     0  0
  6  7  1  0     0  0
 16 17  1  0     0  0
  2  8  1  0     0  0
 17 18  2  0     0  0
  8  9  1  0     0  0
 18 19  1  0     0  0
  9 10  2  0     0  0
 19 20  2  0     0  0
  2  3  1  0     0  0
 20 21  1  0     0  0
 10 11  1  0     0  0
 21 22  2  0     0  0
 22 17  1  0     0  0
 11 12  1  0     0  0
 20 23  1  0     0  0
 12 13  2  0     0  0
 23 24  1  0     0  0
 24 25  1  0     0  0
 13  9  1  0     0  0
  5  1  1  0     0  0
  2  7  1  0     0  0
  3  4  1  0     0  0
 24 29  1  0     0  0
 25 26  1  0     0  0
 26 27  1  0     0  0
 27 28  1  0     0  0
 28 29  1  0     0  0
M  END