
  SciTegic04021211102D

 19 21  0  0  0  0            999 V2000
    5.4652   -6.7125    0.0000 N   0  0
    5.4641   -7.5398    0.0000 C   0  0
    6.1789   -7.9527    0.0000 N   0  0
    6.1771   -6.2997    0.0000 C   0  0
    6.8925   -6.7088    0.0000 C   0  0
    6.8927   -7.5353    0.0000 C   0  0
    7.6788   -7.7904    0.0000 N   0  0
    8.1645   -7.1216    0.0000 C   0  0
    7.6784   -6.4533    0.0000 N   0  0
    6.1746   -5.4747    0.0000 N   0  0
    6.8879   -5.0601    0.0000 C   0  0
    7.6014   -5.4728    0.0000 C   0  0
    8.3142   -5.0589    0.0000 C   0  0
    8.3122   -4.2330    0.0000 C   0  0
    7.5914   -3.8228    0.0000 C   0  0
    6.8816   -4.2391    0.0000 C   0  0
    4.7493   -7.9518    0.0000 N   0  0
    7.5861   -2.9978    0.0000 Cl  0  0
    9.0248   -3.8174    0.0000 Cl  0  0
  9  5  1  0
  4  1  1  0
  4 10  1  0
  5  6  1  0
 10 11  1  0
 11 12  2  0
  2  3  1  0
 12 13  1  0
  3  6  2  0
 13 14  2  0
  1  2  2  0
 14 15  1  0
  5  4  2  0
 15 16  2  0
 16 11  1  0
  6  7  1  0
  2 17  1  0
  7  8  1  0
 15 18  1  0
  8  9  2  0
 14 19  1  0
M  END