
          11280715422D 1   1.00000     0.00000     0

 48 50  0     1  0            999 V2000
   -3.9333   -3.6625    0.0000 P   0  0  3  0  0  0           0  0  0
    3.9875    2.6208    0.0000 C   0  0  0  0  0  0           0  0  0
    3.2875    2.2500    0.0000 C   0  0  1  0  0  0           0  0  0
    2.6125    2.6708    0.0000 C   0  0  0  0  0  0           0  0  0
    0.4125   -1.3000    0.0000 C   0  0  0  0  0  0           0  0  0
    3.2542    1.4625    0.0000 N   0  0  0  0  0  0           0  0  0
   -0.1500   -1.8542    0.0000 C   0  0  1  0  0  0           0  0  0
    4.6625    2.2083    0.0000 C   0  0  0  0  0  0           0  0  0
    3.4542    0.7000    0.0000 C   0  0  0  0  0  0           0  0  0
   -0.0333   -3.4375    0.0000 C   0  0  0  0  0  0           0  0  0
   -3.7208   -2.9167    0.0000 O   0  0  0  0  0  0           0  0  0
   -0.0958   -2.6500    0.0000 C   0  0  0  0  0  0           0  0  0
   -1.5208    2.8208    0.0000 C   0  0  0  0  0  0           0  0  0
   -0.9208   -1.6542    0.0000 C   0  0  0  0  0  0           0  0  0
   -3.1625   -3.8792    0.0000 C   0  0  0  0  0  0           0  0  0
    2.6417    3.4625    0.0000 O   0  0  0  0  0  0           0  0  0
    0.2042   -0.5500    0.0000 O   0  0  0  0  0  0           0  0  0
    4.6292    1.4083    0.0000 O   0  0  0  0  0  0           0  0  0
    4.2292    0.5000    0.0000 O   0  0  0  0  0  0           0  0  0
   -0.6875   -3.8792    0.0000 O   0  0  0  0  0  0           0  0  0
   -0.8458    2.4000    0.0000 C   0  0  0  0  0  0           0  0  0
   -4.1458   -4.4375    0.0000 O   0  0  0  0  0  0           0  0  0
   -4.7083   -3.4625    0.0000 O   0  0  0  0  0  0           0  0  0
    1.9042    2.3000    0.0000 N   0  0  0  0  0  0           0  0  0
    1.1792   -1.5125    0.0000 N   0  0  0  0  0  0           0  0  0
   -2.2250    2.4458    0.0000 C   0  0  0  0  0  0           0  0  0
    5.3625    2.5625    0.0000 N   0  0  0  0  0  0           0  0  0
   -1.4833   -2.2167    0.0000 C   0  0  0  0  0  0           0  0  0
   -2.6083   -3.3167    0.0000 C   0  0  0  0  0  0           0  0  0
    0.6792   -3.7792    0.0000 O   0  0  0  0  0  0           0  0  0
   -1.2708   -2.9625    0.0000 C   0  0  0  0  0  0           0  0  0
   -2.2458   -2.0000    0.0000 C   0  0  0  0  0  0           0  0  0
   -1.8333   -3.5292    0.0000 C   0  0  0  0  0  0           0  0  0
   -2.8125   -2.5625    0.0000 C   0  0  0  0  0  0           0  0  0
   -1.5750    1.2375    0.0000 C   0  0  0  0  0  0           0  0  0
    2.8917    0.1625    0.0000 C   0  0  0  0  0  0           0  0  0
   -0.8750    1.6000    0.0000 C   0  0  0  0  0  0           0  0  0
   -1.4833    3.6083    0.0000 C   0  0  0  0  0  0           0  0  0
   -2.2500    1.6625    0.0000 C   0  0  0  0  0  0           0  0  0
   -0.1458    2.7708    0.0000 C   0  0  0  0  0  0           0  0  0
    1.2292    2.7208    0.0000 C   0  0  0  0  0  0           0  0  0
    1.7375   -0.9542    0.0000 C   0  0  0  0  0  0           0  0  0
   -2.9000    2.8833    0.0000 C   0  0  0  0  0  0           0  0  0
    0.5292    2.3458    0.0000 C   0  0  0  0  0  0           0  0  0
    2.1167    0.3708    0.0000 C   0  0  0  0  0  0           0  0  0
    1.5417   -0.1792    0.0000 C   0  0  0  0  0  0           0  0  0
   -2.1625    4.0167    0.0000 C   0  0  0  0  0  0           0  0  0
   -2.8625    3.6708    0.0000 C   0  0  0  0  0  0           0  0  0
  3  2  1  6     0  0
  3  6  1  0     0  0
  4  3  1  0     0  0
  5  7  1  0     0  0
  6  9  1  0     0  0
  7 14  1  0     0  0
  8  2  1  0     0  0
  9 36  1  0     0  0
 10 12  1  0     0  0
 11  1  2  0     0  0
  7 12  1  1     0  0
 13 21  1  0     0  0
 14 28  1  0     0  0
 15  1  1  0     0  0
 16  4  2  0     0  0
 17  5  2  0     0  0
 18  8  2  0     0  0
 19  9  2  0     0  0
 20 10  2  0     0  0
 21 40  1  0     0  0
 22  1  1  0     0  0
 23  1  1  0     0  0
 24  4  1  0     0  0
 25  5  1  0     0  0
 26 13  1  0     0  0
 27  8  1  0     0  0
 28 32  2  0     0  0
 29 15  1  0     0  0
 30 10  1  0     0  0
 31 33  2  0     0  0
 32 34  1  0     0  0
 33 29  1  0     0  0
 34 29  2  0     0  0
 35 37  1  0     0  0
 36 45  1  0     0  0
 37 21  2  0     0  0
 38 13  2  0     0  0
 39 35  2  0     0  0
 40 44  1  0     0  0
 41 24  1  0     0  0
 42 25  1  0     0  0
 43 26  2  0     0  0
 44 41  1  0     0  0
 45 46  1  0     0  0
 46 42  1  0     0  0
 47 38  1  0     0  0
 48 47  2  0     0  0
 31 28  1  0     0  0
 39 26  1  0     0  0
 48 43  1  0     0  0
M  END