
  SciTegic11201309402D

 77 80  0  0  1  0            999 V2000
    9.1792  -11.3667    0.0000 N   0  0
    8.4375  -11.8167    0.0000 C   0  0
   10.6250  -10.3625    0.0000 C   0  0
    3.9417  -11.8417    0.0000 C   0  0
    2.4417  -11.8417    0.0000 N   0  0
    1.6917  -11.4167    0.0000 C   0  0
    9.9042  -10.9125    0.0000 C   0  0  1  0  0  0
    6.1917  -11.4167    0.0000 C   0  0
   -0.5583  -11.8417    0.0000 C   0  0
    4.6917  -11.4167    0.0000 N   0  0
    0.1917  -11.4167    0.0000 N   0  0
    3.1917  -11.4167    0.0000 C   0  0  1  0  0  0
    6.9417  -11.8417    0.0000 N   0  0
   10.4500   -9.4292    0.0000 N   0  0
    5.4417  -11.8417    0.0000 C   0  0  1  0  0  0
    5.4417  -12.7042    0.0000 C   0  0
    0.9417  -11.8417    0.0000 C   0  0  1  0  0  0
    7.6792  -11.4000    0.0000 C   0  0  1  0  0  0
   -1.3000  -11.4167    0.0000 C   0  0  2  0  0  0
   14.9292   -9.8042    0.0000 C   0  0
   -2.0500  -12.7042    0.0000 C   0  0
   -2.0500  -11.8417    0.0000 N   0  0
   11.3000   -8.2000    0.0000 C   0  0
    5.2250  -13.5042    0.0000 C   0  0
   11.2292   -9.0542    0.0000 C   0  0  2  0  0  0
   15.7125   -9.4292    0.0000 N   0  0
    8.4542  -12.6792    0.0000 O   0  0
   11.4375  -10.7042    0.0000 O   0  0
    3.9417  -12.7042    0.0000 O   0  0
    1.6917  -10.5500    0.0000 O   0  0
   -0.5583  -12.7042    0.0000 O   0  0
    6.1917  -10.5500    0.0000 O   0  0
   -1.3000  -10.5500    0.0000 C   0  0
    0.9417  -12.7042    0.0000 C   0  0
   10.5917   -7.7042    0.0000 O   0  0
   -1.3000  -13.1417    0.0000 O   0  0
    4.4250  -13.7125    0.0000 O   0  0
   14.2167   -9.3042    0.0000 N   0  0
   -2.7708  -13.1250    0.0000 C   0  0
   14.8542  -10.6667    0.0000 N   0  0
   12.0875   -7.8292    0.0000 N   0  0
    9.3917  -12.2042    0.0000 C   0  0
    3.1917  -10.5500    0.0000 C   0  0
    5.8000  -14.0917    0.0000 N   0  0
   -0.5583  -10.1167    0.0000 C   0  0
    0.9417   -9.2542    0.0000 C   0  0
    1.6917  -13.1417    0.0000 C   0  0
   -2.7708  -13.9500    0.0000 C   0  0
   -0.5583   -9.2542    0.0000 C   0  0
    0.1917  -10.5500    0.0000 C   0  0
    6.1875   -8.1292    0.0000 N   0  0
    0.9417  -10.1167    0.0000 C   0  0
    0.1917   -8.8167    0.0000 C   0  0
   10.5750  -11.4667    0.0000 C   0  0
    1.6917   -8.8167    0.0000 O   0  0
   10.2542  -12.2667    0.0000 C   0  0
    7.6625  -10.5750    0.0000 C   0  0
   11.9417   -9.5542    0.0000 C   0  0
   13.4292   -9.6792    0.0000 C   0  0
    6.2042   -8.9542    0.0000 C   0  0
    3.9417  -10.1167    0.0000 C   0  0
    2.4417  -10.1167    0.0000 C   0  0
    1.6917   -7.9542    0.0000 C   0  0
    1.6917  -14.0042    0.0000 C   0  0
    2.4417  -12.7042    0.0000 C   0  0
   -2.0583  -14.3542    0.0000 C   0  0
   -3.4833  -14.3542    0.0000 C   0  0
   12.7167   -9.1875    0.0000 C   0  0
    6.9417  -10.1792    0.0000 C   0  0
    6.9250   -9.3542    0.0000 C   0  0
    2.4417   -7.5167    0.0000 C   0  0
    3.1917  -13.1417    0.0000 C   0  0
    2.4417  -14.4417    0.0000 C   0  0
   -3.4875  -15.1792    0.0000 C   0  0
   -2.0583  -15.1792    0.0000 C   0  0
    3.1917  -14.0042    0.0000 C   0  0
   -2.7708  -15.5917    0.0000 C   0  0
  2  1  1  0
  7  3  1  1
  4 10  1  0
 12  5  1  1
  6  5  1  0
  7  1  1  0
  8 13  1  0
  9 11  1  0
 15 10  1  6
 17 11  1  6
 12  4  1  0
 18 13  1  1
 14  3  1  0
 15  8  1  0
 15 16  1  0
 17  6  1  0
 18  2  1  0
 19  9  1  0
 20 38  2  0
 21 22  1  0
 19 22  1  6
 23 25  1  0
 24 16  1  0
 25 14  1  6
 26 20  1  0
 27  2  2  0
 28  3  2  0
 29  4  2  0
 30  6  2  0
 31  9  2  0
 32  8  2  0
 19 33  1  0
 17 34  1  0
 35 23  2  0
 36 21  2  0
 37 24  2  0
 38 59  1  0
 39 21  1  0
 40 20  1  0
 41 23  1  0
 42  1  1  0
 12 43  1  0
 44 24  1  0
 45 33  1  0
 46 52  2  0
 47 34  1  0
 48 39  1  0
 49 45  1  0
 50 45  2  0
 51 60  1  0
 52 50  1  0
 53 49  2  0
  7 54  1  0
 55 46  1  0
 56 42  1  0
 18 57  1  0
 25 58  1  0
 59 68  1  0
 60 70  1  0
 61 43  1  0
 62 43  1  0
 63 55  1  0
 64 47  2  0
 65 47  1  0
 66 48  1  0
 67 48  2  0
 68 58  1  0
 69 57  1  0
 70 69  1  0
 71 63  1  0
 72 65  2  0
 73 64  1  0
 74 67  1  0
 75 66  2  0
 76 72  1  0
 77 74  2  0
 56 54  1  0
 76 73  2  0
 53 46  1  0
 75 77  1  0
M  END