
          01230816052D 1   1.00000     0.00000     0

 59 63  0     1  0            999 V2000
   15.5072   -5.7691    0.0000 C   0  0  0  0  0  0           0  0  0
   14.7292   -5.2463    0.0000 C   0  0  3  0  0  0           0  0  0
   15.1556   -5.0114    0.0000 C   0  0  3  0  0  0           0  0  0
   14.8698   -4.5026    0.0000 C   0  0  0  0  0  0           0  0  0
   15.3290   -4.2204    0.0000 C   0  0  0  0  0  0           0  0  0
   14.5662   -3.7944    0.0000 C   0  0  3  0  0  0           0  0  0
   14.3146   -5.1513    0.0000 C   0  0  0  0  0  0           0  0  0
   13.5757   -4.7079    0.0000 C   0  0  3  0  0  0           0  0  0
   13.9408   -5.3795    0.0000 C   0  0  0  0  0  0           0  0  0
   13.7571   -3.9205    0.0000 C   0  0  0  0  0  0           0  0  0
   -2.8586   -6.0235    0.0000 C   0  0  0  0  0  0           0  0  0
   -2.1421   -5.6102    0.0000 C   0  0  0  0  0  0           0  0  0
   -2.1450   -4.7796    0.0000 C   0  0  0  0  0  0           0  0  0
   -2.8614   -4.3717    0.0000 C   0  0  0  0  0  0           0  0  0
   -1.4325   -4.3638    0.0000 O   0  0  0  0  0  0           0  0  0
   -0.7161   -4.7729    0.0000 C   0  0  0  0  0  0           0  0  0
   -0.0035   -4.3570    0.0000 C   0  0  0  0  0  0           0  0  0
    0.7129   -4.7661    0.0000 N   0  0  0  0  0  0           0  0  0
   -0.0074   -3.5320    0.0000 O   0  0  0  0  0  0           0  0  0
    1.4254   -4.3503    0.0000 C   0  0  2  0  0  0           0  0  0
    2.1418   -4.7594    0.0000 C   0  0  0  0  0  0           0  0  0
    2.8543   -4.3435    0.0000 N   0  0  0  0  0  0           0  0  0
    2.1457   -5.5844    0.0000 O   0  0  0  0  0  0           0  0  0
    1.4215   -3.5253    0.0000 C   0  0  0  0  0  0           0  0  0
    2.1340   -3.1094    0.0000 C   0  0  0  0  0  0           0  0  0
    2.1301   -2.2844    0.0000 C   0  0  0  0  0  0           0  0  0
    2.8426   -1.8686    0.0000 C   0  0  0  0  0  0           0  0  0
    2.8387   -1.0436    0.0000 N   0  0  0  0  0  0           0  0  0
    3.5707   -4.7527    0.0000 C   0  0  2  0  0  0           0  0  0
    4.2832   -4.3368    0.0000 C   0  0  0  0  0  0           0  0  0
    3.5746   -5.5777    0.0000 C   0  0  3  0  0  0           0  0  0
    2.8621   -5.9935    0.0000 C   0  0  0  0  0  0           0  0  0
    4.2910   -5.9868    0.0000 C   0  0  0  0  0  0           0  0  0
    4.9996   -4.7459    0.0000 N   0  0  0  0  0  0           0  0  0
    4.2793   -3.5118    0.0000 O   0  0  0  0  0  0           0  0  0
    5.7122   -4.3301    0.0000 C   0  0  0  0  0  0           0  0  0
    6.4286   -4.7392    0.0000 C   0  0  0  0  0  0           0  0  0
    7.1411   -4.3233    0.0000 N   0  0  0  0  0  0           0  0  0
    6.4325   -5.5642    0.0000 O   0  0  0  0  0  0           0  0  0
    7.8575   -4.7324    0.0000 C   0  0  2  0  0  0           0  0  0
    8.5700   -4.3166    0.0000 C   0  0  0  0  0  0           0  0  0
    7.8614   -5.5574    0.0000 C   0  0  1  0  0  0           0  0  0
    7.1489   -5.9733    0.0000 C   0  0  0  0  0  0           0  0  0
    8.5778   -5.9665    0.0000 O   0  0  0  0  0  0           0  0  0
    9.2864   -4.7257    0.0000 N   0  0  0  0  0  0           0  0  0
    8.5661   -3.4916    0.0000 O   0  0  0  0  0  0           0  0  0
    9.9989   -4.3098    0.0000 C   0  0  2  0  0  0           0  0  0
   10.7153   -4.7190    0.0000 C   0  0  0  0  0  0           0  0  0
    9.9950   -3.4848    0.0000 C   0  0  0  0  0  0           0  0  0
   11.4279   -4.3031    0.0000 O   0  0  0  0  0  0           0  0  0
   12.1443   -4.7122    0.0000 C   0  0  0  0  0  0           0  0  0
   12.8568   -4.2963    0.0000 N   0  0  0  0  0  0           0  0  0
   12.1482   -5.5372    0.0000 O   0  0  0  0  0  0           0  0  0
   -3.5734   -5.6106    0.0000 C   0  0  0  0  0  0           0  0  0
   -3.5752   -4.7851    0.0000 C   0  0  0  0  0  0           0  0  0
   -4.2900   -4.3757    0.0000 C   0  0  0  0  0  0           0  0  0
   -5.0034   -4.7907    0.0000 C   0  0  0  0  0  0           0  0  0
   -4.9975   -5.6194    0.0000 C   0  0  0  0  0  0           0  0  0
   -4.2822   -6.0251    0.0000 C   0  0  0  0  0  0           0  0  0
 12 13  1  0     0  0
 22 29  1  0     0  0
 13 14  2  0     0  0
 29 30  1  0     0  0
  2  4  1  0     0  0
 29 31  1  6     0  0
 55 14  1  0     0  0
 31 32  1  0     0  0
  3  5  1  0     0  0
 31 33  1  0     0  0
 13 15  1  0     0  0
 30 34  1  0     0  0
  4  6  1  0     0  0
 30 35  2  0     0  0
 15 16  1  0     0  0
 34 36  1  0     0  0
  5  6  1  0     0  0
 36 37  1  0     0  0
 16 17  1  0     0  0
 37 38  1  0     0  0
  7  8  1  0     0  0
 37 39  2  0     0  0
 17 18  1  0     0  0
 40 38  1  6     0  0
  3  7  1  0     0  0
 40 41  1  0     0  0
 17 19  2  0     0  0
 40 42  1  0     0  0
  2  9  1  0     0  0
 42 43  1  0     0  0
 18 20  1  0     0  0
 42 44  1  6     0  0
  6 10  1  0     0  0
 41 45  1  0     0  0
 20 21  1  0     0  0
 41 46  2  0     0  0
 10  8  1  0     0  0
 21 22  1  0     0  0
 45 47  1  0     0  0
  8  9  1  0     0  0
 47 48  1  0     0  0
 21 23  2  0     0  0
 47 49  1  1     0  0
 48 50  1  0     0  0
 20 24  1  1     0  0
 50 51  1  0     0  0
 54 11  1  0     0  0
 51 52  1  0     0  0
 24 25  1  0     0  0
 51 53  2  0     0  0
 52  8  1  0     0  0
  1  2  1  0     0  0
 25 26  1  0     0  0
 54 55  1  0     0  0
 11 12  2  0     0  0
 55 56  2  0     0  0
 26 27  1  0     0  0
 56 57  1  0     0  0
  1  3  1  0     0  0
 57 58  2  0     0  0
 27 28  1  0     0  0
 58 59  1  0     0  0
 59 54  2  0     0  0
M  END