
  SciTegic01161211252D

 60 60  0  0  0  0            999 V2000
   -0.6279  -11.0369    0.0000 N   0  0
    0.0866  -10.6244    0.0000 C   0  0  1  0  0  0
    0.8010  -11.0369    0.0000 C   0  0
    0.0866   -9.7993    0.0000 C   0  0
   -0.6279   -9.3868    0.0000 C   0  0
   -0.6279   -8.5618    0.0000 C   0  0
    0.0866   -8.1493    0.0000 C   0  0
    0.0866   -7.3243    0.0000 N   0  0
    0.8010  -11.8619    0.0000 O   0  0
    1.5155  -10.6244    0.0000 N   0  0
    2.2300  -11.0369    0.0000 C   0  0
    2.9445  -10.6244    0.0000 C   0  0
    3.6590  -11.0369    0.0000 C   0  0
    4.3735  -10.6244    0.0000 C   0  0
    5.0879  -11.0369    0.0000 C   0  0
    5.8024  -10.6244    0.0000 C   0  0
    6.5170  -11.0369    0.0000 N   0  0
    5.8024   -9.7993    0.0000 O   0  0
    7.2314  -10.6244    0.0000 C   0  0  1  0  0  0
    7.9459  -11.0369    0.0000 C   0  0
    7.2314   -9.7993    0.0000 C   0  0
    7.9459   -9.3868    0.0000 C   0  0
    7.9459   -8.5618    0.0000 C   0  0
    7.2314   -8.1493    0.0000 N   0  0
    7.2314   -7.3243    0.0000 C   0  0
    6.5170   -6.9118    0.0000 N   0  0
    7.9459   -6.9118    0.0000 N   0  0
    7.9459  -11.8619    0.0000 O   0  0
    8.6604  -10.6244    0.0000 N   0  0
    9.3748  -11.0369    0.0000 C   0  0  1  0  0  0
   10.0894  -10.6244    0.0000 C   0  0
    9.3748  -11.8619    0.0000 C   0  0
   10.0894  -12.2744    0.0000 C   0  0
   10.0894  -13.0994    0.0000 C   0  0
   10.8039  -13.5119    0.0000 N   0  0
   10.8039  -14.3369    0.0000 C   0  0
   11.5184  -14.7495    0.0000 N   0  0
   10.0894  -14.7495    0.0000 N   0  0
   10.8039  -11.0369    0.0000 N   0  0
   10.0894   -9.7993    0.0000 O   0  0
   -1.3425  -10.6244    0.0000 C   0  0
   -2.0569  -11.0369    0.0000 C   0  0
   -1.3425   -9.7993    0.0000 O   0  0
   -2.0569  -11.8619    0.0000 C   0  0
   -1.3425  -12.2744    0.0000 C   0  0
   -1.3425  -13.0994    0.0000 C   0  0
   -0.6279  -13.5119    0.0000 C   0  0
   -0.6279  -14.3369    0.0000 N   0  0
    0.0866  -14.7495    0.0000 C   0  0
    0.0866  -15.5745    0.0000 O   0  0
    0.8010  -14.3369    0.0000 N   0  0
    1.5155  -14.7495    0.0000 C   0  0
    1.5100  -15.5756    0.0000 C   0  0
    2.2237  -15.9880    0.0000 C   0  0
    2.9392  -15.5755    0.0000 C   0  0
    2.9365  -14.7462    0.0000 C   0  0
    2.2223  -14.3375    0.0000 C   0  0
    3.6542  -15.9870    0.0000 C   0  0
    3.6553  -16.8120    0.0000 O   0  0
    4.3681  -15.5736    0.0000 N   0  0
  7  8  1  0
 30 31  1  0
 15 16  1  0
 30 32  1  1
 32 33  1  0
 16 17  1  0
 33 34  1  0
  3  9  2  0
 34 35  1  0
 16 18  2  0
 35 36  1  0
  4  5  1  0
 36 37  1  0
 17 19  1  0
 36 38  2  0
  3 10  1  0
 31 39  1  0
 19 20  1  0
 31 40  2  0
  2  3  1  0
  1 41  1  0
 19 21  1  6
 41 42  1  0
 10 11  1  0
 41 43  2  0
 21 22  1  0
 42 44  1  0
  5  6  1  0
 44 45  1  0
 22 23  1  0
 45 46  1  0
 11 12  1  0
 46 47  1  0
 23 24  1  0
 47 48  1  0
  1  2  1  0
 48 49  1  0
 24 25  1  0
 49 50  2  0
 12 13  1  0
 49 51  1  0
 25 26  2  0
 51 52  1  0
  6  7  1  0
 52 53  2  0
 25 27  1  0
 53 54  1  0
 13 14  1  0
 54 55  2  0
 20 28  2  0
 55 56  1  0
  2  4  1  6
 56 57  2  0
 57 52  1  0
 20 29  1  0
 55 58  1  0
 14 15  1  0
 58 59  2  0
 29 30  1  0
 58 60  1  0
M  END