
          11280715372D 1   1.00000     0.00000     0

 38 39  0     1  0            999 V2000
    2.6000   -2.8667    0.0000 P   0  0  3  0  0  0           0  0  0
    5.7500   -5.0667    0.0000 C   0  0  0  0  0  0           0  0  0
    6.1000   -4.5917    0.0000 N   0  0  0  0  0  0           0  0  0
    7.0542   -4.1792    0.0000 C   0  0  0  0  0  0           0  0  0
    5.1417   -5.0042    0.0000 C   0  0  1  0  0  0           0  0  0
    6.7000   -4.6542    0.0000 C   0  0  2  0  0  0           0  0  0
    4.7875   -5.4792    0.0000 N   0  0  0  0  0  0           0  0  0
    7.6625   -4.2417    0.0000 N   0  0  0  0  0  0           0  0  0
    4.1875   -5.4167    0.0000 C   0  0  0  0  0  0           0  0  0
    3.2000   -2.7542    0.0000 O   0  0  0  0  0  0           0  0  0
    2.4875   -2.2792    0.0000 O   0  0  0  0  0  0           0  0  0
    9.7042   -4.3167    0.0000 C   0  0  0  0  0  0           0  0  0
    5.9875   -5.6292    0.0000 O   0  0  0  0  0  0           0  0  0
    4.9000   -4.4417    0.0000 C   0  0  0  0  0  0           0  0  0
   10.2500   -4.5667    0.0000 N   0  0  3  0  0  0           0  0  0
    6.8125   -3.6292    0.0000 O   0  0  0  0  0  0           0  0  0
    6.9500   -5.2167    0.0000 C   0  0  0  0  0  0           0  0  0
    3.9417   -4.8667    0.0000 O   0  0  0  0  0  0           0  0  0
    2.0042   -2.9917    0.0000 O   0  0  0  0  0  0           0  0  0
    2.7125   -3.4667    0.0000 O   0  0  0  0  0  0           0  0  0
    9.6500   -3.7292    0.0000 C   0  0  0  0  0  0           0  0  0
    9.2250   -4.6792    0.0000 C   0  0  0  0  0  0           0  0  0
    3.5917   -3.2167    0.0000 C   0  0  0  0  0  0           0  0  0
    4.3792   -4.1417    0.0000 C   0  0  0  0  0  0           0  0  0
    8.0125   -3.7667    0.0000 C   0  0  0  0  0  0           0  0  0
    8.6125   -3.8292    0.0000 C   0  0  0  0  0  0           0  0  0
    9.1000   -3.4792    0.0000 C   0  0  0  0  0  0           0  0  0
    8.6750   -4.4292    0.0000 C   0  0  0  0  0  0           0  0  0
    4.5750   -3.5667    0.0000 C   0  0  0  0  0  0           0  0  0
    3.7875   -4.2417    0.0000 C   0  0  0  0  0  0           0  0  0
    4.1792   -3.1167    0.0000 C   0  0  0  0  0  0           0  0  0
    3.3917   -3.7917    0.0000 C   0  0  0  0  0  0           0  0  0
    7.3125   -5.6792    0.0000 C   0  0  3  0  0  0           0  0  0
    3.8375   -5.8917    0.0000 C   0  0  0  0  0  0           0  0  0
   10.3125   -5.1667    0.0000 C   0  0  0  0  0  0           0  0  0
   10.7375   -4.2167    0.0000 C   0  0  0  0  0  0           0  0  0
    7.9125   -5.7542    0.0000 C   0  0  0  0  0  0           0  0  0
    7.0917   -6.2417    0.0000 C   0  0  0  0  0  0           0  0  0
  2  5  1  0     0  0
  3  2  1  0     0  0
  4  6  1  0     0  0
  5 14  1  1     0  0
  6  3  1  0     0  0
  7  5  1  0     0  0
  8  4  1  0     0  0
  9  7  1  0     0  0
 10  1  1  0     0  0
 11  1  2  0     0  0
 12 22  1  0     0  0
 13  2  2  0     0  0
 14 24  1  0     0  0
 15 12  1  0     0  0
 16  4  2  0     0  0
  6 17  1  6     0  0
 18  9  2  0     0  0
 19  1  1  0     0  0
 20  1  1  0     0  0
 21 27  1  0     0  0
 22 28  2  0     0  0
 23 10  1  0     0  0
 24 30  2  0     0  0
 25  8  1  0     0  0
 26 25  1  0     0  0
 27 26  2  0     0  0
 28 26  1  0     0  0
 29 31  2  0     0  0
 30 32  1  0     0  0
 31 23  1  0     0  0
 32 23  2  0     0  0
 33 17  1  0     0  0
 34  9  1  0     0  0
 35 15  1  0     0  0
 36 15  1  0     0  0
 37 33  1  0     0  0
 38 33  1  0     0  0
 24 29  1  0     0  0
 12 21  2  0     0  0
M  END