
  CDK    9/16/09,10:2

 54 54  0  0  0  0  0  0  0  0999 V2000
    7.7774   -2.3621    0.0000 C   0  0  0  0  0  0  0  0  0  0  0  0
    8.5106   -3.5895    0.0000 O   0  0  0  0  0  0  0  0  0  0  0  0
    8.4983   -2.7658    0.0000 C   0  0  0  0  0  0  0  0  0  0  0  0
    7.7651   -1.5369    0.0000 C   0  0  0  0  0  0  0  0  0  0  0  0
    8.4745   -1.1115    0.0000 C   0  0  0  0  0  0  0  0  0  0  0  0
    8.4623   -0.2889    0.0000 C   0  0  0  0  0  0  0  0  0  0  0  0
    9.1677    0.1342    0.0000 O   0  0  0  0  0  0  0  0  0  0  0  0
    9.9241   -2.7424    0.0000 C   0  0  0  0  0  0  0  0  0  0  0  0
   10.6133   -1.4987    0.0000 O   0  0  0  0  0  0  0  0  0  0  0  0
   10.6264   -2.3211    0.0000 C   0  0  0  0  0  0  0  0  0  0  0  0
   12.0559   -2.2970    0.0000 C   0  0  0  0  0  0  0  0  0  0  0  0
   12.7889   -3.5278    0.0000 O   0  0  0  0  0  0  0  0  0  0  0  0
   12.7805   -2.6998    0.0000 C   0  0  0  0  0  0  0  0  0  0  0  0
   12.0431   -1.4748    0.0000 C   0  0  0  0  0  0  0  0  0  0  0  0
   12.7556   -1.0476    0.0000 C   0  0  0  0  0  0  0  0  0  0  0  0
   12.7428   -0.2254    0.0000 C   0  0  0  0  0  0  0  0  0  0  0  0
   13.4730   -1.4546    0.0000 C   0  0  0  0  0  0  0  0  0  0  0  0
   14.2054   -2.6799    0.0000 C   0  0  0  0  0  0  0  0  0  0  0  0
   14.8900   -1.4352    0.0000 O   0  0  0  0  0  0  0  0  0  0  0  0
   14.9057   -2.2600    0.0000 C   0  0  0  0  0  0  0  0  0  0  0  0
   14.2210   -3.5037    0.0000 C   0  0  0  0  0  0  0  0  0  0  0  0
    5.6416   -2.8044    0.0000 C   0  0  0  0  0  0  0  0  0  0  0  0
    6.3487   -2.3804    0.0000 C   0  0  0  0  0  0  0  0  0  0  0  0
    6.3364   -1.5548    0.0000 O   0  0  0  0  0  0  0  0  0  0  0  0
    5.6539   -3.6312    0.0000 C   0  0  0  0  0  0  0  0  0  0  0  0
    6.3731   -4.0297    0.0000 C   0  0  0  0  0  0  0  0  0  0  0  0
    6.3779   -4.8572    0.0000 C   0  0  0  0  0  0  0  0  0  0  0  0
    7.1068   -5.2590    0.0000 C   0  0  0  0  0  0  0  0  0  0  0  0
    7.8137   -4.8346    0.0000 C   0  0  0  0  0  0  0  0  0  0  0  0
    7.7964   -4.0046    0.0000 C   0  0  0  0  0  0  0  0  0  0  0  0
    7.0744   -3.6073    0.0000 C   0  0  0  0  0  0  0  0  0  0  0  0
    8.5344   -5.2341    0.0000 O   0  0  0  0  0  0  0  0  0  0  0  0
    8.5467   -6.0601    0.0000 P   0  0  0  0  0  0  0  0  0  0  0  0
    7.7249   -6.0723    0.0000 O   0  0  0  0  0  0  0  0  0  0  0  0
    7.0683   -2.7838    0.0000 N   0  0  0  0  0  0  0  0  0  0  0  0
    7.7433    0.1143    0.0000 N   0  0  0  0  0  0  0  0  0  0  0  0
    9.2044   -2.3390    0.0000 N   0  0  0  0  0  0  0  0  0  0  0  0
   11.3484   -2.7213    0.0000 N   0  0  0  0  0  0  0  0  0  0  0  0
   13.4881   -2.2754    0.0000 N   0  0  0  0  0  0  0  0  0  0  0  0
   14.9460   -3.9096    0.0000 O   0  0  0  0  0  0  0  0  0  0  0  0
   15.6333   -2.6618    0.0000 N   0  0  0  0  0  0  0  0  0  0  0  0
    4.9219   -2.4010    0.0000 N   0  0  0  0  0  0  0  0  0  0  0  0
    8.5593   -6.8839    0.0000 O   0  0  0  0  0  0  0  0  0  0  0  0
    9.3777   -6.0474    0.0000 O   0  0  0  0  0  0  0  0  0  0  0  0
   -0.0788   -3.6472    0.0000 C   0  0  0  0  0  0  0  0  0  0  0  0
   -0.0788   -2.8204    0.0000 C   0  0  0  0  0  0  0  0  0  0  0  0
   -0.7949   -2.4096    0.0000 O   0  0  0  0  0  0  0  0  0  0  0  0
    0.6351   -2.4069    0.0000 N   0  0  0  0  0  0  0  0  0  0  0  0
    1.3501   -2.8185    0.0000 C   0  0  0  0  0  0  0  0  0  0  0  0
    2.0640   -2.4050    0.0000 C   0  0  0  0  0  0  0  0  0  0  0  0
    2.7791   -2.8165    0.0000 C   0  0  0  0  0  0  0  0  0  0  0  0
    3.4930   -2.4030    0.0000 C   0  0  0  0  0  0  0  0  0  0  0  0
    4.2080   -2.8145    0.0000 C   0  0  0  0  0  0  0  0  0  0  0  0
    4.2092   -3.6395    0.0000 O   0  0  0  0  0  0  0  0  0  0  0  0
 37  8  1  0  0  0  0 
  3 37  1  0  0  0  0 
 20 41  1  0  0  0  0 
 42 22  1  0  0  0  0 
 38 11  1  0  0  0  0 
 10 38  1  0  0  0  0 
 33 43  1  0  0  0  0 
  6 36  1  0  0  0  0 
 33 44  1  0  0  0  0 
 39 18  1  0  0  0  0 
 13 39  1  0  0  0  0 
  6  7  2  0  0  0  0 
  8 10  1  0  0  0  0 
 10  9  2  0  0  0  0 
 11 13  1  0  0  0  0 
 13 12  2  0  0  0  0 
 11 14  1  1  0  0  0 
 14 15  1  0  0  0  0 
 15 16  1  0  0  0  0 
 15 17  1  0  0  0  0 
 18 20  1  0  0  0  0 
 20 19  2  0  0  0  0 
 18 21  1  6  0  0  0 
 22 23  1  0  0  0  0 
 23 24  2  0  0  0  0 
 22 25  1  6  0  0  0 
 25 26  1  0  0  0  0 
 26 27  2  0  0  0  0 
 27 28  1  0  0  0  0 
 28 29  2  0  0  0  0 
 29 30  1  0  0  0  0 
 30 31  2  0  0  0  0 
 31 26  1  0  0  0  0 
 29 32  1  0  0  0  0 
 32 33  1  0  0  0  0 
 33 34  2  0  0  0  0 
  1  3  1  0  0  0  0 
 45 46  1  0  0  0  0 
 46 47  2  0  0  0  0 
  3  2  2  0  0  0  0 
 46 48  1  0  0  0  0 
  1  4  1  1  0  0  0 
 48 49  1  0  0  0  0 
  4  5  1  0  0  0  0 
 49 50  1  0  0  0  0 
  5  6  1  0  0  0  0 
 50 51  1  0  0  0  0 
 23 35  1  0  0  0  0 
 51 52  1  0  0  0  0 
 35  1  1  0  0  0  0 
 52 53  1  0  0  0  0 
 53 42  1  0  0  0  0 
 21 40  1  0  0  0  0 
 53 54  2  0  0  0  0 
M  END