
          08180812472D 1   1.00000     0.00000     0

 26 29  0     1  0            999 V2000
    3.6689  -16.7445    0.0000 C   0  0  0  0  0  0           0  0  0
    3.6689  -15.9192    0.0000 C   0  0  0  0  0  0           0  0  0
    4.3832  -15.5066    0.0000 C   0  0  0  0  0  0           0  0  0
    2.9545  -17.1572    0.0000 O   0  0  0  0  0  0           0  0  0
    4.3832  -17.1572    0.0000 C   0  0  0  0  0  0           0  0  0
    5.0976  -16.7445    0.0000 C   0  0  2  0  0  0           0  0  0
    5.8120  -17.1572    0.0000 C   0  0  2  0  0  0           0  0  0
    6.5264  -16.7445    0.0000 C   0  0  0  0  0  0           0  0  0
    6.5264  -15.9192    0.0000 C   0  0  1  0  0  0           0  0  0
    7.2408  -15.5066    0.0000 C   0  0  2  0  0  0           0  0  0
    8.0262  -15.7666    0.0000 C   0  0  0  0  0  0           0  0  0
    8.5138  -15.0939    0.0000 C   0  0  0  0  0  0           0  0  0
    8.0262  -14.4305    0.0000 C   0  0  2  0  0  0           0  0  0
    8.2817  -13.6450    0.0000 O   0  0  0  0  0  0           0  0  0
    7.2408  -14.6813    0.0000 C   0  0  2  0  0  0           0  0  0
    7.2408  -13.8560    0.0000 C   0  0  0  0  0  0           0  0  0
    6.5264  -14.2686    0.0000 C   0  0  0  0  0  0           0  0  0
    5.8120  -14.6813    0.0000 C   0  0  0  0  0  0           0  0  0
    5.8120  -15.5066    0.0000 C   0  0  2  0  0  0           0  0  0
    5.0976  -15.9192    0.0000 C   0  0  1  0  0  0           0  0  0
    5.0976  -15.0939    0.0000 C   0  0  0  0  0  0           0  0  0
    5.0976  -17.5698    0.0000 H   0  0  0  0  0  0           0  0  0
    5.8120  -16.3319    0.0000 H   0  0  0  0  0  0           0  0  0
    6.5264  -15.0939    0.0000 H   0  0  0  0  0  0           0  0  0
    7.2408  -16.3319    0.0000 H   0  0  0  0  0  0           0  0  0
    5.8120  -17.9825    0.0000 F   0  0  0  0  0  0           0  0  0
  1  2  1  0     0  0
  2  3  1  0     0  0
  1  4  2  0     0  0
  1  5  1  0     0  0
  5  6  1  0     0  0
  6  7  1  0     0  0
  7  8  1  0     0  0
  8  9  1  0     0  0
  9 10  1  0     0  0
 10 11  1  0     0  0
 11 12  1  0     0  0
 12 13  1  0     0  0
 13 14  1  1     0  0
 13 15  1  0     0  0
 10 15  1  0     0  0
 15 16  1  1     0  0
 15 17  1  0     0  0
 17 18  1  0     0  0
 18 19  1  0     0  0
  9 19  1  0     0  0
 19 20  1  0     0  0
  3 20  1  0     0  0
  6 20  1  0     0  0
 20 21  1  1     0  0
  6 22  1  6     0  0
 19 23  1  6     0  0
  9 24  1  1     0  0
 10 25  1  6     0  0
  7 26  1  6     0  0
M  END