
  SciTegic12231509382D

 19 21  0  0  0  0            999 V2000
    0.0000   -0.4191    0.0000 C   0  0
    0.4092   -0.9082    0.0000 C   0  0  2  0  0  0
    1.6168    0.0000    0.0000 N   0  0
    1.2275   -0.7785    0.0000 C   0  0
    0.0000    0.4191    0.0000 C   0  0
   -0.8184   -0.8384    0.0000 C   0  0
    0.1197   -1.6809    0.0000 C   0  0
    0.4292    0.9281    0.0000 C   0  0
   -0.8184    0.8384    0.0000 C   0  0
    1.2375    0.7685    0.0000 C   0  0
   -1.5569   -0.4191    0.0000 C   0  0
   -1.5569    0.4191    0.0000 C   0  0
   -2.1271   -0.7512    0.0000 O   0  0
    2.2766   -0.0017    0.0000 C   0  0
    0.6459   -2.3163    0.0000 C   0  0
   -0.6934   -1.8192    0.0000 C   0  0
   -0.9804   -2.5924    0.0000 C   0  0
    0.3588   -3.0895    0.0000 C   0  0
   -0.4543   -3.2276    0.0000 C   0  0
  1  2  1  0
  2  4  1  0
  3  4  1  0
  1  5  1  0
  1  6  2  0
  2  7  1  6
  5  8  1  0
  5  9  2  0
  3 10  1  0
  8 10  1  0
  6 11  1  0
  9 12  1  0
 11 12  2  0
 11 13  1  0
  3 14  1  0
  7 15  1  0
  7 16  2  0
 16 17  1  0
 15 18  2  0
 17 19  2  0
 18 19  1  0
M  END